#       Name:                AV-unprocessed.smi:1543
#       Creating user name   scv26
#       Creation time:       Fri Mar 27 06:38:09 2020


#       File generated by GOLD software.
#

@<TRIPOS>MOLECULE
AV-unprocessed.smi:1543
    54    55     1
SMALL
NO_CHARGES


@<TRIPOS>ATOM
      1 ****        -4.5795  -0.6637  -3.1581 C.3            1 S1                 0.0000
      2 ****        -3.9899   0.0581  -1.9413 C.3            1 S1                 0.0000
      3 ****        -2.4531  -0.0359  -1.8972 C.3            1 S1                 0.0000
      4 ****        -1.9221   0.6206  -0.6694 N.4            1 S1                 1.0000
      5 ****        -0.4230   0.7655  -0.5963 C.3            1 S1                 0.0000
      6 ****         0.0931   1.5295  -1.8416 C.3            1 S1                 0.0000
      7 ****        -0.0511   1.6405   0.6275 C.3            1 S1                 0.0000
      8 ****         0.2765  -0.6247  -0.5073 C.3            1 S1                 0.0000
      9 ****         1.7362  -0.5420  -0.4709 N.am           1 S1                 0.0000
     10 ****         2.4954  -0.6320   0.6306 C.2            1 S1                 0.0000
     11 ****         2.0347  -0.7912   1.7606 O.2            1 S1                 0.0000
     12 ****         3.8015  -0.5381   0.3288 N.am           1 S1                 0.0000
     13 ****         4.9169  -0.5644   1.2091 C.ar           1 S1                 0.0000
     14 ****         4.8513  -0.2564   2.5898 C.ar           1 S1                 0.0000
     15 ****         6.0337  -0.3013   3.3530 C.ar           1 S1                 0.0000
     16 ****         7.2379  -0.6448   2.7087 C.ar           1 S1                 0.0000
     17 ****         7.3177  -0.9272   1.3914 N.ar           1 S1                 0.0000
     18 ****         6.1802  -0.8809   0.6657 C.ar           1 S1                 0.0000
     19 ****        -2.5767   0.0279   0.5316 C.3            1 S1                 0.0000
     20 ****        -4.1096   0.1225   0.4168 C.3            1 S1                 0.0000
     21 ****        -4.8211  -0.5340   1.6053 C.3            1 S1                 0.0000
     22 ****        -4.5276  -0.5405  -0.7692 O.3            1 S1                 0.0000
     23 ****        -4.2094  -0.2323  -4.0886 H              1 S1                 0.0000
     24 ****        -5.6670  -0.5867  -3.1670 H              1 S1                 0.0000
     25 ****        -4.3210  -1.7228  -3.1534 H              1 S1                 0.0000
     26 ****        -4.2927   1.1059  -1.9819 H              1 S1                 0.0000
     27 ****        -2.1503  -1.0830  -1.9237 H              1 S1                 0.0000
     28 ****        -2.0656   0.4340  -2.7991 H              1 S1                 0.0000
     29 ****         1.1328   1.8370  -1.7245 H              1 S1                 0.0000
     30 ****        -0.4879   2.4344  -2.0230 H              1 S1                 0.0000
     31 ****         0.0598   0.9207  -2.7449 H              1 S1                 0.0000
     32 ****         0.9941   1.9503   0.6020 H              1 S1                 0.0000
     33 ****        -0.1859   1.1127   1.5713 H              1 S1                 0.0000
     34 ****        -0.6500   2.5513   0.6627 H              1 S1                 0.0000
     35 ****        -0.0785  -1.1882   0.3559 H              1 S1                 0.0000
     36 ****         0.0290  -1.2310  -1.3779 H              1 S1                 0.0000
     37 ****         2.2039  -0.4153  -1.3566 H              1 S1                 0.0000
     38 ****         4.0295  -0.4953  -0.6538 H              1 S1                 0.0000
     39 ****         3.9292   0.0256   3.0734 H              1 S1                 0.0000
     40 ****         6.0180  -0.0730   4.4084 H              1 S1                 0.0000
     41 ****         8.1624  -0.6878   3.2651 H              1 S1                 0.0000
     42 ****         6.2830  -1.1086  -0.3853 H              1 S1                 0.0000
     43 ****        -2.2856  -1.0170   0.6416 H              1 S1                 0.0000
     44 ****        -2.2784   0.5423   1.4430 H              1 S1                 0.0000
     45 ****        -4.4113   1.1706   0.3698 H              1 S1                 0.0000
     46 ****        -4.5433  -0.0540   2.5440 H              1 S1                 0.0000
     47 ****        -4.5689  -1.5920   1.6833 H              1 S1                 0.0000
     48 ****        -5.9037  -0.4571   1.5019 H              1 S1                 0.0000
     49 ****        -2.2646   1.5699  -0.7121 H              1 S1                 0.0000
     50 ****         1.0458  -0.8602   1.8923 LP             1 S1                 0.0000
     51 ****         2.6493  -0.8515   2.5472 LP             1 S1                 0.0000
     52 ****         8.1916  -1.1632   0.9664 LP             1 S1                 0.0000
     53 ****        -4.2267  -1.4932  -0.7279 LP             1 S1                 0.0000
     54 ****        -5.5257  -0.5081  -0.8207 LP             1 S1                 0.0000
@<TRIPOS>BOND
    1    1    2 1     
    2    1   23 1     
    3    1   24 1     
    4    1   25 1     
    5    2   22 1     
    6    2    3 1     
    7    2   26 1     
    8    3    4 1     
    9    3   27 1     
   10    3   28 1     
   11    4    5 1     
   12    4   19 1     
   13    4   49 1     
   14    5    6 1     
   15    5    7 1     
   16    5    8 1     
   17    6   29 1     
   18    6   30 1     
   19    6   31 1     
   20    7   32 1     
   21    7   33 1     
   22    7   34 1     
   23    8    9 1     
   24    8   35 1     
   25    8   36 1     
   26    9   10 am    
   27    9   37 1     
   28   10   11 2     
   29   10   12 am    
   30   12   13 1     
   31   12   38 1     
   32   13   18 ar    
   33   13   14 ar    
   34   14   15 ar    
   35   14   39 1     
   36   15   16 ar    
   37   15   40 1     
   38   16   17 ar    
   39   16   41 1     
   40   17   18 ar    
   41   18   42 1     
   42   19   20 1     
   43   19   43 1     
   44   19   44 1     
   45   20   21 1     
   46   20   22 1     
   47   20   45 1     
   48   21   46 1     
   49   21   47 1     
   50   21   48 1     
   51   11   50 1     
   52   11   51 1     
   53   17   52 1     
   54   22   53 1     
   55   22   54 1     
@<TRIPOS>SUBSTRUCTURE
      1 S1             1
@<TRIPOS>SET
LONE_PAIRS      STATIC     ATOMS    <user>   **** ""
5 50 51 52 53 54
DONOR_HYDROGENS      STATIC     ATOMS    <user>   **** ""
3 49 37 38
ATOM$BLUE        STATIC     ATOMS    COLORGROUP SYSTEM
5 50 51 52 53 54
ATOM$RED        STATIC     ATOMS    COLORGROUP SYSTEM
3 49 37 38
