AV-unprocessed.smi:2845|AV-procd|sdf|10943|dock3
  -GOLD-   2272015393D 1   1.00000     0.00000
 Structure written by MMmdl.
 42 44  0  0  0  0  0  0  0  0  1 V2000
  153.3552  142.5873  161.4360 C   0  0  0  0  0  0  0  0  0  0  0  0
  152.6765  142.2828  160.1121 C   0  0  0  0  0  0  0  0  0  0  0  0
  152.7783  140.9815  159.5711 C   0  0  0  0  0  0  0  0  0  0  0  0
  152.1617  140.6575  158.3428 C   0  0  0  0  0  0  0  0  0  0  0  0
  152.1338  139.4661  157.6382 N   0  0  0  0  0  0  0  0  0  0  0  0
  151.4043  139.7995  156.5776 C   0  0  0  0  0  0  0  0  0  0  0  0
  150.9571  141.0680  156.5103 N   0  0  0  0  0  0  0  0  0  0  0  0
  150.1520  141.6528  155.4528 C   0  0  0  0  0  0  0  0  0  0  0  0
  149.3061  140.6022  154.7098 C   0  0  2  0  0  0  0  0  0  0  0  0
  150.1191  139.8984  153.7894 O   0  0  0  0  0  0  0  0  0  0  0  0
  148.1138  141.2411  153.9726 C   0  0  0  0  0  0  0  0  0  0  0  0
  147.2198  141.9524  154.8692 N   0  0  0  0  0  0  0  0  0  0  0  0
  146.1139  142.6571  154.6120 C   0  0  0  0  0  0  0  0  0  0  0  0
  145.5373  143.1701  155.6910 N   0  0  0  0  0  0  0  0  0  0  0  0
  146.4035  142.7032  156.6362 C   0  0  0  0  0  0  0  0  0  0  0  0
  146.1599  143.0627  158.4040 S   0  0  1  0  0  0  0  0  0  0  0  0
  144.4515  143.7602  158.2154 C   0  0  0  0  0  0  0  0  0  0  0  0
  146.0158  141.7057  159.0960 O   0  0  0  0  0  0  0  0  0  0  0  0
  147.4250  141.9642  156.2076 N   0  0  0  0  0  0  0  0  0  0  0  0
  151.4347  141.6794  157.6646 C   0  0  0  0  0  0  0  0  0  0  0  0
  151.3275  142.9783  158.1920 C   0  0  0  0  0  0  0  0  0  0  0  0
  151.9490  143.2848  159.4207 C   0  0  0  0  0  0  0  0  0  0  0  0
  151.8268  144.6901  159.9822 C   0  0  0  0  0  0  0  0  0  0  0  0
  153.8692  141.7105  161.8311 H   0  0  0  0  0  0  0  0  0  0  0  0
  152.6217  142.9064  162.1768 H   0  0  0  0  0  0  0  0  0  0  0  0
  154.0929  143.3806  161.3137 H   0  0  0  0  0  0  0  0  0  0  0  0
  153.3333  140.2186  160.0968 H   0  0  0  0  0  0  0  0  0  0  0  0
  151.1827  139.0805  155.8021 H   0  0  0  0  0  0  0  0  0  0  0  0
  149.5046  142.4092  155.8985 H   0  0  0  0  0  0  0  0  0  0  0  0
  150.8100  142.1776  154.7587 H   0  0  0  0  0  0  0  0  0  0  0  0
  148.9269  139.8794  155.4339 H   0  0  0  0  0  0  0  0  0  0  0  0
  149.7088  139.9319  152.9385 H   0  0  0  0  0  0  0  0  0  0  0  0
  148.4717  141.9503  153.2252 H   0  0  0  0  0  0  0  0  0  0  0  0
  147.5474  140.4792  153.4341 H   0  0  0  0  0  0  0  0  0  0  0  0
  145.7246  142.7990  153.6144 H   0  0  0  0  0  0  0  0  0  0  0  0
  144.3219  144.2215  157.2360 H   0  0  0  0  0  0  0  0  0  0  0  0
  144.2706  144.5166  158.9788 H   0  0  0  0  0  0  0  0  0  0  0  0
  143.7084  142.9709  158.3284 H   0  0  0  0  0  0  0  0  0  0  0  0
  150.7730  143.7329  157.6537 H   0  0  0  0  0  0  0  0  0  0  0  0
  151.2459  145.3337  159.3209 H   0  0  0  0  0  0  0  0  0  0  0  0
  152.8124  145.1395  160.1051 H   0  0  0  0  0  0  0  0  0  0  0  0
  151.3302  144.6720  160.9525 H   0  0  0  0  0  0  0  0  0  0  0  0
  1  2  1  0  0  0  0
  1 24  1  0  0  0  0
  1 25  1  0  0  0  0
  1 26  1  0  0  0  0
  2 22  1  0  0  0  0
  2  3  2  0  0  0  0
  3  4  1  0  0  0  0
  3 27  1  0  0  0  0
  4 20  2  0  0  0  0
  4  5  1  0  0  0  0
  5  6  2  0  0  0  0
  6  7  1  0  0  0  0
  6 28  1  0  0  0  0
  7  8  1  0  0  0  0
  7 20  1  0  0  0  0
  8  9  1  0  0  0  0
  8 29  1  0  0  0  0
  8 30  1  0  0  0  0
  9 10  1  0  0  0  0
  9 11  1  0  0  0  0
  9 31  1  0  0  0  0
 10 32  1  0  0  0  0
 11 12  1  0  0  0  0
 11 33  1  0  0  0  0
 11 34  1  0  0  0  0
 12 19  1  0  0  0  0
 12 13  1  0  0  0  0
 13 14  2  0  0  0  0
 13 35  1  0  0  0  0
 14 15  1  0  0  0  0
 15 16  1  0  0  0  0
 15 19  2  0  0  0  0
 16 17  1  0  0  0  0
 16 18  2  0  0  0  0
 17 36  1  0  0  0  0
 17 37  1  0  0  0  0
 17 38  1  0  0  0  0
 20 21  1  0  0  0  0
 21 22  2  0  0  0  0
 21 39  1  0  0  0  0
 22 23  1  0  0  0  0
 23 40  1  0  0  0  0
 23 41  1  0  0  0  0
 23 42  1  0  0  0  0
M  END
> <s_m_source_file>
AV-unprocessed.smi

> <i_m_source_file_index>
2845

> <i_lp_mmshare_version>
43012

> <i_f3d_flags>
0

> <s_epik_input>
W0NIM11jKFtjSF0xKWMoW0NIM10pW2NIXWMoYzEyKW4oW2NIXW4yKVtDSDJdW0NASF0oW09IXSlbQ0gyXW4zW2NIXW5jKG4zKVtTQF0oPU8pW0NIM10=

> <s_epik_cmdline>
J2VwaWtfcHl0aG9uJywgJy1waCcsICc3LjAnLCAnLXRuJywgJzgnLCAnLW1hJywgJzIwMCcsICctbWV0YWxfYmluZGluZycsICctaW1hZScsICc8aW5maWxlLm1hZT4nLCAnLW9tYWUnLCAnPG91dGZpbGUubWFlPic=

> <r_lp_tautomer_probability>
1

> <r_epik_Ionization_Penalty>
0.0968684

> <r_epik_Ionization_Penalty_Charging>
0

> <r_epik_Ionization_Penalty_Neutral>
0.0968684

> <r_epik_State_Penalty>
0.0870047

> <r_epik_Charging_Adjusted_Penalty>
0.0870047

> <i_epik_Tot_Q>
0

> <i_epik_Tot_abs_Q>
0

> <r_epik_Metal_State_Penalty>
0.0746849

> <b_epik_Metal_Only>
0

> <s_lp_Force_Field>
OPLS_2005

> <r_lp_Energy>
9.4381

> <b_lp_Chiralities_Consistent>
1

> <s_lp_Variant>
AV-unprocessed.smi:2845-1

> <Gold.Version>
5.8.1

> <Gold.Id.Protein>
6NUR|6NUR_protein|mol2

> <Gold.PLP.Fitness>
55.0100

> <Gold.PLP.PLP>
-47.7180

> <Gold.PLP.part.hbond>
-3.0000

> <Gold.PLP.part.metal>
0.0000

> <Gold.PLP.part.buried>
-5.8287

> <Gold.PLP.part.nonpolar>
-38.4222

> <Gold.PLP.part.repulsive>
0.4173

> <Gold.PLP.ligand.clash>
0.0000

> <Gold.PLP.ligand.torsion>
1.1315

> <Gold.PLP.Chemscore.Hbond>
2.8400

> <Gold.PLP.Chemscore.CHOScore>
0.0000

> <Gold.PLP.Chemscore.Metal>
0.0000

> <Gold.Chemscore.Hbonds>
donor molecule, donor type, donor heavy atom, donor atom, acceptor molecule, acceptor atom, score
      L1  H    10    32       P1  7957  1.00
      P1  H  6934  6946       L1    18  0.93
      P1  H  7989  7998       L1    10  0.86

> <Gold.PLP.Chemscore.Internal.Correction>
1.0350

> <Gold.Rescore>
     Score         DG    S(hbond)    S(metal)    S(lipo)     H(rot)  DE(clash)    DE(int)     intcor
     15.14     -17.71       2.16        0.00     102.05       2.71       0.02       2.54       ----

> <Gold.Chemscore.Fitness>
15.1420

> <Gold.Chemscore.DG>
-17.7099

> <Gold.Chemscore.ZeroCoef>
-5.4800

> <Gold.Chemscore.Hbond>
2.1647

> <Gold.Chemscore.Metal>
0.0000

> <Gold.Chemscore.Lipo>
102.0461

> <Gold.Chemscore.Internal_Hbond>
0.0000

> <Gold.Chemscore.DEClash>
0.0243

> <Gold.Chemscore.DEInternal>
2.5435

> <Gold.Chemscore.Rot>
2.7108

> <Gold.Chemscore.Internal.Correction>
   9.000000E+99

> <Gold.Chemscore.Hbonds>
donor molecule, donor type, donor heavy atom, donor atom, acceptor molecule, acceptor atom, score
      L1  H    10    32       P1  7957  0.99
      P1  H  6934  6946       L1    18  0.85
      P1  H  7989  7998       L1    10  0.15

> <Gold.Chemscore.Hbond.Weighted>
-7.2302

> <Gold.Chemscore.Metal.Weighted>
-0.0000

> <Gold.Chemscore.Lipo.Weighted>
-11.9394

> <Gold.Chemscore.Internal_Hbond.Weighted>
0.0000

> <Gold.Chemscore.DEClash.Weighted>
0.0243

> <Gold.Chemscore.DEInternal.Weighted>
2.5435

> <Gold.Chemscore.Rot.Weighted>
6.9396

> <Gold.Chemscore.Internal.Correction.Weighted>
   9.000000E+99

> <Gold.Protein.RotatedTorsions>
[ 6907 6896 6895 6894 ] final -168.61 input  -60.11 | X-H torsion
[ 7974 7965 7964 7962 ] final   43.49 input  175.53 | X-H torsion
[ 8008 7997 7996 7995 ] final  -52.92 input   59.86 | X-H torsion
[ 10167 10162 10161 10158 ] final  127.38 input  -65.29 | X-H torsion
[ 10718 10713 10712 10709 ] final -113.64 input   66.30 | X-H torsion
[ 10763 10752 10751 10750 ] final  115.50 input  -60.55 | X-H torsion
[ 11005 11000 10999 10996 ] final  -38.65 input  -57.11 | X-H torsion

> <Gold.Protein.ActiveResidues>
 VAL166  LYS551  ARG553  GLY616  TRP617  ASP618  TYR619  PRO620  LYS621  CYS622 
 ASP623  PHE694  ASN695  SER759  ASP760  ASP761  ALA762  ILE779  LEU786  VAL792 
 PHE793  MET794  SER795  GLU796  ALA797  LYS798  CYS799  TRP800  GLU811  SER814 

> <Gold.Protein.RotatedAtoms>
  151.4784  133.3552  159.2834 H   0  0  0  0  0  0  0  0  0  0  0  0  # atno 6907 bound_to 6896
  150.8914  134.8320  159.7307 H   0  0  0  0  0  0  0  0  0  0  0  0  # atno 6908 bound_to 6896
  152.4825  134.4694  159.9682 H   0  0  0  0  0  0  0  0  0  0  0  0  # atno 6909 bound_to 6896
  146.0651  139.5180  142.9634 H   0  0  0  0  0  0  0  0  0  0  0  0  # atno 7974 bound_to 7965
  154.4119  140.1212  156.5070 H   0  0  0  0  0  0  0  0  0  0  0  0  # atno 8008 bound_to 7997
  155.6838  140.3496  155.4846 H   0  0  0  0  0  0  0  0  0  0  0  0  # atno 8009 bound_to 7997
  155.9528  140.1108  157.0952 H   0  0  0  0  0  0  0  0  0  0  0  0  # atno 8010 bound_to 7997
  139.5581  144.6863  151.4122 H   0  0  0  0  0  0  0  0  0  0  0  0  # atno 10167 bound_to 10162
  156.0779  130.5984  150.8669 H   0  0  0  0  0  0  0  0  0  0  0  0  # atno 10718 bound_to 10713
  153.5232  135.3593  155.2641 H   0  0  0  0  0  0  0  0  0  0  0  0  # atno 10763 bound_to 10752
  154.8733  135.4050  154.3236 H   0  0  0  0  0  0  0  0  0  0  0  0  # atno 10764 bound_to 10752
  153.3910  135.7072  153.6562 H   0  0  0  0  0  0  0  0  0  0  0  0  # atno 10765 bound_to 10752
  141.0043  133.6939  156.2082 H   0  0  0  0  0  0  0  0  0  0  0  0  # atno 11005 bound_to 11000
  145.6492  141.0267  143.1769 LP  0  0  0  0  0  0  0  0  0  0  0  0  # atno 17320 bound_to 7965
  144.7197  139.8072  143.7386 LP  0  0  0  0  0  0  0  0  0  0  0  0  # atno 17321 bound_to 7965
  140.6857  143.7979  150.7183 LP  0  0  0  0  0  0  0  0  0  0  0  0  # atno 17342 bound_to 10162
  140.1446  143.4411  152.2171 LP  0  0  0  0  0  0  0  0  0  0  0  0  # atno 17343 bound_to 10162
  157.5883  131.0945  150.9160 LP  0  0  0  0  0  0  0  0  0  0  0  0  # atno 17370 bound_to 10713
  156.9341  130.5360  149.5279 LP  0  0  0  0  0  0  0  0  0  0  0  0  # atno 17371 bound_to 10713
  140.6838  134.4739  157.5589 LP  0  0  0  0  0  0  0  0  0  0  0  0  # atno 17394 bound_to 11000
  139.9055  134.8458  156.1723 LP  0  0  0  0  0  0  0  0  0  0  0  0  # atno 17395 bound_to 11000

$$$$
