AV-unprocessed.smi:1737|AV-procd|sdf|6996|dock8
  -GOLD-   22720 8213D 1   1.00000     0.00000
 Structure written by MMmdl.
 43 44  0  0  0  0  0  0  0  0  2 V2000
  150.9935  144.9763  158.3493 C   0  0  0  0  0  0  0  0  0  0  0  0
  151.4912  143.5865  158.7125 C   0  0  0  0  0  0  0  0  0  0  0  0
  152.6058  143.4544  159.5680 C   0  0  0  0  0  0  0  0  0  0  0  0
  153.0650  142.1688  159.9021 C   0  0  0  0  0  0  0  0  0  0  0  0
  152.3860  141.0625  159.3632 C   0  0  0  0  0  0  0  0  0  0  0  0
  151.3200  141.1799  158.5455 N   0  0  0  0  0  0  0  0  0  0  0  0
  150.8648  142.4135  158.2118 C   0  0  0  0  0  0  0  0  0  0  0  0
  149.7436  142.6119  157.3573 N   0  0  0  0  0  0  0  0  0  0  0  0
  148.8899  141.6935  156.8718 C   0  0  0  0  0  0  0  0  0  0  0  0
  148.9613  140.4798  157.0637 O   0  0  0  0  0  0  0  0  0  0  0  0
  147.9268  142.2685  156.1372 N   0  0  0  0  0  0  0  0  0  0  0  0
  146.8392  141.5617  155.4617 C   0  0  0  0  0  0  0  0  0  0  0  0
  147.2221  141.0388  154.0508 C   0  0  1  0  0  0  0  0  0  0  0  0
  148.7364  140.7408  153.9910 C   0  0  0  0  0  0  0  0  0  0  0  0
  146.3849  139.8705  153.6244 N   0  3  0  0  0  0  0  0  0  0  0  0
  146.9129  139.1876  152.4118 C   0  0  0  0  0  0  0  0  0  0  0  0
  145.9948  138.0321  151.9815 C   0  0  0  0  0  0  0  0  0  0  0  0
  145.8590  137.1093  153.0516 O   0  0  0  0  0  0  0  0  0  0  0  0
  145.2556  137.7144  154.1853 C   0  0  0  0  0  0  0  0  0  0  0  0
  146.1381  138.8664  154.6957 C   0  0  0  0  0  0  0  0  0  0  0  0
  151.5984  145.7513  158.8214 H   0  0  0  0  0  0  0  0  0  0  0  0
  149.9621  145.1106  158.6768 H   0  0  0  0  0  0  0  0  0  0  0  0
  151.0386  145.1277  157.2704 H   0  0  0  0  0  0  0  0  0  0  0  0
  153.1052  144.3257  159.9655 H   0  0  0  0  0  0  0  0  0  0  0  0
  153.9151  142.0339  160.5545 H   0  0  0  0  0  0  0  0  0  0  0  0
  152.7059  140.0573  159.5944 H   0  0  0  0  0  0  0  0  0  0  0  0
  149.5687  143.5702  157.0942 H   0  0  0  0  0  0  0  0  0  0  0  0
  147.9577  143.2707  156.0204 H   0  0  0  0  0  0  0  0  0  0  0  0
  146.5515  140.7265  156.0998 H   0  0  0  0  0  0  0  0  0  0  0  0
  145.9473  142.1889  155.4119 H   0  0  0  0  0  0  0  0  0  0  0  0
  147.0390  141.8502  153.3444 H   0  0  0  0  0  0  0  0  0  0  0  0
  149.3152  141.5520  154.4335 H   0  0  0  0  0  0  0  0  0  0  0  0
  149.0914  140.6397  152.9656 H   0  0  0  0  0  0  0  0  0  0  0  0
  148.9892  139.8261  154.5276 H   0  0  0  0  0  0  0  0  0  0  0  0
  146.9963  139.8821  151.5772 H   0  0  0  0  0  0  0  0  0  0  0  0
  147.9162  138.8091  152.6136 H   0  0  0  0  0  0  0  0  0  0  0  0
  145.0161  138.4045  151.6742 H   0  0  0  0  0  0  0  0  0  0  0  0
  146.4218  137.5141  151.1225 H   0  0  0  0  0  0  0  0  0  0  0  0
  144.2554  138.0718  153.9343 H   0  0  0  0  0  0  0  0  0  0  0  0
  145.1365  136.9609  154.9641 H   0  0  0  0  0  0  0  0  0  0  0  0
  147.0907  138.4774  155.0586 H   0  0  0  0  0  0  0  0  0  0  0  0
  145.6268  139.3180  155.5447 H   0  0  0  0  0  0  0  0  0  0  0  0
  145.4802  140.2457  153.3774 H   0  0  0  0  0  0  0  0  0  0  0  0
  1  2  1  0  0  0  0
  1 21  1  0  0  0  0
  1 22  1  0  0  0  0
  1 23  1  0  0  0  0
  2  7  1  0  0  0  0
  2  3  2  0  0  0  0
  3  4  1  0  0  0  0
  3 24  1  0  0  0  0
  4  5  2  0  0  0  0
  4 25  1  0  0  0  0
  5  6  1  0  0  0  0
  5 26  1  0  0  0  0
  6  7  2  0  0  0  0
  7  8  1  0  0  0  0
  8  9  1  0  0  0  0
  8 27  1  0  0  0  0
  9 10  2  0  0  0  0
  9 11  1  0  0  0  0
 11 12  1  0  0  0  0
 11 28  1  0  0  0  0
 12 13  1  0  0  0  0
 12 29  1  0  0  0  0
 12 30  1  0  0  0  0
 13 14  1  0  0  0  0
 13 15  1  0  0  0  0
 13 31  1  0  0  0  0
 14 32  1  0  0  0  0
 14 33  1  0  0  0  0
 14 34  1  0  0  0  0
 15 20  1  0  0  0  0
 15 16  1  0  0  0  0
 15 43  1  0  0  0  0
 16 17  1  0  0  0  0
 16 35  1  0  0  0  0
 16 36  1  0  0  0  0
 17 18  1  0  0  0  0
 17 37  1  0  0  0  0
 17 38  1  0  0  0  0
 18 19  1  0  0  0  0
 19 20  1  0  0  0  0
 19 39  1  0  0  0  0
 19 40  1  0  0  0  0
 20 41  1  0  0  0  0
 20 42  1  0  0  0  0
M  CHG  1  15   1
M  END
> <s_m_source_file>
AV-unprocessed.smi

> <i_m_source_file_index>
1737

> <i_lp_mmshare_version>
43012

> <i_f3d_flags>
0

> <s_epik_input>
W0NIM11jMVtjSF1bY0hdW2NIXW5jMVtOSF1DKD1PKVtOSF1bQ0gyXVtDQEhdKFtDSDNdKU4yW0NIMl1bQ0gyXU9bQ0gyXVtDSDJdMg==

> <s_epik_cmdline>
J2VwaWtfcHl0aG9uJywgJy1waCcsICc3LjAnLCAnLXRuJywgJzgnLCAnLW1hJywgJzIwMCcsICctbWV0YWxfYmluZGluZycsICctaW1hZScsICc8aW5maWxlLm1hZT4nLCAnLW9tYWUnLCAnPG91dGZpbGUubWFlPic=

> <r_epik_Ionization_Penalty>
0.602573

> <r_epik_Ionization_Penalty_Charging>
0.602531

> <r_epik_Ionization_Penalty_Neutral>
4.25912e-05

> <r_epik_State_Penalty>
0.617039

> <r_epik_Charging_Adjusted_Penalty>
1.21957

> <i_epik_Tot_Q>
1

> <i_epik_Tot_abs_Q>
1

> <r_epik_Metal_State_Penalty>
0.617042

> <b_epik_Metal_Only>
0

> <s_lp_Force_Field>
OPLS_2005

> <r_lp_Energy>
29.9094

> <b_lp_Chiralities_Consistent>
1

> <s_lp_Variant>
AV-unprocessed.smi:1737-4

> <Gold.Version>
5.8.1

> <Gold.Id.Protein>
6NUR|6NUR_protein|mol2

> <Gold.PLP.Fitness>
44.2555

> <Gold.PLP.PLP>
-34.0727

> <Gold.PLP.part.hbond>
-3.0000

> <Gold.PLP.part.metal>
0.0000

> <Gold.PLP.part.buried>
-2.5039

> <Gold.PLP.part.nonpolar>
-29.1942

> <Gold.PLP.part.repulsive>
0.2500

> <Gold.PLP.ligand.clash>
0.0000

> <Gold.PLP.ligand.torsion>
0.8252

> <Gold.PLP.Chemscore.Hbond>
3.9280

> <Gold.PLP.Chemscore.CHOScore>
0.0000

> <Gold.PLP.Chemscore.Metal>
0.0000

> <Gold.Chemscore.Hbonds>
donor molecule, donor type, donor heavy atom, donor atom, acceptor molecule, acceptor atom, score
      L1  H     8    27       P1  8028  0.90
      L1  H    11    28       P1  8028  1.00
      L1  H    15    43       P1 10175  2.00

> <Gold.PLP.Chemscore.Internal.Correction>
0.0493

> <Gold.Rescore>
     Score         DG    S(hbond)    S(metal)    S(lipo)     H(rot)  DE(clash)    DE(int)     intcor
     18.50     -21.27       2.77        0.00      88.88       1.51       0.45       2.32       ----

> <Gold.Chemscore.Fitness>
18.5027

> <Gold.Chemscore.DG>
-21.2685

> <Gold.Chemscore.ZeroCoef>
-5.4800

> <Gold.Chemscore.Hbond>
2.7730

> <Gold.Chemscore.Metal>
0.0000

> <Gold.Chemscore.Lipo>
88.8818

> <Gold.Chemscore.Internal_Hbond>
0.0000

> <Gold.Chemscore.DEClash>
0.4508

> <Gold.Chemscore.DEInternal>
2.3150

> <Gold.Chemscore.Rot>
1.5128

> <Gold.Chemscore.Internal.Correction>
   9.000000E+99

> <Gold.Chemscore.Hbonds>
donor molecule, donor type, donor heavy atom, donor atom, acceptor molecule, acceptor atom, score
      L1  H     8    27       P1  8028  0.79
      L1  H    11    28       P1  8028  0.33
      L1  H    15    43       P1 10175  0.93

> <Gold.Chemscore.Hbond.Weighted>
-9.2619

> <Gold.Chemscore.Metal.Weighted>
-0.0000

> <Gold.Chemscore.Lipo.Weighted>
-10.3992

> <Gold.Chemscore.Internal_Hbond.Weighted>
0.0000

> <Gold.Chemscore.DEClash.Weighted>
0.4508

> <Gold.Chemscore.DEInternal.Weighted>
2.3150

> <Gold.Chemscore.Rot.Weighted>
3.8726

> <Gold.Chemscore.Internal.Correction.Weighted>
   9.000000E+99

> <Gold.Protein.RotatedTorsions>
[ 6907 6896 6895 6894 ] final -144.12 input  -60.11 | X-H torsion
[ 7974 7965 7964 7962 ] final -157.76 input  175.53 | X-H torsion
[ 8008 7997 7996 7995 ] final   75.94 input   59.86 | X-H torsion
[ 10167 10162 10161 10158 ] final  118.06 input  -65.29 | X-H torsion
[ 10718 10713 10712 10709 ] final   32.88 input   66.30 | X-H torsion
[ 10763 10752 10751 10750 ] final  119.27 input  -60.55 | X-H torsion
[ 11005 11000 10999 10996 ] final  -88.40 input  -57.11 | X-H torsion

> <Gold.Protein.ActiveResidues>
 VAL166  LYS551  ARG553  GLY616  TRP617  ASP618  TYR619  PRO620  LYS621  CYS622 
 ASP623  PHE694  ASN695  SER759  ASP760  ASP761  ALA762  ILE779  LEU786  VAL792 
 PHE793  MET794  SER795  GLU796  ALA797  LYS798  CYS799  TRP800  GLU811  SER814 

> <Gold.Protein.RotatedAtoms>
  151.1098  133.5181  159.2605 H   0  0  0  0  0  0  0  0  0  0  0  0  # atno 6907 bound_to 6896
  151.1980  135.0430  159.8870 H   0  0  0  0  0  0  0  0  0  0  0  0  # atno 6908 bound_to 6896
  152.5449  134.0930  159.8338 H   0  0  0  0  0  0  0  0  0  0  0  0  # atno 6909 bound_to 6896
  144.7534  140.3923  143.6030 H   0  0  0  0  0  0  0  0  0  0  0  0  # atno 7974 bound_to 7965
  155.8202  140.3470  155.5509 H   0  0  0  0  0  0  0  0  0  0  0  0  # atno 8008 bound_to 7997
  155.8350  140.0933  157.1789 H   0  0  0  0  0  0  0  0  0  0  0  0  # atno 8009 bound_to 7997
  154.4004  140.1405  156.3647 H   0  0  0  0  0  0  0  0  0  0  0  0  # atno 8010 bound_to 7997
  139.6137  144.7087  151.2787 H   0  0  0  0  0  0  0  0  0  0  0  0  # atno 10167 bound_to 10162
  157.2909  130.7302  149.6610 H   0  0  0  0  0  0  0  0  0  0  0  0  # atno 10718 bound_to 10713
  153.5804  135.3485  155.2873 H   0  0  0  0  0  0  0  0  0  0  0  0  # atno 10763 bound_to 10752
  154.8668  135.4181  154.2626 H   0  0  0  0  0  0  0  0  0  0  0  0  # atno 10764 bound_to 10752
  153.3411  135.7050  153.6936 H   0  0  0  0  0  0  0  0  0  0  0  0  # atno 10765 bound_to 10752
  141.1602  133.7568  156.9446 H   0  0  0  0  0  0  0  0  0  0  0  0  # atno 11005 bound_to 11000
  145.6863  139.1629  143.2672 LP  0  0  0  0  0  0  0  0  0  0  0  0  # atno 17320 bound_to 7965
  146.1514  140.6919  142.9320 LP  0  0  0  0  0  0  0  0  0  0  0  0  # atno 17321 bound_to 7965
  140.7336  143.6789  150.8018 LP  0  0  0  0  0  0  0  0  0  0  0  0  # atno 17342 bound_to 10162
  140.0388  143.5367  152.2727 LP  0  0  0  0  0  0  0  0  0  0  0  0  # atno 17343 bound_to 10162
  155.9667  130.4309  150.4897 LP  0  0  0  0  0  0  0  0  0  0  0  0  # atno 17370 bound_to 10713
  157.2860  131.0616  151.2166 LP  0  0  0  0  0  0  0  0  0  0  0  0  # atno 17371 bound_to 10713
  140.1298  134.9363  157.2321 LP  0  0  0  0  0  0  0  0  0  0  0  0  # atno 17394 bound_to 11000
  140.2967  134.3178  155.7300 LP  0  0  0  0  0  0  0  0  0  0  0  0  # atno 17395 bound_to 11000

$$$$
