AV-unprocessed.smi:1589|AV-procd|sdf|6393|dock6
  -GOLD-   22720 7 23D 1   1.00000     0.00000
 Structure written by MMmdl.
 44 45  0  0  0  0  0  0  0  0  2 V2000
  151.1241  142.8397  157.3778 C   0  0  0  0  0  0  0  0  0  0  0  0
  149.8323  142.0161  157.5651 C   0  0  0  0  0  0  0  0  0  0  0  0
  150.2209  140.5601  157.8956 C   0  0  0  0  0  0  0  0  0  0  0  0
  148.9138  142.1030  156.3834 N   0  3  0  0  0  0  0  0  0  0  0  0
  147.5467  141.5585  156.6497 C   0  0  0  0  0  0  0  0  0  0  0  0
  146.6407  141.6012  155.4057 C   0  0  0  0  0  0  0  0  0  0  0  0
  147.3084  140.8922  154.3094 N   0  0  0  0  0  0  0  0  0  0  0  0
  147.0254  139.6401  153.8684 C   0  0  0  0  0  0  0  0  0  0  0  0
  147.8052  138.9927  153.1696 O   0  0  0  0  0  0  0  0  0  0  0  0
  145.8040  139.1940  154.2181 N   0  0  0  0  0  0  0  0  0  0  0  0
  145.2387  137.9217  153.9522 C   0  0  0  0  0  0  0  0  0  0  0  0
  144.9452  136.8567  154.8501 C   0  0  0  0  0  0  0  0  0  0  0  0
  144.4160  135.8264  154.2080 N   0  0  0  0  0  0  0  0  0  0  0  0
  144.3583  136.2100  152.9081 N   0  0  0  0  0  0  0  0  0  0  0  0
  143.8154  135.3005  151.9119 C   0  0  0  0  0  0  0  0  0  0  0  0
  144.8151  135.0025  150.7880 C   0  0  0  0  0  0  0  0  0  0  0  0
  145.1171  136.0134  149.9694 N   0  0  0  0  0  0  0  0  0  0  0  0
  145.3135  133.8858  150.6554 O   0  0  0  0  0  0  0  0  0  0  0  0
  144.8593  137.4835  152.7193 C   0  0  0  0  0  0  0  0  0  0  0  0
  148.5406  141.5883  153.9413 C   0  0  0  0  0  0  0  0  0  0  0  0
  149.5143  141.5454  155.1327 C   0  0  0  0  0  0  0  0  0  0  0  0
  151.8183  142.6735  158.2022 H   0  0  0  0  0  0  0  0  0  0  0  0
  150.9314  143.9123  157.3597 H   0  0  0  0  0  0  0  0  0  0  0  0
  151.6401  142.5684  156.4561 H   0  0  0  0  0  0  0  0  0  0  0  0
  149.3052  142.4250  158.4287 H   0  0  0  0  0  0  0  0  0  0  0  0
  150.9706  140.5237  158.6866 H   0  0  0  0  0  0  0  0  0  0  0  0
  150.6386  140.0528  157.0253 H   0  0  0  0  0  0  0  0  0  0  0  0
  149.3746  139.9765  158.2572 H   0  0  0  0  0  0  0  0  0  0  0  0
  147.6305  140.5312  157.0083 H   0  0  0  0  0  0  0  0  0  0  0  0
  147.0535  142.1333  157.4323 H   0  0  0  0  0  0  0  0  0  0  0  0
  145.6558  141.2051  155.6537 H   0  0  0  0  0  0  0  0  0  0  0  0
  146.4658  142.6363  155.1083 H   0  0  0  0  0  0  0  0  0  0  0  0
  145.2318  139.8230  154.7621 H   0  0  0  0  0  0  0  0  0  0  0  0
  145.0900  136.7870  155.9177 H   0  0  0  0  0  0  0  0  0  0  0  0
  143.5279  134.3755  152.4137 H   0  0  0  0  0  0  0  0  0  0  0  0
  142.9091  135.7295  151.4819 H   0  0  0  0  0  0  0  0  0  0  0  0
  145.7672  135.8732  149.2097 H   0  0  0  0  0  0  0  0  0  0  0  0
  144.6894  136.9169  150.1128 H   0  0  0  0  0  0  0  0  0  0  0  0
  144.8943  137.9545  151.7479 H   0  0  0  0  0  0  0  0  0  0  0  0
  149.0139  141.1636  153.0547 H   0  0  0  0  0  0  0  0  0  0  0  0
  148.3102  142.6225  153.6807 H   0  0  0  0  0  0  0  0  0  0  0  0
  150.4033  142.1076  154.8512 H   0  0  0  0  0  0  0  0  0  0  0  0
  149.8292  140.5158  155.3112 H   0  0  0  0  0  0  0  0  0  0  0  0
  148.7800  143.0879  156.2044 H   0  0  0  0  0  0  0  0  0  0  0  0
  1  2  1  0  0  0  0
  1 22  1  0  0  0  0
  1 23  1  0  0  0  0
  1 24  1  0  0  0  0
  2  3  1  0  0  0  0
  2  4  1  0  0  0  0
  2 25  1  0  0  0  0
  3 26  1  0  0  0  0
  3 27  1  0  0  0  0
  3 28  1  0  0  0  0
  4 21  1  0  0  0  0
  4  5  1  0  0  0  0
  4 44  1  0  0  0  0
  5  6  1  0  0  0  0
  5 29  1  0  0  0  0
  5 30  1  0  0  0  0
  6  7  1  0  0  0  0
  6 31  1  0  0  0  0
  6 32  1  0  0  0  0
  7  8  1  0  0  0  0
  7 20  1  0  0  0  0
  8  9  2  0  0  0  0
  8 10  1  0  0  0  0
 10 11  1  0  0  0  0
 10 33  1  0  0  0  0
 11 19  2  0  0  0  0
 11 12  1  0  0  0  0
 12 13  2  0  0  0  0
 12 34  1  0  0  0  0
 13 14  1  0  0  0  0
 14 15  1  0  0  0  0
 14 19  1  0  0  0  0
 15 16  1  0  0  0  0
 15 35  1  0  0  0  0
 15 36  1  0  0  0  0
 16 17  1  0  0  0  0
 16 18  2  0  0  0  0
 17 37  1  0  0  0  0
 17 38  1  0  0  0  0
 19 39  1  0  0  0  0
 20 21  1  0  0  0  0
 20 40  1  0  0  0  0
 20 41  1  0  0  0  0
 21 42  1  0  0  0  0
 21 43  1  0  0  0  0
M  CHG  1   4   1
M  END
> <s_m_source_file>
AV-unprocessed.smi

> <i_m_source_file_index>
1589

> <i_lp_mmshare_version>
43012

> <i_f3d_flags>
0

> <s_epik_input>
W0NIM11bQ0hdKFtDSDNdKU4xW0NIMl1bQ0gyXU4oW0NIMl1bQ0gyXTEpQyg9TylbTkhdYzJbY0hdbm4oW2NIXTIpW0NIMl1DKD1PKVtOSDJd

> <s_epik_cmdline>
J2VwaWtfcHl0aG9uJywgJy1waCcsICc3LjAnLCAnLXRuJywgJzgnLCAnLW1hJywgJzIwMCcsICctbWV0YWxfYmluZGluZycsICctaW1hZScsICc8aW5maWxlLm1hZT4nLCAnLW9tYWUnLCAnPG91dGZpbGUubWFlPic=

> <r_lp_tautomer_probability>
1

> <r_epik_Ionization_Penalty>
0.241469

> <r_epik_Ionization_Penalty_Charging>
0.241445

> <r_epik_Ionization_Penalty_Neutral>
2.46507e-05

> <r_epik_State_Penalty>
0.232445

> <r_epik_Charging_Adjusted_Penalty>
0.47389

> <i_epik_Tot_Q>
1

> <i_epik_Tot_abs_Q>
1

> <r_epik_Metal_State_Penalty>
0.232446

> <b_epik_Metal_Only>
0

> <s_lp_Force_Field>
OPLS_2005

> <r_lp_Energy>
56.898

> <b_lp_Chiralities_Consistent>
1

> <s_lp_Variant>
AV-unprocessed.smi:1589-1

> <Gold.Version>
5.8.1

> <Gold.Id.Protein>
6NUR|6NUR_protein|mol2

> <Gold.PLP.Fitness>
41.7944

> <Gold.PLP.PLP>
-28.0295

> <Gold.PLP.part.hbond>
-4.0000

> <Gold.PLP.part.metal>
0.0000

> <Gold.PLP.part.buried>
-3.7200

> <Gold.PLP.part.nonpolar>
-22.1539

> <Gold.PLP.part.repulsive>
1.6929

> <Gold.PLP.ligand.clash>
0.0000

> <Gold.PLP.ligand.torsion>
0.8723

> <Gold.PLP.Chemscore.Hbond>
3.9920

> <Gold.PLP.Chemscore.CHOScore>
1.1368

> <Gold.PLP.Chemscore.Metal>
0.0000

> <Gold.Chemscore.Hbonds>
donor molecule, donor type, donor heavy atom, donor atom, acceptor molecule, acceptor atom, score
      L1  H     4    44       P1  8028  2.00
      L1  H    17    37       P1  7921  0.91
      L1  H    17    38       P1 10171  1.00
      L1  C    19    39       P1 10171  1.00
      L1  C    19    39       P1 10175  0.07

> <Gold.PLP.Chemscore.Internal.Correction>
0.1231

> <Gold.Rescore>
     Score         DG    S(hbond)    S(metal)    S(lipo)     H(rot)  DE(clash)    DE(int)     intcor
     15.18     -16.21       2.91        0.00      49.00       1.84       0.10       0.93       ----

> <Gold.Chemscore.Fitness>
15.1826

> <Gold.Chemscore.DG>
-16.2133

> <Gold.Chemscore.ZeroCoef>
-5.4800

> <Gold.Chemscore.Hbond>
2.9067

> <Gold.Chemscore.Metal>
0.0000

> <Gold.Chemscore.Lipo>
49.0025

> <Gold.Chemscore.Internal_Hbond>
0.0000

> <Gold.Chemscore.DEClash>
0.1019

> <Gold.Chemscore.DEInternal>
0.9288

> <Gold.Chemscore.Rot>
1.8392

> <Gold.Chemscore.Internal.Correction>
   9.000000E+99

> <Gold.Chemscore.Hbonds>
donor molecule, donor type, donor heavy atom, donor atom, acceptor molecule, acceptor atom, score
      L1  H     4    44       P1  8028  0.99
      L1  H    17    37       P1  7921  0.88
      L1  H    17    38       P1 10171  1.00

> <Gold.Chemscore.Hbond.Weighted>
-9.7083

> <Gold.Chemscore.Metal.Weighted>
-0.0000

> <Gold.Chemscore.Lipo.Weighted>
-5.7333

> <Gold.Chemscore.Internal_Hbond.Weighted>
0.0000

> <Gold.Chemscore.DEClash.Weighted>
0.1019

> <Gold.Chemscore.DEInternal.Weighted>
0.9288

> <Gold.Chemscore.Rot.Weighted>
4.7083

> <Gold.Chemscore.Internal.Correction.Weighted>
   9.000000E+99

> <Gold.Protein.RotatedTorsions>
[ 6907 6896 6895 6894 ] final  167.70 input  -60.11 | X-H torsion
[ 7974 7965 7964 7962 ] final  -62.30 input  175.53 | X-H torsion
[ 8008 7997 7996 7995 ] final  -59.70 input   59.86 | X-H torsion
[ 10167 10162 10161 10158 ] final  102.20 input  -65.29 | X-H torsion
[ 10718 10713 10712 10709 ] final  134.54 input   66.30 | X-H torsion
[ 10763 10752 10751 10750 ] final   73.63 input  -60.55 | X-H torsion
[ 11005 11000 10999 10996 ] final -177.94 input  -57.11 | X-H torsion

> <Gold.Protein.ActiveResidues>
 VAL166  LYS551  ARG553  GLY616  TRP617  ASP618  TYR619  PRO620  LYS621  CYS622 
 ASP623  PHE694  ASN695  SER759  ASP760  ASP761  ALA762  ILE779  LEU786  VAL792 
 PHE793  MET794  SER795  GLU796  ALA797  LYS798  CYS799  TRP800  GLU811  SER814 

> <Gold.Protein.RotatedAtoms>
  151.8591  133.3454  159.3697 H   0  0  0  0  0  0  0  0  0  0  0  0  # atno 6907 bound_to 6896
  150.7184  134.5223  159.5669 H   0  0  0  0  0  0  0  0  0  0  0  0  # atno 6908 bound_to 6896
  152.2733  134.7909  160.0461 H   0  0  0  0  0  0  0  0  0  0  0  0  # atno 6909 bound_to 6896
  145.7930  140.8699  143.0271 H   0  0  0  0  0  0  0  0  0  0  0  0  # atno 7974 bound_to 7965
  154.4364  140.1056  156.6157 H   0  0  0  0  0  0  0  0  0  0  0  0  # atno 8008 bound_to 7997
  155.5761  140.3490  155.4509 H   0  0  0  0  0  0  0  0  0  0  0  0  # atno 8009 bound_to 7997
  156.0353  140.1270  157.0203 H   0  0  0  0  0  0  0  0  0  0  0  0  # atno 8010 bound_to 7997
  139.7370  144.7021  151.0633 H   0  0  0  0  0  0  0  0  0  0  0  0  # atno 10167 bound_to 10162
  157.4662  131.1077  150.9859 H   0  0  0  0  0  0  0  0  0  0  0  0  # atno 10718 bound_to 10713
  153.0534  135.5055  154.7923 H   0  0  0  0  0  0  0  0  0  0  0  0  # atno 10763 bound_to 10752
  154.6767  135.2961  154.9671 H   0  0  0  0  0  0  0  0  0  0  0  0  # atno 10764 bound_to 10752
  154.0470  135.6709  153.4849 H   0  0  0  0  0  0  0  0  0  0  0  0  # atno 10765 bound_to 10752
  140.4353  134.6481  157.4732 H   0  0  0  0  0  0  0  0  0  0  0  0  # atno 11005 bound_to 11000
  144.6779  140.0150  143.7484 LP  0  0  0  0  0  0  0  0  0  0  0  0  # atno 17320 bound_to 7965
  145.9957  139.3051  143.0958 LP  0  0  0  0  0  0  0  0  0  0  0  0  # atno 17321 bound_to 7965
  140.7780  143.4971  150.9818 LP  0  0  0  0  0  0  0  0  0  0  0  0  # atno 17342 bound_to 10162
  139.8659  143.7254  152.3170 LP  0  0  0  0  0  0  0  0  0  0  0  0  # atno 17343 bound_to 10162
  157.0640  130.5837  149.5390 LP  0  0  0  0  0  0  0  0  0  0  0  0  # atno 17370 bound_to 10713
  156.0051  130.5137  150.7803 LP  0  0  0  0  0  0  0  0  0  0  0  0  # atno 17371 bound_to 10713
  140.0106  134.6696  155.9386 LP  0  0  0  0  0  0  0  0  0  0  0  0  # atno 17394 bound_to 11000
  141.1728  133.6538  156.4716 LP  0  0  0  0  0  0  0  0  0  0  0  0  # atno 17395 bound_to 11000

$$$$
