AV-unprocessed.smi:3135|AV-procd|sdf|11947|dock8
  -GOLD-   2272017343D 1   1.00000     0.00000
 Structure written by MMmdl.
 37 38  0  0  0  0  0  0  0  0  1 V2000
  144.6992  133.6716  150.5785 C   0  0  0  0  0  0  0  0  0  0  0  0
  144.7942  135.0364  151.1970 C   0  0  0  0  0  0  0  0  0  0  0  0
  143.8174  135.7053  151.9879 C   0  0  0  0  0  0  0  0  0  0  0  0
  144.2097  136.9051  152.3839 N   0  0  0  0  0  0  0  0  0  0  0  0
  145.4494  137.0438  151.8671 N   0  0  0  0  0  0  0  0  0  0  0  0
  146.1987  138.2662  152.1016 C   0  0  0  0  0  0  0  0  0  0  0  0
  147.0191  138.1790  153.3909 C   0  0  0  0  0  0  0  0  0  0  0  0
  146.4792  137.8435  154.4451 O   0  0  0  0  0  0  0  0  0  0  0  0
  148.3229  138.4819  153.2929 N   0  0  0  0  0  0  0  0  0  0  0  0
  149.2748  138.4543  154.3965 C   0  0  0  0  0  0  0  0  0  0  0  0
  149.9764  139.8158  154.5658 C   0  0  0  0  0  0  0  0  0  0  0  0
  150.9000  139.8188  155.6982 N   0  0  0  0  0  0  0  0  0  0  0  0
  152.1956  139.2664  155.3201 C   0  0  0  0  0  0  0  0  0  0  0  0
  151.1058  141.1942  156.1243 C   0  0  0  0  0  0  0  0  0  0  0  0
  151.4805  141.4313  157.5698 C   0  0  0  0  0  0  0  0  0  0  0  0
  150.0971  141.7873  157.0821 C   0  0  0  0  0  0  0  0  0  0  0  0
  145.8243  135.9323  151.1409 C   0  0  0  0  0  0  0  0  0  0  0  0
  144.2871  132.9423  151.2760 H   0  0  0  0  0  0  0  0  0  0  0  0
  145.6743  133.2989  150.2647 H   0  0  0  0  0  0  0  0  0  0  0  0
  144.0567  133.6742  149.6980 H   0  0  0  0  0  0  0  0  0  0  0  0
  142.8392  135.3559  152.2833 H   0  0  0  0  0  0  0  0  0  0  0  0
  146.8449  138.4459  151.2412 H   0  0  0  0  0  0  0  0  0  0  0  0
  145.5116  139.1112  152.1686 H   0  0  0  0  0  0  0  0  0  0  0  0
  148.6823  138.7479  152.3875 H   0  0  0  0  0  0  0  0  0  0  0  0
  148.7670  138.1669  155.3189 H   0  0  0  0  0  0  0  0  0  0  0  0
  149.9968  137.6680  154.1793 H   0  0  0  0  0  0  0  0  0  0  0  0
  150.4956  140.1034  153.6501 H   0  0  0  0  0  0  0  0  0  0  0  0
  149.2124  140.5746  154.7418 H   0  0  0  0  0  0  0  0  0  0  0  0
  152.8908  139.3212  156.1587 H   0  0  0  0  0  0  0  0  0  0  0  0
  152.6324  139.8130  154.4830 H   0  0  0  0  0  0  0  0  0  0  0  0
  152.1142  138.2170  155.0396 H   0  0  0  0  0  0  0  0  0  0  0  0
  151.5364  141.8978  155.4134 H   0  0  0  0  0  0  0  0  0  0  0  0
  151.5741  140.5650  158.2219 H   0  0  0  0  0  0  0  0  0  0  0  0
  152.1654  142.2498  157.7814 H   0  0  0  0  0  0  0  0  0  0  0  0
  149.8593  142.8429  156.9688 H   0  0  0  0  0  0  0  0  0  0  0  0
  149.2724  141.1564  157.4090 H   0  0  0  0  0  0  0  0  0  0  0  0
  146.7857  135.8707  150.6522 H   0  0  0  0  0  0  0  0  0  0  0  0
  1  2  1  0  0  0  0
  1 18  1  0  0  0  0
  1 19  1  0  0  0  0
  1 20  1  0  0  0  0
  2 17  2  0  0  0  0
  2  3  1  0  0  0  0
  3  4  2  0  0  0  0
  3 21  1  0  0  0  0
  4  5  1  0  0  0  0
  5  6  1  0  0  0  0
  5 17  1  0  0  0  0
  6  7  1  0  0  0  0
  6 22  1  0  0  0  0
  6 23  1  0  0  0  0
  7  8  2  0  0  0  0
  7  9  1  0  0  0  0
  9 10  1  0  0  0  0
  9 24  1  0  0  0  0
 10 11  1  0  0  0  0
 10 25  1  0  0  0  0
 10 26  1  0  0  0  0
 11 12  1  0  0  0  0
 11 27  1  0  0  0  0
 11 28  1  0  0  0  0
 12 13  1  0  0  0  0
 12 14  1  0  0  0  0
 13 29  1  0  0  0  0
 13 30  1  0  0  0  0
 13 31  1  0  0  0  0
 14 16  1  0  0  0  0
 14 15  1  0  0  0  0
 14 32  1  0  0  0  0
 15 16  1  0  0  0  0
 15 33  1  0  0  0  0
 15 34  1  0  0  0  0
 16 35  1  0  0  0  0
 16 36  1  0  0  0  0
 17 37  1  0  0  0  0
M  END
> <s_m_source_file>
AV-unprocessed.smi

> <i_m_source_file_index>
3135

> <i_lp_mmshare_version>
43012

> <i_f3d_flags>
0

> <s_epik_input>
W0NIM11jMVtjSF1ubihbY0hdMSlbQ0gyXUMoPU8pW05IXVtDSDJdW0NIMl1OKFtDSDNdKVtDSF0yW0NIMl1bQ0gyXTI=

> <s_epik_cmdline>
J2VwaWtfcHl0aG9uJywgJy1waCcsICc3LjAnLCAnLXRuJywgJzgnLCAnLW1hJywgJzIwMCcsICctbWV0YWxfYmluZGluZycsICctaW1hZScsICc8aW5maWxlLm1hZT4nLCAnLW9tYWUnLCAnPG91dGZpbGUubWFlPic=

> <r_lp_tautomer_probability>
1

> <r_epik_Ionization_Penalty>
0.809981

> <r_epik_Ionization_Penalty_Charging>
0

> <r_epik_Ionization_Penalty_Neutral>
0.809981

> <r_epik_State_Penalty>
0.842006

> <r_epik_Charging_Adjusted_Penalty>
0.842006

> <i_epik_Tot_Q>
0

> <i_epik_Tot_abs_Q>
0

> <r_epik_Metal_State_Penalty>
0.84199

> <b_epik_Metal_Only>
0

> <s_lp_Force_Field>
OPLS_2005

> <r_lp_Energy>
14.2809

> <b_lp_Chiralities_Consistent>
1

> <s_lp_Variant>
AV-unprocessed.smi:3135-3

> <Gold.Version>
5.8.1

> <Gold.Id.Protein>
6NUR|6NUR_protein|mol2

> <Gold.PLP.Fitness>
35.0349

> <Gold.PLP.PLP>
-30.7661

> <Gold.PLP.part.hbond>
-2.0000

> <Gold.PLP.part.metal>
0.0000

> <Gold.PLP.part.buried>
-1.4983

> <Gold.PLP.part.nonpolar>
-28.3883

> <Gold.PLP.part.repulsive>
0.4084

> <Gold.PLP.ligand.clash>
0.0000

> <Gold.PLP.ligand.torsion>
1.2737

> <Gold.PLP.Chemscore.Hbond>
1.0000

> <Gold.PLP.Chemscore.CHOScore>
0.8740

> <Gold.PLP.Chemscore.Metal>
0.0000

> <Gold.Chemscore.Hbonds>
donor molecule, donor type, donor heavy atom, donor atom, acceptor molecule, acceptor atom, score
      L1  H     9    24       P1  7957  1.00
      L1  C    17    37       P1  7948  0.89

> <Gold.PLP.Chemscore.Internal.Correction>
1.1941

> <Gold.Rescore>
     Score         DG    S(hbond)    S(metal)    S(lipo)     H(rot)  DE(clash)    DE(int)     intcor
     11.34     -12.51       0.96        0.00      73.15       1.85       0.04       1.13       ----

> <Gold.Chemscore.Fitness>
11.3412

> <Gold.Chemscore.DG>
-12.5105

> <Gold.Chemscore.ZeroCoef>
-5.4800

> <Gold.Chemscore.Hbond>
0.9596

> <Gold.Chemscore.Metal>
0.0000

> <Gold.Chemscore.Lipo>
73.1468

> <Gold.Chemscore.Internal_Hbond>
0.0000

> <Gold.Chemscore.DEClash>
0.0420

> <Gold.Chemscore.DEInternal>
1.1273

> <Gold.Chemscore.Rot>
1.8487

> <Gold.Chemscore.Internal.Correction>
   9.000000E+99

> <Gold.Chemscore.Hbonds>
donor molecule, donor type, donor heavy atom, donor atom, acceptor molecule, acceptor atom, score
      L1  H     9    24       P1  7957  0.90

> <Gold.Chemscore.Hbond.Weighted>
-3.2050

> <Gold.Chemscore.Metal.Weighted>
-0.0000

> <Gold.Chemscore.Lipo.Weighted>
-8.5582

> <Gold.Chemscore.Internal_Hbond.Weighted>
0.0000

> <Gold.Chemscore.DEClash.Weighted>
0.0420

> <Gold.Chemscore.DEInternal.Weighted>
1.1273

> <Gold.Chemscore.Rot.Weighted>
4.7326

> <Gold.Chemscore.Internal.Correction.Weighted>
   9.000000E+99

> <Gold.Protein.RotatedTorsions>
[ 6907 6896 6895 6894 ] final   46.40 input  -60.11 | X-H torsion
[ 7974 7965 7964 7962 ] final  141.95 input  175.53 | X-H torsion
[ 8008 7997 7996 7995 ] final -176.03 input   59.86 | X-H torsion
[ 10167 10162 10161 10158 ] final  -81.86 input  -65.29 | X-H torsion
[ 10718 10713 10712 10709 ] final  156.00 input   66.30 | X-H torsion
[ 10763 10752 10751 10750 ] final   68.73 input  -60.55 | X-H torsion
[ 11005 11000 10999 10996 ] final  -15.25 input  -57.11 | X-H torsion

> <Gold.Protein.ActiveResidues>
 VAL166  LYS551  ARG553  GLY616  TRP617  ASP618  TYR619  PRO620  LYS621  CYS622 
 ASP623  PHE694  ASN695  SER759  ASP760  ASP761  ALA762  ILE779  LEU786  VAL792 
 PHE793  MET794  SER795  GLU796  ALA797  LYS798  CYS799  TRP800  GLU811  SER814 

> <Gold.Protein.RotatedAtoms>
  152.2559  134.8085  160.0438 H   0  0  0  0  0  0  0  0  0  0  0  0  # atno 6907 bound_to 6896
  151.8748  133.3478  159.3755 H   0  0  0  0  0  0  0  0  0  0  0  0  # atno 6908 bound_to 6896
  150.7099  134.5004  159.5602 H   0  0  0  0  0  0  0  0  0  0  0  0  # atno 6909 bound_to 6896
  144.9051  139.5369  143.5735 H   0  0  0  0  0  0  0  0  0  0  0  0  # atno 7974 bound_to 7965
  155.9899  140.1199  157.0648 H   0  0  0  0  0  0  0  0  0  0  0  0  # atno 8008 bound_to 7997
  154.4208  140.1128  156.5619 H   0  0  0  0  0  0  0  0  0  0  0  0  # atno 8009 bound_to 7997
  155.6357  140.3473  155.4700 H   0  0  0  0  0  0  0  0  0  0  0  0  # atno 8010 bound_to 7997
  140.4373  143.2527  151.8676 H   0  0  0  0  0  0  0  0  0  0  0  0  # atno 10167 bound_to 10162
  157.2109  131.0697  151.1970 H   0  0  0  0  0  0  0  0  0  0  0  0  # atno 10718 bound_to 10713
  153.0250  135.5236  154.7179 H   0  0  0  0  0  0  0  0  0  0  0  0  # atno 10763 bound_to 10752
  154.6243  135.2892  155.0292 H   0  0  0  0  0  0  0  0  0  0  0  0  # atno 10764 bound_to 10752
  154.1268  135.6599  153.4966 H   0  0  0  0  0  0  0  0  0  0  0  0  # atno 10765 bound_to 10752
  140.7947  133.8260  155.9413 H   0  0  0  0  0  0  0  0  0  0  0  0  # atno 11005 bound_to 11000
  146.3129  139.7812  142.9006 LP  0  0  0  0  0  0  0  0  0  0  0  0  # atno 17320 bound_to 7965
  145.3550  141.0315  143.3317 LP  0  0  0  0  0  0  0  0  0  0  0  0  # atno 17321 bound_to 7965
  139.4787  144.5268  151.8723 LP  0  0  0  0  0  0  0  0  0  0  0  0  # atno 17342 bound_to 10162
  140.4359  144.2052  150.5889 LP  0  0  0  0  0  0  0  0  0  0  0  0  # atno 17343 bound_to 10162
  157.3673  130.7162  149.6541 LP  0  0  0  0  0  0  0  0  0  0  0  0  # atno 17370 bound_to 10713
  155.9691  130.4208  150.4442 LP  0  0  0  0  0  0  0  0  0  0  0  0  # atno 17371 bound_to 10713
  140.9354  134.1968  157.4835 LP  0  0  0  0  0  0  0  0  0  0  0  0  # atno 17394 bound_to 11000
  139.8727  134.9850  156.5264 LP  0  0  0  0  0  0  0  0  0  0  0  0  # atno 17395 bound_to 11000

$$$$
