AV-unprocessed.smi:1207|AV-procd|sdf|5052|dock2
  -GOLD-   22720 4 83D 1   1.00000     0.00000
 Structure written by MMmdl.
 52 54  0  0  0  0  0  0  0  0  2 V2000
  152.9866  142.5382  160.5448 C   0  0  0  0  0  0  0  0  0  0  0  0
  152.2395  142.2377  159.2573 C   0  0  0  0  0  0  0  0  0  0  0  0
  152.5557  141.0633  158.5374 C   0  0  0  0  0  0  0  0  0  0  0  0
  151.8846  140.7478  157.3358 C   0  0  0  0  0  0  0  0  0  0  0  0
  152.0307  139.6694  156.4802 N   0  0  0  0  0  0  0  0  0  0  0  0
  151.1276  139.9450  155.5438 C   0  0  0  0  0  0  0  0  0  0  0  0
  150.4150  141.0788  155.6892 N   0  0  0  0  0  0  0  0  0  0  0  0
  149.3831  141.5891  154.8042 C   0  0  0  0  0  0  0  0  0  0  0  0
  147.9675  141.3489  155.3611 C   0  0  1  0  0  0  0  0  0  0  0  0
  147.7457  142.2028  156.4675 O   0  0  0  0  0  0  0  0  0  0  0  0
  146.8717  141.6039  154.3081 C   0  0  0  0  0  0  0  0  0  0  0  0
  146.4666  140.3476  153.6283 N   0  3  1  0  0  0  0  0  0  0  0  0
  147.2189  140.1164  152.3736 C   0  0  0  0  0  0  0  0  0  0  0  0
  146.4777  139.1654  154.5281 C   0  0  0  0  0  0  0  0  0  0  0  0
  145.3275  138.2451  154.2180 C   0  0  0  0  0  0  0  0  0  0  0  0
  145.1282  137.4807  153.0326 C   0  0  0  0  0  0  0  0  0  0  0  0
  146.0060  137.4003  151.8156 C   0  0  0  0  0  0  0  0  0  0  0  0
  144.0133  136.7725  153.0835 N   0  0  0  0  0  0  0  0  0  0  0  0
  143.4322  137.0614  154.3216 O   0  0  0  0  0  0  0  0  0  0  0  0
  144.2304  137.9413  154.9777 C   0  0  0  0  0  0  0  0  0  0  0  0
  143.7689  138.3722  156.3292 C   0  0  0  0  0  0  0  0  0  0  0  0
  150.8795  141.6457  156.8713 C   0  0  0  0  0  0  0  0  0  0  0  0
  150.5540  142.8159  157.5801 C   0  0  0  0  0  0  0  0  0  0  0  0
  151.2368  143.1179  158.7767 C   0  0  0  0  0  0  0  0  0  0  0  0
  150.8821  144.3866  159.5319 C   0  0  0  0  0  0  0  0  0  0  0  0
  153.6966  141.7471  160.7873 H   0  0  0  0  0  0  0  0  0  0  0  0
  152.2907  142.6288  161.3792 H   0  0  0  0  0  0  0  0  0  0  0  0
  153.5432  143.4712  160.4538 H   0  0  0  0  0  0  0  0  0  0  0  0
  153.3198  140.3927  158.9030 H   0  0  0  0  0  0  0  0  0  0  0  0
  150.9787  139.2857  154.7011 H   0  0  0  0  0  0  0  0  0  0  0  0
  149.5552  142.6535  154.6364 H   0  0  0  0  0  0  0  0  0  0  0  0
  149.4962  141.0967  153.8374 H   0  0  0  0  0  0  0  0  0  0  0  0
  147.9068  140.3220  155.7194 H   0  0  0  0  0  0  0  0  0  0  0  0
  147.8240  143.1001  156.1803 H   0  0  0  0  0  0  0  0  0  0  0  0
  146.0138  142.0655  154.8002 H   0  0  0  0  0  0  0  0  0  0  0  0
  147.2119  142.3209  153.5590 H   0  0  0  0  0  0  0  0  0  0  0  0
  148.2810  139.9706  152.5755 H   0  0  0  0  0  0  0  0  0  0  0  0
  147.1129  140.9653  151.6975 H   0  0  0  0  0  0  0  0  0  0  0  0
  146.8465  139.2367  151.8492 H   0  0  0  0  0  0  0  0  0  0  0  0
  147.4393  138.6563  154.4512 H   0  0  0  0  0  0  0  0  0  0  0  0
  146.4119  139.4853  155.5679 H   0  0  0  0  0  0  0  0  0  0  0  0
  146.2115  138.3934  151.4152 H   0  0  0  0  0  0  0  0  0  0  0  0
  145.5435  136.8143  151.0202 H   0  0  0  0  0  0  0  0  0  0  0  0
  146.9619  136.9347  152.0554 H   0  0  0  0  0  0  0  0  0  0  0  0
  144.4561  139.0935  156.7707 H   0  0  0  0  0  0  0  0  0  0  0  0
  143.6998  137.5180  157.0030 H   0  0  0  0  0  0  0  0  0  0  0  0
  142.7846  138.8369  156.2709 H   0  0  0  0  0  0  0  0  0  0  0  0
  149.7867  143.4768  157.2053 H   0  0  0  0  0  0  0  0  0  0  0  0
  150.1235  144.9655  159.0042 H   0  0  0  0  0  0  0  0  0  0  0  0
  151.7615  145.0200  159.6512 H   0  0  0  0  0  0  0  0  0  0  0  0
  150.4916  144.1450  160.5208 H   0  0  0  0  0  0  0  0  0  0  0  0
  145.5047  140.4925  153.3548 H   0  0  0  0  0  0  0  0  0  0  0  0
  1  2  1  0  0  0  0
  1 26  1  0  0  0  0
  1 27  1  0  0  0  0
  1 28  1  0  0  0  0
  2 24  1  0  0  0  0
  2  3  2  0  0  0  0
  3  4  1  0  0  0  0
  3 29  1  0  0  0  0
  4 22  2  0  0  0  0
  4  5  1  0  0  0  0
  5  6  2  0  0  0  0
  6  7  1  0  0  0  0
  6 30  1  0  0  0  0
  7  8  1  0  0  0  0
  7 22  1  0  0  0  0
  8  9  1  0  0  0  0
  8 31  1  0  0  0  0
  8 32  1  0  0  0  0
  9 10  1  0  0  0  0
  9 11  1  0  0  0  0
  9 33  1  0  0  0  0
 10 34  1  0  0  0  0
 11 12  1  0  0  0  0
 11 35  1  0  0  0  0
 11 36  1  0  0  0  0
 12 13  1  0  0  0  0
 12 14  1  0  0  0  0
 12 52  1  0  0  0  0
 13 37  1  0  0  0  0
 13 38  1  0  0  0  0
 13 39  1  0  0  0  0
 14 15  1  0  0  0  0
 14 40  1  0  0  0  0
 14 41  1  0  0  0  0
 15 20  2  0  0  0  0
 15 16  1  0  0  0  0
 16 17  1  0  0  0  0
 16 18  2  0  0  0  0
 17 42  1  0  0  0  0
 17 43  1  0  0  0  0
 17 44  1  0  0  0  0
 18 19  1  0  0  0  0
 19 20  1  0  0  0  0
 20 21  1  0  0  0  0
 21 45  1  0  0  0  0
 21 46  1  0  0  0  0
 21 47  1  0  0  0  0
 22 23  1  0  0  0  0
 23 24  2  0  0  0  0
 23 48  1  0  0  0  0
 24 25  1  0  0  0  0
 25 49  1  0  0  0  0
 25 50  1  0  0  0  0
 25 51  1  0  0  0  0
M  CHG  1  12   1
M  END
> <s_m_source_file>
AV-unprocessed.smi

> <i_m_source_file_index>
1207

> <i_lp_mmshare_version>
43012

> <i_f3d_flags>
0

> <s_epik_input>
W0NIM11jKFtjSF0xKWMoW0NIM10pW2NIXWMoYzEyKW4oW2NIXW4yKVtDSDJdW0NASF0oW09IXSlbQ0gyXU4oW0NIM10pW0NIMl1jM2MoW0NIM10pbm9jM1tDSDNd

> <s_epik_cmdline>
J2VwaWtfcHl0aG9uJywgJy1waCcsICc3LjAnLCAnLXRuJywgJzgnLCAnLW1hJywgJzIwMCcsICctbWV0YWxfYmluZGluZycsICctaW1hZScsICc8aW5maWxlLm1hZT4nLCAnLW9tYWUnLCAnPG91dGZpbGUubWFlPic=

> <r_epik_Ionization_Penalty>
0.646518

> <r_epik_Ionization_Penalty_Charging>
0.559419

> <r_epik_Ionization_Penalty_Neutral>
0.0870981

> <r_epik_State_Penalty>
0.661677

> <r_epik_Charging_Adjusted_Penalty>
1.2211

> <i_epik_Tot_Q>
1

> <i_epik_Tot_abs_Q>
1

> <r_epik_Metal_State_Penalty>
0.649158

> <b_epik_Metal_Only>
0

> <s_lp_Force_Field>
OPLS_2005

> <r_lp_Energy>
8.27883

> <b_lp_Chiralities_Consistent>
1

> <s_lp_Variant>
AV-unprocessed.smi:1207-4

> <Gold.Version>
5.8.1

> <Gold.Id.Protein>
6NUR|6NUR_protein|mol2

> <Gold.PLP.Fitness>
46.6490

> <Gold.PLP.PLP>
-40.4158

> <Gold.PLP.part.hbond>
-2.0000

> <Gold.PLP.part.metal>
0.0000

> <Gold.PLP.part.buried>
0.3899

> <Gold.PLP.part.nonpolar>
-38.2622

> <Gold.PLP.part.repulsive>
0.1819

> <Gold.PLP.ligand.clash>
0.0000

> <Gold.PLP.ligand.torsion>
1.6214

> <Gold.PLP.Chemscore.Hbond>
3.0715

> <Gold.PLP.Chemscore.CHOScore>
0.0000

> <Gold.PLP.Chemscore.Metal>
0.0000

> <Gold.Chemscore.Hbonds>
donor molecule, donor type, donor heavy atom, donor atom, acceptor molecule, acceptor atom, score
      L1  H    10    34       P1  8028  1.00
      L1  H    12    52       P1 10175  2.00
      P1  H  7997  8009       L1     5  0.10

> <Gold.PLP.Chemscore.Internal.Correction>
0.2614

> <Gold.Rescore>
     Score         DG    S(hbond)    S(metal)    S(lipo)     H(rot)  DE(clash)    DE(int)     intcor
     16.55     -19.66       1.92        0.00     120.28       2.46       1.30       1.82       ----

> <Gold.Chemscore.Fitness>
16.5489

> <Gold.Chemscore.DG>
-19.6617

> <Gold.Chemscore.ZeroCoef>
-5.4800

> <Gold.Chemscore.Hbond>
1.9155

> <Gold.Chemscore.Metal>
0.0000

> <Gold.Chemscore.Lipo>
120.2782

> <Gold.Chemscore.Internal_Hbond>
0.0000

> <Gold.Chemscore.DEClash>
1.2957

> <Gold.Chemscore.DEInternal>
1.8172

> <Gold.Chemscore.Rot>
2.4565

> <Gold.Chemscore.Internal.Correction>
   9.000000E+99

> <Gold.Chemscore.Hbonds>
donor molecule, donor type, donor heavy atom, donor atom, acceptor molecule, acceptor atom, score
      L1  H    10    34       P1  8028  0.24
      L1  H    12    52       P1 10175  0.90

> <Gold.Chemscore.Hbond.Weighted>
-6.3979

> <Gold.Chemscore.Metal.Weighted>
-0.0000

> <Gold.Chemscore.Lipo.Weighted>
-14.0726

> <Gold.Chemscore.Internal_Hbond.Weighted>
0.0000

> <Gold.Chemscore.DEClash.Weighted>
1.2957

> <Gold.Chemscore.DEInternal.Weighted>
1.8172

> <Gold.Chemscore.Rot.Weighted>
6.2887

> <Gold.Chemscore.Internal.Correction.Weighted>
   9.000000E+99

> <Gold.Protein.RotatedTorsions>
[ 6907 6896 6895 6894 ] final  -46.08 input  -60.11 | X-H torsion
[ 7974 7965 7964 7962 ] final  -62.70 input  175.53 | X-H torsion
[ 8008 7997 7996 7995 ] final -164.38 input   59.86 | X-H torsion
[ 10167 10162 10161 10158 ] final   67.05 input  -65.29 | X-H torsion
[ 10718 10713 10712 10709 ] final   73.62 input   66.30 | X-H torsion
[ 10763 10752 10751 10750 ] final  -20.83 input  -60.55 | X-H torsion
[ 11005 11000 10999 10996 ] final  -43.34 input  -57.11 | X-H torsion

> <Gold.Protein.ActiveResidues>
 VAL166  LYS551  ARG553  GLY616  TRP617  ASP618  TYR619  PRO620  LYS621  CYS622 
 ASP623  PHE694  ASN695  SER759  ASP760  ASP761  ALA762  ILE779  LEU786  VAL792 
 PHE793  MET794  SER795  GLU796  ALA797  LYS798  CYS799  TRP800  GLU811  SER814 

> <Gold.Protein.RotatedAtoms>
  150.9151  134.8568  159.7450 H   0  0  0  0  0  0  0  0  0  0  0  0  # atno 6907 bound_to 6896
  152.4964  134.4302  159.9519 H   0  0  0  0  0  0  0  0  0  0  0  0  # atno 6908 bound_to 6896
  151.4341  133.3622  159.2808 H   0  0  0  0  0  0  0  0  0  0  0  0  # atno 6909 bound_to 6896
  145.7881  140.8725  143.0295 H   0  0  0  0  0  0  0  0  0  0  0  0  # atno 7974 bound_to 7965
  155.8348  140.0939  157.1770 H   0  0  0  0  0  0  0  0  0  0  0  0  # atno 8008 bound_to 7997
  154.3980  140.1412  156.3718 H   0  0  0  0  0  0  0  0  0  0  0  0  # atno 8009 bound_to 7997
  155.8127  140.3449  155.5470 H   0  0  0  0  0  0  0  0  0  0  0  0  # atno 8010 bound_to 7997
  140.0937  144.4965  150.7082 H   0  0  0  0  0  0  0  0  0  0  0  0  # atno 10167 bound_to 10162
  157.6556  130.9637  150.1095 H   0  0  0  0  0  0  0  0  0  0  0  0  # atno 10718 bound_to 10713
  153.6266  135.6990  153.5291 H   0  0  0  0  0  0  0  0  0  0  0  0  # atno 10763 bound_to 10752
  153.2894  135.4162  155.1152 H   0  0  0  0  0  0  0  0  0  0  0  0  # atno 10764 bound_to 10752
  154.8531  135.3621  154.5808 H   0  0  0  0  0  0  0  0  0  0  0  0  # atno 10765 bound_to 10752
  141.0377  133.6793  156.2719 H   0  0  0  0  0  0  0  0  0  0  0  0  # atno 11005 bound_to 11000
  144.6786  140.0084  143.7484 LP  0  0  0  0  0  0  0  0  0  0  0  0  # atno 17320 bound_to 7965
  146.0005  139.3087  143.0930 LP  0  0  0  0  0  0  0  0  0  0  0  0  # atno 17321 bound_to 7965
  140.7015  143.2438  151.4851 LP  0  0  0  0  0  0  0  0  0  0  0  0  # atno 17342 bound_to 10162
  139.5710  144.1928  152.1836 LP  0  0  0  0  0  0  0  0  0  0  0  0  # atno 17343 bound_to 10162
  156.1996  130.3659  149.8805 LP  0  0  0  0  0  0  0  0  0  0  0  0  # atno 17370 bound_to 10713
  156.6713  130.8821  151.3562 LP  0  0  0  0  0  0  0  0  0  0  0  0  # atno 17371 bound_to 10713
  140.6292  134.5281  157.5557 LP  0  0  0  0  0  0  0  0  0  0  0  0  # atno 17394 bound_to 11000
  139.9252  134.8069  156.1089 LP  0  0  0  0  0  0  0  0  0  0  0  0  # atno 17395 bound_to 11000

$$$$
