AV-unprocessed.smi:2478|AV-procd|sdf|9766|dock2
  -GOLD-   2272013413D 1   1.00000     0.00000
 Structure written by MMmdl.
 42 43  0  0  0  0  0  0  0  0  1 V2000
  154.1165  140.7518  161.5012 C   0  0  0  0  0  0  0  0  0  0  0  0
  153.0164  141.4246  160.6641 C   0  0  1  0  0  0  0  0  0  0  0  0
  153.1786  142.9583  160.6873 C   0  0  0  0  0  0  0  0  0  0  0  0
  152.1028  143.6606  159.8450 C   0  0  0  0  0  0  0  0  0  0  0  0
  152.1049  143.1390  158.4016 C   0  0  0  0  0  0  0  0  0  0  0  0
  151.9254  141.6148  158.3702 C   0  0  0  0  0  0  0  0  0  0  0  0
  153.0037  140.8993  159.2106 C   0  0  2  0  0  0  0  0  0  0  0  0
  152.7125  139.5082  159.2430 O   0  0  0  0  0  0  0  0  0  0  0  0
  153.6928  138.6945  158.6143 C   0  0  0  0  0  0  0  0  0  0  0  0
  153.1703  138.2720  157.2442 C   0  0  0  0  0  0  0  0  0  0  0  0
  153.7333  138.6755  156.2268 O   0  0  0  0  0  0  0  0  0  0  0  0
  152.0859  137.4755  157.2620 N   0  0  0  0  0  0  0  0  0  0  0  0
  151.3687  136.9265  156.1648 C   0  0  0  0  0  0  0  0  0  0  0  0
  151.8810  136.8453  154.9114 N   0  0  0  0  0  0  0  0  0  0  0  0
  151.1355  136.3060  153.9259 C   0  0  0  0  0  0  0  0  0  0  0  0
  149.8357  135.8123  154.1298 C   0  0  0  0  0  0  0  0  0  0  0  0
  149.2921  135.8910  155.4236 C   0  0  0  0  0  0  0  0  0  0  0  0
  150.0618  136.4652  156.4635 C   0  0  0  0  0  0  0  0  0  0  0  0
  149.5953  136.5595  157.7570 O   0  0  0  0  0  0  0  0  0  0  0  0
  148.3454  137.0479  157.9754 C   0  0  0  0  0  0  0  0  0  0  0  0
  147.9976  136.8935  159.2765 F   0  0  0  0  0  0  0  0  0  0  0  0
  148.3173  138.3735  157.6971 F   0  0  0  0  0  0  0  0  0  0  0  0
  155.1052  140.9457  161.0842 H   0  0  0  0  0  0  0  0  0  0  0  0
  153.9799  139.6708  161.5428 H   0  0  0  0  0  0  0  0  0  0  0  0
  154.1104  141.1212  162.5270 H   0  0  0  0  0  0  0  0  0  0  0  0
  152.0558  141.1824  161.1216 H   0  0  0  0  0  0  0  0  0  0  0  0
  153.1307  143.3227  161.7141 H   0  0  0  0  0  0  0  0  0  0  0  0
  154.1658  143.2298  160.3106 H   0  0  0  0  0  0  0  0  0  0  0  0
  151.1217  143.4962  160.2927 H   0  0  0  0  0  0  0  0  0  0  0  0
  152.2693  144.7381  159.8517 H   0  0  0  0  0  0  0  0  0  0  0  0
  151.3094  143.6193  157.8311 H   0  0  0  0  0  0  0  0  0  0  0  0
  153.0428  143.4083  157.9143 H   0  0  0  0  0  0  0  0  0  0  0  0
  150.9360  141.3594  158.7529 H   0  0  0  0  0  0  0  0  0  0  0  0
  151.9526  141.2696  157.3369 H   0  0  0  0  0  0  0  0  0  0  0  0
  153.9889  141.0727  158.7723 H   0  0  0  0  0  0  0  0  0  0  0  0
  154.6312  139.2334  158.4812 H   0  0  0  0  0  0  0  0  0  0  0  0
  153.8979  137.8138  159.2250 H   0  0  0  0  0  0  0  0  0  0  0  0
  151.7311  137.2307  158.1751 H   0  0  0  0  0  0  0  0  0  0  0  0
  151.5904  136.2644  152.9472 H   0  0  0  0  0  0  0  0  0  0  0  0
  149.2721  135.3814  153.3157 H   0  0  0  0  0  0  0  0  0  0  0  0
  148.2989  135.5087  155.6067 H   0  0  0  0  0  0  0  0  0  0  0  0
  147.6044  136.5587  157.3426 H   0  0  0  0  0  0  0  0  0  0  0  0
  1  2  1  0  0  0  0
  1 23  1  0  0  0  0
  1 24  1  0  0  0  0
  1 25  1  0  0  0  0
  2  7  1  0  0  0  0
  2  3  1  0  0  0  0
  2 26  1  0  0  0  0
  3  4  1  0  0  0  0
  3 27  1  0  0  0  0
  3 28  1  0  0  0  0
  4  5  1  0  0  0  0
  4 29  1  0  0  0  0
  4 30  1  0  0  0  0
  5  6  1  0  0  0  0
  5 31  1  0  0  0  0
  5 32  1  0  0  0  0
  6  7  1  0  0  0  0
  6 33  1  0  0  0  0
  6 34  1  0  0  0  0
  7  8  1  0  0  0  0
  7 35  1  0  0  0  0
  8  9  1  0  0  0  0
  9 10  1  0  0  0  0
  9 36  1  0  0  0  0
  9 37  1  0  0  0  0
 10 11  2  0  0  0  0
 10 12  1  0  0  0  0
 12 13  1  0  0  0  0
 12 38  1  0  0  0  0
 13 18  1  0  0  0  0
 13 14  2  0  0  0  0
 14 15  1  0  0  0  0
 15 16  2  0  0  0  0
 15 39  1  0  0  0  0
 16 17  1  0  0  0  0
 16 40  1  0  0  0  0
 17 18  2  0  0  0  0
 17 41  1  0  0  0  0
 18 19  1  0  0  0  0
 19 20  1  0  0  0  0
 20 21  1  0  0  0  0
 20 22  1  0  0  0  0
 20 42  1  0  0  0  0
M  END
> <s_m_source_file>
AV-unprocessed.smi

> <i_m_source_file_index>
2478

> <i_lp_mmshare_version>
43012

> <i_f3d_flags>
0

> <s_epik_input>
W0NIM11bQ0BASF0xW0NIMl1bQ0gyXVtDSDJdW0NIMl1bQ0BIXTFPW0NIMl1DKD1PKVtOSF1jMm5bY0hdW2NIXVtjSF1jMk9bQ0hdKEYpRg==

> <s_epik_cmdline>
J2VwaWtfcHl0aG9uJywgJy1waCcsICc3LjAnLCAnLXRuJywgJzgnLCAnLW1hJywgJzIwMCcsICctbWV0YWxfYmluZGluZycsICctaW1hZScsICc8aW5maWxlLm1hZT4nLCAnLW9tYWUnLCAnPG91dGZpbGUubWFlPic=

> <r_lp_tautomer_probability>
1

> <r_epik_Ionization_Penalty>
6.06012e-05

> <r_epik_Ionization_Penalty_Charging>
0

> <r_epik_Ionization_Penalty_Neutral>
6.06012e-05

> <r_epik_State_Penalty>
-0

> <r_epik_Charging_Adjusted_Penalty>
0

> <i_epik_Tot_Q>
0

> <i_epik_Tot_abs_Q>
0

> <r_epik_Metal_State_Penalty>
-0

> <b_epik_Metal_Only>
0

> <s_lp_Force_Field>
OPLS_2005

> <r_lp_Energy>
13.1013

> <b_lp_Chiralities_Consistent>
1

> <s_lp_Variant>
AV-unprocessed.smi:2478-4

> <Gold.Version>
5.8.1

> <Gold.Id.Protein>
6NUR|6NUR_protein|mol2

> <Gold.PLP.Fitness>
43.1039

> <Gold.PLP.PLP>
-34.7554

> <Gold.PLP.part.hbond>
-3.0000

> <Gold.PLP.part.metal>
0.0000

> <Gold.PLP.part.buried>
-3.0168

> <Gold.PLP.part.nonpolar>
-28.3834

> <Gold.PLP.part.repulsive>
0.1860

> <Gold.PLP.ligand.clash>
0.0000

> <Gold.PLP.ligand.torsion>
1.3357

> <Gold.PLP.Chemscore.Hbond>
2.8640

> <Gold.PLP.Chemscore.CHOScore>
0.7786

> <Gold.PLP.Chemscore.Metal>
0.0000

> <Gold.Chemscore.Hbonds>
donor molecule, donor type, donor heavy atom, donor atom, acceptor molecule, acceptor atom, score
      P1  H  7997  8009       L1    11  0.74
      P1  H 10752 10763       L1    14  0.53

> <Gold.PLP.Chemscore.Internal.Correction>
0.0923

> <Gold.Rescore>
     Score         DG    S(hbond)    S(metal)    S(lipo)     H(rot)  DE(clash)    DE(int)     intcor
     15.27     -18.04       1.88        0.00      94.26       1.85       0.02       2.75       ----

> <Gold.Chemscore.Fitness>
15.2714

> <Gold.Chemscore.DG>
-18.0431

> <Gold.Chemscore.ZeroCoef>
-5.4800

> <Gold.Chemscore.Hbond>
1.8761

> <Gold.Chemscore.Metal>
0.0000

> <Gold.Chemscore.Lipo>
94.2569

> <Gold.Chemscore.Internal_Hbond>
0.0000

> <Gold.Chemscore.DEClash>
0.0240

> <Gold.Chemscore.DEInternal>
2.7477

> <Gold.Chemscore.Rot>
1.8481

> <Gold.Chemscore.Internal.Correction>
   9.000000E+99

> <Gold.Chemscore.Hbonds>
donor molecule, donor type, donor heavy atom, donor atom, acceptor molecule, acceptor atom, score
      P1  H  7997  8009       L1    11  0.60
      P1  H 10752 10763       L1    14  0.05

> <Gold.Chemscore.Hbond.Weighted>
-6.2662

> <Gold.Chemscore.Metal.Weighted>
-0.0000

> <Gold.Chemscore.Lipo.Weighted>
-11.0281

> <Gold.Chemscore.Internal_Hbond.Weighted>
0.0000

> <Gold.Chemscore.DEClash.Weighted>
0.0240

> <Gold.Chemscore.DEInternal.Weighted>
2.7477

> <Gold.Chemscore.Rot.Weighted>
4.7311

> <Gold.Chemscore.Internal.Correction.Weighted>
   9.000000E+99

> <Gold.Protein.RotatedTorsions>
[ 6907 6896 6895 6894 ] final  171.18 input  -60.11 | X-H torsion
[ 7974 7965 7964 7962 ] final -128.52 input  175.53 | X-H torsion
[ 8008 7997 7996 7995 ] final -166.29 input   59.86 | X-H torsion
[ 10167 10162 10161 10158 ] final   74.83 input  -65.29 | X-H torsion
[ 10718 10713 10712 10709 ] final  -58.57 input   66.30 | X-H torsion
[ 10763 10752 10751 10750 ] final   88.49 input  -60.55 | X-H torsion
[ 11005 11000 10999 10996 ] final  103.17 input  -57.11 | X-H torsion

> <Gold.Protein.ActiveResidues>
 VAL166  LYS551  ARG553  GLY616  TRP617  ASP618  TYR619  PRO620  LYS621  CYS622 
 ASP623  PHE694  ASN695  SER759  ASP760  ASP761  ALA762  ILE779  LEU786  VAL792 
 PHE793  MET794  SER795  GLU796  ALA797  LYS798  CYS799  TRP800  GLU811  SER814 

> <Gold.Protein.RotatedAtoms>
  151.8043  133.3374  159.3535 H   0  0  0  0  0  0  0  0  0  0  0  0  # atno 6907 bound_to 6896
  150.7348  134.5724  159.5906 H   0  0  0  0  0  0  0  0  0  0  0  0  # atno 6908 bound_to 6896
  152.3121  134.7486  160.0385 H   0  0  0  0  0  0  0  0  0  0  0  0  # atno 6909 bound_to 6896
  144.9662  140.7498  143.4698 H   0  0  0  0  0  0  0  0  0  0  0  0  # atno 7974 bound_to 7965
  155.8617  140.0979  157.1609 H   0  0  0  0  0  0  0  0  0  0  0  0  # atno 8008 bound_to 7997
  154.3991  140.1364  156.4032 H   0  0  0  0  0  0  0  0  0  0  0  0  # atno 8009 bound_to 7997
  155.7849  140.3457  155.5320 H   0  0  0  0  0  0  0  0  0  0  0  0  # atno 8010 bound_to 7997
  140.0095  144.5625  150.7670 H   0  0  0  0  0  0  0  0  0  0  0  0  # atno 10167 bound_to 10162
  156.1125  130.4173  150.0596 H   0  0  0  0  0  0  0  0  0  0  0  0  # atno 10718 bound_to 10713
  153.1773  135.4505  154.9982 H   0  0  0  0  0  0  0  0  0  0  0  0  # atno 10763 bound_to 10752
  154.8007  135.3254  154.7560 H   0  0  0  0  0  0  0  0  0  0  0  0  # atno 10764 bound_to 10752
  153.8028  135.6961  153.4908 H   0  0  0  0  0  0  0  0  0  0  0  0  # atno 10765 bound_to 10752
  139.8782  134.9252  156.5168 H   0  0  0  0  0  0  0  0  0  0  0  0  # atno 11005 bound_to 11000
  145.2626  139.1986  143.4884 LP  0  0  0  0  0  0  0  0  0  0  0  0  # atno 17320 bound_to 7965
  146.3368  140.2559  142.8600 LP  0  0  0  0  0  0  0  0  0  0  0  0  # atno 17321 bound_to 7965
  140.7387  143.2781  151.3680 LP  0  0  0  0  0  0  0  0  0  0  0  0  # atno 17342 bound_to 10162
  139.6215  144.0898  152.2395 LP  0  0  0  0  0  0  0  0  0  0  0  0  # atno 17343 bound_to 10162
  156.8555  130.9474  151.3622 LP  0  0  0  0  0  0  0  0  0  0  0  0  # atno 17370 bound_to 10713
  157.6307  130.8727  149.9269 LP  0  0  0  0  0  0  0  0  0  0  0  0  # atno 17371 bound_to 10713
  140.8479  133.8154  155.9140 LP  0  0  0  0  0  0  0  0  0  0  0  0  # atno 17394 bound_to 11000
  140.9173  134.2186  157.4949 LP  0  0  0  0  0  0  0  0  0  0  0  0  # atno 17395 bound_to 11000

$$$$
