AV-unprocessed.smi:959|AV-procd|sdf|4269|dock1
  -GOLD-   22720 2173D 1   1.00000     0.00000
 Structure written by MMmdl.
 33 34  0  0  0  0  0  0  0  0  2 V2000
  152.2084  144.1322  160.1700 C   0  0  0  0  0  0  0  0  0  0  0  0
  152.3203  142.8773  161.0485 C   0  0  0  0  0  0  0  0  0  0  0  0
  152.9231  143.2055  162.4256 C   0  0  0  0  0  0  0  0  0  0  0  0
  153.0638  141.8300  160.3528 N   0  0  0  0  0  0  0  0  0  0  0  0
  154.3148  141.3919  160.5818 C   0  0  0  0  0  0  0  0  0  0  0  0
  154.7390  140.4287  159.7671 N   0  0  0  0  0  0  0  0  0  0  0  0
  153.6854  140.2172  158.9057 N   0  0  0  0  0  0  0  0  0  0  0  0
  152.7325  141.0847  159.2721 C   0  0  0  0  0  0  0  0  0  0  0  0
  151.4088  141.1832  158.5635 C   0  0  2  0  0  0  0  0  0  0  0  0
  151.1735  139.9870  157.6222 C   0  0  0  0  0  0  0  0  0  0  0  0
  149.8231  140.1242  156.9026 C   0  0  0  0  0  0  0  0  0  0  0  0
  149.7213  141.4759  156.1767 C   0  0  0  0  0  0  0  0  0  0  0  0
  149.9465  142.5934  157.1192 N   0  3  0  0  0  0  0  0  0  0  0  0
  151.2570  142.5176  157.8026 C   0  0  0  0  0  0  0  0  0  0  0  0
  151.6193  144.9053  160.6643 H   0  0  0  0  0  0  0  0  0  0  0  0
  151.7255  143.9091  159.2184 H   0  0  0  0  0  0  0  0  0  0  0  0
  153.1915  144.5515  159.9530 H   0  0  0  0  0  0  0  0  0  0  0  0
  151.3171  142.4970  161.2396 H   0  0  0  0  0  0  0  0  0  0  0  0
  152.2907  143.9096  162.9673 H   0  0  0  0  0  0  0  0  0  0  0  0
  153.9111  143.6586  162.3386 H   0  0  0  0  0  0  0  0  0  0  0  0
  153.0151  142.3098  163.0409 H   0  0  0  0  0  0  0  0  0  0  0  0
  154.9400  141.7828  161.3708 H   0  0  0  0  0  0  0  0  0  0  0  0
  150.6150  141.1685  159.3087 H   0  0  0  0  0  0  0  0  0  0  0  0
  151.9745  139.9298  156.8836 H   0  0  0  0  0  0  0  0  0  0  0  0
  151.2019  139.0532  158.1851 H   0  0  0  0  0  0  0  0  0  0  0  0
  149.6957  139.3077  156.1912 H   0  0  0  0  0  0  0  0  0  0  0  0
  149.0115  140.0340  157.6258 H   0  0  0  0  0  0  0  0  0  0  0  0
  150.4550  141.5313  155.3712 H   0  0  0  0  0  0  0  0  0  0  0  0
  148.7375  141.5881  155.7204 H   0  0  0  0  0  0  0  0  0  0  0  0
  149.8909  143.4656  156.6126 H   0  0  0  0  0  0  0  0  0  0  0  0
  151.3433  143.3593  158.4908 H   0  0  0  0  0  0  0  0  0  0  0  0
  152.0470  142.6316  157.0586 H   0  0  0  0  0  0  0  0  0  0  0  0
  149.2175  142.5755  157.8182 H   0  0  0  0  0  0  0  0  0  0  0  0
  1  2  1  0  0  0  0
  1 15  1  0  0  0  0
  1 16  1  0  0  0  0
  1 17  1  0  0  0  0
  2  3  1  0  0  0  0
  2  4  1  0  0  0  0
  2 18  1  0  0  0  0
  3 19  1  0  0  0  0
  3 20  1  0  0  0  0
  3 21  1  0  0  0  0
  4  8  1  0  0  0  0
  4  5  1  0  0  0  0
  5  6  2  0  0  0  0
  5 22  1  0  0  0  0
  6  7  1  0  0  0  0
  7  8  2  0  0  0  0
  8  9  1  0  0  0  0
  9 14  1  0  0  0  0
  9 10  1  0  0  0  0
  9 23  1  0  0  0  0
 10 11  1  0  0  0  0
 10 24  1  0  0  0  0
 10 25  1  0  0  0  0
 11 12  1  0  0  0  0
 11 26  1  0  0  0  0
 11 27  1  0  0  0  0
 12 13  1  0  0  0  0
 12 28  1  0  0  0  0
 12 29  1  0  0  0  0
 13 14  1  0  0  0  0
 13 30  1  0  0  0  0
 13 33  1  0  0  0  0
 14 31  1  0  0  0  0
 14 32  1  0  0  0  0
M  CHG  1  13   1
M  END
> <s_m_source_file>
AV-unprocessed.smi

> <i_m_source_file_index>
959

> <i_lp_mmshare_version>
43012

> <i_f3d_flags>
0

> <s_epik_input>
W0NIM11bQ0hdKFtDSDNdKW4xW2NIXW5uYzFbQ0BASF0yW0NIMl1bQ0gyXVtDSDJdW05IXVtDSDJdMg==

> <s_epik_cmdline>
J2VwaWtfcHl0aG9uJywgJy1waCcsICc3LjAnLCAnLXRuJywgJzgnLCAnLW1hJywgJzIwMCcsICctbWV0YWxfYmluZGluZycsICctaW1hZScsICc8aW5maWxlLm1hZT4nLCAnLW9tYWUnLCAnPG91dGZpbGUubWFlPic=

> <r_lp_tautomer_probability>
1

> <r_epik_Ionization_Penalty>
0.000442722

> <r_epik_Ionization_Penalty_Charging>
0.000426856

> <r_epik_Ionization_Penalty_Neutral>
1.58656e-05

> <r_epik_State_Penalty>
-0

> <r_epik_Charging_Adjusted_Penalty>
0.000426856

> <i_epik_Tot_Q>
1

> <i_epik_Tot_abs_Q>
1

> <r_epik_Metal_State_Penalty>
-0

> <b_epik_Metal_Only>
0

> <s_lp_Force_Field>
OPLS_2005

> <r_lp_Energy>
20.311

> <b_lp_Chiralities_Consistent>
1

> <s_lp_Variant>
AV-unprocessed.smi:959-1

> <Gold.Version>
5.8.1

> <Gold.Id.Protein>
6NUR|6NUR_protein|mol2

> <Gold.PLP.Fitness>
37.4078

> <Gold.PLP.PLP>
-32.3622

> <Gold.PLP.part.hbond>
-2.0000

> <Gold.PLP.part.metal>
0.0000

> <Gold.PLP.part.buried>
-4.1735

> <Gold.PLP.part.nonpolar>
-26.4700

> <Gold.PLP.part.repulsive>
0.0127

> <Gold.PLP.ligand.clash>
0.0000

> <Gold.PLP.ligand.torsion>
0.5707

> <Gold.PLP.Chemscore.Hbond>
2.0379

> <Gold.PLP.Chemscore.CHOScore>
0.0000

> <Gold.PLP.Chemscore.Metal>
0.0000

> <Gold.Chemscore.Hbonds>
donor molecule, donor type, donor heavy atom, donor atom, acceptor molecule, acceptor atom, score
      L1  H    13    30       P1  8028  2.00
      P1  H  7997  8008       L1     7  0.03

> <Gold.PLP.Chemscore.Internal.Correction>
0.0734

> <Gold.Rescore>
     Score         DG    S(hbond)    S(metal)    S(lipo)     H(rot)  DE(clash)    DE(int)     intcor
     12.45     -13.17       0.97        0.00      65.15       1.24       0.00       0.72       ----

> <Gold.Chemscore.Fitness>
12.4540

> <Gold.Chemscore.DG>
-13.1719

> <Gold.Chemscore.ZeroCoef>
-5.4800

> <Gold.Chemscore.Hbond>
0.9681

> <Gold.Chemscore.Metal>
0.0000

> <Gold.Chemscore.Lipo>
65.1453

> <Gold.Chemscore.Internal_Hbond>
0.0000

> <Gold.Chemscore.DEClash>
0.0000

> <Gold.Chemscore.DEInternal>
0.7180

> <Gold.Chemscore.Rot>
1.2357

> <Gold.Chemscore.Internal.Correction>
   9.000000E+99

> <Gold.Chemscore.Hbonds>
donor molecule, donor type, donor heavy atom, donor atom, acceptor molecule, acceptor atom, score
      L1  H    13    30       P1  8028  0.94

> <Gold.Chemscore.Hbond.Weighted>
-3.2333

> <Gold.Chemscore.Metal.Weighted>
-0.0000

> <Gold.Chemscore.Lipo.Weighted>
-7.6220

> <Gold.Chemscore.Internal_Hbond.Weighted>
0.0000

> <Gold.Chemscore.DEClash.Weighted>
0.0000

> <Gold.Chemscore.DEInternal.Weighted>
0.7180

> <Gold.Chemscore.Rot.Weighted>
3.1634

> <Gold.Chemscore.Internal.Correction.Weighted>
   9.000000E+99

> <Gold.Protein.RotatedTorsions>
[ 6907 6896 6895 6894 ] final  -25.01 input  -60.11 | X-H torsion
[ 7974 7965 7964 7962 ] final   16.36 input  175.53 | X-H torsion
[ 8008 7997 7996 7995 ] final -135.58 input   59.86 | X-H torsion
[ 10167 10162 10161 10158 ] final  100.09 input  -65.29 | X-H torsion
[ 10718 10713 10712 10709 ] final  -60.89 input   66.30 | X-H torsion
[ 10763 10752 10751 10750 ] final -151.13 input  -60.55 | X-H torsion
[ 11005 11000 10999 10996 ] final  -70.90 input  -57.11 | X-H torsion

> <Gold.Protein.ActiveResidues>
 VAL166  LYS551  ARG553  GLY616  TRP617  ASP618  TYR619  PRO620  LYS621  CYS622 
 ASP623  PHE694  ASN695  SER759  ASP760  ASP761  ALA762  ILE779  LEU786  VAL792 
 PHE793  MET794  SER795  GLU796  ALA797  LYS798  CYS799  TRP800  GLU811  SER814 

> <Gold.Protein.RotatedAtoms>
  151.1812  135.0362  159.8793 H   0  0  0  0  0  0  0  0  0  0  0  0  # atno 6907 bound_to 6896
  152.5444  134.1060  159.8348 H   0  0  0  0  0  0  0  0  0  0  0  0  # atno 6908 bound_to 6896
  151.1177  133.5079  159.2635 H   0  0  0  0  0  0  0  0  0  0  0  0  # atno 6909 bound_to 6896
  146.2252  139.8760  142.8579 H   0  0  0  0  0  0  0  0  0  0  0  0  # atno 7974 bound_to 7965
  155.3810  140.0494  157.3043 H   0  0  0  0  0  0  0  0  0  0  0  0  # atno 8008 bound_to 7997
  154.5082  140.2182  155.9170 H   0  0  0  0  0  0  0  0  0  0  0  0  # atno 8009 bound_to 7997
  156.1551  140.3128  155.8719 H   0  0  0  0  0  0  0  0  0  0  0  0  # atno 8010 bound_to 7997
  139.7559  144.6970  151.0364 H   0  0  0  0  0  0  0  0  0  0  0  0  # atno 10167 bound_to 10162
  156.0959  130.4193  150.0917 H   0  0  0  0  0  0  0  0  0  0  0  0  # atno 10718 bound_to 10713
  154.8077  135.3267  154.7388 H   0  0  0  0  0  0  0  0  0  0  0  0  # atno 10763 bound_to 10752
  153.8044  135.6901  153.4855 H   0  0  0  0  0  0  0  0  0  0  0  0  # atno 10764 bound_to 10752
  153.1833  135.4578  155.0001 H   0  0  0  0  0  0  0  0  0  0  0  0  # atno 10765 bound_to 10752
  141.1582  133.6802  156.6823 H   0  0  0  0  0  0  0  0  0  0  0  0  # atno 11005 bound_to 11000
  145.2561  141.0061  143.3853 LP  0  0  0  0  0  0  0  0  0  0  0  0  # atno 17320 bound_to 7965
  144.9336  139.4270  143.6483 LP  0  0  0  0  0  0  0  0  0  0  0  0  # atno 17321 bound_to 7965
  140.7802  143.4754  151.0089 LP  0  0  0  0  0  0  0  0  0  0  0  0  # atno 17342 bound_to 10162
  139.8441  143.7525  152.3179 LP  0  0  0  0  0  0  0  0  0  0  0  0  # atno 17343 bound_to 10162
  156.8916  130.9590  151.3587 LP  0  0  0  0  0  0  0  0  0  0  0  0  # atno 17370 bound_to 10713
  157.6120  130.8590  149.8967 LP  0  0  0  0  0  0  0  0  0  0  0  0  # atno 17371 bound_to 10713
  140.3093  134.8099  157.4163 LP  0  0  0  0  0  0  0  0  0  0  0  0  # atno 17394 bound_to 11000
  140.1193  134.5242  155.8198 LP  0  0  0  0  0  0  0  0  0  0  0  0  # atno 17395 bound_to 11000

$$$$
