#       Name:                AV-unprocessed.smi:37
#       Creating user name   scv26
#       Creation time:       Thu Mar 26 16:12:44 2020


#       File generated by GOLD software.
#

@<TRIPOS>MOLECULE
AV-unprocessed.smi:37
    54    55     1
SMALL
NO_CHARGES


@<TRIPOS>ATOM
      1 ****        -3.6672   2.7394  -2.0846 C.3            1 S1                 0.0000
      2 ****        -3.9366   2.8791  -0.5803 C.3            1 S1                 0.0000
      3 ****        -3.4716   1.6542   0.2041 C.2            1 S1                 0.0000
      4 ****        -4.2736   0.9164   0.7771 O.2            1 S1                 0.0000
      5 ****        -2.1380   1.5045   0.1871 O.3            1 S1                 0.0000
      6 ****        -1.5475   0.4017   0.8535 C.3            1 S1                 0.0000
      7 ****        -0.0378   0.4044   0.5842 C.3            1 S1                 0.0000
      8 ****         0.2473   0.0040  -0.7514 O.3            1 S1                 0.0000
      9 ****         1.5305  -0.5466  -0.8206 C.3            1 S1                 0.0000
     10 ****         2.4127   0.3209  -1.6900 N.am           1 S1                 0.0000
     11 ****         2.1237   1.6581  -1.9367 C.2            1 S1                 0.0000
     12 ****         2.9043   2.4474  -2.7117 C.2            1 S1                 0.0000
     13 ****         2.5645   3.7335  -2.9020 F              1 S1                 0.0000
     14 ****         4.1121   1.9171  -3.3381 C.2            1 S1                 0.0000
     15 ****         4.8797   2.5527  -4.0580 O.2            1 S1                 0.0000
     16 ****         4.3649   0.5712  -3.0569 N.am           1 S1                 0.0000
     17 ****         3.5711  -0.2527  -2.2574 C.2            1 S1                 0.0000
     18 ****         3.8937  -1.4242  -2.0644 O.2            1 S1                 0.0000
     19 ****         2.0556  -0.6923   0.6250 C.3            1 S1                 0.0000
     20 ****         3.2811   0.7855   1.1850 Br             1 S1                 0.0000
     21 ****         0.7763  -0.5766   1.4324 C.3            1 S1                 0.0000
     22 ****         0.1339  -1.8484   1.4868 O.3            1 S1                 0.0000
     23 ****        -0.2094  -2.4032   2.6636 C.2            1 S1                 0.0000
     24 ****        -0.0203  -1.9113   3.7772 O.2            1 S1                 0.0000
     25 ****        -0.8898  -3.7605   2.4736 C.3            1 S1                 0.0000
     26 ****        -1.2954  -4.4355   3.7924 C.3            1 S1                 0.0000
     27 ****         5.1935   0.1627  -3.4644 H              1 S1                 0.0000
     28 ****        -4.0480   3.6061  -2.6247 H              1 S1                 0.0000
     29 ****        -4.1557   1.8546  -2.4941 H              1 S1                 0.0000
     30 ****        -2.5998   2.6634  -2.2949 H              1 S1                 0.0000
     31 ****        -3.4302   3.7620  -0.1901 H              1 S1                 0.0000
     32 ****        -5.0034   3.0241  -0.4076 H              1 S1                 0.0000
     33 ****        -1.7341   0.4940   1.9242 H              1 S1                 0.0000
     34 ****        -1.9957  -0.5351   0.5190 H              1 S1                 0.0000
     35 ****         0.3597   1.4090   0.7378 H              1 S1                 0.0000
     36 ****         1.4341  -1.5019  -1.3403 H              1 S1                 0.0000
     37 ****         1.2489   2.1101  -1.4935 H              1 S1                 0.0000
     38 ****         2.5818  -1.6379   0.7608 H              1 S1                 0.0000
     39 ****         0.9718  -0.1778   2.4285 H              1 S1                 0.0000
     40 ****        -1.7715  -3.6196   1.8478 H              1 S1                 0.0000
     41 ****        -0.2127  -4.4126   1.9214 H              1 S1                 0.0000
     42 ****        -1.7724  -5.3966   3.6001 H              1 S1                 0.0000
     43 ****        -2.0029  -3.8229   4.3522 H              1 S1                 0.0000
     44 ****        -0.4289  -4.6197   4.4287 H              1 S1                 0.0000
     45 ****        -5.2530   1.1137   0.7347 LP             1 S1                 0.0000
     46 ****        -3.9455   0.1198   1.2848 LP             1 S1                 0.0000
     47 ****         0.1954   0.8001  -1.3543 LP             1 S1                 0.0000
     48 ****        -0.4225  -0.6790  -1.0428 LP             1 S1                 0.0000
     49 ****         4.6976   3.5159  -4.2557 LP             1 S1                 0.0000
     50 ****         5.6863   2.1065  -4.4459 LP             1 S1                 0.0000
     51 ****         3.3265  -2.0102  -1.4858 LP             1 S1                 0.0000
     52 ****         4.7232  -1.7904  -2.4862 LP             1 S1                 0.0000
     53 ****         0.4257  -1.0202   3.8610 LP             1 S1                 0.0000
     54 ****        -0.3127  -2.4032   4.5973 LP             1 S1                 0.0000
@<TRIPOS>BOND
    1    1    2 1     
    2    1   28 1     
    3    1   29 1     
    4    1   30 1     
    5    2    3 1     
    6    2   31 1     
    7    2   32 1     
    8    3    4 2     
    9    3    5 1     
   10    5    6 1     
   11    6    7 1     
   12    6   33 1     
   13    6   34 1     
   14    7   21 1     
   15    7    8 1     
   16    7   35 1     
   17    8    9 1     
   18    9   10 1     
   19    9   19 1     
   20    9   36 1     
   21   10   17 1     
   22   10   11 1     
   23   11   12 2     
   24   11   37 1     
   25   12   13 1     
   26   12   14 1     
   27   14   15 2     
   28   14   16 1     
   29   16   27 1     
   30   16   17 1     
   31   17   18 2     
   32   19   20 1     
   33   19   21 1     
   34   19   38 1     
   35   21   22 1     
   36   21   39 1     
   37   22   23 1     
   38   23   24 2     
   39   23   25 1     
   40   25   26 1     
   41   25   40 1     
   42   25   41 1     
   43   26   42 1     
   44   26   43 1     
   45   26   44 1     
   46    4   45 1     
   47    4   46 1     
   48    8   47 1     
   49    8   48 1     
   50   15   49 1     
   51   15   50 1     
   52   18   51 1     
   53   18   52 1     
   54   24   53 1     
   55   24   54 1     
@<TRIPOS>SUBSTRUCTURE
      1 S1             1
@<TRIPOS>SET
LONE_PAIRS      STATIC     ATOMS    <user>   **** ""
10 45 46 47 48 49 50 51 52 53 54
DONOR_HYDROGENS      STATIC     ATOMS    <user>   **** ""
1 27
ATOM$BLUE        STATIC     ATOMS    COLORGROUP SYSTEM
10 45 46 47 48 49 50 51 52 53 54
ATOM$RED        STATIC     ATOMS    COLORGROUP SYSTEM
1 27
