AV-unprocessed.smi:1995|AV-procd|sdf|8082|dock3
  -GOLD-   2272010293D 1   1.00000     0.00000
 Structure written by MMmdl.
 42 43  0  0  0  0  0  0  0  0  3 V2000
  151.0243  140.6741  157.7327 C   0  0  0  0  0  0  0  0  0  0  0  0
  150.1307  139.4391  157.9447 C   0  0  0  0  0  0  0  0  0  0  0  0
  149.5885  138.7488  156.6560 C   0  0  1  0  0  0  0  0  0  0  0  0
  150.7836  138.2809  155.7822 C   0  0  0  0  0  0  0  0  0  0  0  0
  148.7709  137.4745  157.0268 C   0  0  0  0  0  0  0  0  0  0  0  0
  148.0644  137.6208  158.3009 N   0  0  0  0  0  0  0  0  0  0  0  0
  148.2328  136.8758  159.4027 C   0  0  0  0  0  0  0  0  0  0  0  0
  148.9668  135.8862  159.3755 O   0  0  0  0  0  0  0  0  0  0  0  0
  147.5623  137.3436  160.4777 N   0  5  0  0  0  0  0  0  0  0  0  0
  146.7152  136.5385  161.1390 C   0  0  0  0  0  0  0  0  0  0  0  0
  145.4884  136.2475  160.6911 N   0  0  0  0  0  0  0  0  0  0  0  0
  144.7783  135.3923  161.5359 C   0  0  0  0  0  0  0  0  0  0  0  0
  145.4840  135.0184  162.6486 C   0  0  0  0  0  0  0  0  0  0  0  0
  147.0703  135.7344  162.6697 S   0  0  0  0  0  0  0  0  0  0  0  0
  148.6987  139.6887  155.8785 N   0  3  0  0  0  0  0  0  0  0  0  0
  147.5343  140.2383  156.6266 C   0  0  0  0  0  0  0  0  0  0  0  0
  146.5617  140.9229  155.6556 C   0  0  0  0  0  0  0  0  0  0  0  0
  147.2421  141.9801  154.9927 O   0  0  0  0  0  0  0  0  0  0  0  0
  148.3366  141.5021  154.2215 C   0  0  0  0  0  0  0  0  0  0  0  0
  149.3602  140.7909  155.1263 C   0  0  0  0  0  0  0  0  0  0  0  0
  151.3750  141.0555  158.6918 H   0  0  0  0  0  0  0  0  0  0  0  0
  150.4886  141.4871  157.2437 H   0  0  0  0  0  0  0  0  0  0  0  0
  151.9067  140.4403  157.1382 H   0  0  0  0  0  0  0  0  0  0  0  0
  150.7115  138.7276  158.5315 H   0  0  0  0  0  0  0  0  0  0  0  0
  149.2937  139.7356  158.5775 H   0  0  0  0  0  0  0  0  0  0  0  0
  151.3152  137.4458  156.2389 H   0  0  0  0  0  0  0  0  0  0  0  0
  151.5176  139.0740  155.6349 H   0  0  0  0  0  0  0  0  0  0  0  0
  150.4573  137.9391  154.7990 H   0  0  0  0  0  0  0  0  0  0  0  0
  148.0125  137.2756  156.2698 H   0  0  0  0  0  0  0  0  0  0  0  0
  149.4015  136.5852  157.0321 H   0  0  0  0  0  0  0  0  0  0  0  0
  147.4314  138.4041  158.3754 H   0  0  0  0  0  0  0  0  0  0  0  0
  143.7748  135.0986  161.2656 H   0  0  0  0  0  0  0  0  0  0  0  0
  145.1708  134.3688  163.4520 H   0  0  0  0  0  0  0  0  0  0  0  0
  147.0056  139.4593  157.1721 H   0  0  0  0  0  0  0  0  0  0  0  0
  147.8700  140.9677  157.3647 H   0  0  0  0  0  0  0  0  0  0  0  0
  146.1608  140.2111  154.9315 H   0  0  0  0  0  0  0  0  0  0  0  0
  145.7139  141.3368  156.2013 H   0  0  0  0  0  0  0  0  0  0  0  0
  147.9757  140.8274  153.4431 H   0  0  0  0  0  0  0  0  0  0  0  0
  148.8057  142.3463  153.7159 H   0  0  0  0  0  0  0  0  0  0  0  0
  149.8096  141.5001  155.8226 H   0  0  0  0  0  0  0  0  0  0  0  0
  150.1550  140.4247  154.4792 H   0  0  0  0  0  0  0  0  0  0  0  0
  148.2974  139.0987  155.1621 H   0  0  0  0  0  0  0  0  0  0  0  0
  1  2  1  0  0  0  0
  1 21  1  0  0  0  0
  1 22  1  0  0  0  0
  1 23  1  0  0  0  0
  2  3  1  0  0  0  0
  2 24  1  0  0  0  0
  2 25  1  0  0  0  0
  3  4  1  0  0  0  0
  3  5  1  0  0  0  0
  3 15  1  0  0  0  0
  4 26  1  0  0  0  0
  4 27  1  0  0  0  0
  4 28  1  0  0  0  0
  5  6  1  0  0  0  0
  5 29  1  0  0  0  0
  5 30  1  0  0  0  0
  6  7  1  0  0  0  0
  6 31  1  0  0  0  0
  7  8  2  0  0  0  0
  7  9  1  0  0  0  0
  9 10  1  0  0  0  0
 10 14  1  0  0  0  0
 10 11  2  0  0  0  0
 11 12  1  0  0  0  0
 12 13  2  0  0  0  0
 12 32  1  0  0  0  0
 13 14  1  0  0  0  0
 13 33  1  0  0  0  0
 15 20  1  0  0  0  0
 15 16  1  0  0  0  0
 15 42  1  0  0  0  0
 16 17  1  0  0  0  0
 16 34  1  0  0  0  0
 16 35  1  0  0  0  0
 17 18  1  0  0  0  0
 17 36  1  0  0  0  0
 17 37  1  0  0  0  0
 18 19  1  0  0  0  0
 19 20  1  0  0  0  0
 19 38  1  0  0  0  0
 19 39  1  0  0  0  0
 20 40  1  0  0  0  0
 20 41  1  0  0  0  0
M  CHG  1   9  -1
M  CHG  1  15   1
M  END
> <s_m_source_file>
AV-unprocessed.smi

> <i_m_source_file_index>
1995

> <i_lp_mmshare_version>
43012

> <i_f3d_flags>
0

> <s_epik_input>
W0NIMl0xW0NIMl1PW0NIMl1bQ0gyXU4xW0NAQF0oW0NIM10pKFtDSDJdW0NIM10pW0NIMl1bTkhdQyg9TylbTkhdYzJuW2NIXVtjSF1zMg==

> <s_epik_cmdline>
J2VwaWtfcHl0aG9uJywgJy1waCcsICc3LjAnLCAnLXRuJywgJzgnLCAnLW1hJywgJzIwMCcsICctbWV0YWxfYmluZGluZycsICctaW1hZScsICc8aW5maWxlLm1hZT4nLCAnLW9tYWUnLCAnPG91dGZpbGUubWFlPic=

> <r_lp_tautomer_probability>
0.999

> <r_epik_Ionization_Penalty>
8.09417

> <r_epik_Ionization_Penalty_Charging>
6.70334

> <r_epik_Ionization_Penalty_Neutral>
1.39083

> <r_epik_State_Penalty>
6.86521

> <r_epik_Charging_Adjusted_Penalty>
13.5685

> <i_epik_Tot_Q>
0

> <i_epik_Tot_abs_Q>
2

> <r_epik_Metal_State_Penalty>
2.79608

> <b_epik_Metal_Only>
1

> <s_lp_Force_Field>
OPLS_2005

> <r_lp_Energy>
20.9753

> <b_lp_Chiralities_Consistent>
1

> <s_lp_Variant>
AV-unprocessed.smi:1995-7

> <Gold.Version>
5.8.1

> <Gold.Id.Protein>
6NUR|6NUR_protein|mol2

> <Gold.PLP.Fitness>
35.6790

> <Gold.PLP.PLP>
-26.4907

> <Gold.PLP.part.hbond>
-3.0000

> <Gold.PLP.part.metal>
0.0000

> <Gold.PLP.part.buried>
-5.0619

> <Gold.PLP.part.nonpolar>
-19.9371

> <Gold.PLP.part.repulsive>
0.2523

> <Gold.PLP.ligand.clash>
0.0000

> <Gold.PLP.ligand.torsion>
1.8864

> <Gold.PLP.Chemscore.Hbond>
4.2000

> <Gold.PLP.Chemscore.CHOScore>
0.0000

> <Gold.PLP.Chemscore.Metal>
0.0000

> <Gold.Chemscore.Hbonds>
donor molecule, donor type, donor heavy atom, donor atom, acceptor molecule, acceptor atom, score
      P1  H  6896  6909       L1     8  0.63
      P1  H  6931  6943       L1     9  0.66
      P1  H  6934  6947       L1     9  1.95

> <Gold.PLP.Chemscore.Internal.Correction>
0.3611

> <Gold.Rescore>
     Score         DG    S(hbond)    S(metal)    S(lipo)     H(rot)  DE(clash)    DE(int)     intcor
     12.91     -14.80       2.20        0.00      55.18       1.75       0.01       1.87       ----

> <Gold.Chemscore.Fitness>
12.9093

> <Gold.Chemscore.DG>
-14.7959

> <Gold.Chemscore.ZeroCoef>
-5.4800

> <Gold.Chemscore.Hbond>
2.1992

> <Gold.Chemscore.Metal>
0.0000

> <Gold.Chemscore.Lipo>
55.1820

> <Gold.Chemscore.Internal_Hbond>
0.0000

> <Gold.Chemscore.DEClash>
0.0118

> <Gold.Chemscore.DEInternal>
1.8748

> <Gold.Chemscore.Rot>
1.7523

> <Gold.Chemscore.Internal.Correction>
   9.000000E+99

> <Gold.Chemscore.Hbonds>
donor molecule, donor type, donor heavy atom, donor atom, acceptor molecule, acceptor atom, score
      P1  H  6896  6909       L1     8  0.61
      P1  H  6931  6943       L1     9  0.19
      P1  H  6934  6947       L1     9  0.61

> <Gold.Chemscore.Hbond.Weighted>
-7.3454

> <Gold.Chemscore.Metal.Weighted>
-0.0000

> <Gold.Chemscore.Lipo.Weighted>
-6.4563

> <Gold.Chemscore.Internal_Hbond.Weighted>
0.0000

> <Gold.Chemscore.DEClash.Weighted>
0.0118

> <Gold.Chemscore.DEInternal.Weighted>
1.8748

> <Gold.Chemscore.Rot.Weighted>
4.4858

> <Gold.Chemscore.Internal.Correction.Weighted>
   9.000000E+99

> <Gold.Protein.RotatedTorsions>
[ 6907 6896 6895 6894 ] final   44.33 input  -60.11 | X-H torsion
[ 7974 7965 7964 7962 ] final -144.41 input  175.53 | X-H torsion
[ 8008 7997 7996 7995 ] final  -67.20 input   59.86 | X-H torsion
[ 10167 10162 10161 10158 ] final  139.59 input  -65.29 | X-H torsion
[ 10718 10713 10712 10709 ] final -178.75 input   66.30 | X-H torsion
[ 10763 10752 10751 10750 ] final  -21.73 input  -60.55 | X-H torsion
[ 11005 11000 10999 10996 ] final  -89.02 input  -57.11 | X-H torsion

> <Gold.Protein.ActiveResidues>
 VAL166  LYS551  ARG553  GLY616  TRP617  ASP618  TYR619  PRO620  LYS621  CYS622 
 ASP623  PHE694  ASN695  SER759  ASP760  ASP761  ALA762  ILE779  LEU786  VAL792 
 PHE793  MET794  SER795  GLU796  ALA797  LYS798  CYS799  TRP800  GLU811  SER814 

> <Gold.Protein.RotatedAtoms>
  152.2312  134.8320  160.0473 H   0  0  0  0  0  0  0  0  0  0  0  0  # atno 6907 bound_to 6896
  151.9068  133.3546  159.3858 H   0  0  0  0  0  0  0  0  0  0  0  0  # atno 6908 bound_to 6896
  150.7026  134.4698  159.5464 H   0  0  0  0  0  0  0  0  0  0  0  0  # atno 6909 bound_to 6896
  144.8300  140.5714  143.5521 H   0  0  0  0  0  0  0  0  0  0  0  0  # atno 7974 bound_to 7965
  154.4784  140.0897  156.7318 H   0  0  0  0  0  0  0  0  0  0  0  0  # atno 8008 bound_to 7997
  155.4535  140.3458  155.4285 H   0  0  0  0  0  0  0  0  0  0  0  0  # atno 8009 bound_to 7997
  156.1153  140.1459  156.9270 H   0  0  0  0  0  0  0  0  0  0  0  0  # atno 8010 bound_to 7997
  139.5074  144.6285  151.5877 H   0  0  0  0  0  0  0  0  0  0  0  0  # atno 10167 bound_to 10162
  156.8489  130.9712  151.3094 H   0  0  0  0  0  0  0  0  0  0  0  0  # atno 10718 bound_to 10713
  153.6408  135.6985  153.5242 H   0  0  0  0  0  0  0  0  0  0  0  0  # atno 10763 bound_to 10752
  153.2784  135.4193  155.1054 H   0  0  0  0  0  0  0  0  0  0  0  0  # atno 10764 bound_to 10752
  154.8500  135.3596  154.5952 H   0  0  0  0  0  0  0  0  0  0  0  0  # atno 10765 bound_to 10752
  141.1592  133.7604  156.9534 H   0  0  0  0  0  0  0  0  0  0  0  0  # atno 11005 bound_to 11000
  145.4917  139.1488  143.3706 LP  0  0  0  0  0  0  0  0  0  0  0  0  # atno 17320 bound_to 7965
  146.2603  140.5055  142.8856 LP  0  0  0  0  0  0  0  0  0  0  0  0  # atno 17321 bound_to 7965
  140.6010  143.9610  150.6386 LP  0  0  0  0  0  0  0  0  0  0  0  0  # atno 17342 bound_to 10162
  140.2821  143.3382  152.1141 LP  0  0  0  0  0  0  0  0  0  0  0  0  # atno 17343 bound_to 10162
  157.6314  130.8732  149.9281 LP  0  0  0  0  0  0  0  0  0  0  0  0  # atno 17370 bound_to 10713
  156.0839  130.3670  150.0526 LP  0  0  0  0  0  0  0  0  0  0  0  0  # atno 17371 bound_to 10713
  140.1241  134.9398  157.2246 LP  0  0  0  0  0  0  0  0  0  0  0  0  # atno 17394 bound_to 11000
  140.3034  134.3105  155.7284 LP  0  0  0  0  0  0  0  0  0  0  0  0  # atno 17395 bound_to 11000

$$$$
