AV-unprocessed.smi:82|AV-procd|sdf|797|dock4
  -GOLD-   2262017173D 1   1.00000     0.00000
 Structure written by MMmdl.
 59 62  0  0  0  0  0  0  0  0  2 V2000
  152.4941  144.1476  158.6414 C   0  0  0  0  0  0  0  0  0  0  0  0
  151.5244  143.1252  158.7924 O   0  0  0  0  0  0  0  0  0  0  0  0
  151.0930  142.5962  157.5495 C   0  0  0  0  0  0  0  0  0  0  0  0
  149.6870  141.9996  157.7252 C   0  0  0  0  0  0  0  0  0  0  0  0
  148.9008  141.9998  156.4579 N   0  3  1  0  0  0  0  0  0  0  0  0
  149.5170  141.1041  155.4372 C   0  0  0  0  0  0  0  0  0  0  0  0
  148.7635  141.1380  154.0979 C   0  0  0  0  0  0  0  0  0  0  0  0
  147.3411  140.8945  154.2777 N   0  0  0  0  0  0  0  0  0  0  0  0
  146.9428  139.6045  154.2246 C   0  0  0  0  0  0  0  0  0  0  0  0
  146.8229  138.8800  155.3667 N   0  0  0  0  0  0  0  0  0  0  0  0
  146.4302  137.6041  155.3075 C   0  0  0  0  0  0  0  0  0  0  0  0
  146.1137  136.8780  154.2332 N   0  0  0  0  0  0  0  0  0  0  0  0
  146.2317  137.6054  153.0843 C   0  0  0  0  0  0  0  0  0  0  0  0
  146.6375  138.9663  152.9947 C   0  0  0  0  0  0  0  0  0  0  0  0
  146.6431  139.3790  151.6696 N   0  0  0  0  0  0  0  0  0  0  0  0
  146.2614  138.3199  151.0089 C   0  0  0  0  0  0  0  0  0  0  0  0
  145.9933  137.2081  151.7778 N   0  0  0  0  0  0  0  0  0  0  0  0
  145.5627  135.9245  151.2976 C   0  0  0  0  0  0  0  0  0  0  0  0
  144.1049  135.6616  150.9147 C   0  0  0  0  0  0  0  0  0  0  0  0
  144.2535  134.1966  151.3877 C   0  0  0  0  0  0  0  0  0  0  0  0
  143.0428  133.6581  152.1702 C   0  0  0  0  0  0  0  0  0  0  0  0
  142.8538  134.3412  153.3922 O   0  0  0  0  0  0  0  0  0  0  0  0
  144.6081  133.2113  150.2541 C   0  0  0  0  0  0  0  0  0  0  0  0
  143.4986  132.9183  149.4299 O   0  0  0  0  0  0  0  0  0  0  0  0
  145.4342  134.7248  152.2365 C   0  0  0  0  0  0  0  0  0  0  0  0
  146.6950  141.7271  155.2816 C   0  0  0  0  0  0  0  0  0  0  0  0
  147.4375  141.7281  156.6399 C   0  0  2  0  0  0  0  0  0  0  0  0
  146.7417  142.7510  157.5612 C   0  0  0  0  0  0  0  0  0  0  0  0
  152.7956  144.5141  159.6229 H   0  0  0  0  0  0  0  0  0  0  0  0
  152.0943  144.9908  158.0762 H   0  0  0  0  0  0  0  0  0  0  0  0
  153.3844  143.7752  158.1330 H   0  0  0  0  0  0  0  0  0  0  0  0
  151.1185  143.3608  156.7735 H   0  0  0  0  0  0  0  0  0  0  0  0
  151.7793  141.8083  157.2355 H   0  0  0  0  0  0  0  0  0  0  0  0
  149.7523  140.9827  158.1144 H   0  0  0  0  0  0  0  0  0  0  0  0
  149.2010  142.5832  158.5025 H   0  0  0  0  0  0  0  0  0  0  0  0
  150.5508  141.3878  155.2493 H   0  0  0  0  0  0  0  0  0  0  0  0
  149.5446  140.0848  155.8237 H   0  0  0  0  0  0  0  0  0  0  0  0
  148.8842  142.1159  153.6305 H   0  0  0  0  0  0  0  0  0  0  0  0
  149.1877  140.4090  153.4058 H   0  0  0  0  0  0  0  0  0  0  0  0
  146.3593  137.0911  156.2553 H   0  0  0  0  0  0  0  0  0  0  0  0
  146.1657  138.3229  149.9326 H   0  0  0  0  0  0  0  0  0  0  0  0
  146.2179  135.6705  150.4623 H   0  0  0  0  0  0  0  0  0  0  0  0
  143.3982  136.2370  151.5141 H   0  0  0  0  0  0  0  0  0  0  0  0
  143.8926  135.7811  149.8518 H   0  0  0  0  0  0  0  0  0  0  0  0
  142.1263  133.7734  151.5908 H   0  0  0  0  0  0  0  0  0  0  0  0
  143.1440  132.5913  152.3725 H   0  0  0  0  0  0  0  0  0  0  0  0
  142.6936  133.7044  154.0718 H   0  0  0  0  0  0  0  0  0  0  0  0
  145.4123  133.6034  149.6306 H   0  0  0  0  0  0  0  0  0  0  0  0
  144.9734  132.2661  150.6561 H   0  0  0  0  0  0  0  0  0  0  0  0
  142.8969  133.6459  149.4642 H   0  0  0  0  0  0  0  0  0  0  0  0
  146.3118  134.0783  152.2603 H   0  0  0  0  0  0  0  0  0  0  0  0
  145.1337  135.0040  153.2476 H   0  0  0  0  0  0  0  0  0  0  0  0
  146.6500  142.7423  154.8856 H   0  0  0  0  0  0  0  0  0  0  0  0
  145.6606  141.4060  155.4156 H   0  0  0  0  0  0  0  0  0  0  0  0
  147.3357  140.7411  157.0926 H   0  0  0  0  0  0  0  0  0  0  0  0
  145.6583  142.6326  157.5208 H   0  0  0  0  0  0  0  0  0  0  0  0
  146.9694  143.7749  157.2626 H   0  0  0  0  0  0  0  0  0  0  0  0
  147.0150  142.6313  158.6083 H   0  0  0  0  0  0  0  0  0  0  0  0
  148.9584  142.9391  156.0908 H   0  0  0  0  0  0  0  0  0  0  0  0
  1  2  1  0  0  0  0
  1 29  1  0  0  0  0
  1 30  1  0  0  0  0
  1 31  1  0  0  0  0
  2  3  1  0  0  0  0
  3  4  1  0  0  0  0
  3 32  1  0  0  0  0
  3 33  1  0  0  0  0
  4  5  1  0  0  0  0
  4 34  1  0  0  0  0
  4 35  1  0  0  0  0
  5 27  1  0  0  0  0
  5  6  1  0  0  0  0
  5 59  1  0  0  0  0
  6  7  1  0  0  0  0
  6 36  1  0  0  0  0
  6 37  1  0  0  0  0
  7  8  1  0  0  0  0
  7 38  1  0  0  0  0
  7 39  1  0  0  0  0
  8  9  1  0  0  0  0
  8 26  1  0  0  0  0
  9 14  1  0  0  0  0
  9 10  2  0  0  0  0
 10 11  1  0  0  0  0
 11 12  2  0  0  0  0
 11 40  1  0  0  0  0
 12 13  1  0  0  0  0
 13 17  1  0  0  0  0
 13 14  2  0  0  0  0
 14 15  1  0  0  0  0
 15 16  2  0  0  0  0
 16 17  1  0  0  0  0
 16 41  1  0  0  0  0
 17 18  1  0  0  0  0
 18 25  1  0  0  0  0
 18 19  1  0  0  0  0
 18 42  1  0  0  0  0
 19 20  1  0  0  0  0
 19 43  1  0  0  0  0
 19 44  1  0  0  0  0
 20 21  1  0  0  0  0
 20 23  1  0  0  0  0
 20 25  1  0  0  0  0
 21 22  1  0  0  0  0
 21 45  1  0  0  0  0
 21 46  1  0  0  0  0
 22 47  1  0  0  0  0
 23 24  1  0  0  0  0
 23 48  1  0  0  0  0
 23 49  1  0  0  0  0
 24 50  1  0  0  0  0
 25 51  1  0  0  0  0
 25 52  1  0  0  0  0
 26 27  1  0  0  0  0
 26 53  1  0  0  0  0
 26 54  1  0  0  0  0
 27 28  1  0  0  0  0
 27 55  1  0  0  0  0
 28 56  1  0  0  0  0
 28 57  1  0  0  0  0
 28 58  1  0  0  0  0
M  CHG  1   5   1
M  END
> <s_m_source_file>
AV-unprocessed.smi

> <i_m_source_file_index>
82

> <i_lp_mmshare_version>
43012

> <i_f3d_flags>
0

> <s_epik_input>
W0NIM11PW0NIMl1bQ0gyXU4xW0NIMl1bQ0gyXU4oW0NIMl1bQ0BIXTFbQ0gzXSljKG5bY0hdbjIpYyhjMjMpbltjSF1uM1tDSF0oW0NIMl00KVtDSDJdQzQoW0NIMl1bT0hdKVtDSDJdW09IXQ==

> <s_epik_cmdline>
J2VwaWtfcHl0aG9uJywgJy1waCcsICc3LjAnLCAnLXRuJywgJzgnLCAnLW1hJywgJzIwMCcsICctbWV0YWxfYmluZGluZycsICctaW1hZScsICc8aW5maWxlLm1hZT4nLCAnLW9tYWUnLCAnPG91dGZpbGUubWFlPic=

> <r_lp_tautomer_probability>
1

> <r_epik_Ionization_Penalty>
0.304275

> <r_epik_Ionization_Penalty_Charging>
0.304214

> <r_epik_Ionization_Penalty_Neutral>
6.13137e-05

> <r_epik_State_Penalty>
0.300354

> <r_epik_Charging_Adjusted_Penalty>
0.604567

> <i_epik_Tot_Q>
1

> <i_epik_Tot_abs_Q>
1

> <r_epik_Metal_State_Penalty>
0.301147

> <b_epik_Metal_Only>
0

> <s_lp_Force_Field>
OPLS_2005

> <r_lp_Energy>
60.5055

> <b_lp_Chiralities_Consistent>
1

> <s_lp_Variant>
AV-unprocessed.smi:82-4

> <Gold.Version>
5.8.1

> <Gold.Id.Protein>
6NUR|6NUR_protein|mol2

> <Gold.PLP.Fitness>
52.4955

> <Gold.PLP.PLP>
-41.2301

> <Gold.PLP.part.hbond>
-3.0000

> <Gold.PLP.part.metal>
0.0000

> <Gold.PLP.part.buried>
-0.9058

> <Gold.PLP.part.nonpolar>
-40.1803

> <Gold.PLP.part.repulsive>
1.1381

> <Gold.PLP.ligand.clash>
0.0000

> <Gold.PLP.ligand.torsion>
1.4773

> <Gold.PLP.Chemscore.Hbond>
4.0000

> <Gold.PLP.Chemscore.CHOScore>
0.4027

> <Gold.PLP.Chemscore.Metal>
0.0000

> <Gold.Chemscore.Hbonds>
donor molecule, donor type, donor heavy atom, donor atom, acceptor molecule, acceptor atom, score
      L1  H     5    59       P1  8028  2.00
      L1  H    22    47       P1 10957  0.93
      L1  H    24    50       P1 10186  0.98
      L1  C    16    41       P1 10171  0.38

> <Gold.PLP.Chemscore.Internal.Correction>
1.0117

> <Gold.Rescore>
     Score         DG    S(hbond)    S(metal)    S(lipo)     H(rot)  DE(clash)    DE(int)     intcor
     11.35     -16.37       2.95        0.00      94.29       3.91       2.29       2.73       ----

> <Gold.Chemscore.Fitness>
11.3519

> <Gold.Chemscore.DG>
-16.3732

> <Gold.Chemscore.ZeroCoef>
-5.4800

> <Gold.Chemscore.Hbond>
2.9520

> <Gold.Chemscore.Metal>
0.0000

> <Gold.Chemscore.Lipo>
94.2872

> <Gold.Chemscore.Internal_Hbond>
0.0000

> <Gold.Chemscore.DEClash>
2.2927

> <Gold.Chemscore.DEInternal>
2.7286

> <Gold.Chemscore.Rot>
3.9055

> <Gold.Chemscore.Internal.Correction>
   9.000000E+99

> <Gold.Chemscore.Hbonds>
donor molecule, donor type, donor heavy atom, donor atom, acceptor molecule, acceptor atom, score
      L1  H     5    59       P1  8028  1.00
      L1  H    22    47       P1 10957  0.85
      L1  H    24    50       P1 10186  0.88

> <Gold.Chemscore.Hbond.Weighted>
-9.8597

> <Gold.Chemscore.Metal.Weighted>
-0.0000

> <Gold.Chemscore.Lipo.Weighted>
-11.0316

> <Gold.Chemscore.Internal_Hbond.Weighted>
0.0000

> <Gold.Chemscore.DEClash.Weighted>
2.2927

> <Gold.Chemscore.DEInternal.Weighted>
2.7286

> <Gold.Chemscore.Rot.Weighted>
9.9980

> <Gold.Chemscore.Internal.Correction.Weighted>
   9.000000E+99

> <Gold.Protein.RotatedTorsions>
[ 6907 6896 6895 6894 ] final  -35.85 input  -60.11 | X-H torsion
[ 7974 7965 7964 7962 ] final -130.94 input  175.53 | X-H torsion
[ 8008 7997 7996 7995 ] final  -55.45 input   59.86 | X-H torsion
[ 10167 10162 10161 10158 ] final  106.72 input  -65.29 | X-H torsion
[ 10718 10713 10712 10709 ] final -158.56 input   66.30 | X-H torsion
[ 10763 10752 10751 10750 ] final   80.78 input  -60.55 | X-H torsion
[ 11005 11000 10999 10996 ] final  -56.78 input  -57.11 | X-H torsion

> <Gold.Protein.ActiveResidues>
 VAL166  LYS551  ARG553  GLY616  TRP617  ASP618  TYR619  PRO620  LYS621  CYS622 
 ASP623  PHE694  ASN695  SER759  ASP760  ASP761  ALA762  ILE779  LEU786  VAL792 
 PHE793  MET794  SER795  GLU796  ALA797  LYS798  CYS799  TRP800  GLU811  SER814 

> <Gold.Protein.RotatedAtoms>
  151.0346  134.9564  159.8129 H   0  0  0  0  0  0  0  0  0  0  0  0  # atno 6907 bound_to 6896
  152.5352  134.2736  159.8991 H   0  0  0  0  0  0  0  0  0  0  0  0  # atno 6908 bound_to 6896
  151.2746  133.4196  159.2657 H   0  0  0  0  0  0  0  0  0  0  0  0  # atno 6909 bound_to 6896
  144.9427  140.7257  143.4837 H   0  0  0  0  0  0  0  0  0  0  0  0  # atno 7974 bound_to 7965
  154.4195  140.1152  156.5479 H   0  0  0  0  0  0  0  0  0  0  0  0  # atno 8008 bound_to 7997
  155.6440  140.3496  155.4706 H   0  0  0  0  0  0  0  0  0  0  0  0  # atno 8009 bound_to 7997
  155.9847  140.1167  157.0684 H   0  0  0  0  0  0  0  0  0  0  0  0  # atno 8010 bound_to 7997
  139.6986  144.7098  151.1224 H   0  0  0  0  0  0  0  0  0  0  0  0  # atno 10167 bound_to 10162
  156.5559  130.8625  151.2794 H   0  0  0  0  0  0  0  0  0  0  0  0  # atno 10718 bound_to 10713
  153.1062  135.4790  154.8955 H   0  0  0  0  0  0  0  0  0  0  0  0  # atno 10763 bound_to 10752
  154.7432  135.3087  154.8693 H   0  0  0  0  0  0  0  0  0  0  0  0  # atno 10764 bound_to 10752
  153.9295  135.6846  153.4799 H   0  0  0  0  0  0  0  0  0  0  0  0  # atno 10765 bound_to 10752
  141.1135  133.6610  156.4671 H   0  0  0  0  0  0  0  0  0  0  0  0  # atno 11005 bound_to 11000
  145.2966  139.1865  143.4712 LP  0  0  0  0  0  0  0  0  0  0  0  0  # atno 17320 bound_to 7965
  146.3292  140.2951  142.8617 LP  0  0  0  0  0  0  0  0  0  0  0  0  # atno 17321 bound_to 7965
  140.7703  143.5456  150.9262 LP  0  0  0  0  0  0  0  0  0  0  0  0  # atno 17342 bound_to 10162
  139.9137  143.6689  152.3110 LP  0  0  0  0  0  0  0  0  0  0  0  0  # atno 17343 bound_to 10162
  157.7378  130.9803  150.2216 LP  0  0  0  0  0  0  0  0  0  0  0  0  # atno 17370 bound_to 10713
  156.2843  130.3737  149.7904 LP  0  0  0  0  0  0  0  0  0  0  0  0  # atno 17371 bound_to 10713
  140.4709  134.6754  157.5128 LP  0  0  0  0  0  0  0  0  0  0  0  0  # atno 17394 bound_to 11000
  140.0043  134.6787  155.9479 LP  0  0  0  0  0  0  0  0  0  0  0  0  # atno 17395 bound_to 11000

$$$$
