#       Name:                AV-unprocessed.smi:72
#       Creating user name   scv26
#       Creation time:       Thu Mar 26 17:05:14 2020


#       File generated by GOLD software.
#

@<TRIPOS>MOLECULE
AV-unprocessed.smi:72
    41    42     1
SMALL
NO_CHARGES


@<TRIPOS>ATOM
      1 ****        -4.0598   2.8682  -1.7663 N.2            1 S1                 0.0000
      2 ****        -3.0891   2.3115  -1.1855 C.2            1 S1                 0.0000
      3 ****        -1.9529   1.8475  -1.9515 N.2            1 S1                 0.0000
      4 ****        -0.9765   1.2857  -1.3070 C.2            1 S1                 0.0000
      5 ****        -1.0062   1.1203   0.1409 N.am           1 S1                 0.0000
      6 ****         0.1311   0.4630   0.9053 C.3            1 S1                 0.0000
      7 ****         1.3029   0.4840   0.1383 O.3            1 S1                 0.0000
      8 ****         1.6278  -0.8315  -0.3034 C.3            1 S1                 0.0000
      9 ****         3.1361  -0.9300  -0.5787 C.3            1 S1                 0.0000
     10 ****         3.4280  -0.4431  -1.8712 O.3            1 S1                 0.0000
     11 ****         1.1644  -1.6785   0.8811 C.3            1 S1                 0.0000
     12 ****         1.0339  -3.0527   0.5668 O.3            1 S1                 0.0000
     13 ****        -0.1517  -1.0139   1.2708 C.3            1 S1                 0.0000
     14 ****        -1.2564  -1.5728   0.5751 O.3            1 S1                 0.0000
     15 ****        -2.1387   1.5786   0.8651 C.2            1 S1                 0.0000
     16 ****        -2.1514   1.4122   2.0851 O.2            1 S1                 0.0000
     17 ****        -3.1594   2.1684   0.1825 N.pl3          1 S1                -1.0000
     18 ****         0.3045   1.0980   1.7756 H              1 S1                 0.0000
     19 ****         1.0436  -1.0864  -1.1899 H              1 S1                 0.0000
     20 ****         1.8726  -1.5713   1.7044 H              1 S1                 0.0000
     21 ****        -0.3421  -1.0946   2.3414 H              1 S1                 0.0000
     22 ****        -4.7858   3.1442  -1.1211 H              1 S1                 0.0000
     23 ****        -0.0859   0.9068  -1.8077 H              1 S1                 0.0000
     24 ****         3.7128  -0.3877   0.1711 H              1 S1                 0.0000
     25 ****         3.4569  -1.9713  -0.5427 H              1 S1                 0.0000
     26 ****         4.3570  -0.5279  -2.0215 H              1 S1                 0.0000
     27 ****         0.6022  -3.4838   1.2882 H              1 S1                 0.0000
     28 ****        -2.0191  -1.0433   0.7535 H              1 S1                 0.0000
     29 ****        -4.1054   3.0193  -2.7537 LP             1 S1                 0.0000
     30 ****        -1.9209   1.9561  -2.9450 LP             1 S1                 0.0000
     31 ****         2.0543   0.8407   0.6934 LP             1 S1                 0.0000
     32 ****         1.1663   1.0748  -0.6568 LP             1 S1                 0.0000
     33 ****         3.1622   0.5187  -1.9371 LP             1 S1                 0.0000
     34 ****         2.9262  -0.9751  -2.5532 LP             1 S1                 0.0000
     35 ****         1.9388  -3.4544   0.4260 LP             1 S1                 0.0000
     36 ****         0.4890  -3.1587  -0.2649 LP             1 S1                 0.0000
     37 ****        -1.4143  -2.5093   0.8883 LP             1 S1                 0.0000
     38 ****        -1.0700  -1.5769  -0.4073 LP             1 S1                 0.0000
     39 ****        -1.3790   0.9658   2.5370 LP             1 S1                 0.0000
     40 ****        -2.9341   1.7235   2.6241 LP             1 S1                 0.0000
     41 ****        -3.9633   2.4989   0.6769 LP             1 S1                 0.0000
@<TRIPOS>BOND
    1    1    2 2     
    2    1   22 1     
    3    2   17 1     
    4    2    3 1     
    5    3    4 2     
    6    4    5 1     
    7    4   23 1     
    8    5    6 1     
    9    5   15 am    
   10    6   18 1     
   11    6   13 1     
   12    6    7 1     
   13    7    8 1     
   14    8   19 1     
   15    8    9 1     
   16    8   11 1     
   17    9   10 1     
   18    9   24 1     
   19    9   25 1     
   20   10   26 1     
   21   11   20 1     
   22   11   12 1     
   23   11   13 1     
   24   12   27 1     
   25   13   21 1     
   26   13   14 1     
   27   14   28 1     
   28   15   16 2     
   29   15   17 1     
   30    1   29 1     
   31    3   30 1     
   32    7   31 1     
   33    7   32 1     
   34   10   33 1     
   35   10   34 1     
   36   12   35 1     
   37   12   36 1     
   38   14   37 1     
   39   14   38 1     
   40   16   39 1     
   41   16   40 1     
   42   17   41 1     
@<TRIPOS>SUBSTRUCTURE
      1 S1             1
@<TRIPOS>SET
LONE_PAIRS      STATIC     ATOMS    <user>   **** ""
13 29 30 31 32 33 34 35 36 37 38 39 40 41
DONOR_HYDROGENS      STATIC     ATOMS    <user>   **** ""
4 22 26 27 28
ATOM$BLUE        STATIC     ATOMS    COLORGROUP SYSTEM
13 29 30 31 32 33 34 35 36 37 38 39 40 41
ATOM$RED        STATIC     ATOMS    COLORGROUP SYSTEM
4 22 26 27 28
