AV-unprocessed.smi:439|AV-procd|sdf|2579|dock10
  -GOLD-   2262022563D 1   1.00000     0.00000
 Structure written by MMmdl.
 46 47  0  0  0  0  0  0  0  0  1 V2000
  144.7749  132.3514  151.0320 C   0  0  0  0  0  0  0  0  0  0  0  0
  146.0678  131.7182  151.5630 C   0  0  0  0  0  0  0  0  0  0  0  0
  146.6690  132.4596  152.7673 C   0  0  0  0  0  0  0  0  0  0  0  0
  148.0270  131.8925  153.2198 C   0  0  0  0  0  0  0  0  0  0  0  0
  148.4516  132.4226  154.5003 N   0  0  0  0  0  0  0  0  0  0  0  0
  148.7654  133.7684  154.7142 C   0  0  0  0  0  0  0  0  0  0  0  0
  148.6677  134.6345  153.6367 N   0  0  0  0  0  0  0  0  0  0  0  0
  149.1407  134.2331  155.9439 C   0  0  0  0  0  0  0  0  0  0  0  0
  149.4824  135.5871  156.1595 N   0  0  0  0  0  0  0  0  0  0  0  0
  148.5774  136.3412  157.0467 C   0  0  0  0  0  0  0  0  0  0  0  0
  149.1868  136.6549  158.4256 C   0  0  0  0  0  0  0  0  0  0  0  0
  150.4524  136.2435  155.4541 C   0  0  0  0  0  0  0  0  0  0  0  0
  151.3141  135.6217  154.8287 O   0  0  0  0  0  0  0  0  0  0  0  0
  150.3985  137.7093  155.4525 C   0  0  0  0  0  0  0  0  0  0  0  0
  150.3973  138.3583  154.2653 C   0  0  0  0  0  0  0  0  0  0  0  0
  150.2937  139.7209  154.1379 O   0  0  0  0  0  0  0  0  0  0  0  0
  149.9303  140.4049  155.3308 C   0  0  0  0  0  0  0  0  0  0  0  0
  150.6516  139.7943  156.5400 C   0  0  0  0  0  0  0  0  0  0  0  0
  150.3465  138.4089  156.6375 O   0  0  0  0  0  0  0  0  0  0  0  0
  149.2718  133.3076  157.0800 C   0  0  0  0  0  0  0  0  0  0  0  0
  149.6223  133.6122  158.2193 O   0  0  0  0  0  0  0  0  0  0  0  0
  148.9722  131.9788  156.7933 N   0  0  0  0  0  0  0  0  0  0  0  0
  148.5748  131.4877  155.5554 C   0  0  0  0  0  0  0  0  0  0  0  0
  148.3549  130.2828  155.4274 O   0  0  0  0  0  0  0  0  0  0  0  0
  149.0591  131.3131  157.5476 H   0  0  0  0  0  0  0  0  0  0  0  0
  144.4244  131.8255  150.1438 H   0  0  0  0  0  0  0  0  0  0  0  0
  144.9307  133.3954  150.7593 H   0  0  0  0  0  0  0  0  0  0  0  0
  143.9748  132.3121  151.7709 H   0  0  0  0  0  0  0  0  0  0  0  0
  145.8881  130.6745  151.8232 H   0  0  0  0  0  0  0  0  0  0  0  0
  146.8032  131.7068  150.7577 H   0  0  0  0  0  0  0  0  0  0  0  0
  146.7930  133.5097  152.5001 H   0  0  0  0  0  0  0  0  0  0  0  0
  145.9619  132.4416  153.5973 H   0  0  0  0  0  0  0  0  0  0  0  0
  148.0021  130.8088  153.3237 H   0  0  0  0  0  0  0  0  0  0  0  0
  148.8156  132.0838  152.4901 H   0  0  0  0  0  0  0  0  0  0  0  0
  148.3804  134.3149  152.7226 H   0  0  0  0  0  0  0  0  0  0  0  0
  148.8935  135.6155  153.7184 H   0  0  0  0  0  0  0  0  0  0  0  0
  148.2778  137.2691  156.5566 H   0  0  0  0  0  0  0  0  0  0  0  0
  147.6513  135.7831  157.1950 H   0  0  0  0  0  0  0  0  0  0  0  0
  148.4652  137.1847  159.0477 H   0  0  0  0  0  0  0  0  0  0  0  0
  150.0712  137.2870  158.3477 H   0  0  0  0  0  0  0  0  0  0  0  0
  149.4716  135.7495  158.9590 H   0  0  0  0  0  0  0  0  0  0  0  0
  150.4439  137.8740  153.3002 H   0  0  0  0  0  0  0  0  0  0  0  0
  150.1828  141.4602  155.2282 H   0  0  0  0  0  0  0  0  0  0  0  0
  148.8493  140.3438  155.4630 H   0  0  0  0  0  0  0  0  0  0  0  0
  151.7316  139.9194  156.4481 H   0  0  0  0  0  0  0  0  0  0  0  0
  150.3468  140.2927  157.4603 H   0  0  0  0  0  0  0  0  0  0  0  0
  1  2  1  0  0  0  0
  1 26  1  0  0  0  0
  1 27  1  0  0  0  0
  1 28  1  0  0  0  0
  2  3  1  0  0  0  0
  2 29  1  0  0  0  0
  2 30  1  0  0  0  0
  3  4  1  0  0  0  0
  3 31  1  0  0  0  0
  3 32  1  0  0  0  0
  4  5  1  0  0  0  0
  4 33  1  0  0  0  0
  4 34  1  0  0  0  0
  5 23  1  0  0  0  0
  5  6  1  0  0  0  0
  6  7  1  0  0  0  0
  6  8  2  0  0  0  0
  7 35  1  0  0  0  0
  7 36  1  0  0  0  0
  8  9  1  0  0  0  0
  8 20  1  0  0  0  0
  9 10  1  0  0  0  0
  9 12  1  0  0  0  0
 10 11  1  0  0  0  0
 10 37  1  0  0  0  0
 10 38  1  0  0  0  0
 11 39  1  0  0  0  0
 11 40  1  0  0  0  0
 11 41  1  0  0  0  0
 12 13  2  0  0  0  0
 12 14  1  0  0  0  0
 14 19  1  0  0  0  0
 14 15  2  0  0  0  0
 15 16  1  0  0  0  0
 15 42  1  0  0  0  0
 16 17  1  0  0  0  0
 17 18  1  0  0  0  0
 17 43  1  0  0  0  0
 17 44  1  0  0  0  0
 18 19  1  0  0  0  0
 18 45  1  0  0  0  0
 18 46  1  0  0  0  0
 20 21  2  0  0  0  0
 20 22  1  0  0  0  0
 22 25  1  0  0  0  0
 22 23  1  0  0  0  0
 23 24  2  0  0  0  0
M  END
> <s_m_source_file>
AV-unprocessed.smi

> <i_m_source_file_index>
439

> <i_lp_mmshare_version>
43012

> <i_f3d_flags>
0

> <s_epik_input>
W0NIM11bQ0gyXVtDSDJdW0NIMl1uMWMoW05IMl0pYyhjKD1PKVtuSF1jMT1PKU4oW0NIMl1bQ0gzXSlDKD1PKUMyPVtDSF1PW0NIMl1bQ0gyXU8y

> <s_epik_cmdline>
J2VwaWtfcHl0aG9uJywgJy1waCcsICc3LjAnLCAnLXRuJywgJzgnLCAnLW1hJywgJzIwMCcsICctbWV0YWxfYmluZGluZycsICctaW1hZScsICc8aW5maWxlLm1hZT4nLCAnLW9tYWUnLCAnPG91dGZpbGUubWFlPic=

> <r_lp_tautomer_probability>
1

> <r_epik_Ionization_Penalty>
3.16361e-05

> <r_epik_Ionization_Penalty_Charging>
2.29435e-05

> <r_epik_Ionization_Penalty_Neutral>
8.69256e-06

> <r_epik_State_Penalty>
-0

> <r_epik_Charging_Adjusted_Penalty>
2.29435e-05

> <i_epik_Tot_Q>
0

> <i_epik_Tot_abs_Q>
0

> <r_epik_Metal_State_Penalty>
0.0222995

> <b_epik_Metal_Only>
0

> <s_epik_Chemistry_Notes>
This compound has an imine and may undergo hydrolysis.

> <s_lp_Force_Field>
OPLS_2005

> <r_lp_Energy>
28.4658

> <b_lp_Chiralities_Consistent>
1

> <s_lp_Variant>
AV-unprocessed.smi:439-1

> <Gold.Version>
5.8.1

> <Gold.Id.Protein>
6NUR|6NUR_protein|mol2

> <Gold.PLP.Fitness>
35.3931

> <Gold.PLP.PLP>
-24.8117

> <Gold.PLP.part.hbond>
-3.5928

> <Gold.PLP.part.metal>
0.0000

> <Gold.PLP.part.buried>
-2.6850

> <Gold.PLP.part.nonpolar>
-20.3886

> <Gold.PLP.part.repulsive>
1.0170

> <Gold.PLP.ligand.clash>
0.0000

> <Gold.PLP.ligand.torsion>
2.4960

> <Gold.PLP.Chemscore.Hbond>
3.0800

> <Gold.PLP.Chemscore.CHOScore>
0.9923

> <Gold.PLP.Chemscore.Metal>
0.0000

> <Gold.Chemscore.Hbonds>
donor molecule, donor type, donor heavy atom, donor atom, acceptor molecule, acceptor atom, score
      L1  H     7    36       P1  7948  0.06
      P1  H  6896  6908       L1    21  1.00
      P1  H  7989  7998       L1    16  1.00
      P1  H 10752 10763       L1    13  1.00
      L1  C    15    42       P1  7948  0.66
      L1  C    15    42       P1  7949  0.28

> <Gold.PLP.Chemscore.Internal.Correction>
3.3566

> <Gold.Rescore>
     Score         DG    S(hbond)    S(metal)    S(lipo)     H(rot)  DE(clash)    DE(int)     intcor
     10.93     -17.51       2.97        0.00      54.36       1.66       0.38       6.20       ----

> <Gold.Chemscore.Fitness>
10.9310

> <Gold.Chemscore.DG>
-17.5107

> <Gold.Chemscore.ZeroCoef>
-5.4800

> <Gold.Chemscore.Hbond>
2.9671

> <Gold.Chemscore.Metal>
0.0000

> <Gold.Chemscore.Lipo>
54.3631

> <Gold.Chemscore.Internal_Hbond>
0.0000

> <Gold.Chemscore.DEClash>
0.3817

> <Gold.Chemscore.DEInternal>
6.1980

> <Gold.Chemscore.Rot>
1.6562

> <Gold.Chemscore.Internal.Correction>
   9.000000E+99

> <Gold.Chemscore.Hbonds>
donor molecule, donor type, donor heavy atom, donor atom, acceptor molecule, acceptor atom, score
      L1  H     7    36       P1  7948  0.08
      P1  H  6896  6908       L1    21  0.97
      P1  H  7989  7998       L1    16  0.29
      P1  H 10752 10763       L1    13  0.99

> <Gold.Chemscore.Hbond.Weighted>
-9.9100

> <Gold.Chemscore.Metal.Weighted>
-0.0000

> <Gold.Chemscore.Lipo.Weighted>
-6.3605

> <Gold.Chemscore.Internal_Hbond.Weighted>
0.0000

> <Gold.Chemscore.DEClash.Weighted>
0.3817

> <Gold.Chemscore.DEInternal.Weighted>
6.1980

> <Gold.Chemscore.Rot.Weighted>
4.2398

> <Gold.Chemscore.Internal.Correction.Weighted>
   9.000000E+99

> <Gold.Protein.RotatedTorsions>
[ 6907 6896 6895 6894 ] final  123.72 input  -60.11 | X-H torsion
[ 7974 7965 7964 7962 ] final  -46.35 input  175.53 | X-H torsion
[ 8008 7997 7996 7995 ] final  137.40 input   59.86 | X-H torsion
[ 10167 10162 10161 10158 ] final  -22.81 input  -65.29 | X-H torsion
[ 10718 10713 10712 10709 ] final  -34.59 input   66.30 | X-H torsion
[ 10763 10752 10751 10750 ] final   59.45 input  -60.55 | X-H torsion
[ 11005 11000 10999 10996 ] final  178.97 input  -57.11 | X-H torsion

> <Gold.Protein.ActiveResidues>
 VAL166  LYS551  ARG553  GLY616  TRP617  ASP618  TYR619  PRO620  LYS621  CYS622 
 ASP623  PHE694  ASN695  SER759  ASP760  ASP761  ALA762  ILE779  LEU786  VAL792 
 PHE793  MET794  SER795  GLU796  ALA797  LYS798  CYS799  TRP800  GLU811  SER814 

> <Gold.Protein.RotatedAtoms>
  152.4139  133.7006  159.6421 H   0  0  0  0  0  0  0  0  0  0  0  0  # atno 6907 bound_to 6896
  150.8017  133.8576  159.3231 H   0  0  0  0  0  0  0  0  0  0  0  0  # atno 6908 bound_to 6896
  151.6311  135.1024  160.0173 H   0  0  0  0  0  0  0  0  0  0  0  0  # atno 6909 bound_to 6896
  145.9728  140.7365  142.9402 H   0  0  0  0  0  0  0  0  0  0  0  0  # atno 7974 bound_to 7965
  156.3002  140.2420  156.3904 H   0  0  0  0  0  0  0  0  0  0  0  0  # atno 8008 bound_to 7997
  154.8619  140.0419  157.1690 H   0  0  0  0  0  0  0  0  0  0  0  0  # atno 8009 bound_to 7997
  154.8887  140.2960  155.5387 H   0  0  0  0  0  0  0  0  0  0  0  0  # atno 8010 bound_to 7997
  140.7287  143.4501  151.0529 H   0  0  0  0  0  0  0  0  0  0  0  0  # atno 10167 bound_to 10162
  156.3488  130.4305  149.7722 H   0  0  0  0  0  0  0  0  0  0  0  0  # atno 10718 bound_to 10713
  152.9895  135.5571  154.5714 H   0  0  0  0  0  0  0  0  0  0  0  0  # atno 10763 bound_to 10752
  154.5114  135.2802  155.1342 H   0  0  0  0  0  0  0  0  0  0  0  0  # atno 10764 bound_to 10752
  154.2732  135.6359  153.5371 H   0  0  0  0  0  0  0  0  0  0  0  0  # atno 10765 bound_to 10752
  140.4010  134.6777  157.4562 H   0  0  0  0  0  0  0  0  0  0  0  0  # atno 11005 bound_to 11000
  144.6841  140.2778  143.7296 LP  0  0  0  0  0  0  0  0  0  0  0  0  # atno 17320 bound_to 7965
  145.7881  139.1916  143.2119 LP  0  0  0  0  0  0  0  0  0  0  0  0  # atno 17321 bound_to 7965
  139.8176  143.7864  152.3175 LP  0  0  0  0  0  0  0  0  0  0  0  0  # atno 17342 bound_to 10162
  139.7936  144.7401  150.9921 LP  0  0  0  0  0  0  0  0  0  0  0  0  # atno 17343 bound_to 10162
  156.4931  130.8094  151.3102 LP  0  0  0  0  0  0  0  0  0  0  0  0  # atno 17370 bound_to 10713
  157.7458  130.9969  150.2796 LP  0  0  0  0  0  0  0  0  0  0  0  0  # atno 17371 bound_to 10713
  140.0336  134.6370  155.9073 LP  0  0  0  0  0  0  0  0  0  0  0  0  # atno 17394 bound_to 11000
  141.1856  133.6555  156.5207 LP  0  0  0  0  0  0  0  0  0  0  0  0  # atno 17395 bound_to 11000

$$$$
