AV-unprocessed.smi:281|AV-procd|sdf|2106|dock8
  -GOLD-   2262021403D 1   1.00000     0.00000
 Structure written by MMmdl.
 55 59  0  0  0  0  0  0  0  0  1 V2000
  149.1742  129.3320  161.5943 C   0  0  0  0  0  0  0  0  0  0  0  0
  148.8632  130.7805  161.2042 C   0  0  1  0  0  0  0  0  0  0  0  0
  149.0414  131.0219  159.6950 C   0  0  0  0  0  0  0  0  0  0  0  0
  148.6315  132.3780  159.3600 N   0  0  0  0  0  0  0  0  0  0  0  0
  148.9117  132.7406  158.0913 C   0  0  0  0  0  0  0  0  0  0  0  0
  149.8387  133.7138  157.9191 N   0  0  0  0  0  0  0  0  0  0  0  0
  150.1580  134.1195  156.6863 C   0  0  0  0  0  0  0  0  0  0  0  0
  149.6783  133.6930  155.5158 N   0  0  0  0  0  0  0  0  0  0  0  0
  148.7411  132.7166  155.6882 C   0  0  0  0  0  0  0  0  0  0  0  0
  148.3033  132.1817  156.9321 C   0  0  0  0  0  0  0  0  0  0  0  0
  147.3460  131.1981  156.7151 N   0  0  0  0  0  0  0  0  0  0  0  0
  147.2256  131.1535  155.4164 C   0  0  0  0  0  0  0  0  0  0  0  0
  148.0185  132.0392  154.7211 N   0  0  0  0  0  0  0  0  0  0  0  0
  148.0867  132.2034  153.2765 C   0  0  0  0  0  0  0  0  0  0  0  0
  147.0494  133.2042  152.7109 C   0  0  1  0  0  0  0  0  0  0  0  0
  147.3517  134.5026  153.1881 O   0  0  0  0  0  0  0  0  0  0  0  0
  147.0373  133.2264  151.1806 C   0  0  0  0  0  0  0  0  0  0  0  0
  145.7181  132.5537  150.8214 C   0  0  0  0  0  0  0  0  0  0  0  0
  144.8603  132.9772  151.8655 O   0  0  0  0  0  0  0  0  0  0  0  0
  145.5918  132.8590  153.0770 C   0  0  0  0  0  0  0  0  0  0  0  0
  147.2604  132.6620  159.7599 C   0  0  0  0  0  0  0  0  0  0  0  0
  147.0678  132.3842  161.2720 C   0  0  1  0  0  0  0  0  0  0  0  0
  147.7563  133.4189  162.1568 C   0  0  0  0  0  0  0  0  0  0  0  0
  146.7337  134.5472  162.2286 C   0  0  0  0  0  0  0  0  0  0  0  0
  145.4612  133.9196  162.1229 O   0  0  0  0  0  0  0  0  0  0  0  0
  145.6163  132.5495  161.7628 C   0  0  1  0  0  0  0  0  0  0  0  0
  144.5033  132.1053  160.8022 C   0  0  0  0  0  0  0  0  0  0  0  0
  147.5121  131.0577  161.5754 O   0  0  0  0  0  0  0  0  0  0  0  0
  150.2022  129.0698  161.3435 H   0  0  0  0  0  0  0  0  0  0  0  0
  148.5145  128.6342  161.0778 H   0  0  0  0  0  0  0  0  0  0  0  0
  149.0448  129.1812  162.6663 H   0  0  0  0  0  0  0  0  0  0  0  0
  149.5355  131.4356  161.7600 H   0  0  0  0  0  0  0  0  0  0  0  0
  150.0836  130.8695  159.4107 H   0  0  0  0  0  0  0  0  0  0  0  0
  148.4436  130.3047  159.1313 H   0  0  0  0  0  0  0  0  0  0  0  0
  150.9034  134.8990  156.6290 H   0  0  0  0  0  0  0  0  0  0  0  0
  146.5478  130.4682  154.9287 H   0  0  0  0  0  0  0  0  0  0  0  0
  149.0977  132.5201  153.0161 H   0  0  0  0  0  0  0  0  0  0  0  0
  147.9479  131.2234  152.8181 H   0  0  0  0  0  0  0  0  0  0  0  0
  147.7537  134.9930  152.4872 H   0  0  0  0  0  0  0  0  0  0  0  0
  147.0269  134.2504  150.8029 H   0  0  0  0  0  0  0  0  0  0  0  0
  147.8938  132.7224  150.7313 H   0  0  0  0  0  0  0  0  0  0  0  0
  145.3440  132.8531  149.8422 H   0  0  0  0  0  0  0  0  0  0  0  0
  145.8137  131.4669  150.8398 H   0  0  0  0  0  0  0  0  0  0  0  0
  145.5042  131.8245  153.4101 H   0  0  0  0  0  0  0  0  0  0  0  0
  145.1740  133.4937  153.8599 H   0  0  0  0  0  0  0  0  0  0  0  0
  147.0048  133.6946  159.5185 H   0  0  0  0  0  0  0  0  0  0  0  0
  146.5954  132.0250  159.1768 H   0  0  0  0  0  0  0  0  0  0  0  0
  147.9104  133.0085  163.1559 H   0  0  0  0  0  0  0  0  0  0  0  0
  148.7247  133.7518  161.7817 H   0  0  0  0  0  0  0  0  0  0  0  0
  146.8174  135.1247  163.1495 H   0  0  0  0  0  0  0  0  0  0  0  0
  146.8570  135.2314  161.3884 H   0  0  0  0  0  0  0  0  0  0  0  0
  145.5093  131.9854  162.6909 H   0  0  0  0  0  0  0  0  0  0  0  0
  144.6377  131.0662  160.5007 H   0  0  0  0  0  0  0  0  0  0  0  0
  144.4773  132.7204  159.9025 H   0  0  0  0  0  0  0  0  0  0  0  0
  143.5272  132.1877  161.2804 H   0  0  0  0  0  0  0  0  0  0  0  0
  1  2  1  0  0  0  0
  1 29  1  0  0  0  0
  1 30  1  0  0  0  0
  1 31  1  0  0  0  0
  2 28  1  0  0  0  0
  2  3  1  0  0  0  0
  2 32  1  0  0  0  0
  3  4  1  0  0  0  0
  3 33  1  0  0  0  0
  3 34  1  0  0  0  0
  4  5  1  0  0  0  0
  4 21  1  0  0  0  0
  5 10  1  0  0  0  0
  5  6  2  0  0  0  0
  6  7  1  0  0  0  0
  7  8  2  0  0  0  0
  7 35  1  0  0  0  0
  8  9  1  0  0  0  0
  9 13  1  0  0  0  0
  9 10  2  0  0  0  0
 10 11  1  0  0  0  0
 11 12  2  0  0  0  0
 12 13  1  0  0  0  0
 12 36  1  0  0  0  0
 13 14  1  0  0  0  0
 14 15  1  0  0  0  0
 14 37  1  0  0  0  0
 14 38  1  0  0  0  0
 15 20  1  0  0  0  0
 15 16  1  0  0  0  0
 15 17  1  0  0  0  0
 16 39  1  0  0  0  0
 17 18  1  0  0  0  0
 17 40  1  0  0  0  0
 17 41  1  0  0  0  0
 18 19  1  0  0  0  0
 18 42  1  0  0  0  0
 18 43  1  0  0  0  0
 19 20  1  0  0  0  0
 20 44  1  0  0  0  0
 20 45  1  0  0  0  0
 21 22  1  0  0  0  0
 21 46  1  0  0  0  0
 21 47  1  0  0  0  0
 22 26  1  0  0  0  0
 22 23  1  0  0  0  0
 22 28  1  0  0  0  0
 23 24  1  0  0  0  0
 23 48  1  0  0  0  0
 23 49  1  0  0  0  0
 24 25  1  0  0  0  0
 24 50  1  0  0  0  0
 24 51  1  0  0  0  0
 25 26  1  0  0  0  0
 26 27  1  0  0  0  0
 26 52  1  0  0  0  0
 27 53  1  0  0  0  0
 27 54  1  0  0  0  0
 27 55  1  0  0  0  0
M  END
> <s_m_source_file>
AV-unprocessed.smi

> <i_m_source_file_index>
281

> <i_lp_mmshare_version>
43012

> <i_f3d_flags>
0

> <s_epik_input>
W0NIM11bQ0BASF0xT1tDSDJdW0NIMl1bQ0BAXTEyW0NIMl1OKFtDSDJdW0NASF0oTzIpW0NIM10pYyhuW2NIXW4zKWMoYzM0KW5bY0hdbjRbQ0gyXVtDQEBdNShbT0hdKVtDSDJdW0NIMl1PW0NIMl01

> <s_epik_cmdline>
J2VwaWtfcHl0aG9uJywgJy1waCcsICc3LjAnLCAnLXRuJywgJzgnLCAnLW1hJywgJzIwMCcsICctbWV0YWxfYmluZGluZycsICctaW1hZScsICc8aW5maWxlLm1hZT4nLCAnLW9tYWUnLCAnPG91dGZpbGUubWFlPic=

> <r_lp_tautomer_probability>
1

> <r_epik_Ionization_Penalty>
0.00571331

> <r_epik_Ionization_Penalty_Charging>
0

> <r_epik_Ionization_Penalty_Neutral>
0.00571331

> <r_epik_State_Penalty>
0.00399586

> <r_epik_Charging_Adjusted_Penalty>
0.00399586

> <i_epik_Tot_Q>
0

> <i_epik_Tot_abs_Q>
0

> <r_epik_Metal_State_Penalty>
-0

> <b_epik_Metal_Only>
0

> <s_lp_Force_Field>
OPLS_2005

> <r_lp_Energy>
56.3854

> <b_lp_Chiralities_Consistent>
1

> <s_lp_Variant>
AV-unprocessed.smi:281-6

> <Gold.Version>
5.8.1

> <Gold.Id.Protein>
6NUR|6NUR_protein|mol2

> <Gold.PLP.Fitness>
38.3898

> <Gold.PLP.PLP>
-33.1788

> <Gold.PLP.part.hbond>
-2.2337

> <Gold.PLP.part.metal>
0.0000

> <Gold.PLP.part.buried>
-5.3706

> <Gold.PLP.part.nonpolar>
-25.8047

> <Gold.PLP.part.repulsive>
0.1739

> <Gold.PLP.ligand.clash>
0.0000

> <Gold.PLP.ligand.torsion>
0.4559

> <Gold.PLP.Chemscore.Hbond>
2.0000

> <Gold.PLP.Chemscore.CHOScore>
0.0000

> <Gold.PLP.Chemscore.Metal>
0.0000

> <Gold.Chemscore.Hbonds>
donor molecule, donor type, donor heavy atom, donor atom, acceptor molecule, acceptor atom, score
      L1  H    16    39       P1  7948  1.00
      P1  H  6896  6909       L1     6  1.00

> <Gold.PLP.Chemscore.Internal.Correction>
0.1228

> <Gold.Rescore>
     Score         DG    S(hbond)    S(metal)    S(lipo)     H(rot)  DE(clash)    DE(int)     intcor
     15.33     -15.78       1.91        0.00      79.23       2.09       0.00       0.44       ----

> <Gold.Chemscore.Fitness>
15.3284

> <Gold.Chemscore.DG>
-15.7760

> <Gold.Chemscore.ZeroCoef>
-5.4800

> <Gold.Chemscore.Hbond>
1.9112

> <Gold.Chemscore.Metal>
0.0000

> <Gold.Chemscore.Lipo>
79.2298

> <Gold.Chemscore.Internal_Hbond>
0.0000

> <Gold.Chemscore.DEClash>
0.0038

> <Gold.Chemscore.DEInternal>
0.4438

> <Gold.Chemscore.Rot>
2.0927

> <Gold.Chemscore.Internal.Correction>
   9.000000E+99

> <Gold.Chemscore.Hbonds>
donor molecule, donor type, donor heavy atom, donor atom, acceptor molecule, acceptor atom, score
      L1  H    16    39       P1  7948  0.93
      P1  H  6896  6909       L1     6  0.74

> <Gold.Chemscore.Hbond.Weighted>
-6.3834

> <Gold.Chemscore.Metal.Weighted>
-0.0000

> <Gold.Chemscore.Lipo.Weighted>
-9.2699

> <Gold.Chemscore.Internal_Hbond.Weighted>
0.0000

> <Gold.Chemscore.DEClash.Weighted>
0.0038

> <Gold.Chemscore.DEInternal.Weighted>
0.4438

> <Gold.Chemscore.Rot.Weighted>
5.3573

> <Gold.Chemscore.Internal.Correction.Weighted>
   9.000000E+99

> <Gold.Protein.RotatedTorsions>
[ 6907 6896 6895 6894 ] final    6.97 input  -60.11 | X-H torsion
[ 7974 7965 7964 7962 ] final  -12.65 input  175.53 | X-H torsion
[ 8008 7997 7996 7995 ] final  147.52 input   59.86 | X-H torsion
[ 10167 10162 10161 10158 ] final  137.26 input  -65.29 | X-H torsion
[ 10718 10713 10712 10709 ] final  169.63 input   66.30 | X-H torsion
[ 10763 10752 10751 10750 ] final   -3.41 input  -60.55 | X-H torsion
[ 11005 11000 10999 10996 ] final  162.56 input  -57.11 | X-H torsion

> <Gold.Protein.ActiveResidues>
 VAL166  LYS551  ARG553  GLY616  TRP617  ASP618  TYR619  PRO620  LYS621  CYS622 
 ASP623  PHE694  ASN695  SER759  ASP760  ASP761  ALA762  ILE779  LEU786  VAL792 
 PHE793  MET794  SER795  GLU796  ALA797  LYS798  CYS799  TRP800  GLU811  SER814 

> <Gold.Protein.RotatedAtoms>
  151.6823  135.0960  160.0218 H   0  0  0  0  0  0  0  0  0  0  0  0  # atno 6907 bound_to 6896
  152.3828  133.6565  159.6183 H   0  0  0  0  0  0  0  0  0  0  0  0  # atno 6908 bound_to 6896
  150.7761  133.9002  159.3380 H   0  0  0  0  0  0  0  0  0  0  0  0  # atno 6909 bound_to 6896
  146.2144  140.3089  142.8381 H   0  0  0  0  0  0  0  0  0  0  0  0  # atno 7974 bound_to 7965
  156.2822  140.2153  156.5551 H   0  0  0  0  0  0  0  0  0  0  0  0  # atno 8008 bound_to 7997
  154.7259  140.0499  157.0705 H   0  0  0  0  0  0  0  0  0  0  0  0  # atno 8009 bound_to 7997
  155.0417  140.3146  155.4725 H   0  0  0  0  0  0  0  0  0  0  0  0  # atno 8010 bound_to 7997
  139.5150  144.6419  151.5544 H   0  0  0  0  0  0  0  0  0  0  0  0  # atno 10167 bound_to 10162
  157.0198  131.0228  151.2778 H   0  0  0  0  0  0  0  0  0  0  0  0  # atno 10718 bound_to 10713
  153.3710  135.6994  153.6638 H   0  0  0  0  0  0  0  0  0  0  0  0  # atno 10763 bound_to 10752
  153.5288  135.3596  155.2666 H   0  0  0  0  0  0  0  0  0  0  0  0  # atno 10764 bound_to 10752
  154.8681  135.4175  154.2988 H   0  0  0  0  0  0  0  0  0  0  0  0  # atno 10765 bound_to 10752
  140.2269  134.8153  157.3278 H   0  0  0  0  0  0  0  0  0  0  0  0  # atno 11005 bound_to 11000
  144.9003  140.7634  143.5871 LP  0  0  0  0  0  0  0  0  0  0  0  0  # atno 17320 bound_to 7965
  145.3015  139.1849  143.4687 LP  0  0  0  0  0  0  0  0  0  0  0  0  # atno 17321 bound_to 7965
  140.6189  143.9295  150.6511 LP  0  0  0  0  0  0  0  0  0  0  0  0  # atno 17342 bound_to 10162
  140.2562  143.3557  152.1362 LP  0  0  0  0  0  0  0  0  0  0  0  0  # atno 17343 bound_to 10162
  157.5258  130.8027  149.7860 LP  0  0  0  0  0  0  0  0  0  0  0  0  # atno 17370 bound_to 10713
  156.0106  130.3835  150.2277 LP  0  0  0  0  0  0  0  0  0  0  0  0  # atno 17371 bound_to 10713
  140.1790  134.4513  155.7783 LP  0  0  0  0  0  0  0  0  0  0  0  0  # atno 17394 bound_to 11000
  141.2220  133.6975  156.7837 LP  0  0  0  0  0  0  0  0  0  0  0  0  # atno 17395 bound_to 11000

$$$$
