AV-unprocessed.smi:1697|AV-procd|sdf|6805|dock7
  -GOLD-   22720 7573D 1   1.00000     0.00000
 Structure written by MMmdl.
 54 56  0  0  0  0  0  0  0  0  2 V2000
  149.3459  141.7233  154.6326 C   0  0  0  0  0  0  0  0  0  0  0  0
  147.8672  141.3888  154.8720 C   0  0  0  0  0  0  0  0  0  0  0  0
  147.6659  139.9979  155.0890 O   0  0  0  0  0  0  0  0  0  0  0  0
  148.4780  139.1337  154.3003 C   0  0  2  0  0  0  0  0  0  0  0  0
  148.2249  139.4396  152.8163 C   0  0  0  0  0  0  0  0  0  0  0  0
  146.7962  139.0586  152.3907 C   0  0  0  0  0  0  0  0  0  0  0  0
  146.5056  137.6331  152.6922 N   0  3  2  0  0  0  0  0  0  0  0  0
  145.1866  137.2041  152.1605 C   0  0  0  0  0  0  0  0  0  0  0  0
  145.2438  135.8316  151.4527 C   0  0  2  0  0  0  0  0  0  0  0  0
  145.3852  136.0486  150.0621 O   0  0  0  0  0  0  0  0  0  0  0  0
  143.9952  134.9576  151.7060 C   0  0  0  0  0  0  0  0  0  0  0  0
  144.1194  133.6010  151.1974 N   0  0  0  0  0  0  0  0  0  0  0  0
  143.4819  133.0700  150.1360 C   0  0  0  0  0  0  0  0  0  0  0  0
  143.7322  131.7962  149.8491 N   0  0  0  0  0  0  0  0  0  0  0  0
  144.6453  131.4625  150.8342 C   0  0  0  0  0  0  0  0  0  0  0  0
  145.3054  130.2424  151.0968 C   0  0  0  0  0  0  0  0  0  0  0  0
  146.2075  130.1244  152.1778 C   0  0  0  0  0  0  0  0  0  0  0  0
  146.8893  128.7908  152.4278 C   0  0  0  0  0  0  0  0  0  0  0  0
  146.4670  131.2415  153.0118 C   0  0  0  0  0  0  0  0  0  0  0  0
  147.4356  131.1399  154.1769 C   0  0  0  0  0  0  0  0  0  0  0  0
  145.8167  132.4682  152.7631 C   0  0  0  0  0  0  0  0  0  0  0  0
  144.9149  132.5709  151.6891 C   0  0  0  0  0  0  0  0  0  0  0  0
  146.6827  137.3375  154.1387 C   0  0  0  0  0  0  0  0  0  0  0  0
  148.1109  137.6719  154.6028 C   0  0  0  0  0  0  0  0  0  0  0  0
  149.4867  142.8001  154.5372 H   0  0  0  0  0  0  0  0  0  0  0  0
  149.7221  141.2625  153.7193 H   0  0  0  0  0  0  0  0  0  0  0  0
  149.9640  141.3797  155.4622 H   0  0  0  0  0  0  0  0  0  0  0  0
  147.5260  141.9141  155.7642 H   0  0  0  0  0  0  0  0  0  0  0  0
  147.2452  141.7438  154.0490 H   0  0  0  0  0  0  0  0  0  0  0  0
  149.5378  139.2888  154.5102 H   0  0  0  0  0  0  0  0  0  0  0  0
  148.4057  140.4965  152.6170 H   0  0  0  0  0  0  0  0  0  0  0  0
  148.9407  138.8865  152.2066 H   0  0  0  0  0  0  0  0  0  0  0  0
  146.0672  139.6942  152.8961 H   0  0  0  0  0  0  0  0  0  0  0  0
  146.6857  139.2402  151.3209 H   0  0  0  0  0  0  0  0  0  0  0  0
  144.4614  137.1853  152.9752 H   0  0  0  0  0  0  0  0  0  0  0  0
  144.8261  137.9489  151.4495 H   0  0  0  0  0  0  0  0  0  0  0  0
  146.1128  135.2666  151.7874 H   0  0  0  0  0  0  0  0  0  0  0  0
  144.7802  136.7260  149.7993 H   0  0  0  0  0  0  0  0  0  0  0  0
  143.7787  134.9072  152.7741 H   0  0  0  0  0  0  0  0  0  0  0  0
  143.1223  135.4179  151.2418 H   0  0  0  0  0  0  0  0  0  0  0  0
  142.7878  133.6498  149.5450 H   0  0  0  0  0  0  0  0  0  0  0  0
  145.1101  129.3927  150.4588 H   0  0  0  0  0  0  0  0  0  0  0  0
  147.9679  128.8849  152.3009 H   0  0  0  0  0  0  0  0  0  0  0  0
  146.5357  128.0266  151.7352 H   0  0  0  0  0  0  0  0  0  0  0  0
  146.6880  128.4411  153.4407 H   0  0  0  0  0  0  0  0  0  0  0  0
  147.5806  132.1068  154.6592 H   0  0  0  0  0  0  0  0  0  0  0  0
  148.4099  130.7883  153.8371 H   0  0  0  0  0  0  0  0  0  0  0  0
  147.0579  130.4435  154.9257 H   0  0  0  0  0  0  0  0  0  0  0  0
  146.0055  133.3251  153.3923 H   0  0  0  0  0  0  0  0  0  0  0  0
  145.9559  137.9077  154.7193 H   0  0  0  0  0  0  0  0  0  0  0  0
  146.4864  136.2855  154.3412 H   0  0  0  0  0  0  0  0  0  0  0  0
  148.8165  137.0109  154.0977 H   0  0  0  0  0  0  0  0  0  0  0  0
  148.2126  137.4697  155.6692 H   0  0  0  0  0  0  0  0  0  0  0  0
  147.1972  137.0937  152.1907 H   0  0  0  0  0  0  0  0  0  0  0  0
  1  2  1  0  0  0  0
  1 25  1  0  0  0  0
  1 26  1  0  0  0  0
  1 27  1  0  0  0  0
  2  3  1  0  0  0  0
  2 28  1  0  0  0  0
  2 29  1  0  0  0  0
  3  4  1  0  0  0  0
  4 24  1  0  0  0  0
  4  5  1  0  0  0  0
  4 30  1  0  0  0  0
  5  6  1  0  0  0  0
  5 31  1  0  0  0  0
  5 32  1  0  0  0  0
  6  7  1  0  0  0  0
  6 33  1  0  0  0  0
  6 34  1  0  0  0  0
  7  8  1  0  0  0  0
  7 23  1  0  0  0  0
  7 54  1  0  0  0  0
  8  9  1  0  0  0  0
  8 35  1  0  0  0  0
  8 36  1  0  0  0  0
  9 10  1  0  0  0  0
  9 11  1  0  0  0  0
  9 37  1  0  0  0  0
 10 38  1  0  0  0  0
 11 12  1  0  0  0  0
 11 39  1  0  0  0  0
 11 40  1  0  0  0  0
 12 22  1  0  0  0  0
 12 13  1  0  0  0  0
 13 14  2  0  0  0  0
 13 41  1  0  0  0  0
 14 15  1  0  0  0  0
 15 22  2  0  0  0  0
 15 16  1  0  0  0  0
 16 17  2  0  0  0  0
 16 42  1  0  0  0  0
 17 18  1  0  0  0  0
 17 19  1  0  0  0  0
 18 43  1  0  0  0  0
 18 44  1  0  0  0  0
 18 45  1  0  0  0  0
 19 20  1  0  0  0  0
 19 21  2  0  0  0  0
 20 46  1  0  0  0  0
 20 47  1  0  0  0  0
 20 48  1  0  0  0  0
 21 22  1  0  0  0  0
 21 49  1  0  0  0  0
 23 24  1  0  0  0  0
 23 50  1  0  0  0  0
 23 51  1  0  0  0  0
 24 52  1  0  0  0  0
 24 53  1  0  0  0  0
M  CHG  1   7   1
M  END
> <s_m_source_file>
AV-unprocessed.smi

> <i_m_source_file_index>
1697

> <i_lp_mmshare_version>
43012

> <i_f3d_flags>
0

> <s_epik_input>
W0NIM11bQ0gyXU9bQ0hdMVtDSDJdW0NIMl1OKFtDSDJdW0NIMl0xKVtDSDJdW0NASF0oW09IXSlbQ0gyXW4oW2NIXW4yKWMoYzIzKVtjSF1jKFtDSDNdKWMoW2NIXTMpW0NIM10=

> <s_epik_cmdline>
J2VwaWtfcHl0aG9uJywgJy1waCcsICc3LjAnLCAnLXRuJywgJzgnLCAnLW1hJywgJzIwMCcsICctbWV0YWxfYmluZGluZycsICctaW1hZScsICc8aW5maWxlLm1hZT4nLCAnLW9tYWUnLCAnPG91dGZpbGUubWFlPic=

> <r_epik_Ionization_Penalty>
0.112476

> <r_epik_Ionization_Penalty_Charging>
0.0244612

> <r_epik_Ionization_Penalty_Neutral>
0.0880147

> <r_epik_State_Penalty>
0.0961447

> <r_epik_Charging_Adjusted_Penalty>
0.120606

> <i_epik_Tot_Q>
1

> <i_epik_Tot_abs_Q>
1

> <r_epik_Metal_State_Penalty>
0.0206204

> <b_epik_Metal_Only>
0

> <s_lp_Force_Field>
OPLS_2005

> <r_lp_Energy>
22.8908

> <b_lp_Chiralities_Consistent>
1

> <s_lp_Variant>
AV-unprocessed.smi:1697-3

> <Gold.Version>
5.8.1

> <Gold.Id.Protein>
6NUR|6NUR_protein|mol2

> <Gold.PLP.Fitness>
49.7586

> <Gold.PLP.PLP>
-38.4182

> <Gold.PLP.part.hbond>
-4.0000

> <Gold.PLP.part.metal>
0.0000

> <Gold.PLP.part.buried>
2.1918

> <Gold.PLP.part.nonpolar>
-35.9704

> <Gold.PLP.part.repulsive>
0.2473

> <Gold.PLP.ligand.clash>
0.0000

> <Gold.PLP.ligand.torsion>
1.3445

> <Gold.PLP.Chemscore.Hbond>
3.6756

> <Gold.PLP.Chemscore.CHOScore>
0.9461

> <Gold.PLP.Chemscore.Metal>
0.0000

> <Gold.Chemscore.Hbonds>
donor molecule, donor type, donor heavy atom, donor atom, acceptor molecule, acceptor atom, score
      L1  H     7    54       P1  7948  2.00
      L1  H    10    38       P1 10171  0.96
      P1  H 10785 10796       L1    14  0.83
      L1  C    13    41       P1 10186  0.77

> <Gold.PLP.Chemscore.Internal.Correction>
0.1645

> <Gold.Rescore>
     Score         DG    S(hbond)    S(metal)    S(lipo)     H(rot)  DE(clash)    DE(int)     intcor
     17.07     -21.45       2.58        0.00     112.59       2.27       3.10       1.28       ----

> <Gold.Chemscore.Fitness>
17.0722

> <Gold.Chemscore.DG>
-21.4466

> <Gold.Chemscore.ZeroCoef>
-5.4800

> <Gold.Chemscore.Hbond>
2.5770

> <Gold.Chemscore.Metal>
0.0000

> <Gold.Chemscore.Lipo>
112.5909

> <Gold.Chemscore.Internal_Hbond>
0.0000

> <Gold.Chemscore.DEClash>
3.0962

> <Gold.Chemscore.DEInternal>
1.2782

> <Gold.Chemscore.Rot>
2.2710

> <Gold.Chemscore.Internal.Correction>
   9.000000E+99

> <Gold.Chemscore.Hbonds>
donor molecule, donor type, donor heavy atom, donor atom, acceptor molecule, acceptor atom, score
      L1  H     7    54       P1  7948  0.97
      L1  H    10    38       P1 10171  0.89
      P1  H 10785 10796       L1    14  0.61

> <Gold.Chemscore.Hbond.Weighted>
-8.6072

> <Gold.Chemscore.Metal.Weighted>
-0.0000

> <Gold.Chemscore.Lipo.Weighted>
-13.1731

> <Gold.Chemscore.Internal_Hbond.Weighted>
0.0000

> <Gold.Chemscore.DEClash.Weighted>
3.0962

> <Gold.Chemscore.DEInternal.Weighted>
1.2782

> <Gold.Chemscore.Rot.Weighted>
5.8137

> <Gold.Chemscore.Internal.Correction.Weighted>
   9.000000E+99

> <Gold.Protein.RotatedTorsions>
[ 6907 6896 6895 6894 ] final    6.46 input  -60.11 | X-H torsion
[ 7974 7965 7964 7962 ] final -130.60 input  175.53 | X-H torsion
[ 8008 7997 7996 7995 ] final  133.98 input   59.86 | X-H torsion
[ 10167 10162 10161 10158 ] final -155.65 input  -65.29 | X-H torsion
[ 10718 10713 10712 10709 ] final  158.73 input   66.30 | X-H torsion
[ 10763 10752 10751 10750 ] final   76.77 input  -60.55 | X-H torsion
[ 11005 11000 10999 10996 ] final   82.76 input  -57.11 | X-H torsion

> <Gold.Protein.ActiveResidues>
 VAL166  LYS551  ARG553  GLY616  TRP617  ASP618  TYR619  PRO620  LYS621  CYS622 
 ASP623  PHE694  ASN695  SER759  ASP760  ASP761  ALA762  ILE779  LEU786  VAL792 
 PHE793  MET794  SER795  GLU796  ALA797  LYS798  CYS799  TRP800  GLU811  SER814 

> <Gold.Protein.RotatedAtoms>
  151.6740  135.0972  160.0203 H   0  0  0  0  0  0  0  0  0  0  0  0  # atno 6907 bound_to 6896
  152.3875  133.6627  159.6219 H   0  0  0  0  0  0  0  0  0  0  0  0  # atno 6908 bound_to 6896
  150.7797  133.8928  159.3359 H   0  0  0  0  0  0  0  0  0  0  0  0  # atno 6909 bound_to 6896
  144.9460  140.7291  143.4817 H   0  0  0  0  0  0  0  0  0  0  0  0  # atno 7974 bound_to 7965
  156.2996  140.2508  156.3342 H   0  0  0  0  0  0  0  0  0  0  0  0  # atno 8008 bound_to 7997
  154.9116  140.0403  157.1968 H   0  0  0  0  0  0  0  0  0  0  0  0  # atno 8009 bound_to 7997
  154.8399  140.2889  155.5670 H   0  0  0  0  0  0  0  0  0  0  0  0  # atno 8010 bound_to 7997
  139.6914  143.9414  152.2386 H   0  0  0  0  0  0  0  0  0  0  0  0  # atno 10167 bound_to 10162
  157.1739  131.0616  151.2168 H   0  0  0  0  0  0  0  0  0  0  0  0  # atno 10718 bound_to 10713
  153.0749  135.4939  154.8383 H   0  0  0  0  0  0  0  0  0  0  0  0  # atno 10763 bound_to 10752
  154.7074  135.3013  154.9252 H   0  0  0  0  0  0  0  0  0  0  0  0  # atno 10764 bound_to 10752
  153.9957  135.6772  153.4809 H   0  0  0  0  0  0  0  0  0  0  0  0  # atno 10765 bound_to 10752
  139.9053  134.8095  156.2217 H   0  0  0  0  0  0  0  0  0  0  0  0  # atno 11005 bound_to 11000
  145.2918  139.1881  143.4736 LP  0  0  0  0  0  0  0  0  0  0  0  0  # atno 17320 bound_to 7965
  146.3303  140.2896  142.8614 LP  0  0  0  0  0  0  0  0  0  0  0  0  # atno 17321 bound_to 7965
  139.9231  144.6787  150.8440 LP  0  0  0  0  0  0  0  0  0  0  0  0  # atno 17342 bound_to 10162
  140.7683  143.3361  151.2307 LP  0  0  0  0  0  0  0  0  0  0  0  0  # atno 17343 bound_to 10162
  157.4017  130.7337  149.6772 LP  0  0  0  0  0  0  0  0  0  0  0  0  # atno 17370 bound_to 10713
  155.9734  130.4119  150.4004 LP  0  0  0  0  0  0  0  0  0  0  0  0  # atno 17371 bound_to 10713
  141.0401  133.6942  156.1583 LP  0  0  0  0  0  0  0  0  0  0  0  0  # atno 17394 bound_to 11000
  140.6968  134.4607  157.5587 LP  0  0  0  0  0  0  0  0  0  0  0  0  # atno 17395 bound_to 11000

$$$$
