AV-unprocessed.smi:3303|AV-procd|sdf|12673|dock10
  -GOLD-   2272019 03D 1   1.00000     0.00000
 Structure written by MMmdl.
 44 45  0  0  0  0  0  0  0  0  2 V2000
  151.7565  144.7045  158.2674 C   0  0  0  0  0  0  0  0  0  0  0  0
  151.7121  143.2739  158.8314 C   0  0  2  0  0  0  0  0  0  0  0  0
  153.1242  142.8300  159.2607 C   0  0  0  0  0  0  0  0  0  0  0  0
  153.1132  141.4874  159.8477 N   0  0  0  0  0  0  0  0  0  0  0  0
  154.4674  141.2107  160.3197 C   0  0  0  0  0  0  0  0  0  0  0  0
  152.6628  140.4996  158.8521 C   0  0  1  0  0  0  0  0  0  0  0  0
  152.6898  139.0604  159.4064 C   0  0  0  0  0  0  0  0  0  0  0  0
  151.2273  140.8518  158.4083 C   0  0  0  0  0  0  0  0  0  0  0  0
  151.1321  142.2664  157.8201 C   0  0  1  0  0  0  0  0  0  0  0  0
  149.7194  142.5808  157.5096 N   0  3  0  0  0  0  0  0  0  0  0  0
  148.9293  143.0778  158.6536 C   0  0  0  0  0  0  0  0  0  0  0  0
  147.4264  142.8845  158.4097 C   0  0  0  0  0  0  0  0  0  0  0  0
  146.6045  143.1342  159.6597 C   0  0  0  0  0  0  0  0  0  0  0  0
  146.7293  144.3444  160.3748 C   0  0  0  0  0  0  0  0  0  0  0  0
  145.9377  144.5281  161.5252 C   0  0  0  0  0  0  0  0  0  0  0  0
  145.0569  143.5005  161.9136 C   0  0  0  0  0  0  0  0  0  0  0  0
  145.0055  142.3299  161.1307 C   0  0  0  0  0  0  0  0  0  0  0  0
  145.7584  142.1448  160.0243 N   0  0  0  0  0  0  0  0  0  0  0  0
  152.3596  144.7547  157.3601 H   0  0  0  0  0  0  0  0  0  0  0  0
  152.1887  145.3965  158.9906 H   0  0  0  0  0  0  0  0  0  0  0  0
  150.7593  145.0724  158.0253 H   0  0  0  0  0  0  0  0  0  0  0  0
  151.0781  143.2837  159.7200 H   0  0  0  0  0  0  0  0  0  0  0  0
  153.8064  142.8585  158.4091 H   0  0  0  0  0  0  0  0  0  0  0  0
  153.5080  143.5388  159.9962 H   0  0  0  0  0  0  0  0  0  0  0  0
  154.5099  140.2810  160.8863 H   0  0  0  0  0  0  0  0  0  0  0  0
  154.8092  141.9985  160.9921 H   0  0  0  0  0  0  0  0  0  0  0  0
  155.1726  141.1430  159.4901 H   0  0  0  0  0  0  0  0  0  0  0  0
  153.3223  140.5466  157.9836 H   0  0  0  0  0  0  0  0  0  0  0  0
  152.2325  138.3652  158.7017 H   0  0  0  0  0  0  0  0  0  0  0  0
  152.1413  138.9835  160.3459 H   0  0  0  0  0  0  0  0  0  0  0  0
  153.7053  138.7027  159.5755 H   0  0  0  0  0  0  0  0  0  0  0  0
  150.8849  140.1296  157.6657 H   0  0  0  0  0  0  0  0  0  0  0  0
  150.5507  140.7591  159.2598 H   0  0  0  0  0  0  0  0  0  0  0  0
  151.7300  142.2981  156.9072 H   0  0  0  0  0  0  0  0  0  0  0  0
  149.7011  143.2794  156.7803 H   0  0  0  0  0  0  0  0  0  0  0  0
  149.2288  142.5446  159.5571 H   0  0  0  0  0  0  0  0  0  0  0  0
  149.1541  144.1337  158.8098 H   0  0  0  0  0  0  0  0  0  0  0  0
  147.0848  143.5581  157.6222 H   0  0  0  0  0  0  0  0  0  0  0  0
  147.2338  141.8719  158.0525 H   0  0  0  0  0  0  0  0  0  0  0  0
  147.4136  145.1154  160.0521 H   0  0  0  0  0  0  0  0  0  0  0  0
  146.0047  145.4408  162.0988 H   0  0  0  0  0  0  0  0  0  0  0  0
  144.4355  143.6065  162.7906 H   0  0  0  0  0  0  0  0  0  0  0  0
  144.3414  141.5216  161.3993 H   0  0  0  0  0  0  0  0  0  0  0  0
  149.2810  141.7413  157.1588 H   0  0  0  0  0  0  0  0  0  0  0  0
  1  2  1  0  0  0  0
  1 19  1  0  0  0  0
  1 20  1  0  0  0  0
  1 21  1  0  0  0  0
  2  9  1  0  0  0  0
  2  3  1  0  0  0  0
  2 22  1  0  0  0  0
  3  4  1  0  0  0  0
  3 23  1  0  0  0  0
  3 24  1  0  0  0  0
  4  5  1  0  0  0  0
  4  6  1  0  0  0  0
  5 25  1  0  0  0  0
  5 26  1  0  0  0  0
  5 27  1  0  0  0  0
  6  7  1  0  0  0  0
  6  8  1  0  0  0  0
  6 28  1  0  0  0  0
  7 29  1  0  0  0  0
  7 30  1  0  0  0  0
  7 31  1  0  0  0  0
  8  9  1  0  0  0  0
  8 32  1  0  0  0  0
  8 33  1  0  0  0  0
  9 10  1  0  0  0  0
  9 34  1  0  0  0  0
 10 11  1  0  0  0  0
 10 35  1  0  0  0  0
 10 44  1  0  0  0  0
 11 12  1  0  0  0  0
 11 36  1  0  0  0  0
 11 37  1  0  0  0  0
 12 13  1  0  0  0  0
 12 38  1  0  0  0  0
 12 39  1  0  0  0  0
 13 18  1  0  0  0  0
 13 14  2  0  0  0  0
 14 15  1  0  0  0  0
 14 40  1  0  0  0  0
 15 16  2  0  0  0  0
 15 41  1  0  0  0  0
 16 17  1  0  0  0  0
 16 42  1  0  0  0  0
 17 18  2  0  0  0  0
 17 43  1  0  0  0  0
M  CHG  1  10   1
M  END
> <s_m_source_file>
AV-unprocessed.smi

> <i_m_source_file_index>
3303

> <i_lp_mmshare_version>
43012

> <i_f3d_flags>
0

> <s_epik_input>
W0NIM11bQ0BASF0xW0NIMl1OKFtDSDNdKVtDQEBIXShbQ0gzXSlbQ0gyXVtDQEhdMVtOSF1bQ0gyXVtDSDJdYzJbY0hdW2NIXVtjSF1bY0hdbjI=

> <s_epik_cmdline>
J2VwaWtfcHl0aG9uJywgJy1waCcsICc3LjAnLCAnLXRuJywgJzgnLCAnLW1hJywgJzIwMCcsICctbWV0YWxfYmluZGluZycsICctaW1hZScsICc8aW5maWxlLm1hZT4nLCAnLW9tYWUnLCAnPG91dGZpbGUubWFlPic=

> <r_epik_Ionization_Penalty>
1.37325

> <r_epik_Ionization_Penalty_Charging>
0.000251572

> <r_epik_Ionization_Penalty_Neutral>
1.373

> <r_epik_State_Penalty>
1.46343

> <r_epik_Charging_Adjusted_Penalty>
1.46368

> <i_epik_Tot_Q>
1

> <i_epik_Tot_abs_Q>
1

> <r_epik_Metal_State_Penalty>
1.46331

> <b_epik_Metal_Only>
0

> <s_lp_Force_Field>
OPLS_2005

> <r_lp_Energy>
21.6133

> <b_lp_Chiralities_Consistent>
1

> <s_lp_Variant>
AV-unprocessed.smi:3303-17

> <Gold.Version>
5.8.1

> <Gold.Id.Protein>
6NUR|6NUR_protein|mol2

> <Gold.PLP.Fitness>
46.1858

> <Gold.PLP.PLP>
-38.1681

> <Gold.PLP.part.hbond>
-2.0000

> <Gold.PLP.part.metal>
0.0000

> <Gold.PLP.part.buried>
-5.9374

> <Gold.PLP.part.nonpolar>
-31.3674

> <Gold.PLP.part.repulsive>
0.0362

> <Gold.PLP.ligand.clash>
0.0000

> <Gold.PLP.ligand.torsion>
0.4201

> <Gold.PLP.Chemscore.Hbond>
2.9500

> <Gold.PLP.Chemscore.CHOScore>
0.0000

> <Gold.PLP.Chemscore.Metal>
0.0000

> <Gold.Chemscore.Hbonds>
donor molecule, donor type, donor heavy atom, donor atom, acceptor molecule, acceptor atom, score
      L1  H    10    35       P1  8028  2.00
      P1  H  6934  6946       L1    18  0.90

> <Gold.PLP.Chemscore.Internal.Correction>
0.0080

> <Gold.Rescore>
     Score         DG    S(hbond)    S(metal)    S(lipo)     H(rot)  DE(clash)    DE(int)     intcor
     20.27     -21.01       1.89        0.00     107.88       1.33       0.19       0.54       ----

> <Gold.Chemscore.Fitness>
20.2726

> <Gold.Chemscore.DG>
-21.0090

> <Gold.Chemscore.ZeroCoef>
-5.4800

> <Gold.Chemscore.Hbond>
1.8896

> <Gold.Chemscore.Metal>
0.0000

> <Gold.Chemscore.Lipo>
107.8795

> <Gold.Chemscore.Internal_Hbond>
0.0000

> <Gold.Chemscore.DEClash>
0.1918

> <Gold.Chemscore.DEInternal>
0.5446

> <Gold.Chemscore.Rot>
1.3298

> <Gold.Chemscore.Internal.Correction>
   9.000000E+99

> <Gold.Chemscore.Hbonds>
donor molecule, donor type, donor heavy atom, donor atom, acceptor molecule, acceptor atom, score
      L1  H    10    35       P1  8028  0.95
      P1  H  6934  6946       L1    18  0.07

> <Gold.Chemscore.Hbond.Weighted>
-6.3114

> <Gold.Chemscore.Metal.Weighted>
-0.0000

> <Gold.Chemscore.Lipo.Weighted>
-12.6219

> <Gold.Chemscore.Internal_Hbond.Weighted>
0.0000

> <Gold.Chemscore.DEClash.Weighted>
0.1918

> <Gold.Chemscore.DEInternal.Weighted>
0.5446

> <Gold.Chemscore.Rot.Weighted>
3.4043

> <Gold.Chemscore.Internal.Correction.Weighted>
   9.000000E+99

> <Gold.Protein.RotatedTorsions>
[ 6907 6896 6895 6894 ] final -118.19 input  -60.11 | X-H torsion
[ 7974 7965 7964 7962 ] final  170.46 input  175.53 | X-H torsion
[ 8008 7997 7996 7995 ] final -115.35 input   59.86 | X-H torsion
[ 10167 10162 10161 10158 ] final  -79.31 input  -65.29 | X-H torsion
[ 10718 10713 10712 10709 ] final  -41.92 input   66.30 | X-H torsion
[ 10763 10752 10751 10750 ] final   18.49 input  -60.55 | X-H torsion
[ 11005 11000 10999 10996 ] final -132.89 input  -57.11 | X-H torsion

> <Gold.Protein.ActiveResidues>
 VAL166  LYS551  ARG553  GLY616  TRP617  ASP618  TYR619  PRO620  LYS621  CYS622 
 ASP623  PHE694  ASN695  SER759  ASP760  ASP761  ALA762  ILE779  LEU786  VAL792 
 PHE793  MET794  SER795  GLU796  ALA797  LYS798  CYS799  TRP800  GLU811  SER814 

> <Gold.Protein.RotatedAtoms>
  150.8199  133.8272  159.3143 H   0  0  0  0  0  0  0  0  0  0  0  0  # atno 6907 bound_to 6896
  151.6033  135.1044  160.0074 H   0  0  0  0  0  0  0  0  0  0  0  0  # atno 6908 bound_to 6896
  152.4288  133.7201  159.6585 H   0  0  0  0  0  0  0  0  0  0  0  0  # atno 6909 bound_to 6896
  144.7323  139.9205  143.6420 H   0  0  0  0  0  0  0  0  0  0  0  0  # atno 7974 bound_to 7965
  155.0506  140.0393  157.2542 H   0  0  0  0  0  0  0  0  0  0  0  0  # atno 8008 bound_to 7997
  154.7140  140.2698  155.6578 H   0  0  0  0  0  0  0  0  0  0  0  0  # atno 8009 bound_to 7997
  156.2798  140.2716  156.1791 H   0  0  0  0  0  0  0  0  0  0  0  0  # atno 8010 bound_to 7997
  140.4605  143.2455  151.8356 H   0  0  0  0  0  0  0  0  0  0  0  0  # atno 10167 bound_to 10162
  156.2651  130.4201  149.8499 H   0  0  0  0  0  0  0  0  0  0  0  0  # atno 10718 bound_to 10713
  153.1244  135.6726  153.9281 H   0  0  0  0  0  0  0  0  0  0  0  0  # atno 10763 bound_to 10752
  153.8786  135.3061  155.3446 H   0  0  0  0  0  0  0  0  0  0  0  0  # atno 10764 bound_to 10752
  154.7651  135.4968  153.9620 H   0  0  0  0  0  0  0  0  0  0  0  0  # atno 10765 bound_to 10752
  140.9130  134.1543  157.4374 H   0  0  0  0  0  0  0  0  0  0  0  0  # atno 11005 bound_to 11000
  146.0933  139.3924  143.0392 LP  0  0  0  0  0  0  0  0  0  0  0  0  # atno 17320 bound_to 7965
  145.7681  140.9908  143.1164 LP  0  0  0  0  0  0  0  0  0  0  0  0  # atno 17321 bound_to 7965
  139.4806  144.5014  151.9056 LP  0  0  0  0  0  0  0  0  0  0  0  0  # atno 17342 bound_to 10162
  140.4099  144.2382  150.5889 LP  0  0  0  0  0  0  0  0  0  0  0  0  # atno 17343 bound_to 10162
  156.6000  130.8542  151.3429 LP  0  0  0  0  0  0  0  0  0  0  0  0  # atno 17370 bound_to 10713
  157.7264  130.9629  150.1656 LP  0  0  0  0  0  0  0  0  0  0  0  0  # atno 17371 bound_to 10713
  139.8761  134.9943  156.5686 LP  0  0  0  0  0  0  0  0  0  0  0  0  # atno 17394 bound_to 11000
  140.8086  133.8447  155.8789 LP  0  0  0  0  0  0  0  0  0  0  0  0  # atno 17395 bound_to 11000

$$$$
