AV-unprocessed.smi:1112|AV-procd|sdf|4797|dock2
  -GOLD-   22720 3343D 1   1.00000     0.00000
 Structure written by MMmdl.
 50 52  0  0  0  0  0  0  0  0  2 V2000
  151.4983  136.0774  155.7227 O   0  0  0  0  0  0  0  0  0  0  0  0
  150.7045  136.2044  154.7910 C   0  0  0  0  0  0  0  0  0  0  0  0
  150.4708  137.3654  154.1631 N   0  0  0  0  0  0  0  0  0  0  0  0
  151.1236  138.6422  154.4493 C   0  0  0  0  0  0  0  0  0  0  0  0
  150.1729  139.6631  155.1293 C   0  0  0  0  0  0  0  0  0  0  0  0
  149.3108  140.1438  154.1147 O   0  0  0  0  0  0  0  0  0  0  0  0
  149.2634  138.9783  156.1773 C   0  0  0  0  0  0  0  0  0  0  0  0
  150.0168  138.6035  157.4677 C   0  0  0  0  0  0  0  0  0  0  0  0
  150.7362  139.8195  158.0721 C   0  0  0  0  0  0  0  0  0  0  0  0
  151.6595  140.4914  157.0443 C   0  0  0  0  0  0  0  0  0  0  0  0
  150.8836  140.8796  155.7740 C   0  0  0  0  0  0  0  0  0  0  0  0
  149.9523  135.2175  154.2758 N   0  0  0  0  0  0  0  0  0  0  0  0
  149.8929  133.8486  154.6675 C   0  0  0  0  0  0  0  0  0  0  0  0
  150.8688  133.2555  155.5097 C   0  0  0  0  0  0  0  0  0  0  0  0
  150.7585  131.8963  155.8613 C   0  0  0  0  0  0  0  0  0  0  0  0
  149.6806  131.1461  155.3589 C   0  0  0  0  0  0  0  0  0  0  0  0
  148.7793  131.7338  154.5453 N   0  3  0  0  0  0  0  0  0  0  0  0
  148.8343  133.0373  154.1742 C   0  0  0  0  0  0  0  0  0  0  0  0
  147.8555  133.5361  153.2888 N   0  0  0  0  0  0  0  0  0  0  0  0
  147.9604  132.9996  151.9336 C   0  0  0  0  0  0  0  0  0  0  0  0
  146.5290  132.7733  151.4405 C   0  0  0  0  0  0  0  0  0  0  0  0
  145.7419  132.5788  152.7307 C   0  0  0  0  0  0  0  0  0  0  0  0
  146.4504  133.5308  153.6921 C   0  0  0  0  0  0  0  0  0  0  0  0
  149.7987  137.3708  153.4100 H   0  0  0  0  0  0  0  0  0  0  0  0
  151.9838  138.4460  155.0904 H   0  0  0  0  0  0  0  0  0  0  0  0
  151.5370  139.0628  153.5327 H   0  0  0  0  0  0  0  0  0  0  0  0
  149.6789  139.9147  153.2748 H   0  0  0  0  0  0  0  0  0  0  0  0
  148.4461  139.6505  156.4444 H   0  0  0  0  0  0  0  0  0  0  0  0
  148.7946  138.0897  155.7519 H   0  0  0  0  0  0  0  0  0  0  0  0
  149.3163  138.1927  158.1952 H   0  0  0  0  0  0  0  0  0  0  0  0
  150.7390  137.8124  157.2664 H   0  0  0  0  0  0  0  0  0  0  0  0
  149.9982  140.5413  158.4244 H   0  0  0  0  0  0  0  0  0  0  0  0
  151.3112  139.5147  158.9468 H   0  0  0  0  0  0  0  0  0  0  0  0
  152.1160  141.3789  157.4834 H   0  0  0  0  0  0  0  0  0  0  0  0
  152.4792  139.8187  156.7920 H   0  0  0  0  0  0  0  0  0  0  0  0
  151.5480  141.3740  155.0654 H   0  0  0  0  0  0  0  0  0  0  0  0
  150.1387  141.6294  156.0459 H   0  0  0  0  0  0  0  0  0  0  0  0
  149.2834  135.4964  153.5732 H   0  0  0  0  0  0  0  0  0  0  0  0
  151.7119  133.8152  155.8844 H   0  0  0  0  0  0  0  0  0  0  0  0
  151.4947  131.4355  156.5038 H   0  0  0  0  0  0  0  0  0  0  0  0
  149.5187  130.0994  155.5718 H   0  0  0  0  0  0  0  0  0  0  0  0
  148.4994  133.6858  151.2797 H   0  0  0  0  0  0  0  0  0  0  0  0
  148.5036  132.0529  151.9435 H   0  0  0  0  0  0  0  0  0  0  0  0
  146.1705  133.6640  150.9222 H   0  0  0  0  0  0  0  0  0  0  0  0
  146.4447  131.9284  150.7564 H   0  0  0  0  0  0  0  0  0  0  0  0
  144.6793  132.7969  152.6212 H   0  0  0  0  0  0  0  0  0  0  0  0
  145.8450  131.5500  153.0789 H   0  0  0  0  0  0  0  0  0  0  0  0
  146.2780  133.2601  154.7340 H   0  0  0  0  0  0  0  0  0  0  0  0
  146.0656  134.5429  153.5626 H   0  0  0  0  0  0  0  0  0  0  0  0
  148.0154  131.1621  154.1840 H   0  0  0  0  0  0  0  0  0  0  0  0
  1  2  2  0  0  0  0
  2  3  1  0  0  0  0
  2 12  1  0  0  0  0
  3  4  1  0  0  0  0
  3 24  1  0  0  0  0
  4  5  1  0  0  0  0
  4 25  1  0  0  0  0
  4 26  1  0  0  0  0
  5 11  1  0  0  0  0
  5  6  1  0  0  0  0
  5  7  1  0  0  0  0
  6 27  1  0  0  0  0
  7  8  1  0  0  0  0
  7 28  1  0  0  0  0
  7 29  1  0  0  0  0
  8  9  1  0  0  0  0
  8 30  1  0  0  0  0
  8 31  1  0  0  0  0
  9 10  1  0  0  0  0
  9 32  1  0  0  0  0
  9 33  1  0  0  0  0
 10 11  1  0  0  0  0
 10 34  1  0  0  0  0
 10 35  1  0  0  0  0
 11 36  1  0  0  0  0
 11 37  1  0  0  0  0
 12 13  1  0  0  0  0
 12 38  1  0  0  0  0
 13 18  1  0  0  0  0
 13 14  2  0  0  0  0
 14 15  1  0  0  0  0
 14 39  1  0  0  0  0
 15 16  2  0  0  0  0
 15 40  1  0  0  0  0
 16 17  1  0  0  0  0
 16 41  1  0  0  0  0
 17 18  2  0  0  0  0
 17 50  1  0  0  0  0
 18 19  1  0  0  0  0
 19 23  1  0  0  0  0
 19 20  1  0  0  0  0
 20 21  1  0  0  0  0
 20 42  1  0  0  0  0
 20 43  1  0  0  0  0
 21 22  1  0  0  0  0
 21 44  1  0  0  0  0
 21 45  1  0  0  0  0
 22 23  1  0  0  0  0
 22 46  1  0  0  0  0
 22 47  1  0  0  0  0
 23 48  1  0  0  0  0
 23 49  1  0  0  0  0
M  CHG  1  17   1
M  END
> <s_m_source_file>
AV-unprocessed.smi

> <i_m_source_file_index>
1112

> <i_lp_mmshare_version>
43012

> <i_f3d_flags>
0

> <s_epik_input>
W0NIMl0xW0NIMl1bQ0gyXVtDSDJdW0NIMl1DMShbT0hdKVtDSDJdW05IXUMoPU8pW05IXWMyW2NIXVtjSF1bY0hdbmMyTjNbQ0gyXVtDSDJdW0NIMl1bQ0gyXTM=

> <s_epik_cmdline>
J2VwaWtfcHl0aG9uJywgJy1waCcsICc3LjAnLCAnLXRuJywgJzgnLCAnLW1hJywgJzIwMCcsICctbWV0YWxfYmluZGluZycsICctaW1hZScsICc8aW5maWxlLm1hZT4nLCAnLW9tYWUnLCAnPG91dGZpbGUubWFlPic=

> <r_lp_tautomer_probability>
0.999994

> <r_epik_Ionization_Penalty>
1.10443

> <r_epik_Ionization_Penalty_Charging>
1.1044

> <r_epik_Ionization_Penalty_Neutral>
2.27493e-05

> <r_epik_State_Penalty>
1.16183

> <r_epik_Charging_Adjusted_Penalty>
2.26623

> <i_epik_Tot_Q>
1

> <i_epik_Tot_abs_Q>
1

> <r_epik_Metal_State_Penalty>
1.24855

> <b_epik_Metal_Only>
0

> <s_lp_Force_Field>
OPLS_2005

> <r_lp_Energy>
50.1983

> <b_lp_Chiralities_Consistent>
1

> <s_lp_Variant>
AV-unprocessed.smi:1112-2

> <Gold.Version>
5.8.1

> <Gold.Id.Protein>
6NUR|6NUR_protein|mol2

> <Gold.PLP.Fitness>
45.6850

> <Gold.PLP.PLP>
-35.0701

> <Gold.PLP.part.hbond>
-5.8964

> <Gold.PLP.part.metal>
0.0000

> <Gold.PLP.part.buried>
-2.6938

> <Gold.PLP.part.nonpolar>
-26.3173

> <Gold.PLP.part.repulsive>
0.3309

> <Gold.PLP.ligand.clash>
0.0000

> <Gold.PLP.ligand.torsion>
0.3874

> <Gold.PLP.Chemscore.Hbond>
3.7437

> <Gold.PLP.Chemscore.CHOScore>
0.0000

> <Gold.PLP.Chemscore.Metal>
0.0000

> <Gold.Chemscore.Hbonds>
donor molecule, donor type, donor heavy atom, donor atom, acceptor molecule, acceptor atom, score
      L1  H     3    24       P1  7948  0.82
      L1  H     6    27       P1  7957  0.77
      L1  H    12    38       P1  7948  0.94
      P1  H 10752 10763       L1     1  1.00

> <Gold.PLP.Chemscore.Internal.Correction>
0.1585

> <Gold.Rescore>
     Score         DG    S(hbond)    S(metal)    S(lipo)     H(rot)  DE(clash)    DE(int)     intcor
     17.27     -19.65       3.02        0.00      76.73       1.92       0.61       1.77       ----

> <Gold.Chemscore.Fitness>
17.2670

> <Gold.Chemscore.DG>
-19.6487

> <Gold.Chemscore.ZeroCoef>
-5.4800

> <Gold.Chemscore.Hbond>
3.0238

> <Gold.Chemscore.Metal>
0.0000

> <Gold.Chemscore.Lipo>
76.7318

> <Gold.Chemscore.Internal_Hbond>
0.0000

> <Gold.Chemscore.DEClash>
0.6092

> <Gold.Chemscore.DEInternal>
1.7725

> <Gold.Chemscore.Rot>
1.9173

> <Gold.Chemscore.Internal.Correction>
   9.000000E+99

> <Gold.Chemscore.Hbonds>
donor molecule, donor type, donor heavy atom, donor atom, acceptor molecule, acceptor atom, score
      L1  H     3    24       P1  7948  0.46
      L1  H     6    27       P1  7957  0.72
      L1  H    12    38       P1  7948  0.36
      P1  H 10752 10763       L1     1  0.65

> <Gold.Chemscore.Hbond.Weighted>
-10.0994

> <Gold.Chemscore.Metal.Weighted>
-0.0000

> <Gold.Chemscore.Lipo.Weighted>
-8.9776

> <Gold.Chemscore.Internal_Hbond.Weighted>
0.0000

> <Gold.Chemscore.DEClash.Weighted>
0.6092

> <Gold.Chemscore.DEInternal.Weighted>
1.7725

> <Gold.Chemscore.Rot.Weighted>
4.9084

> <Gold.Chemscore.Internal.Correction.Weighted>
   9.000000E+99

> <Gold.Protein.RotatedTorsions>
[ 6907 6896 6895 6894 ] final  144.06 input  -60.11 | X-H torsion
[ 7974 7965 7964 7962 ] final   11.70 input  175.53 | X-H torsion
[ 8008 7997 7996 7995 ] final -131.56 input   59.86 | X-H torsion
[ 10167 10162 10161 10158 ] final   93.05 input  -65.29 | X-H torsion
[ 10718 10713 10712 10709 ] final   45.06 input   66.30 | X-H torsion
[ 10763 10752 10751 10750 ] final   88.99 input  -60.55 | X-H torsion
[ 11005 11000 10999 10996 ] final -116.86 input  -57.11 | X-H torsion

> <Gold.Protein.ActiveResidues>
 VAL166  LYS551  ARG553  GLY616  TRP617  ASP618  TYR619  PRO620  LYS621  CYS622 
 ASP623  PHE694  ASN695  SER759  ASP760  ASP761  ALA762  ILE779  LEU786  VAL792 
 PHE793  MET794  SER795  GLU796  ALA797  LYS798  CYS799  TRP800  GLU811  SER814 

> <Gold.Protein.RotatedAtoms>
  152.1984  133.4823  159.5044 H   0  0  0  0  0  0  0  0  0  0  0  0  # atno 6907 bound_to 6896
  150.6964  134.1622  159.4190 H   0  0  0  0  0  0  0  0  0  0  0  0  # atno 6908 bound_to 6896
  151.9539  135.0156  160.0594 H   0  0  0  0  0  0  0  0  0  0  0  0  # atno 6909 bound_to 6896
  146.2366  139.9446  142.8478 H   0  0  0  0  0  0  0  0  0  0  0  0  # atno 7974 bound_to 7965
  155.3143  140.0459  157.3036 H   0  0  0  0  0  0  0  0  0  0  0  0  # atno 8008 bound_to 7997
  154.5415  140.2289  155.8599 H   0  0  0  0  0  0  0  0  0  0  0  0  # atno 8009 bound_to 7997
  156.1885  140.3056  155.9292 H   0  0  0  0  0  0  0  0  0  0  0  0  # atno 8010 bound_to 7997
  139.8217  144.6728  150.9510 H   0  0  0  0  0  0  0  0  0  0  0  0  # atno 10167 bound_to 10162
  157.4335  130.8039  149.7625 H   0  0  0  0  0  0  0  0  0  0  0  0  # atno 10718 bound_to 10713
  153.1825  135.4486  155.0046 H   0  0  0  0  0  0  0  0  0  0  0  0  # atno 10763 bound_to 10752
  154.8039  135.3266  154.7483 H   0  0  0  0  0  0  0  0  0  0  0  0  # atno 10764 bound_to 10752
  153.7946  135.6967  153.4921 H   0  0  0  0  0  0  0  0  0  0  0  0  # atno 10765 bound_to 10752
  141.0394  133.9859  157.3019 H   0  0  0  0  0  0  0  0  0  0  0  0  # atno 11005 bound_to 11000
  145.1919  140.9816  143.4206 LP  0  0  0  0  0  0  0  0  0  0  0  0  # atno 17320 bound_to 7965
  144.9849  139.3746  143.6243 LP  0  0  0  0  0  0  0  0  0  0  0  0  # atno 17321 bound_to 7965
  140.7813  143.4085  151.1031 LP  0  0  0  0  0  0  0  0  0  0  0  0  # atno 17342 bound_to 10162
  139.7745  143.8445  152.3127 LP  0  0  0  0  0  0  0  0  0  0  0  0  # atno 17343 bound_to 10162
  155.9922  130.3932  150.2953 LP  0  0  0  0  0  0  0  0  0  0  0  0  # atno 17370 bound_to 10713
  157.1112  131.0222  151.3047 LP  0  0  0  0  0  0  0  0  0  0  0  0  # atno 17371 bound_to 10713
  139.9264  135.0201  156.8250 LP  0  0  0  0  0  0  0  0  0  0  0  0  # atno 17394 bound_to 11000
  140.6262  133.9948  155.7641 LP  0  0  0  0  0  0  0  0  0  0  0  0  # atno 17395 bound_to 11000

$$$$
