AV-unprocessed.smi:197|AV-procd|sdf|1544|dock3
  -GOLD-   2262019403D 1   1.00000     0.00000
 Structure written by MMmdl.
 54 57  0  0  0  0  0  0  0  0  1 V2000
  151.6054  144.5095  158.4313 C   0  0  0  0  0  0  0  0  0  0  0  0
  151.4404  143.2057  157.9039 O   0  0  0  0  0  0  0  0  0  0  0  0
  150.1623  142.6604  158.1873 C   0  0  0  0  0  0  0  0  0  0  0  0
  150.2002  141.1423  157.9574 C   0  0  0  0  0  0  0  0  0  0  0  0
  150.0244  140.7166  156.4754 C   0  0  2  0  0  0  0  0  0  0  0  0
  149.6572  141.9275  155.5848 C   0  0  0  0  0  0  0  0  0  0  0  0
  149.4729  141.5171  154.2348 O   0  0  0  0  0  0  0  0  0  0  0  0
  148.4071  140.5864  154.1044 C   0  0  0  0  0  0  0  0  0  0  0  0
  148.7410  139.3282  154.9163 C   0  0  0  0  0  0  0  0  0  0  0  0
  148.9995  139.6772  156.3085 N   0  0  0  0  0  0  0  0  0  0  0  0
  149.1193  138.5592  157.0613 C   0  0  0  0  0  0  0  0  0  0  0  0
  150.2810  137.8691  156.9514 N   0  0  0  0  0  0  0  0  0  0  0  0
  150.4643  136.7510  157.6600 C   0  0  0  0  0  0  0  0  0  0  0  0
  149.6327  136.1633  158.5229 N   0  0  0  0  0  0  0  0  0  0  0  0
  148.4695  136.8645  158.6486 C   0  0  0  0  0  0  0  0  0  0  0  0
  148.1314  138.0644  157.9609 C   0  0  0  0  0  0  0  0  0  0  0  0
  146.8642  138.4870  158.3450 N   0  0  0  0  0  0  0  0  0  0  0  0
  146.4704  137.5820  159.1980 C   0  0  0  0  0  0  0  0  0  0  0  0
  147.3771  136.5773  159.4488 N   0  0  0  0  0  0  0  0  0  0  0  0
  147.1970  135.4481  160.3482 C   0  0  0  0  0  0  0  0  0  0  0  0
  147.1789  135.8292  161.8546 C   0  0  1  0  0  0  0  0  0  0  0  0
  148.3680  136.5203  162.1871 O   0  0  0  0  0  0  0  0  0  0  0  0
  145.9814  136.6784  162.2643 C   0  0  0  0  0  0  0  0  0  0  0  0
  144.8904  135.6340  162.4824 C   0  0  0  0  0  0  0  0  0  0  0  0
  145.5668  134.4446  162.8812 O   0  0  0  0  0  0  0  0  0  0  0  0
  146.9775  134.6299  162.8000 C   0  0  1  0  0  0  0  0  0  0  0  0
  147.6804  133.3196  162.4153 C   0  0  0  0  0  0  0  0  0  0  0  0
  152.6066  144.8731  158.1999 H   0  0  0  0  0  0  0  0  0  0  0  0
  151.4868  144.5157  159.5156 H   0  0  0  0  0  0  0  0  0  0  0  0
  150.8859  145.2039  157.9957 H   0  0  0  0  0  0  0  0  0  0  0  0
  149.9051  142.8618  159.2281 H   0  0  0  0  0  0  0  0  0  0  0  0
  149.3950  143.1340  157.5749 H   0  0  0  0  0  0  0  0  0  0  0  0
  151.1516  140.7871  158.3524 H   0  0  0  0  0  0  0  0  0  0  0  0
  149.4310  140.6644  158.5650 H   0  0  0  0  0  0  0  0  0  0  0  0
  150.9701  140.3184  156.1089 H   0  0  0  0  0  0  0  0  0  0  0  0
  148.7549  142.4221  155.9485 H   0  0  0  0  0  0  0  0  0  0  0  0
  150.4526  142.6714  155.5944 H   0  0  0  0  0  0  0  0  0  0  0  0
  147.4706  141.0334  154.4421 H   0  0  0  0  0  0  0  0  0  0  0  0
  148.2807  140.3335  153.0517 H   0  0  0  0  0  0  0  0  0  0  0  0
  147.9135  138.6199  154.8527 H   0  0  0  0  0  0  0  0  0  0  0  0
  149.6192  138.8363  154.4951 H   0  0  0  0  0  0  0  0  0  0  0  0
  151.4130  136.2557  157.5148 H   0  0  0  0  0  0  0  0  0  0  0  0
  145.5033  137.6270  159.6777 H   0  0  0  0  0  0  0  0  0  0  0  0
  146.2673  134.9482  160.0736 H   0  0  0  0  0  0  0  0  0  0  0  0
  147.9949  134.7322  160.1477 H   0  0  0  0  0  0  0  0  0  0  0  0
  149.1017  136.0500  161.8220 H   0  0  0  0  0  0  0  0  0  0  0  0
  146.1814  137.1789  163.2134 H   0  0  0  0  0  0  0  0  0  0  0  0
  145.7000  137.4506  161.5497 H   0  0  0  0  0  0  0  0  0  0  0  0
  144.1626  135.9473  163.2312 H   0  0  0  0  0  0  0  0  0  0  0  0
  144.3554  135.4370  161.5527 H   0  0  0  0  0  0  0  0  0  0  0  0
  147.3033  134.9144  163.8026 H   0  0  0  0  0  0  0  0  0  0  0  0
  148.7563  133.4668  162.3178 H   0  0  0  0  0  0  0  0  0  0  0  0
  147.3065  132.9201  161.4727 H   0  0  0  0  0  0  0  0  0  0  0  0
  147.5186  132.5583  163.1785 H   0  0  0  0  0  0  0  0  0  0  0  0
  1  2  1  0  0  0  0
  1 28  1  0  0  0  0
  1 29  1  0  0  0  0
  1 30  1  0  0  0  0
  2  3  1  0  0  0  0
  3  4  1  0  0  0  0
  3 31  1  0  0  0  0
  3 32  1  0  0  0  0
  4  5  1  0  0  0  0
  4 33  1  0  0  0  0
  4 34  1  0  0  0  0
  5 10  1  0  0  0  0
  5  6  1  0  0  0  0
  5 35  1  0  0  0  0
  6  7  1  0  0  0  0
  6 36  1  0  0  0  0
  6 37  1  0  0  0  0
  7  8  1  0  0  0  0
  8  9  1  0  0  0  0
  8 38  1  0  0  0  0
  8 39  1  0  0  0  0
  9 10  1  0  0  0  0
  9 40  1  0  0  0  0
  9 41  1  0  0  0  0
 10 11  1  0  0  0  0
 11 16  1  0  0  0  0
 11 12  2  0  0  0  0
 12 13  1  0  0  0  0
 13 14  2  0  0  0  0
 13 42  1  0  0  0  0
 14 15  1  0  0  0  0
 15 19  1  0  0  0  0
 15 16  2  0  0  0  0
 16 17  1  0  0  0  0
 17 18  2  0  0  0  0
 18 19  1  0  0  0  0
 18 43  1  0  0  0  0
 19 20  1  0  0  0  0
 20 21  1  0  0  0  0
 20 44  1  0  0  0  0
 20 45  1  0  0  0  0
 21 26  1  0  0  0  0
 21 22  1  0  0  0  0
 21 23  1  0  0  0  0
 22 46  1  0  0  0  0
 23 24  1  0  0  0  0
 23 47  1  0  0  0  0
 23 48  1  0  0  0  0
 24 25  1  0  0  0  0
 24 49  1  0  0  0  0
 24 50  1  0  0  0  0
 25 26  1  0  0  0  0
 26 27  1  0  0  0  0
 26 51  1  0  0  0  0
 27 52  1  0  0  0  0
 27 53  1  0  0  0  0
 27 54  1  0  0  0  0
M  END
> <s_m_source_file>
AV-unprocessed.smi

> <i_m_source_file_index>
197

> <i_lp_mmshare_version>
43012

> <i_f3d_flags>
0

> <s_epik_input>
W0NIM11PW0NIMl1bQ0gyXVtDQEBIXTFbQ0gyXU9bQ0gyXVtDSDJdTjFjKG5bY0hdbjIpYyhjMjMpbltjSF1uM1tDSDJdW0NAQF00KFtPSF0pW0NIMl1bQ0gyXU9bQ0BIXTRbQ0gzXQ==

> <s_epik_cmdline>
J2VwaWtfcHl0aG9uJywgJy1waCcsICc3LjAnLCAnLXRuJywgJzgnLCAnLW1hJywgJzIwMCcsICctbWV0YWxfYmluZGluZycsICctaW1hZScsICc8aW5maWxlLm1hZT4nLCAnLW9tYWUnLCAnPG91dGZpbGUubWFlPic=

> <r_lp_tautomer_probability>
1

> <r_epik_Ionization_Penalty>
0.000106218

> <r_epik_Ionization_Penalty_Charging>
0

> <r_epik_Ionization_Penalty_Neutral>
0.000106218

> <r_epik_State_Penalty>
-0

> <r_epik_Charging_Adjusted_Penalty>
0

> <i_epik_Tot_Q>
0

> <i_epik_Tot_abs_Q>
0

> <r_epik_Metal_State_Penalty>
-0

> <b_epik_Metal_Only>
0

> <s_lp_Force_Field>
OPLS_2005

> <r_lp_Energy>
43.403

> <b_lp_Chiralities_Consistent>
1

> <s_lp_Variant>
AV-unprocessed.smi:197-1

> <Gold.Version>
5.8.1

> <Gold.Id.Protein>
6NUR|6NUR_protein|mol2

> <Gold.PLP.Fitness>
44.7617

> <Gold.PLP.PLP>
-37.5247

> <Gold.PLP.part.hbond>
-4.4522

> <Gold.PLP.part.metal>
0.0000

> <Gold.PLP.part.buried>
-1.6197

> <Gold.PLP.part.nonpolar>
-31.3884

> <Gold.PLP.part.repulsive>
0.6544

> <Gold.PLP.ligand.clash>
0.0000

> <Gold.PLP.ligand.torsion>
1.1839

> <Gold.PLP.Chemscore.Hbond>
3.0993

> <Gold.PLP.Chemscore.CHOScore>
0.0000

> <Gold.PLP.Chemscore.Metal>
0.0000

> <Gold.Chemscore.Hbonds>
donor molecule, donor type, donor heavy atom, donor atom, acceptor molecule, acceptor atom, score
      P1  H  6896  6907       L1    14  0.78
      P1  H  6931  6943       L1    22  0.85
      P1  H  7989  7998       L1     7  0.07
      P1  H  8011  8017       L1     7  0.46

> <Gold.PLP.Chemscore.Internal.Correction>
0.3069

> <Gold.Rescore>
     Score         DG    S(hbond)    S(metal)    S(lipo)     H(rot)  DE(clash)    DE(int)     intcor
     14.28     -17.56       2.45        0.00      95.31       2.84       1.85       1.42       ----

> <Gold.Chemscore.Fitness>
14.2831

> <Gold.Chemscore.DG>
-17.5605

> <Gold.Chemscore.ZeroCoef>
-5.4800

> <Gold.Chemscore.Hbond>
2.4517

> <Gold.Chemscore.Metal>
0.0000

> <Gold.Chemscore.Lipo>
95.3118

> <Gold.Chemscore.Internal_Hbond>
0.0000

> <Gold.Chemscore.DEClash>
1.8530

> <Gold.Chemscore.DEInternal>
1.4244

> <Gold.Chemscore.Rot>
2.8358

> <Gold.Chemscore.Internal.Correction>
   9.000000E+99

> <Gold.Chemscore.Hbonds>
donor molecule, donor type, donor heavy atom, donor atom, acceptor molecule, acceptor atom, score
      P1  H  6896  6907       L1    14  0.42
      P1  H  6931  6943       L1    22  0.15
      P1  H  7989  7998       L1     7  0.03
      P1  H  8011  8017       L1     7  0.32

> <Gold.Chemscore.Hbond.Weighted>
-8.1886

> <Gold.Chemscore.Metal.Weighted>
-0.0000

> <Gold.Chemscore.Lipo.Weighted>
-11.1515

> <Gold.Chemscore.Internal_Hbond.Weighted>
0.0000

> <Gold.Chemscore.DEClash.Weighted>
1.8530

> <Gold.Chemscore.DEInternal.Weighted>
1.4244

> <Gold.Chemscore.Rot.Weighted>
7.2596

> <Gold.Chemscore.Internal.Correction.Weighted>
   9.000000E+99

> <Gold.Protein.RotatedTorsions>
[ 6907 6896 6895 6894 ] final  -52.18 input  -60.11 | X-H torsion
[ 7974 7965 7964 7962 ] final  104.18 input  175.53 | X-H torsion
[ 8008 7997 7996 7995 ] final -159.80 input   59.86 | X-H torsion
[ 10167 10162 10161 10158 ] final -157.03 input  -65.29 | X-H torsion
[ 10718 10713 10712 10709 ] final  -99.25 input   66.30 | X-H torsion
[ 10763 10752 10751 10750 ] final -168.24 input  -60.55 | X-H torsion
[ 11005 11000 10999 10996 ] final   53.04 input  -57.11 | X-H torsion

> <Gold.Protein.ActiveResidues>
 VAL166  LYS551  ARG553  GLY616  TRP617  ASP618  TYR619  PRO620  LYS621  CYS622 
 ASP623  PHE694  ASN695  SER759  ASP760  ASP761  ALA762  ILE779  LEU786  VAL792 
 PHE793  MET794  SER795  GLU796  ALA797  LYS798  CYS799  TRP800  GLU811  SER814 

> <Gold.Protein.RotatedAtoms>
  150.8542  134.7876  159.7032 H   0  0  0  0  0  0  0  0  0  0  0  0  # atno 6907 bound_to 6896
  152.4598  134.5206  159.9791 H   0  0  0  0  0  0  0  0  0  0  0  0  # atno 6908 bound_to 6896
  151.5322  133.3409  159.2956 H   0  0  0  0  0  0  0  0  0  0  0  0  # atno 6909 bound_to 6896
  145.3362  139.2474  143.3634 H   0  0  0  0  0  0  0  0  0  0  0  0  # atno 7974 bound_to 7965
  155.7679  140.0848  157.2122 H   0  0  0  0  0  0  0  0  0  0  0  0  # atno 8008 bound_to 7997
  154.3998  140.1531  156.2965 H   0  0  0  0  0  0  0  0  0  0  0  0  # atno 8009 bound_to 7997
  155.8776  140.3422  155.5867 H   0  0  0  0  0  0  0  0  0  0  0  0  # atno 8010 bound_to 7997
  139.6803  143.9593  152.2333 H   0  0  0  0  0  0  0  0  0  0  0  0  # atno 10167 bound_to 10162
  156.0129  130.5274  150.6643 H   0  0  0  0  0  0  0  0  0  0  0  0  # atno 10718 bound_to 10713
  154.6649  135.2930  154.9819 H   0  0  0  0  0  0  0  0  0  0  0  0  # atno 10763 bound_to 10752
  154.0866  135.6597  153.4850 H   0  0  0  0  0  0  0  0  0  0  0  0  # atno 10764 bound_to 10752
  153.0451  135.5210  154.7617 H   0  0  0  0  0  0  0  0  0  0  0  0  # atno 10765 bound_to 10752
  140.0800  134.5352  155.8957 H   0  0  0  0  0  0  0  0  0  0  0  0  # atno 11005 bound_to 11000
  146.3026  140.3950  142.8698 LP  0  0  0  0  0  0  0  0  0  0  0  0  # atno 17320 bound_to 7965
  144.8826  140.7420  143.5977 LP  0  0  0  0  0  0  0  0  0  0  0  0  # atno 17321 bound_to 7965
  139.9381  144.6699  150.8294 LP  0  0  0  0  0  0  0  0  0  0  0  0  # atno 17342 bound_to 10162
  140.7650  143.3263  151.2509 LP  0  0  0  0  0  0  0  0  0  0  0  0  # atno 17343 bound_to 10162
  157.4379  131.0857  151.0973 LP  0  0  0  0  0  0  0  0  0  0  0  0  # atno 17370 bound_to 10713
  157.1526  130.6191  149.5587 LP  0  0  0  0  0  0  0  0  0  0  0  0  # atno 17371 bound_to 10713
  141.2043  133.6638  156.6114 LP  0  0  0  0  0  0  0  0  0  0  0  0  # atno 17394 bound_to 11000
  140.3502  134.7775  157.4461 LP  0  0  0  0  0  0  0  0  0  0  0  0  # atno 17395 bound_to 11000

$$$$
