AV-unprocessed.smi:1046|AV-procd|sdf|4553|dock10
  -GOLD-   22720 2583D 1   1.00000     0.00000
 Structure written by MMmdl.
 54 56  0  0  0  0  0  0  0  0  3 V2000
  152.3589  141.2308  158.0401 C   0  0  0  0  0  0  0  0  0  0  0  0
  151.3471  140.8211  156.9833 C   0  0  0  0  0  0  0  0  0  0  0  0
  150.5087  141.8165  156.4322 C   0  0  0  0  0  0  0  0  0  0  0  0
  149.5909  141.4114  155.4702 C   0  0  0  0  0  0  0  0  0  0  0  0
  148.6363  142.1352  154.7524 N   0  3  0  0  0  0  0  0  0  0  0  0
  147.9609  141.2960  153.9188 C   0  0  0  0  0  0  0  0  0  0  0  0
  148.4792  140.0483  154.0858 N   0  0  0  0  0  0  0  0  0  0  0  0
  148.1189  138.7778  153.4430 C   0  0  0  0  0  0  0  0  0  0  0  0
  146.7939  138.8493  152.6564 C   0  0  1  0  0  0  0  0  0  0  0  0
  147.1131  138.7207  151.2859 O   0  0  0  0  0  0  0  0  0  0  0  0
  145.7946  137.7391  153.0501 C   0  0  0  0  0  0  0  0  0  0  0  0
  146.0877  136.4382  152.3966 N   0  3  0  0  0  0  0  0  0  0  0  0
  145.2772  136.1945  151.1726 C   0  0  0  0  0  0  0  0  0  0  0  0
  145.6620  134.8453  150.5322 C   0  0  0  0  0  0  0  0  0  0  0  0
  145.5278  133.7090  151.4472 N   0  0  0  0  0  0  0  0  0  0  0  0
  144.1439  133.3521  151.7770 C   0  0  0  0  0  0  0  0  0  0  0  0
  143.4666  132.3907  150.7874 C   0  0  0  0  0  0  0  0  0  0  0  0
  143.4338  132.9877  149.5096 O   0  0  0  0  0  0  0  0  0  0  0  0
  146.3397  133.9737  152.6344 C   0  0  0  0  0  0  0  0  0  0  0  0
  145.9731  135.2955  153.3398 C   0  0  0  0  0  0  0  0  0  0  0  0
  149.4913  140.0706  155.0513 C   0  0  0  0  0  0  0  0  0  0  0  0
  150.3073  139.0767  155.5856 C   0  0  0  0  0  0  0  0  0  0  0  0
  151.2457  139.4680  156.5672 C   0  0  0  0  0  0  0  0  0  0  0  0
  152.1470  138.4044  157.1710 C   0  0  0  0  0  0  0  0  0  0  0  0
  152.3894  142.3137  158.1642 H   0  0  0  0  0  0  0  0  0  0  0  0
  153.3613  140.9016  157.7657 H   0  0  0  0  0  0  0  0  0  0  0  0
  152.1004  140.7902  159.0034 H   0  0  0  0  0  0  0  0  0  0  0  0
  150.5770  142.8472  156.7489 H   0  0  0  0  0  0  0  0  0  0  0  0
  147.1616  141.5720  153.2461 H   0  0  0  0  0  0  0  0  0  0  0  0
  148.9443  138.4801  152.7944 H   0  0  0  0  0  0  0  0  0  0  0  0
  148.0544  138.0218  154.2273 H   0  0  0  0  0  0  0  0  0  0  0  0
  146.3530  139.8340  152.8051 H   0  0  0  0  0  0  0  0  0  0  0  0
  147.9679  139.0926  151.1309 H   0  0  0  0  0  0  0  0  0  0  0  0
  145.8192  137.6219  154.1348 H   0  0  0  0  0  0  0  0  0  0  0  0
  144.7722  138.0262  152.8023 H   0  0  0  0  0  0  0  0  0  0  0  0
  144.2142  136.2180  151.4156 H   0  0  0  0  0  0  0  0  0  0  0  0
  145.4454  136.9884  150.4460 H   0  0  0  0  0  0  0  0  0  0  0  0
  145.0758  134.6806  149.6289 H   0  0  0  0  0  0  0  0  0  0  0  0
  146.6979  134.9033  150.1948 H   0  0  0  0  0  0  0  0  0  0  0  0
  144.1355  132.8730  152.7571 H   0  0  0  0  0  0  0  0  0  0  0  0
  143.5316  134.2472  151.8820 H   0  0  0  0  0  0  0  0  0  0  0  0
  144.0051  131.4467  150.7095 H   0  0  0  0  0  0  0  0  0  0  0  0
  142.4473  132.1661  151.1029 H   0  0  0  0  0  0  0  0  0  0  0  0
  142.6407  133.4966  149.4344 H   0  0  0  0  0  0  0  0  0  0  0  0
  146.2533  133.1429  153.3358 H   0  0  0  0  0  0  0  0  0  0  0  0
  147.3912  134.0076  152.3455 H   0  0  0  0  0  0  0  0  0  0  0  0
  146.6495  135.4500  154.1813 H   0  0  0  0  0  0  0  0  0  0  0  0
  144.9646  135.2517  153.7532 H   0  0  0  0  0  0  0  0  0  0  0  0
  150.2278  138.0465  155.2712 H   0  0  0  0  0  0  0  0  0  0  0  0
  151.8860  137.4087  156.8107 H   0  0  0  0  0  0  0  0  0  0  0  0
  152.0605  138.3964  158.2578 H   0  0  0  0  0  0  0  0  0  0  0  0
  153.1879  138.5930  156.9071 H   0  0  0  0  0  0  0  0  0  0  0  0
  147.0561  136.4653  152.1116 H   0  0  0  0  0  0  0  0  0  0  0  0
  148.4528  143.1278  154.8288 H   0  0  0  0  0  0  0  0  0  0  0  0
  1  2  1  0  0  0  0
  1 25  1  0  0  0  0
  1 26  1  0  0  0  0
  1 27  1  0  0  0  0
  2 23  1  0  0  0  0
  2  3  2  0  0  0  0
  3  4  1  0  0  0  0
  3 28  1  0  0  0  0
  4 21  2  0  0  0  0
  4  5  1  0  0  0  0
  5  6  2  0  0  0  0
  5 54  1  0  0  0  0
  6  7  1  0  0  0  0
  6 29  1  0  0  0  0
  7  8  1  0  0  0  0
  7 21  1  0  0  0  0
  8  9  1  0  0  0  0
  8 30  1  0  0  0  0
  8 31  1  0  0  0  0
  9 10  1  0  0  0  0
  9 11  1  0  0  0  0
  9 32  1  0  0  0  0
 10 33  1  0  0  0  0
 11 12  1  0  0  0  0
 11 34  1  0  0  0  0
 11 35  1  0  0  0  0
 12 20  1  0  0  0  0
 12 13  1  0  0  0  0
 12 53  1  0  0  0  0
 13 14  1  0  0  0  0
 13 36  1  0  0  0  0
 13 37  1  0  0  0  0
 14 15  1  0  0  0  0
 14 38  1  0  0  0  0
 14 39  1  0  0  0  0
 15 16  1  0  0  0  0
 15 19  1  0  0  0  0
 16 17  1  0  0  0  0
 16 40  1  0  0  0  0
 16 41  1  0  0  0  0
 17 18  1  0  0  0  0
 17 42  1  0  0  0  0
 17 43  1  0  0  0  0
 18 44  1  0  0  0  0
 19 20  1  0  0  0  0
 19 45  1  0  0  0  0
 19 46  1  0  0  0  0
 20 47  1  0  0  0  0
 20 48  1  0  0  0  0
 21 22  1  0  0  0  0
 22 23  2  0  0  0  0
 22 49  1  0  0  0  0
 23 24  1  0  0  0  0
 24 50  1  0  0  0  0
 24 51  1  0  0  0  0
 24 52  1  0  0  0  0
M  CHG  1   5   1
M  CHG  1  12   1
M  END
> <s_m_source_file>
AV-unprocessed.smi

> <i_m_source_file_index>
1046

> <i_lp_mmshare_version>
43012

> <i_f3d_flags>
0

> <s_epik_input>
W0NIM11jKFtjSF0xKWMoW0NIM10pW2NIXWMoYzEyKW4oW2NIXW4yKVtDSDJdW0NASF0oW09IXSlbQ0gyXU4zW0NIMl1bQ0gyXU4oW0NIMl1bQ0gyXTMpW0NIMl1bQ0gyXVtPSF0=

> <s_epik_cmdline>
J2VwaWtfcHl0aG9uJywgJy1waCcsICc3LjAnLCAnLXRuJywgJzgnLCAnLW1hJywgJzIwMCcsICctbWV0YWxfYmluZGluZycsICctaW1hZScsICc8aW5maWxlLm1hZT4nLCAnLW9tYWUnLCAnPG91dGZpbGUubWFlPic=

> <r_epik_Ionization_Penalty>
1.22056

> <r_epik_Ionization_Penalty_Charging>
1.17959

> <r_epik_Ionization_Penalty_Neutral>
0.0409743

> <r_epik_State_Penalty>
1.27074

> <r_epik_Charging_Adjusted_Penalty>
2.45032

> <i_epik_Tot_Q>
2

> <i_epik_Tot_abs_Q>
2

> <r_epik_Metal_State_Penalty>
5.26922

> <b_epik_Metal_Only>
0

> <s_lp_Force_Field>
OPLS_2005

> <r_lp_Energy>
42.2252

> <b_lp_Chiralities_Consistent>
1

> <s_lp_Variant>
AV-unprocessed.smi:1046-6

> <Gold.Version>
5.8.1

> <Gold.Id.Protein>
6NUR|6NUR_protein|mol2

> <Gold.PLP.Fitness>
55.2256

> <Gold.PLP.PLP>
-41.3491

> <Gold.PLP.part.hbond>
-5.8502

> <Gold.PLP.part.metal>
0.0000

> <Gold.PLP.part.buried>
-2.6545

> <Gold.PLP.part.nonpolar>
-33.2169

> <Gold.PLP.part.repulsive>
0.3467

> <Gold.PLP.ligand.clash>
0.0000

> <Gold.PLP.ligand.torsion>
1.9787

> <Gold.PLP.Chemscore.Hbond>
5.9200

> <Gold.PLP.Chemscore.CHOScore>
0.0000

> <Gold.PLP.Chemscore.Metal>
0.0000

> <Gold.Chemscore.Hbonds>
donor molecule, donor type, donor heavy atom, donor atom, acceptor molecule, acceptor atom, score
      L1  H     5    54       P1  8028  1.95
      L1  H    10    33       P1  7957  1.00
      L1  H    12    53       P1  7948  2.00
      L1  H    18    44       P1 10186  1.00

> <Gold.PLP.Chemscore.Internal.Correction>
0.0738

> <Gold.Rescore>
     Score         DG    S(hbond)    S(metal)    S(lipo)     H(rot)  DE(clash)    DE(int)     intcor
     19.09     -21.16       3.86        0.00      95.84       3.29       0.06       2.01       ----

> <Gold.Chemscore.Fitness>
19.0919

> <Gold.Chemscore.DG>
-21.1632

> <Gold.Chemscore.ZeroCoef>
-5.4800

> <Gold.Chemscore.Hbond>
3.8596

> <Gold.Chemscore.Metal>
0.0000

> <Gold.Chemscore.Lipo>
95.8439

> <Gold.Chemscore.Internal_Hbond>
0.0000

> <Gold.Chemscore.DEClash>
0.0595

> <Gold.Chemscore.DEInternal>
2.0117

> <Gold.Chemscore.Rot>
3.2896

> <Gold.Chemscore.Internal.Correction>
   9.000000E+99

> <Gold.Chemscore.Hbonds>
donor molecule, donor type, donor heavy atom, donor atom, acceptor molecule, acceptor atom, score
      L1  H     5    54       P1  8028  0.92
      L1  H    10    33       P1  7957  0.50
      L1  H    12    53       P1  7948  1.00
      L1  H    18    44       P1 10186  1.00

> <Gold.Chemscore.Hbond.Weighted>
-12.8909

> <Gold.Chemscore.Metal.Weighted>
-0.0000

> <Gold.Chemscore.Lipo.Weighted>
-11.2137

> <Gold.Chemscore.Internal_Hbond.Weighted>
0.0000

> <Gold.Chemscore.DEClash.Weighted>
0.0595

> <Gold.Chemscore.DEInternal.Weighted>
2.0117

> <Gold.Chemscore.Rot.Weighted>
8.4215

> <Gold.Chemscore.Internal.Correction.Weighted>
   9.000000E+99

> <Gold.Protein.RotatedTorsions>
[ 6907 6896 6895 6894 ] final  106.04 input  -60.11 | X-H torsion
[ 7974 7965 7964 7962 ] final  157.25 input  175.53 | X-H torsion
[ 8008 7997 7996 7995 ] final  139.42 input   59.86 | X-H torsion
[ 10167 10162 10161 10158 ] final -132.46 input  -65.29 | X-H torsion
[ 10718 10713 10712 10709 ] final   93.67 input   66.30 | X-H torsion
[ 10763 10752 10751 10750 ] final   56.25 input  -60.55 | X-H torsion
[ 11005 11000 10999 10996 ] final -122.63 input  -57.11 | X-H torsion

> <Gold.Protein.ActiveResidues>
 VAL166  LYS551  ARG553  GLY616  TRP617  ASP618  TYR619  PRO620  LYS621  CYS622 
 ASP623  PHE694  ASN695  SER759  ASP760  ASP761  ALA762  ILE779  LEU786  VAL792 
 PHE793  MET794  SER795  GLU796  ALA797  LYS798  CYS799  TRP800  GLU811  SER814 

> <Gold.Protein.RotatedAtoms>
  152.5208  133.9439  159.7639 H   0  0  0  0  0  0  0  0  0  0  0  0  # atno 6907 bound_to 6896
  150.9763  133.6283  159.2736 H   0  0  0  0  0  0  0  0  0  0  0  0  # atno 6908 bound_to 6896
  151.3476  135.0883  159.9445 H   0  0  0  0  0  0  0  0  0  0  0  0  # atno 6909 bound_to 6896
  144.7915  139.7314  143.6219 H   0  0  0  0  0  0  0  0  0  0  0  0  # atno 7974 bound_to 7965
  156.2990  140.2368  156.4234 H   0  0  0  0  0  0  0  0  0  0  0  0  # atno 8008 bound_to 7997
  154.8335  140.0432  157.1513 H   0  0  0  0  0  0  0  0  0  0  0  0  # atno 8009 bound_to 7997
  154.9182  140.3000  155.5234 H   0  0  0  0  0  0  0  0  0  0  0  0  # atno 8010 bound_to 7997
  139.9083  143.6525  152.2581 H   0  0  0  0  0  0  0  0  0  0  0  0  # atno 10167 bound_to 10162
  157.6953  131.0486  150.4069 H   0  0  0  0  0  0  0  0  0  0  0  0  # atno 10718 bound_to 10713
  152.9829  135.5683  154.5199 H   0  0  0  0  0  0  0  0  0  0  0  0  # atno 10763 bound_to 10752
  154.4688  135.2784  155.1660 H   0  0  0  0  0  0  0  0  0  0  0  0  # atno 10764 bound_to 10752
  154.3216  135.6267  153.5564 H   0  0  0  0  0  0  0  0  0  0  0  0  # atno 10765 bound_to 10752
  140.9981  134.0443  157.3572 H   0  0  0  0  0  0  0  0  0  0  0  0  # atno 11005 bound_to 11000
  146.2168  139.5564  142.9645 LP  0  0  0  0  0  0  0  0  0  0  0  0  # atno 17320 bound_to 7965
  145.5783  141.0386  143.2136 LP  0  0  0  0  0  0  0  0  0  0  0  0  # atno 17321 bound_to 7965
  139.6965  144.7640  151.1348 LP  0  0  0  0  0  0  0  0  0  0  0  0  # atno 17342 bound_to 10162
  140.7691  143.5517  150.9197 LP  0  0  0  0  0  0  0  0  0  0  0  0  # atno 17343 bound_to 10162
  156.4457  130.4001  149.6668 LP  0  0  0  0  0  0  0  0  0  0  0  0  # atno 17370 bound_to 10713
  156.3836  130.7591  151.2586 LP  0  0  0  0  0  0  0  0  0  0  0  0  # atno 17371 bound_to 10713
  139.9024  135.0169  156.7333 LP  0  0  0  0  0  0  0  0  0  0  0  0  # atno 17394 bound_to 11000
  140.6934  133.9370  155.7980 LP  0  0  0  0  0  0  0  0  0  0  0  0  # atno 17395 bound_to 11000

$$$$
