#       Name:                AV-unprocessed.smi:2093
#       Creating user name   scv26
#       Creation time:       Fri Mar 27 11:27:18 2020


#       File generated by GOLD software.
#

@<TRIPOS>MOLECULE
AV-unprocessed.smi:2093
    36    37     1
SMALL
NO_CHARGES


@<TRIPOS>ATOM
      1 ****        -2.2304  -1.5165   1.5890 C.3            1 S1                 0.0000
      2 ****        -1.4116  -0.6152   0.6530 C.3            1 S1                 0.0000
      3 ****        -0.0094  -0.6625   1.0675 N.am           1 S1                 0.0000
      4 ****         0.8453   0.3693   1.1325 C.2            1 S1                 0.0000
      5 ****         0.4723   1.5030   0.8223 O.2            1 S1                 0.0000
      6 ****         2.0849   0.0204   1.5462 N.pl3          1 S1                -1.0000
      7 ****         3.0497   0.9503   1.6354 C.2            1 S1                 0.0000
      8 ****         3.3959   1.5358   2.7878 N.2            1 S1                 0.0000
      9 ****         4.4247   2.4692   2.6491 C.2            1 S1                 0.0000
     10 ****         4.8800   2.5896   1.3630 C.2            1 S1                 0.0000
     11 ****         4.0240   1.5285   0.2808 S.3            1 S1                 0.0000
     12 ****        -1.5558  -1.0446  -0.8222 C.3            1 S1                 0.0000
     13 ****        -0.8171  -0.1670  -1.8318 C.3            1 S1                 0.0000
     14 ****        -1.5250  -0.5048  -3.1272 C.3            1 S1                 0.0000
     15 ****        -2.9458  -0.8495  -2.6740 C.3            1 S1                 0.0000
     16 ****        -2.9058  -0.9273  -1.2517 O.3            1 S1                 0.0000
     17 ****        -3.2915  -1.4830   1.3408 H              1 S1                 0.0000
     18 ****        -2.1278  -1.1994   2.6273 H              1 S1                 0.0000
     19 ****        -1.9059  -2.5556   1.5243 H              1 S1                 0.0000
     20 ****        -1.7955   0.4006   0.7605 H              1 S1                 0.0000
     21 ****         0.3505  -1.5677   1.3318 H              1 S1                 0.0000
     22 ****         4.7723   3.0023   3.5214 H              1 S1                 0.0000
     23 ****         5.6616   3.2325   0.9878 H              1 S1                 0.0000
     24 ****        -1.2430  -2.0833  -0.9458 H              1 S1                 0.0000
     25 ****        -0.9606   0.8881  -1.5945 H              1 S1                 0.0000
     26 ****         0.2544  -0.3658  -1.8697 H              1 S1                 0.0000
     27 ****        -1.4968   0.3150  -3.8457 H              1 S1                 0.0000
     28 ****        -1.0595  -1.3762  -3.5893 H              1 S1                 0.0000
     29 ****        -3.6620  -0.0840  -2.9739 H              1 S1                 0.0000
     30 ****        -3.2707  -1.8010  -3.0958 H              1 S1                 0.0000
     31 ****        -0.4693   1.6547   0.5215 LP             1 S1                 0.0000
     32 ****         1.1113   2.2706   0.8716 LP             1 S1                 0.0000
     33 ****         2.2829  -0.9301   1.7857 LP             1 S1                 0.0000
     34 ****         2.9601   1.3252   3.6630 LP             1 S1                 0.0000
     35 ****        -3.3094  -0.1000  -0.8609 LP             1 S1                 0.0000
     36 ****        -3.4235  -1.7268  -0.9467 LP             1 S1                 0.0000
@<TRIPOS>BOND
    1    1    2 1     
    2    1   17 1     
    3    1   18 1     
    4    1   19 1     
    5    2    3 1     
    6    2   12 1     
    7    2   20 1     
    8    3    4 am    
    9    3   21 1     
   10    4    5 2     
   11    4    6 1     
   12    6    7 1     
   13    7   11 1     
   14    7    8 2     
   15    8    9 1     
   16    9   10 2     
   17    9   22 1     
   18   10   11 1     
   19   10   23 1     
   20   12   16 1     
   21   12   13 1     
   22   12   24 1     
   23   13   14 1     
   24   13   25 1     
   25   13   26 1     
   26   14   15 1     
   27   14   27 1     
   28   14   28 1     
   29   15   16 1     
   30   15   29 1     
   31   15   30 1     
   32    5   31 1     
   33    5   32 1     
   34    6   33 1     
   35    8   34 1     
   36   16   35 1     
   37   16   36 1     
@<TRIPOS>SUBSTRUCTURE
      1 S1             1
@<TRIPOS>SET
LONE_PAIRS      STATIC     ATOMS    <user>   **** ""
6 31 32 33 34 35 36
DONOR_HYDROGENS      STATIC     ATOMS    <user>   **** ""
1 21
ATOM$BLUE        STATIC     ATOMS    COLORGROUP SYSTEM
6 31 32 33 34 35 36
ATOM$RED        STATIC     ATOMS    COLORGROUP SYSTEM
1 21
