AV-unprocessed.smi:3337|AV-procd|sdf|12861|dock6
  -GOLD-   2272019253D 1   1.00000     0.00000
 Structure written by MMmdl.
 46 47  0  0  0  0  0  0  0  0  2 V2000
  144.9072  133.2644  149.9035 C   0  0  0  0  0  0  0  0  0  0  0  0
  145.7186  133.9371  151.0197 C   0  0  2  0  0  0  0  0  0  0  0  0
  145.7237  133.0828  152.3001 C   0  0  0  0  0  0  0  0  0  0  0  0
  146.4828  133.7778  153.4451 C   0  0  1  0  0  0  0  0  0  0  0  0
  148.0097  133.7495  153.2570 C   0  0  0  0  0  0  0  0  0  0  0  0
  145.9475  135.2076  153.6593 C   0  0  0  0  0  0  0  0  0  0  0  0
  145.9797  136.0041  152.4047 N   0  3  2  0  0  0  0  0  0  0  0  0
  145.5971  137.4202  152.6335 C   0  0  0  0  0  0  0  0  0  0  0  0
  146.6394  138.4111  152.0784 C   0  0  0  0  0  0  0  0  0  0  0  0
  147.8991  138.3263  152.8078 N   0  0  0  0  0  0  0  0  0  0  0  0
  148.2493  139.1231  153.8299 C   0  0  0  0  0  0  0  0  0  0  0  0
  147.5209  140.0179  154.2604 O   0  0  0  0  0  0  0  0  0  0  0  0
  149.6285  138.8679  154.4563 C   0  0  2  0  0  0  0  0  0  0  0  0
  149.7568  137.4399  155.0240 C   0  0  0  0  0  0  0  0  0  0  0  0
  149.9253  139.8892  155.4531 N   0  0  0  0  0  0  0  0  0  0  0  0
  149.2884  140.1915  156.5869 C   0  0  0  0  0  0  0  0  0  0  0  0
  149.8629  141.1596  157.2866 N   0  0  0  0  0  0  0  0  0  0  0  0
  150.9316  141.4223  156.4776 C   0  0  0  0  0  0  0  0  0  0  0  0
  151.0234  140.6818  155.3732 N   0  0  0  0  0  0  0  0  0  0  0  0
  145.1913  135.3525  151.3247 C   0  0  0  0  0  0  0  0  0  0  0  0
  143.8617  133.1442  150.1895 H   0  0  0  0  0  0  0  0  0  0  0  0
  145.3042  132.2759  149.6711 H   0  0  0  0  0  0  0  0  0  0  0  0
  144.9355  133.8535  148.9864 H   0  0  0  0  0  0  0  0  0  0  0  0
  146.7446  134.0278  150.6611 H   0  0  0  0  0  0  0  0  0  0  0  0
  144.6947  132.9025  152.6147 H   0  0  0  0  0  0  0  0  0  0  0  0
  146.1561  132.1012  152.1017 H   0  0  0  0  0  0  0  0  0  0  0  0
  146.2781  133.2138  154.3561 H   0  0  0  0  0  0  0  0  0  0  0  0
  148.3255  134.3198  152.3834 H   0  0  0  0  0  0  0  0  0  0  0  0
  148.3701  132.7278  153.1344 H   0  0  0  0  0  0  0  0  0  0  0  0
  148.5167  134.1719  154.1248 H   0  0  0  0  0  0  0  0  0  0  0  0
  144.9211  135.1679  154.0281 H   0  0  0  0  0  0  0  0  0  0  0  0
  146.5368  135.7023  154.4328 H   0  0  0  0  0  0  0  0  0  0  0  0
  144.6099  137.6026  152.2064 H   0  0  0  0  0  0  0  0  0  0  0  0
  145.5043  137.6002  153.7057 H   0  0  0  0  0  0  0  0  0  0  0  0
  146.8401  138.1895  151.0298 H   0  0  0  0  0  0  0  0  0  0  0  0
  146.2778  139.4389  152.1143 H   0  0  0  0  0  0  0  0  0  0  0  0
  148.5544  137.6171  152.5117 H   0  0  0  0  0  0  0  0  0  0  0  0
  150.3760  138.9669  153.6672 H   0  0  0  0  0  0  0  0  0  0  0  0
  149.5827  136.6930  154.2487 H   0  0  0  0  0  0  0  0  0  0  0  0
  149.0457  137.2503  155.8293 H   0  0  0  0  0  0  0  0  0  0  0  0
  150.7579  137.2696  155.4213 H   0  0  0  0  0  0  0  0  0  0  0  0
  148.3870  139.6911  156.9092 H   0  0  0  0  0  0  0  0  0  0  0  0
  151.6675  142.1772  156.7126 H   0  0  0  0  0  0  0  0  0  0  0  0
  145.2372  135.9487  150.4142 H   0  0  0  0  0  0  0  0  0  0  0  0
  144.1407  135.3099  151.6177 H   0  0  0  0  0  0  0  0  0  0  0  0
  146.9436  136.0131  152.1034 H   0  0  0  0  0  0  0  0  0  0  0  0
  1  2  1  0  0  0  0
  1 21  1  0  0  0  0
  1 22  1  0  0  0  0
  1 23  1  0  0  0  0
  2 20  1  0  0  0  0
  2  3  1  0  0  0  0
  2 24  1  0  0  0  0
  3  4  1  0  0  0  0
  3 25  1  0  0  0  0
  3 26  1  0  0  0  0
  4  5  1  0  0  0  0
  4  6  1  0  0  0  0
  4 27  1  0  0  0  0
  5 28  1  0  0  0  0
  5 29  1  0  0  0  0
  5 30  1  0  0  0  0
  6  7  1  0  0  0  0
  6 31  1  0  0  0  0
  6 32  1  0  0  0  0
  7  8  1  0  0  0  0
  7 20  1  0  0  0  0
  7 46  1  0  0  0  0
  8  9  1  0  0  0  0
  8 33  1  0  0  0  0
  8 34  1  0  0  0  0
  9 10  1  0  0  0  0
  9 35  1  0  0  0  0
  9 36  1  0  0  0  0
 10 11  1  0  0  0  0
 10 37  1  0  0  0  0
 11 12  2  0  0  0  0
 11 13  1  0  0  0  0
 13 14  1  0  0  0  0
 13 15  1  0  0  0  0
 13 38  1  0  0  0  0
 14 39  1  0  0  0  0
 14 40  1  0  0  0  0
 14 41  1  0  0  0  0
 15 19  1  0  0  0  0
 15 16  1  0  0  0  0
 16 17  2  0  0  0  0
 16 42  1  0  0  0  0
 17 18  1  0  0  0  0
 18 19  2  0  0  0  0
 18 43  1  0  0  0  0
 20 44  1  0  0  0  0
 20 45  1  0  0  0  0
M  CHG  1   7   1
M  END
> <s_m_source_file>
AV-unprocessed.smi

> <i_m_source_file_index>
3337

> <i_lp_mmshare_version>
43012

> <i_f3d_flags>
0

> <s_epik_input>
W0NIM11bQ0BASF0xW0NIMl1bQ0BASF0oW0NIM10pW0NIMl1OKFtDSDJdMSlbQ0gyXVtDSDJdW05IXUMoPU8pW0NASF0oW0NIM10pbjJbY0hdbltjSF1uMg==

> <s_epik_cmdline>
J2VwaWtfcHl0aG9uJywgJy1waCcsICc3LjAnLCAnLXRuJywgJzgnLCAnLW1hJywgJzIwMCcsICctbWV0YWxfYmluZGluZycsICctaW1hZScsICc8aW5maWxlLm1hZT4nLCAnLW9tYWUnLCAnPG91dGZpbGUubWFlPic=

> <r_lp_tautomer_probability>
1

> <r_epik_Ionization_Penalty>
0.00175613

> <r_epik_Ionization_Penalty_Charging>
0.00174812

> <r_epik_Ionization_Penalty_Neutral>
8.01354e-06

> <r_epik_State_Penalty>
0.00118332

> <r_epik_Charging_Adjusted_Penalty>
0.00293143

> <i_epik_Tot_Q>
1

> <i_epik_Tot_abs_Q>
1

> <r_epik_Metal_State_Penalty>
-0

> <b_epik_Metal_Only>
0

> <s_lp_Force_Field>
OPLS_2005

> <r_lp_Energy>
24.9418

> <b_lp_Chiralities_Consistent>
1

> <s_lp_Variant>
AV-unprocessed.smi:3337-1

> <Gold.Version>
5.8.1

> <Gold.Id.Protein>
6NUR|6NUR_protein|mol2

> <Gold.PLP.Fitness>
39.0430

> <Gold.PLP.PLP>
-29.2168

> <Gold.PLP.part.hbond>
-3.8651

> <Gold.PLP.part.metal>
0.0000

> <Gold.PLP.part.buried>
-0.7529

> <Gold.PLP.part.nonpolar>
-25.1097

> <Gold.PLP.part.repulsive>
0.2889

> <Gold.PLP.ligand.clash>
0.0000

> <Gold.PLP.ligand.torsion>
0.9469

> <Gold.PLP.Chemscore.Hbond>
3.8640

> <Gold.PLP.Chemscore.CHOScore>
0.0000

> <Gold.PLP.Chemscore.Metal>
0.0000

> <Gold.Chemscore.Hbonds>
donor molecule, donor type, donor heavy atom, donor atom, acceptor molecule, acceptor atom, score
      L1  H     7    46       P1  7948  2.00
      L1  H    10    37       P1  7948  1.00
      P1  H  7989  7998       L1    19  0.85

> <Gold.PLP.Chemscore.Internal.Correction>
0.1280

> <Gold.Rescore>
     Score         DG    S(hbond)    S(metal)    S(lipo)     H(rot)  DE(clash)    DE(int)     intcor
     12.81     -14.59       2.57        0.00      59.36       2.51       0.19       1.58       ----

> <Gold.Chemscore.Fitness>
12.8145

> <Gold.Chemscore.DG>
-14.5898

> <Gold.Chemscore.ZeroCoef>
-5.4800

> <Gold.Chemscore.Hbond>
2.5743

> <Gold.Chemscore.Metal>
0.0000

> <Gold.Chemscore.Lipo>
59.3571

> <Gold.Chemscore.Internal_Hbond>
0.0000

> <Gold.Chemscore.DEClash>
0.1945

> <Gold.Chemscore.DEInternal>
1.5808

> <Gold.Chemscore.Rot>
2.5129

> <Gold.Chemscore.Internal.Correction>
   9.000000E+99

> <Gold.Chemscore.Hbonds>
donor molecule, donor type, donor heavy atom, donor atom, acceptor molecule, acceptor atom, score
      L1  H     7    46       P1  7948  0.95
      L1  H    10    37       P1  7948  0.94
      P1  H  7989  7998       L1    19  0.68

> <Gold.Chemscore.Hbond.Weighted>
-8.5981

> <Gold.Chemscore.Metal.Weighted>
-0.0000

> <Gold.Chemscore.Lipo.Weighted>
-6.9448

> <Gold.Chemscore.Internal_Hbond.Weighted>
0.0000

> <Gold.Chemscore.DEClash.Weighted>
0.1945

> <Gold.Chemscore.DEInternal.Weighted>
1.5808

> <Gold.Chemscore.Rot.Weighted>
6.4331

> <Gold.Chemscore.Internal.Correction.Weighted>
   9.000000E+99

> <Gold.Protein.RotatedTorsions>
[ 6907 6896 6895 6894 ] final   84.70 input  -60.11 | X-H torsion
[ 7974 7965 7964 7962 ] final  -37.79 input  175.53 | X-H torsion
[ 8008 7997 7996 7995 ] final  126.15 input   59.86 | X-H torsion
[ 10167 10162 10161 10158 ] final -174.90 input  -65.29 | X-H torsion
[ 10718 10713 10712 10709 ] final  -89.79 input   66.30 | X-H torsion
[ 10763 10752 10751 10750 ] final   90.65 input  -60.55 | X-H torsion
[ 11005 11000 10999 10996 ] final    6.15 input  -57.11 | X-H torsion

> <Gold.Protein.ActiveResidues>
 VAL166  LYS551  ARG553  GLY616  TRP617  ASP618  TYR619  PRO620  LYS621  CYS622 
 ASP623  PHE694  ASN695  SER759  ASP760  ASP761  ALA762  ILE779  LEU786  VAL792 
 PHE793  MET794  SER795  GLU796  ALA797  LYS798  CYS799  TRP800  GLU811  SER814 

> <Gold.Protein.RotatedAtoms>
  152.5358  134.2700  159.8967 H   0  0  0  0  0  0  0  0  0  0  0  0  # atno 6907 bound_to 6896
  151.2657  133.4273  159.2626 H   0  0  0  0  0  0  0  0  0  0  0  0  # atno 6908 bound_to 6896
  151.0413  134.9623  159.8219 H   0  0  0  0  0  0  0  0  0  0  0  0  # atno 6909 bound_to 6896
  146.0544  140.6436  142.9026 H   0  0  0  0  0  0  0  0  0  0  0  0  # atno 7974 bound_to 7965
  156.2855  140.2699  156.2064 H   0  0  0  0  0  0  0  0  0  0  0  0  # atno 8008 bound_to 7997
  155.0309  140.0386  157.2491 H   0  0  0  0  0  0  0  0  0  0  0  0  # atno 8009 bound_to 7997
  154.7355  140.2715  155.6423 H   0  0  0  0  0  0  0  0  0  0  0  0  # atno 8010 bound_to 7997
  139.5609  144.1872  152.1237 H   0  0  0  0  0  0  0  0  0  0  0  0  # atno 10167 bound_to 10162
  155.9985  130.4885  150.5224 H   0  0  0  0  0  0  0  0  0  0  0  0  # atno 10718 bound_to 10713
  153.1999  135.4426  155.0253 H   0  0  0  0  0  0  0  0  0  0  0  0  # atno 10763 bound_to 10752
  154.8140  135.3307  154.7229 H   0  0  0  0  0  0  0  0  0  0  0  0  # atno 10764 bound_to 10752
  153.7675  135.6987  153.4968 H   0  0  0  0  0  0  0  0  0  0  0  0  # atno 10765 bound_to 10752
  140.5627  134.0177  155.7978 H   0  0  0  0  0  0  0  0  0  0  0  0  # atno 11005 bound_to 11000
  144.7140  140.4143  143.7059 LP  0  0  0  0  0  0  0  0  0  0  0  0  # atno 17320 bound_to 7965
  145.6669  139.1591  143.2777 LP  0  0  0  0  0  0  0  0  0  0  0  0  # atno 17321 bound_to 7965
  140.1385  144.5223  150.6758 LP  0  0  0  0  0  0  0  0  0  0  0  0  # atno 17342 bound_to 10162
  140.6889  143.2365  151.5186 LP  0  0  0  0  0  0  0  0  0  0  0  0  # atno 17343 bound_to 10162
  157.3184  131.0677  151.1950 LP  0  0  0  0  0  0  0  0  0  0  0  0  # atno 17370 bound_to 10713
  157.2872  130.6778  149.6095 LP  0  0  0  0  0  0  0  0  0  0  0  0  # atno 17371 bound_to 10713
  141.1105  133.9624  157.2919 LP  0  0  0  0  0  0  0  0  0  0  0  0  # atno 17394 bound_to 11000
  139.9400  135.0192  156.8678 LP  0  0  0  0  0  0  0  0  0  0  0  0  # atno 17395 bound_to 11000

$$$$
