#       Name:                AV-unprocessed.smi:2633
#       Creating user name   scv26
#       Creation time:       Fri Mar 27 14:26:21 2020


#       File generated by GOLD software.
#

@<TRIPOS>MOLECULE
AV-unprocessed.smi:2633
    38    40     1
SMALL
NO_CHARGES


@<TRIPOS>ATOM
      1 ****        -2.3222   1.6878  -0.9389 O.3            1 S1                 0.0000
      2 ****        -2.7383   1.7510   0.4092 C.3            1 S1                 0.0000
      3 ****        -2.3644   0.4693   1.1731 C.3            1 S1                 0.0000
      4 ****        -0.9264   0.2349   1.1994 N.pl3          1 S1                 0.0000
      5 ****        -0.1812  -0.5846   0.4120 C.2            1 S1                 0.0000
      6 ****        -0.7885  -1.4246  -0.6790 C.3            1 S1                 0.0000
      7 ****         0.1273  -1.6232  -1.8751 C.ar           1 S1                 0.0000
      8 ****         0.2373  -0.6131  -2.8540 C.ar           1 S1                 0.0000
      9 ****         1.0889  -0.7911  -3.9616 C.ar           1 S1                 0.0000
     10 ****         1.8332  -1.9792  -4.0944 C.ar           1 S1                 0.0000
     11 ****         1.7256  -2.9898  -3.1193 C.ar           1 S1                 0.0000
     12 ****         0.8739  -2.8126  -2.0114 C.ar           1 S1                 0.0000
     13 ****         1.1261  -0.6082   0.6843 N.2            1 S1                 0.0000
     14 ****         1.2413   0.2878   1.7274 C.ar           1 S1                 0.0000
     15 ****         2.3773   0.7100   2.4544 C.ar           1 S1                 0.0000
     16 ****         2.2479   1.6511   3.4966 C.ar           1 S1                 0.0000
     17 ****         0.9837   2.1813   3.8266 C.ar           1 S1                 0.0000
     18 ****        -0.1608   1.7724   3.1152 C.ar           1 S1                 0.0000
     19 ****        -0.0257   0.8336   2.0748 C.ar           1 S1                 0.0000
     20 ****        -2.5592   2.4973  -1.3650 H              1 S1                 0.0000
     21 ****        -2.2804   2.6220   0.8788 H              1 S1                 0.0000
     22 ****        -3.8175   1.9028   0.4365 H              1 S1                 0.0000
     23 ****        -2.7127   0.5469   2.2035 H              1 S1                 0.0000
     24 ****        -2.8752  -0.3976   0.7549 H              1 S1                 0.0000
     25 ****        -1.0654  -2.3920  -0.2590 H              1 S1                 0.0000
     26 ****        -1.7079  -0.9697  -1.0444 H              1 S1                 0.0000
     27 ****        -0.3288   0.3018  -2.7548 H              1 S1                 0.0000
     28 ****         1.1724  -0.0154  -4.7084 H              1 S1                 0.0000
     29 ****         2.4875  -2.1149  -4.9430 H              1 S1                 0.0000
     30 ****         2.2977  -3.9003  -3.2196 H              1 S1                 0.0000
     31 ****         0.7997  -3.5896  -1.2647 H              1 S1                 0.0000
     32 ****         3.3496   0.3092   2.2088 H              1 S1                 0.0000
     33 ****         3.1230   1.9675   4.0452 H              1 S1                 0.0000
     34 ****         0.8934   2.9019   4.6262 H              1 S1                 0.0000
     35 ****        -1.1305   2.1763   3.3650 H              1 S1                 0.0000
     36 ****        -2.7742   0.9216  -1.3956 LP             1 S1                 0.0000
     37 ****        -1.3309   1.5628  -0.9802 LP             1 S1                 0.0000
     38 ****         1.8449  -1.1437   0.2411 LP             1 S1                 0.0000
@<TRIPOS>BOND
    1    1    2 1     
    2    1   20 1     
    3    2    3 1     
    4    2   21 1     
    5    2   22 1     
    6    3    4 1     
    7    3   23 1     
    8    3   24 1     
    9    4   19 1     
   10    4    5 1     
   11    5    6 1     
   12    5   13 2     
   13    6    7 1     
   14    6   25 1     
   15    6   26 1     
   16    7   12 ar    
   17    7    8 ar    
   18    8    9 ar    
   19    8   27 1     
   20    9   10 ar    
   21    9   28 1     
   22   10   11 ar    
   23   10   29 1     
   24   11   12 ar    
   25   11   30 1     
   26   12   31 1     
   27   13   14 1     
   28   14   19 ar    
   29   14   15 ar    
   30   15   16 ar    
   31   15   32 1     
   32   16   17 ar    
   33   16   33 1     
   34   17   18 ar    
   35   17   34 1     
   36   18   19 ar    
   37   18   35 1     
   38    1   36 1     
   39    1   37 1     
   40   13   38 1     
@<TRIPOS>SUBSTRUCTURE
      1 S1             1
@<TRIPOS>SET
LONE_PAIRS      STATIC     ATOMS    <user>   **** ""
3 36 37 38
DONOR_HYDROGENS      STATIC     ATOMS    <user>   **** ""
1 20
ATOM$BLUE        STATIC     ATOMS    COLORGROUP SYSTEM
3 36 37 38
ATOM$RED        STATIC     ATOMS    COLORGROUP SYSTEM
1 20
