#       Name:                AV-unprocessed.smi:3212
#       Creating user name   scv26
#       Creation time:       Fri Mar 27 18:11:37 2020


#       File generated by GOLD software.
#

@<TRIPOS>MOLECULE
AV-unprocessed.smi:3212
    43    43     1
SMALL
NO_CHARGES


@<TRIPOS>ATOM
      1 ****        -1.1715  -0.7790   2.9688 C.3            1 S1                 0.0000
      2 ****        -0.5542  -0.1974   1.6877 C.3            1 S1                 0.0000
      3 ****         0.9233  -0.2551   1.7724 N.4            1 S1                 1.0000
      4 ****         1.6399   0.6210   0.8213 C.3            1 S1                 0.0000
      5 ****         3.1597   0.4880   0.9903 C.3            1 S1                 0.0000
      6 ****         3.8788   1.3457   0.0686 N.pl3          1 S1                 0.0000
      7 ****         4.5637   2.5124   0.3362 C.2            1 S1                 0.0000
      8 ****         5.0766   2.9621  -0.8467 C.2            1 S1                 0.0000
      9 ****         4.6498   1.9885  -1.7926 C.2            1 S1                 0.0000
     10 ****         3.9332   1.0221  -1.2412 N.2            1 S1                 0.0000
     11 ****        -1.0848  -0.9520   0.4609 C.2            1 S1                 0.0000
     12 ****        -0.4995  -1.9567   0.0562 O.2            1 S1                 0.0000
     13 ****        -2.1995  -0.4536  -0.1037 N.am           1 S1                 0.0000
     14 ****        -2.9288  -0.9531  -1.2757 C.3            1 S1                 0.0000
     15 ****        -4.1212  -0.0064  -1.4984 C.3            1 S1                 0.0000
     16 ****        -3.4623  -2.3782  -1.0184 C.3            1 S1                 0.0000
     17 ****        -2.0286  -0.9269  -2.5291 C.3            1 S1                 0.0000
     18 ****        -2.2610  -0.7286   2.9444 H              1 S1                 0.0000
     19 ****        -0.8410  -0.2249   3.8480 H              1 S1                 0.0000
     20 ****        -0.8903  -1.8237   3.1109 H              1 S1                 0.0000
     21 ****        -0.8498   0.8510   1.6158 H              1 S1                 0.0000
     22 ****         1.1936   0.0211   2.7053 H              1 S1                 0.0000
     23 ****         1.3562   0.3624  -0.1998 H              1 S1                 0.0000
     24 ****         1.3369   1.6558   0.9867 H              1 S1                 0.0000
     25 ****         3.4541   0.7480   2.0080 H              1 S1                 0.0000
     26 ****         3.4751  -0.5427   0.8212 H              1 S1                 0.0000
     27 ****         4.6283   2.9222   1.3335 H              1 S1                 0.0000
     28 ****         5.6682   3.8504  -1.0115 H              1 S1                 0.0000
     29 ****         4.8381   1.9553  -2.8556 H              1 S1                 0.0000
     30 ****        -2.5925   0.3715   0.3262 H              1 S1                 0.0000
     31 ****        -4.7170  -0.3148  -2.3584 H              1 S1                 0.0000
     32 ****        -3.7899   1.0168  -1.6812 H              1 S1                 0.0000
     33 ****        -4.7835   0.0122  -0.6319 H              1 S1                 0.0000
     34 ****        -4.0735  -2.4166  -0.1159 H              1 S1                 0.0000
     35 ****        -2.6576  -3.1043  -0.9032 H              1 S1                 0.0000
     36 ****        -4.0822  -2.7197  -1.8481 H              1 S1                 0.0000
     37 ****        -2.5909  -1.2042  -3.4213 H              1 S1                 0.0000
     38 ****        -1.1937  -1.6232  -2.4510 H              1 S1                 0.0000
     39 ****        -1.6144   0.0675  -2.7003 H              1 S1                 0.0000
     40 ****         1.2129  -1.2114   1.6221 H              1 S1                 0.0000
     41 ****         3.5237   0.2297  -1.6933 LP             1 S1                 0.0000
     42 ****         0.3212  -2.2808   0.5267 LP             1 S1                 0.0000
     43 ****        -0.8448  -2.4487  -0.7430 LP             1 S1                 0.0000
@<TRIPOS>BOND
    1    1    2 1     
    2    1   18 1     
    3    1   19 1     
    4    1   20 1     
    5    2    3 1     
    6    2   11 1     
    7    2   21 1     
    8    3    4 1     
    9    3   22 1     
   10    3   40 1     
   11    4    5 1     
   12    4   23 1     
   13    4   24 1     
   14    5    6 1     
   15    5   25 1     
   16    5   26 1     
   17    6   10 1     
   18    6    7 1     
   19    7    8 2     
   20    7   27 1     
   21    8    9 1     
   22    8   28 1     
   23    9   10 2     
   24    9   29 1     
   25   11   12 2     
   26   11   13 am    
   27   13   14 1     
   28   13   30 1     
   29   14   15 1     
   30   14   16 1     
   31   14   17 1     
   32   15   31 1     
   33   15   32 1     
   34   15   33 1     
   35   16   34 1     
   36   16   35 1     
   37   16   36 1     
   38   17   37 1     
   39   17   38 1     
   40   17   39 1     
   41   10   41 1     
   42   12   42 1     
   43   12   43 1     
@<TRIPOS>SUBSTRUCTURE
      1 S1             1
@<TRIPOS>SET
LONE_PAIRS      STATIC     ATOMS    <user>   **** ""
3 41 42 43
DONOR_HYDROGENS      STATIC     ATOMS    <user>   **** ""
3 22 40 30
ATOM$BLUE        STATIC     ATOMS    COLORGROUP SYSTEM
3 41 42 43
ATOM$RED        STATIC     ATOMS    COLORGROUP SYSTEM
3 22 40 30
