AV-unprocessed.smi:2878|AV-procd|sdf|11048|dock1
  -GOLD-   2272015513D 1   1.00000     0.00000
 Structure written by MMmdl.
 42 43  0  0  0  0  0  0  0  0  1 V2000
  146.3572  131.8554  154.0545 C   0  0  0  0  0  0  0  0  0  0  0  0
  147.6498  132.5522  152.9903 S   0  0  0  0  0  0  0  0  0  0  0  0
  146.6689  133.0749  151.5473 C   0  0  1  0  0  0  0  0  0  0  0  0
  145.8999  131.8651  150.9830 C   0  0  0  0  0  0  0  0  0  0  0  0
  145.0287  132.2509  149.7789 C   0  0  0  0  0  0  0  0  0  0  0  0
  144.0545  133.3773  150.1476 C   0  0  0  0  0  0  0  0  0  0  0  0
  144.8079  134.5985  150.6929 C   0  0  0  0  0  0  0  0  0  0  0  0
  145.7021  134.2325  151.8983 C   0  0  2  0  0  0  0  0  0  0  0  0
  146.4526  135.4122  152.3206 N   0  0  0  0  0  0  0  0  0  0  0  0
  145.9265  136.4802  152.9340 C   0  0  0  0  0  0  0  0  0  0  0  0
  144.7398  136.5814  153.2459 O   0  0  0  0  0  0  0  0  0  0  0  0
  146.8412  137.4409  153.1297 N   0  0  0  0  0  0  0  0  0  0  0  0
  146.5613  138.7737  153.6606 C   0  0  0  0  0  0  0  0  0  0  0  0
  147.7679  139.7253  153.5321 C   0  0  0  0  0  0  0  0  0  0  0  0
  149.0360  139.1834  154.1108 C   0  0  0  0  0  0  0  0  0  0  0  0
  150.2433  139.7406  154.0624 N   0  0  0  0  0  0  0  0  0  0  0  0
  151.0008  138.7720  154.6462 C   0  0  0  0  0  0  0  0  0  0  0  0
  152.4728  138.9068  154.8353 C   0  0  0  0  0  0  0  0  0  0  0  0
  150.3502  137.6851  155.0432 N   0  0  0  0  0  0  0  0  0  0  0  0
  149.0234  137.9524  154.6782 O   0  0  0  0  0  0  0  0  0  0  0  0
  146.7940  131.5006  154.9878 H   0  0  0  0  0  0  0  0  0  0  0  0
  145.8620  131.0159  153.5680 H   0  0  0  0  0  0  0  0  0  0  0  0
  145.6094  132.6124  154.2908 H   0  0  0  0  0  0  0  0  0  0  0  0
  147.3625  133.4125  150.7759 H   0  0  0  0  0  0  0  0  0  0  0  0
  146.6013  131.0832  150.6897 H   0  0  0  0  0  0  0  0  0  0  0  0
  145.2685  131.4358  151.7620 H   0  0  0  0  0  0  0  0  0  0  0  0
  145.6644  132.5700  148.9521 H   0  0  0  0  0  0  0  0  0  0  0  0
  144.4747  131.3804  149.4264 H   0  0  0  0  0  0  0  0  0  0  0  0
  143.4670  133.6623  149.2745 H   0  0  0  0  0  0  0  0  0  0  0  0
  143.3457  133.0202  150.8957 H   0  0  0  0  0  0  0  0  0  0  0  0
  145.4193  135.0275  149.8976 H   0  0  0  0  0  0  0  0  0  0  0  0
  144.0897  135.3695  150.9752 H   0  0  0  0  0  0  0  0  0  0  0  0
  145.0631  133.9029  152.7201 H   0  0  0  0  0  0  0  0  0  0  0  0
  147.4379  135.4252  152.1023 H   0  0  0  0  0  0  0  0  0  0  0  0
  147.7908  137.2571  152.8403 H   0  0  0  0  0  0  0  0  0  0  0  0
  145.6925  139.2075  153.1627 H   0  0  0  0  0  0  0  0  0  0  0  0
  146.2878  138.6716  154.7108 H   0  0  0  0  0  0  0  0  0  0  0  0
  147.9393  139.9611  152.4816 H   0  0  0  0  0  0  0  0  0  0  0  0
  147.5430  140.6717  154.0251 H   0  0  0  0  0  0  0  0  0  0  0  0
  152.9242  137.9438  155.0765 H   0  0  0  0  0  0  0  0  0  0  0  0
  152.6844  139.6022  155.6478 H   0  0  0  0  0  0  0  0  0  0  0  0
  152.9377  139.2849  153.9245 H   0  0  0  0  0  0  0  0  0  0  0  0
  1  2  1  0  0  0  0
  1 21  1  0  0  0  0
  1 22  1  0  0  0  0
  1 23  1  0  0  0  0
  2  3  1  0  0  0  0
  3  8  1  0  0  0  0
  3  4  1  0  0  0  0
  3 24  1  0  0  0  0
  4  5  1  0  0  0  0
  4 25  1  0  0  0  0
  4 26  1  0  0  0  0
  5  6  1  0  0  0  0
  5 27  1  0  0  0  0
  5 28  1  0  0  0  0
  6  7  1  0  0  0  0
  6 29  1  0  0  0  0
  6 30  1  0  0  0  0
  7  8  1  0  0  0  0
  7 31  1  0  0  0  0
  7 32  1  0  0  0  0
  8  9  1  0  0  0  0
  8 33  1  0  0  0  0
  9 10  1  0  0  0  0
  9 34  1  0  0  0  0
 10 11  2  0  0  0  0
 10 12  1  0  0  0  0
 12 13  1  0  0  0  0
 12 35  1  0  0  0  0
 13 14  1  0  0  0  0
 13 36  1  0  0  0  0
 13 37  1  0  0  0  0
 14 15  1  0  0  0  0
 14 38  1  0  0  0  0
 14 39  1  0  0  0  0
 15 20  1  0  0  0  0
 15 16  2  0  0  0  0
 16 17  1  0  0  0  0
 17 18  1  0  0  0  0
 17 19  2  0  0  0  0
 18 40  1  0  0  0  0
 18 41  1  0  0  0  0
 18 42  1  0  0  0  0
 19 20  1  0  0  0  0
M  END
> <s_m_source_file>
AV-unprocessed.smi

> <i_m_source_file_index>
2878

> <i_lp_mmshare_version>
43012

> <i_f3d_flags>
0

> <s_epik_input>
W0NIM11TW0NAQEhdMVtDSDJdW0NIMl1bQ0gyXVtDSDJdW0NASF0xW05IXUMoPU8pW05IXVtDSDJdW0NIMl1jMm5jKFtDSDNdKW5vMg==

> <s_epik_cmdline>
J2VwaWtfcHl0aG9uJywgJy1waCcsICc3LjAnLCAnLXRuJywgJzgnLCAnLW1hJywgJzIwMCcsICctbWV0YWxfYmluZGluZycsICctaW1hZScsICc8aW5maWxlLm1hZT4nLCAnLW9tYWUnLCAnPG91dGZpbGUubWFlPic=

> <r_lp_tautomer_probability>
1

> <r_epik_Ionization_Penalty>
4.9299e-05

> <r_epik_Ionization_Penalty_Charging>
0

> <r_epik_Ionization_Penalty_Neutral>
4.9299e-05

> <r_epik_State_Penalty>
-0

> <r_epik_Charging_Adjusted_Penalty>
0

> <i_epik_Tot_Q>
0

> <i_epik_Tot_abs_Q>
0

> <r_epik_Metal_State_Penalty>
-0

> <b_epik_Metal_Only>
0

> <s_lp_Force_Field>
OPLS_2005

> <r_lp_Energy>
3.16315

> <b_lp_Chiralities_Consistent>
1

> <s_lp_Variant>
AV-unprocessed.smi:2878-4

> <Gold.Version>
5.8.1

> <Gold.Id.Protein>
6NUR|6NUR_protein|mol2

> <Gold.PLP.Fitness>
42.2538

> <Gold.PLP.PLP>
-33.7355

> <Gold.PLP.part.hbond>
-3.0000

> <Gold.PLP.part.metal>
0.0000

> <Gold.PLP.part.buried>
-3.8806

> <Gold.PLP.part.nonpolar>
-28.2722

> <Gold.PLP.part.repulsive>
1.2985

> <Gold.PLP.ligand.clash>
0.0000

> <Gold.PLP.ligand.torsion>
0.2265

> <Gold.PLP.Chemscore.Hbond>
2.9760

> <Gold.PLP.Chemscore.CHOScore>
0.0000

> <Gold.PLP.Chemscore.Metal>
0.0000

> <Gold.Chemscore.Hbonds>
donor molecule, donor type, donor heavy atom, donor atom, acceptor molecule, acceptor atom, score
      L1  H     9    34       P1  7948  1.00
      L1  H    12    35       P1  7948  0.98
      P1  H  7989  7998       L1    16  0.95

> <Gold.PLP.Chemscore.Internal.Correction>
0.0432

> <Gold.Rescore>
     Score         DG    S(hbond)    S(metal)    S(lipo)     H(rot)  DE(clash)    DE(int)     intcor
     16.88     -17.66       2.71        0.00      72.46       2.09       0.28       0.51       ----

> <Gold.Chemscore.Fitness>
16.8757

> <Gold.Chemscore.DG>
-17.6604

> <Gold.Chemscore.ZeroCoef>
-5.4800

> <Gold.Chemscore.Hbond>
2.7121

> <Gold.Chemscore.Metal>
0.0000

> <Gold.Chemscore.Lipo>
72.4637

> <Gold.Chemscore.Internal_Hbond>
0.0000

> <Gold.Chemscore.DEClash>
0.2757

> <Gold.Chemscore.DEInternal>
0.5090

> <Gold.Chemscore.Rot>
2.0923

> <Gold.Chemscore.Internal.Correction>
   9.000000E+99

> <Gold.Chemscore.Hbonds>
donor molecule, donor type, donor heavy atom, donor atom, acceptor molecule, acceptor atom, score
      L1  H     9    34       P1  7948  0.97
      L1  H    12    35       P1  7948  0.93
      P1  H  7989  7998       L1    16  0.21

> <Gold.Chemscore.Hbond.Weighted>
-9.0584

> <Gold.Chemscore.Metal.Weighted>
-0.0000

> <Gold.Chemscore.Lipo.Weighted>
-8.4783

> <Gold.Chemscore.Internal_Hbond.Weighted>
0.0000

> <Gold.Chemscore.DEClash.Weighted>
0.2757

> <Gold.Chemscore.DEInternal.Weighted>
0.5090

> <Gold.Chemscore.Rot.Weighted>
5.3562

> <Gold.Chemscore.Internal.Correction.Weighted>
   9.000000E+99

> <Gold.Protein.RotatedTorsions>
[ 6907 6896 6895 6894 ] final    2.75 input  -60.11 | X-H torsion
[ 7974 7965 7964 7962 ] final   67.24 input  175.53 | X-H torsion
[ 8008 7997 7996 7995 ] final -146.76 input   59.86 | X-H torsion
[ 10167 10162 10161 10158 ] final   85.17 input  -65.29 | X-H torsion
[ 10718 10713 10712 10709 ] final  -76.28 input   66.30 | X-H torsion
[ 10763 10752 10751 10750 ] final   25.50 input  -60.55 | X-H torsion
[ 11005 11000 10999 10996 ] final  155.14 input  -57.11 | X-H torsion

> <Gold.Protein.ActiveResidues>
 VAL166  LYS551  ARG553  GLY616  TRP617  ASP618  TYR619  PRO620  LYS621  CYS622 
 ASP623  PHE694  ASN695  SER759  ASP760  ASP761  ALA762  ILE779  LEU786  VAL792 
 PHE793  MET794  SER795  GLU796  ALA797  LYS798  CYS799  TRP800  GLU811  SER814 

> <Gold.Protein.RotatedAtoms>
  151.6140  135.1038  160.0086 H   0  0  0  0  0  0  0  0  0  0  0  0  # atno 6907 bound_to 6896
  152.4193  133.7086  159.6476 H   0  0  0  0  0  0  0  0  0  0  0  0  # atno 6908 bound_to 6896
  150.8081  133.8399  159.3217 H   0  0  0  0  0  0  0  0  0  0  0  0  # atno 6909 bound_to 6896
  145.8170  139.3064  143.1065 H   0  0  0  0  0  0  0  0  0  0  0  0  # atno 7974 bound_to 7965
  155.5646  140.0628  157.2821 H   0  0  0  0  0  0  0  0  0  0  0  0  # atno 8008 bound_to 7997
  154.4379  140.1879  156.0863 H   0  0  0  0  0  0  0  0  0  0  0  0  # atno 8009 bound_to 7997
  156.0421  140.3294  155.7259 H   0  0  0  0  0  0  0  0  0  0  0  0  # atno 8010 bound_to 7997
  139.9005  144.6332  150.8642 H   0  0  0  0  0  0  0  0  0  0  0  0  # atno 10167 bound_to 10162
  156.0180  130.4462  150.3170 H   0  0  0  0  0  0  0  0  0  0  0  0  # atno 10718 bound_to 10713
  153.0687  135.6581  154.0295 H   0  0  0  0  0  0  0  0  0  0  0  0  # atno 10763 bound_to 10752
  153.9946  135.2943  155.3410 H   0  0  0  0  0  0  0  0  0  0  0  0  # atno 10764 bound_to 10752
  154.7054  135.5227  153.8657 H   0  0  0  0  0  0  0  0  0  0  0  0  # atno 10765 bound_to 10752
  140.1554  134.8646  157.2507 H   0  0  0  0  0  0  0  0  0  0  0  0  # atno 11005 bound_to 11000
  145.9716  140.8756  143.0160 LP  0  0  0  0  0  0  0  0  0  0  0  0  # atno 17320 bound_to 7965
  144.6751  140.1953  143.7392 LP  0  0  0  0  0  0  0  0  0  0  0  0  # atno 17321 bound_to 7965
  140.7708  143.3441  151.2148 LP  0  0  0  0  0  0  0  0  0  0  0  0  # atno 17342 bound_to 10162
  139.7030  143.9502  152.2914 LP  0  0  0  0  0  0  0  0  0  0  0  0  # atno 17343 bound_to 10162
  157.1271  131.0262  151.2985 LP  0  0  0  0  0  0  0  0  0  0  0  0  # atno 17370 bound_to 10713
  157.4581  130.7637  149.7211 LP  0  0  0  0  0  0  0  0  0  0  0  0  # atno 17371 bound_to 10713
  140.2554  134.3634  155.7426 LP  0  0  0  0  0  0  0  0  0  0  0  0  # atno 17394 bound_to 11000
  141.2204  133.7340  156.8999 LP  0  0  0  0  0  0  0  0  0  0  0  0  # atno 17395 bound_to 11000

$$$$
