AV-unprocessed.smi:16|AV-procd|sdf|87|dock3
  -GOLD-   2262015223D 1   1.00000     0.00000
 Structure written by MMmdl.
 60 64  0  0  0  0  0  0  0  0  2 V2000
  147.6068  140.6633  153.7859 C   0  0  0  0  0  0  0  0  0  0  0  0
  148.1785  139.2696  154.0782 C   0  0  0  0  0  0  0  0  0  0  0  0
  149.3417  139.3148  155.0031 N   0  3  1  0  0  0  0  0  0  0  0  0
  149.3109  140.4210  155.9969 C   0  0  0  0  0  0  0  0  0  0  0  0
  148.3377  140.1324  157.1510 C   0  0  0  0  0  0  0  0  0  0  0  0
  148.6847  138.7956  157.8359 C   0  0  1  0  0  0  0  0  0  0  0  0
  147.8082  138.4933  158.9217 O   0  0  0  0  0  0  0  0  0  0  0  0
  146.4855  138.1353  158.5325 C   0  0  0  0  0  0  0  0  0  0  0  0
  146.5291  136.9316  157.5828 C   0  0  0  0  0  0  0  0  0  0  0  0
  147.3925  137.2062  156.4395 N   0  0  0  0  0  0  0  0  0  0  0  0
  147.2761  136.2175  155.5215 C   0  0  0  0  0  0  0  0  0  0  0  0
  148.0446  135.0999  155.6105 N   0  0  0  0  0  0  0  0  0  0  0  0
  147.9144  134.1262  154.7044 C   0  0  0  0  0  0  0  0  0  0  0  0
  147.0924  134.0679  153.6542 N   0  0  0  0  0  0  0  0  0  0  0  0
  146.3117  135.1837  153.5699 C   0  0  0  0  0  0  0  0  0  0  0  0
  146.3393  136.2950  154.4576 C   0  0  0  0  0  0  0  0  0  0  0  0
  145.4134  137.2499  154.0594 N   0  0  0  0  0  0  0  0  0  0  0  0
  144.8661  136.7314  152.9937 C   0  0  0  0  0  0  0  0  0  0  0  0
  145.3415  135.4902  152.6307 N   0  0  0  0  0  0  0  0  0  0  0  0
  144.9243  134.7063  151.5028 C   0  0  0  0  0  0  0  0  0  0  0  0
  144.2683  133.3393  151.6990 C   0  0  0  0  0  0  0  0  0  0  0  0
  144.9121  132.8504  150.3818 C   0  0  0  0  0  0  0  0  0  0  0  0
  145.4794  131.4219  150.4221 C   0  0  0  0  0  0  0  0  0  0  0  0
  146.6012  131.3410  151.2779 O   0  0  0  0  0  0  0  0  0  0  0  0
  144.0331  133.0101  149.1245 C   0  0  0  0  0  0  0  0  0  0  0  0
  142.8292  132.2785  149.2388 O   0  0  0  0  0  0  0  0  0  0  0  0
  145.9395  133.9824  150.6160 C   0  0  0  0  0  0  0  0  0  0  0  0
  148.7463  137.6258  156.8252 C   0  0  1  0  0  0  0  0  0  0  0  0
  149.6700  138.0054  155.6315 C   0  0  0  0  0  0  0  0  0  0  0  0
  149.6768  138.9074  158.2754 H   0  0  0  0  0  0  0  0  0  0  0  0
  149.2006  136.7770  157.3391 H   0  0  0  0  0  0  0  0  0  0  0  0
  146.8221  140.6025  153.0317 H   0  0  0  0  0  0  0  0  0  0  0  0
  148.3776  141.3344  153.4059 H   0  0  0  0  0  0  0  0  0  0  0  0
  147.1673  141.1204  154.6719 H   0  0  0  0  0  0  0  0  0  0  0  0
  147.3972  138.6147  154.4629 H   0  0  0  0  0  0  0  0  0  0  0  0
  148.4978  138.8412  153.1275 H   0  0  0  0  0  0  0  0  0  0  0  0
  150.3175  140.5436  156.3989 H   0  0  0  0  0  0  0  0  0  0  0  0
  149.0632  141.3680  155.5188 H   0  0  0  0  0  0  0  0  0  0  0  0
  148.3844  140.9406  157.8812 H   0  0  0  0  0  0  0  0  0  0  0  0
  147.3187  140.1296  156.7674 H   0  0  0  0  0  0  0  0  0  0  0  0
  145.9175  137.8801  159.4271 H   0  0  0  0  0  0  0  0  0  0  0  0
  145.9692  138.9774  158.0726 H   0  0  0  0  0  0  0  0  0  0  0  0
  146.9031  136.0550  158.1144 H   0  0  0  0  0  0  0  0  0  0  0  0
  145.5176  136.6951  157.2490 H   0  0  0  0  0  0  0  0  0  0  0  0
  148.5604  133.2712  154.8405 H   0  0  0  0  0  0  0  0  0  0  0  0
  144.0957  137.2467  152.4386 H   0  0  0  0  0  0  0  0  0  0  0  0
  144.2870  135.3461  150.8904 H   0  0  0  0  0  0  0  0  0  0  0  0
  144.6471  132.8133  152.5775 H   0  0  0  0  0  0  0  0  0  0  0  0
  143.1780  133.3575  151.6966 H   0  0  0  0  0  0  0  0  0  0  0  0
  144.7305  130.6997  150.7476 H   0  0  0  0  0  0  0  0  0  0  0  0
  145.7976  131.1041  149.4289 H   0  0  0  0  0  0  0  0  0  0  0  0
  147.2776  130.8477  150.8396 H   0  0  0  0  0  0  0  0  0  0  0  0
  143.7906  134.0564  148.9368 H   0  0  0  0  0  0  0  0  0  0  0  0
  144.5524  132.6574  148.2335 H   0  0  0  0  0  0  0  0  0  0  0  0
  142.1473  132.8660  149.5270 H   0  0  0  0  0  0  0  0  0  0  0  0
  146.2282  134.5367  149.7225 H   0  0  0  0  0  0  0  0  0  0  0  0
  146.8219  133.6477  151.1637 H   0  0  0  0  0  0  0  0  0  0  0  0
  149.7138  137.2238  154.8733 H   0  0  0  0  0  0  0  0  0  0  0  0
  150.6902  138.0855  156.0088 H   0  0  0  0  0  0  0  0  0  0  0  0
  150.1278  139.5134  154.4007 H   0  0  0  0  0  0  0  0  0  0  0  0
  1  2  1  0  0  0  0
  1 32  1  0  0  0  0
  1 33  1  0  0  0  0
  1 34  1  0  0  0  0
  2  3  1  0  0  0  0
  2 35  1  0  0  0  0
  2 36  1  0  0  0  0
  3 29  1  0  0  0  0
  3  4  1  0  0  0  0
  3 60  1  0  0  0  0
  4  5  1  0  0  0  0
  4 37  1  0  0  0  0
  4 38  1  0  0  0  0
  5  6  1  0  0  0  0
  5 39  1  0  0  0  0
  5 40  1  0  0  0  0
  6 30  1  0  0  0  0
  6 28  1  0  0  0  0
  6  7  1  0  0  0  0
  7  8  1  0  0  0  0
  8  9  1  0  0  0  0
  8 41  1  0  0  0  0
  8 42  1  0  0  0  0
  9 10  1  0  0  0  0
  9 43  1  0  0  0  0
  9 44  1  0  0  0  0
 10 11  1  0  0  0  0
 10 28  1  0  0  0  0
 11 16  1  0  0  0  0
 11 12  2  0  0  0  0
 12 13  1  0  0  0  0
 13 14  2  0  0  0  0
 13 45  1  0  0  0  0
 14 15  1  0  0  0  0
 15 19  1  0  0  0  0
 15 16  2  0  0  0  0
 16 17  1  0  0  0  0
 17 18  2  0  0  0  0
 18 19  1  0  0  0  0
 18 46  1  0  0  0  0
 19 20  1  0  0  0  0
 20 27  1  0  0  0  0
 20 21  1  0  0  0  0
 20 47  1  0  0  0  0
 21 22  1  0  0  0  0
 21 48  1  0  0  0  0
 21 49  1  0  0  0  0
 22 23  1  0  0  0  0
 22 25  1  0  0  0  0
 22 27  1  0  0  0  0
 23 24  1  0  0  0  0
 23 50  1  0  0  0  0
 23 51  1  0  0  0  0
 24 52  1  0  0  0  0
 25 26  1  0  0  0  0
 25 53  1  0  0  0  0
 25 54  1  0  0  0  0
 26 55  1  0  0  0  0
 27 56  1  0  0  0  0
 27 57  1  0  0  0  0
 28 31  1  0  0  0  0
 28 29  1  0  0  0  0
 29 58  1  0  0  0  0
 29 59  1  0  0  0  0
M  CHG  1   3   1
M  END
> <s_m_source_file>
AV-unprocessed.smi

> <i_m_source_file_index>
16

> <i_lp_mmshare_version>
43012

> <i_f3d_flags>
0

> <s_epik_input>
W0NIM11bQ0gyXU4oW0NIMl1bQ0gyXTEpW0NIMl1bQ0BASF0oW0NAQEhdMTIpTihbQ0gyXVtDSDJdTzIpYyhuW2NIXW4zKWMoYzM0KW5bY0hdbjRbQ0hdKFtDSDJdNSlbQ0gyXUM1KFtDSDJdW09IXSlbQ0gyXVtPSF0=

> <s_epik_cmdline>
J2VwaWtfcHl0aG9uJywgJy1waCcsICc3LjAnLCAnLXRuJywgJzgnLCAnLW1hJywgJzIwMCcsICctbWV0YWxfYmluZGluZycsICctaW1hZScsICc8aW5maWxlLm1hZT4nLCAnLW9tYWUnLCAnPG91dGZpbGUubWFlPic=

> <r_lp_tautomer_probability>
1

> <r_epik_Ionization_Penalty>
0.0135603

> <r_epik_Ionization_Penalty_Charging>
0.0131385

> <r_epik_Ionization_Penalty_Neutral>
0.000421734

> <r_epik_State_Penalty>
0.0102091

> <r_epik_Charging_Adjusted_Penalty>
0.0233476

> <i_epik_Tot_Q>
1

> <i_epik_Tot_abs_Q>
1

> <r_epik_Metal_State_Penalty>
0.0103746

> <b_epik_Metal_Only>
0

> <s_lp_Force_Field>
OPLS_2005

> <r_lp_Energy>
65.3073

> <b_lp_Chiralities_Consistent>
1

> <s_lp_Variant>
AV-unprocessed.smi:16-1

> <Gold.Version>
5.8.1

> <Gold.Id.Protein>
6NUR|6NUR_protein|mol2

> <Gold.PLP.Fitness>
43.2612

> <Gold.PLP.PLP>
-33.7212

> <Gold.PLP.part.hbond>
-5.0000

> <Gold.PLP.part.metal>
0.0000

> <Gold.PLP.part.buried>
-5.3233

> <Gold.PLP.part.nonpolar>
-23.7421

> <Gold.PLP.part.repulsive>
0.3700

> <Gold.PLP.ligand.clash>
0.0000

> <Gold.PLP.ligand.torsion>
1.4930

> <Gold.PLP.Chemscore.Hbond>
2.9500

> <Gold.PLP.Chemscore.CHOScore>
1.0000

> <Gold.PLP.Chemscore.Metal>
0.0000

> <Gold.Chemscore.Hbonds>
donor molecule, donor type, donor heavy atom, donor atom, acceptor molecule, acceptor atom, score
      L1  H    24    52       P1 10747  0.93
      L1  H    26    55       P1 10186  1.00
      P1  H  6934  6947       L1     7  0.06
      P1  H 10785 10796       L1    26  0.52

> <Gold.PLP.Chemscore.Internal.Correction>
0.6760

> <Gold.Rescore>
     Score         DG    S(hbond)    S(metal)    S(lipo)     H(rot)  DE(clash)    DE(int)     intcor
     10.34     -14.07       2.60        0.00      71.82       3.33       1.59       2.14       ----

> <Gold.Chemscore.Fitness>
10.3355

> <Gold.Chemscore.DG>
-14.0687

> <Gold.Chemscore.ZeroCoef>
-5.4800

> <Gold.Chemscore.Hbond>
2.6042

> <Gold.Chemscore.Metal>
0.0000

> <Gold.Chemscore.Lipo>
71.8201

> <Gold.Chemscore.Internal_Hbond>
0.0000

> <Gold.Chemscore.DEClash>
1.5887

> <Gold.Chemscore.DEInternal>
2.1445

> <Gold.Chemscore.Rot>
3.3251

> <Gold.Chemscore.Internal.Correction>
   9.000000E+99

> <Gold.Chemscore.Hbonds>
donor molecule, donor type, donor heavy atom, donor atom, acceptor molecule, acceptor atom, score
      L1  H    24    52       P1 10747  0.90
      L1  H    26    55       P1 10186  0.99
      P1  H  6934  6947       L1     7  0.01
      P1  H 10785 10796       L1    26  0.39

> <Gold.Chemscore.Hbond.Weighted>
-8.6980

> <Gold.Chemscore.Metal.Weighted>
-0.0000

> <Gold.Chemscore.Lipo.Weighted>
-8.4029

> <Gold.Chemscore.Internal_Hbond.Weighted>
0.0000

> <Gold.Chemscore.DEClash.Weighted>
1.5887

> <Gold.Chemscore.DEInternal.Weighted>
2.1445

> <Gold.Chemscore.Rot.Weighted>
8.5122

> <Gold.Chemscore.Internal.Correction.Weighted>
   9.000000E+99

> <Gold.Protein.RotatedTorsions>
[ 6907 6896 6895 6894 ] final -100.16 input  -60.11 | X-H torsion
[ 7974 7965 7964 7962 ] final  -20.48 input  175.53 | X-H torsion
[ 8008 7997 7996 7995 ] final -174.55 input   59.86 | X-H torsion
[ 10167 10162 10161 10158 ] final   83.58 input  -65.29 | X-H torsion
[ 10718 10713 10712 10709 ] final   29.51 input   66.30 | X-H torsion
[ 10763 10752 10751 10750 ] final   58.94 input  -60.55 | X-H torsion
[ 11005 11000 10999 10996 ] final   70.65 input  -57.11 | X-H torsion

> <Gold.Protein.ActiveResidues>
 VAL166  LYS551  ARG553  GLY616  TRP617  ASP618  TYR619  PRO620  LYS621  CYS622 
 ASP623  PHE694  ASN695  SER759  ASP760  ASP761  ALA762  ILE779  LEU786  VAL792 
 PHE793  MET794  SER795  GLU796  ALA797  LYS798  CYS799  TRP800  GLU811  SER814 

> <Gold.Protein.RotatedAtoms>
  150.7105  134.0930  159.3938 H   0  0  0  0  0  0  0  0  0  0  0  0  # atno 6907 bound_to 6896
  151.8916  135.0412  160.0507 H   0  0  0  0  0  0  0  0  0  0  0  0  # atno 6908 bound_to 6896
  152.2487  133.5161  159.5349 H   0  0  0  0  0  0  0  0  0  0  0  0  # atno 6909 bound_to 6896
  146.1786  140.4208  142.8503 H   0  0  0  0  0  0  0  0  0  0  0  0  # atno 7974 bound_to 7965
  155.9715  140.1164  157.0808 H   0  0  0  0  0  0  0  0  0  0  0  0  # atno 8008 bound_to 7997
  154.4158  140.1162  156.5381 H   0  0  0  0  0  0  0  0  0  0  0  0  # atno 8009 bound_to 7997
  155.6590  140.3473  155.4778 H   0  0  0  0  0  0  0  0  0  0  0  0  # atno 8010 bound_to 7997
  139.9169  144.6237  150.8479 H   0  0  0  0  0  0  0  0  0  0  0  0  # atno 10167 bound_to 10162
  157.2475  130.7099  149.6388 H   0  0  0  0  0  0  0  0  0  0  0  0  # atno 10718 bound_to 10713
  152.9882  135.5589  154.5633 H   0  0  0  0  0  0  0  0  0  0  0  0  # atno 10763 bound_to 10752
  154.5047  135.2799  155.1394 H   0  0  0  0  0  0  0  0  0  0  0  0  # atno 10764 bound_to 10752
  154.2810  135.6345  153.5400 H   0  0  0  0  0  0  0  0  0  0  0  0  # atno 10765 bound_to 10752
  139.9586  134.7100  156.0697 H   0  0  0  0  0  0  0  0  0  0  0  0  # atno 11005 bound_to 11000
  144.8277  140.6655  143.6311 LP  0  0  0  0  0  0  0  0  0  0  0  0  # atno 17320 bound_to 7965
  145.4142  139.1575  143.4109 LP  0  0  0  0  0  0  0  0  0  0  0  0  # atno 17321 bound_to 7965
  140.7672  143.3325  151.2380 LP  0  0  0  0  0  0  0  0  0  0  0  0  # atno 17342 bound_to 10162
  139.6894  143.9717  152.2851 LP  0  0  0  0  0  0  0  0  0  0  0  0  # atno 17343 bound_to 10162
  155.9667  130.4438  150.5437 LP  0  0  0  0  0  0  0  0  0  0  0  0  # atno 17370 bound_to 10713
  157.3314  131.0700  151.1858 LP  0  0  0  0  0  0  0  0  0  0  0  0  # atno 17371 bound_to 10713
  141.1260  133.6599  156.3339 LP  0  0  0  0  0  0  0  0  0  0  0  0  # atno 17394 bound_to 11000
  140.5552  134.5988  157.5419 LP  0  0  0  0  0  0  0  0  0  0  0  0  # atno 17395 bound_to 11000

$$$$
