AV-unprocessed.smi:1406|AV-procd|sdf|5712|dock1
  -GOLD-   22720 5343D 1   1.00000     0.00000
 Structure written by MMmdl.
 41 43  0  0  0  0  0  0  0  0  2 V2000
  152.3564  139.5896  155.1277 C   0  0  0  0  0  0  0  0  0  0  0  0
  152.4757  138.4469  156.1568 C   0  0  1  0  0  0  0  0  0  0  0  0
  152.4790  138.9489  157.6145 C   0  0  0  0  0  0  0  0  0  0  0  0
  152.8203  138.2054  158.5352 O   0  0  0  0  0  0  0  0  0  0  0  0
  152.0724  140.2125  157.8223 N   0  0  0  0  0  0  0  0  0  0  0  0
  152.0116  140.8684  159.1250 C   0  0  1  0  0  0  0  0  0  0  0  0
  153.3893  141.0486  159.7756 C   0  0  0  0  0  0  0  0  0  0  0  0
  153.2754  142.3423  160.6013 C   0  0  0  0  0  0  0  0  0  0  0  0
  151.9080  142.8604  160.3711 N   0  3  1  0  0  0  0  0  0  0  0  0
  151.7168  144.3230  160.5469 C   0  0  0  0  0  0  0  0  0  0  0  0
  152.2072  145.1360  159.3372 C   0  0  0  0  0  0  0  0  0  0  0  0
  151.5695  144.6193  158.0435 C   0  0  0  0  0  0  0  0  0  0  0  0
  151.8983  143.1331  157.8689 C   0  0  0  0  0  0  0  0  0  0  0  0
  151.4355  142.2938  159.0878 C   0  0  1  0  0  0  0  0  0  0  0  0
  151.4498  137.4308  155.9421 N   0  0  0  0  0  0  0  0  0  0  0  0
  150.5444  136.9323  156.7869 C   0  0  0  0  0  0  0  0  0  0  0  0
  149.7313  136.0400  156.2396 N   0  0  0  0  0  0  0  0  0  0  0  0
  150.2239  136.0336  154.9652 C   0  0  0  0  0  0  0  0  0  0  0  0
  151.2479  136.8541  154.7311 N   0  0  0  0  0  0  0  0  0  0  0  0
  153.1815  140.2964  155.2212 H   0  0  0  0  0  0  0  0  0  0  0  0
  151.4266  140.1477  155.2470 H   0  0  0  0  0  0  0  0  0  0  0  0
  152.3798  139.2000  154.1095 H   0  0  0  0  0  0  0  0  0  0  0  0
  153.4408  137.9639  155.9974 H   0  0  0  0  0  0  0  0  0  0  0  0
  151.8051  140.7625  157.0187 H   0  0  0  0  0  0  0  0  0  0  0  0
  151.4019  140.2643  159.8006 H   0  0  0  0  0  0  0  0  0  0  0  0
  153.6587  140.1890  160.3904 H   0  0  0  0  0  0  0  0  0  0  0  0
  154.1664  141.1654  159.0185 H   0  0  0  0  0  0  0  0  0  0  0  0
  153.4314  142.1619  161.6653 H   0  0  0  0  0  0  0  0  0  0  0  0
  154.0267  143.0609  160.2722 H   0  0  0  0  0  0  0  0  0  0  0  0
  150.6512  144.5052  160.6912 H   0  0  0  0  0  0  0  0  0  0  0  0
  152.2130  144.6533  161.4601 H   0  0  0  0  0  0  0  0  0  0  0  0
  151.9641  146.1899  159.4761 H   0  0  0  0  0  0  0  0  0  0  0  0
  153.2935  145.0801  159.2609 H   0  0  0  0  0  0  0  0  0  0  0  0
  150.4886  144.7618  158.0748 H   0  0  0  0  0  0  0  0  0  0  0  0
  151.9372  145.1886  157.1892 H   0  0  0  0  0  0  0  0  0  0  0  0
  151.4284  142.7625  156.9574 H   0  0  0  0  0  0  0  0  0  0  0  0
  152.9738  143.0257  157.7228 H   0  0  0  0  0  0  0  0  0  0  0  0
  150.3449  142.2625  159.0980 H   0  0  0  0  0  0  0  0  0  0  0  0
  150.4735  137.2333  157.8219 H   0  0  0  0  0  0  0  0  0  0  0  0
  149.8110  135.4111  154.1850 H   0  0  0  0  0  0  0  0  0  0  0  0
  151.3438  142.4163  161.0817 H   0  0  0  0  0  0  0  0  0  0  0  0
  1  2  1  0  0  0  0
  1 20  1  0  0  0  0
  1 21  1  0  0  0  0
  1 22  1  0  0  0  0
  2  3  1  0  0  0  0
  2 15  1  0  0  0  0
  2 23  1  0  0  0  0
  3  4  2  0  0  0  0
  3  5  1  0  0  0  0
  5  6  1  0  0  0  0
  5 24  1  0  0  0  0
  6 14  1  0  0  0  0
  6  7  1  0  0  0  0
  6 25  1  0  0  0  0
  7  8  1  0  0  0  0
  7 26  1  0  0  0  0
  7 27  1  0  0  0  0
  8  9  1  0  0  0  0
  8 28  1  0  0  0  0
  8 29  1  0  0  0  0
  9 14  1  0  0  0  0
  9 10  1  0  0  0  0
  9 41  1  0  0  0  0
 10 11  1  0  0  0  0
 10 30  1  0  0  0  0
 10 31  1  0  0  0  0
 11 12  1  0  0  0  0
 11 32  1  0  0  0  0
 11 33  1  0  0  0  0
 12 13  1  0  0  0  0
 12 34  1  0  0  0  0
 12 35  1  0  0  0  0
 13 14  1  0  0  0  0
 13 36  1  0  0  0  0
 13 37  1  0  0  0  0
 14 38  1  0  0  0  0
 15 19  1  0  0  0  0
 15 16  1  0  0  0  0
 16 17  2  0  0  0  0
 16 39  1  0  0  0  0
 17 18  1  0  0  0  0
 18 19  2  0  0  0  0
 18 40  1  0  0  0  0
M  CHG  1   9   1
M  END
> <s_m_source_file>
AV-unprocessed.smi

> <i_m_source_file_index>
1406

> <i_lp_mmshare_version>
43012

> <i_f3d_flags>
0

> <s_epik_input>
bjFbY0hdbltjSF1uMVtDQEhdKFtDSDNdKUMoPU8pW05IXVtDQEhdKFtDSDJdW0NIMl0yKVtDQEBIXShOMjMpW0NIMl1bQ0gyXVtDSDJdW0NIMl0z

> <s_epik_cmdline>
J2VwaWtfcHl0aG9uJywgJy1waCcsICc3LjAnLCAnLXRuJywgJzgnLCAnLW1hJywgJzIwMCcsICctbWV0YWxfYmluZGluZycsICctaW1hZScsICc8aW5maWxlLm1hZT4nLCAnLW9tYWUnLCAnPG91dGZpbGUubWFlPic=

> <r_lp_tautomer_probability>
1

> <r_epik_Ionization_Penalty>
0.00197066

> <r_epik_Ionization_Penalty_Charging>
0.00196223

> <r_epik_Ionization_Penalty_Neutral>
8.43107e-06

> <r_epik_State_Penalty>
0.00133866

> <r_epik_Charging_Adjusted_Penalty>
0.00330089

> <i_epik_Tot_Q>
1

> <i_epik_Tot_abs_Q>
1

> <r_epik_Metal_State_Penalty>
-0

> <b_epik_Metal_Only>
0

> <s_lp_Force_Field>
OPLS_2005

> <r_lp_Energy>
42.4798

> <b_lp_Chiralities_Consistent>
1

> <s_lp_Variant>
AV-unprocessed.smi:1406-4

> <Gold.Version>
5.8.1

> <Gold.Id.Protein>
6NUR|6NUR_protein|mol2

> <Gold.PLP.Fitness>
39.1221

> <Gold.PLP.PLP>
-34.7927

> <Gold.PLP.part.hbond>
-1.0000

> <Gold.PLP.part.metal>
0.0000

> <Gold.PLP.part.buried>
-4.0001

> <Gold.PLP.part.nonpolar>
-30.1592

> <Gold.PLP.part.repulsive>
0.3767

> <Gold.PLP.ligand.clash>
0.0000

> <Gold.PLP.ligand.torsion>
0.3113

> <Gold.PLP.Chemscore.Hbond>
0.9913

> <Gold.PLP.Chemscore.CHOScore>
0.6237

> <Gold.PLP.Chemscore.Metal>
0.0000

> <Gold.Chemscore.Hbonds>
donor molecule, donor type, donor heavy atom, donor atom, acceptor molecule, acceptor atom, score
      P1  H 10752 10764       L1    19  0.83
      L1  C    18    40       P1  7948  0.70

> <Gold.PLP.Chemscore.Internal.Correction>
0.1071

> <Gold.Rescore>
     Score         DG    S(hbond)    S(metal)    S(lipo)     H(rot)  DE(clash)    DE(int)     intcor
     15.13     -15.52       0.91        0.00     101.25       1.89       0.11       0.28       ----

> <Gold.Chemscore.Fitness>
15.1273

> <Gold.Chemscore.DG>
-15.5222

> <Gold.Chemscore.ZeroCoef>
-5.4800

> <Gold.Chemscore.Hbond>
0.9057

> <Gold.Chemscore.Metal>
0.0000

> <Gold.Chemscore.Lipo>
101.2539

> <Gold.Chemscore.Internal_Hbond>
0.0000

> <Gold.Chemscore.DEClash>
0.1104

> <Gold.Chemscore.DEInternal>
0.2845

> <Gold.Chemscore.Rot>
1.8865

> <Gold.Chemscore.Internal.Correction>
   9.000000E+99

> <Gold.Chemscore.Hbonds>
donor molecule, donor type, donor heavy atom, donor atom, acceptor molecule, acceptor atom, score
      P1  H 10752 10764       L1    19  0.27

> <Gold.Chemscore.Hbond.Weighted>
-3.0250

> <Gold.Chemscore.Metal.Weighted>
-0.0000

> <Gold.Chemscore.Lipo.Weighted>
-11.8467

> <Gold.Chemscore.Internal_Hbond.Weighted>
0.0000

> <Gold.Chemscore.DEClash.Weighted>
0.1104

> <Gold.Chemscore.DEInternal.Weighted>
0.2845

> <Gold.Chemscore.Rot.Weighted>
4.8295

> <Gold.Chemscore.Internal.Correction.Weighted>
   9.000000E+99

> <Gold.Protein.RotatedTorsions>
[ 6907 6896 6895 6894 ] final   22.10 input  -60.11 | X-H torsion
[ 7974 7965 7964 7962 ] final   54.52 input  175.53 | X-H torsion
[ 8008 7997 7996 7995 ] final   30.88 input   59.86 | X-H torsion
[ 10167 10162 10161 10158 ] final  179.66 input  -65.29 | X-H torsion
[ 10718 10713 10712 10709 ] final  178.13 input   66.30 | X-H torsion
[ 10763 10752 10751 10750 ] final  -71.20 input  -60.55 | X-H torsion
[ 11005 11000 10999 10996 ] final  122.88 input  -57.11 | X-H torsion

> <Gold.Protein.ActiveResidues>
 VAL166  LYS551  ARG553  GLY616  TRP617  ASP618  TYR619  PRO620  LYS621  CYS622 
 ASP623  PHE694  ASN695  SER759  ASP760  ASP761  ALA762  ILE779  LEU786  VAL792 
 PHE793  MET794  SER795  GLU796  ALA797  LYS798  CYS799  TRP800  GLU811  SER814 

> <Gold.Protein.RotatedAtoms>
  151.9219  135.0294  160.0522 H   0  0  0  0  0  0  0  0  0  0  0  0  # atno 6907 bound_to 6896
  152.2192  133.4966  159.5161 H   0  0  0  0  0  0  0  0  0  0  0  0  # atno 6908 bound_to 6896
  150.6995  134.1281  159.4102 H   0  0  0  0  0  0  0  0  0  0  0  0  # atno 6909 bound_to 6896
  145.9600  139.4050  143.0254 H   0  0  0  0  0  0  0  0  0  0  0  0  # atno 7974 bound_to 7965
  155.0975  140.3226  155.4556 H   0  0  0  0  0  0  0  0  0  0  0  0  # atno 8008 bound_to 7997
  156.2726  140.2067  156.6048 H   0  0  0  0  0  0  0  0  0  0  0  0  # atno 8009 bound_to 7997
  154.6855  140.0522  157.0297 H   0  0  0  0  0  0  0  0  0  0  0  0  # atno 8010 bound_to 7997
  139.5346  144.2535  152.0765 H   0  0  0  0  0  0  0  0  0  0  0  0  # atno 10167 bound_to 10162
  156.8951  130.9860  151.3044 H   0  0  0  0  0  0  0  0  0  0  0  0  # atno 10718 bound_to 10713
  154.4284  135.5970  153.6053 H   0  0  0  0  0  0  0  0  0  0  0  0  # atno 10763 bound_to 10752
  152.9797  135.5969  154.3869 H   0  0  0  0  0  0  0  0  0  0  0  0  # atno 10764 bound_to 10752
  154.3704  135.2841  155.2248 H   0  0  0  0  0  0  0  0  0  0  0  0  # atno 10765 bound_to 10752
  139.9288  134.9641  156.8176 H   0  0  0  0  0  0  0  0  0  0  0  0  # atno 11005 bound_to 11000
  145.8053  140.9751  143.0977 LP  0  0  0  0  0  0  0  0  0  0  0  0  # atno 17320 bound_to 7965
  144.6813  139.9853  143.7484 LP  0  0  0  0  0  0  0  0  0  0  0  0  # atno 17321 bound_to 7965
  140.2003  144.4664  150.6434 LP  0  0  0  0  0  0  0  0  0  0  0  0  # atno 17342 bound_to 10162
  140.6545  143.2234  151.6001 LP  0  0  0  0  0  0  0  0  0  0  0  0  # atno 17343 bound_to 10162
  157.6060  130.8547  149.8876 LP  0  0  0  0  0  0  0  0  0  0  0  0  # atno 17370 bound_to 10713
  156.0609  130.3700  150.0984 LP  0  0  0  0  0  0  0  0  0  0  0  0  # atno 17371 bound_to 10713
  140.6261  133.9949  155.7640 LP  0  0  0  0  0  0  0  0  0  0  0  0  # atno 17394 bound_to 11000
  141.0863  133.9985  157.3308 LP  0  0  0  0  0  0  0  0  0  0  0  0  # atno 17395 bound_to 11000

$$$$
