AV-unprocessed.smi:2198|AV-procd|sdf|8919|dock10
  -GOLD-   2272012133D 1   1.00000     0.00000
 Structure written by MMmdl.
 42 43  0  0  0  0  0  0  0  0  2 V2000
  150.9548  142.5294  156.8111 C   0  0  0  0  0  0  0  0  0  0  0  0
  150.9697  141.1489  156.1905 C   0  0  0  0  0  0  0  0  0  0  0  0
  151.9050  140.3353  156.5027 N   0  0  0  0  0  0  0  0  0  0  0  0
  151.9246  139.0522  155.9304 C   0  0  0  0  0  0  0  0  0  0  0  0
  153.0736  138.1541  156.3549 C   0  0  0  0  0  0  0  0  0  0  0  0
  150.9618  138.6577  155.0487 C   0  0  0  0  0  0  0  0  0  0  0  0
  150.9417  137.2742  154.3992 C   0  0  0  0  0  0  0  0  0  0  0  0
  150.2234  136.1753  155.1857 C   0  0  0  0  0  0  0  0  0  0  0  0
  150.6203  135.8424  156.3026 O   0  0  0  0  0  0  0  0  0  0  0  0
  149.1611  135.6185  154.5849 N   0  0  0  0  0  0  0  0  0  0  0  0
  148.3317  134.5521  155.1430 C   0  0  2  0  0  0  0  0  0  0  0  0
  149.2158  133.3841  155.6208 C   0  0  0  0  0  0  0  0  0  0  0  0
  149.8384  132.6087  154.4469 C   0  0  0  0  0  0  0  0  0  0  0  0
  148.7623  132.1249  153.4625 C   0  0  0  0  0  0  0  0  0  0  0  0
  147.9015  133.2935  152.9459 C   0  0  1  0  0  0  0  0  0  0  0  0
  146.8281  132.8078  151.9617 C   0  0  0  0  0  0  0  0  0  0  0  0
  147.2755  134.0651  154.1264 C   0  0  0  0  0  0  0  0  0  0  0  0
  149.8985  139.6236  154.7188 C   0  0  0  0  0  0  0  0  0  0  0  0
  148.9980  139.3143  153.9392 O   0  0  0  0  0  0  0  0  0  0  0  0
  149.9548  140.8520  155.3086 N   0  5  0  0  0  0  0  0  0  0  0  0
  151.6523  142.5907  157.6474 H   0  0  0  0  0  0  0  0  0  0  0  0
  149.9582  142.7704  157.1825 H   0  0  0  0  0  0  0  0  0  0  0  0
  151.2391  143.2773  156.0707 H   0  0  0  0  0  0  0  0  0  0  0  0
  153.7155  137.9280  155.5035 H   0  0  0  0  0  0  0  0  0  0  0  0
  152.6988  137.2175  156.7674 H   0  0  0  0  0  0  0  0  0  0  0  0
  153.6865  138.6329  157.1195 H   0  0  0  0  0  0  0  0  0  0  0  0
  150.5045  137.3194  153.4013 H   0  0  0  0  0  0  0  0  0  0  0  0
  151.9737  136.9639  154.2334 H   0  0  0  0  0  0  0  0  0  0  0  0
  148.9083  135.9577  153.6682 H   0  0  0  0  0  0  0  0  0  0  0  0
  147.8134  134.9537  156.0158 H   0  0  0  0  0  0  0  0  0  0  0  0
  149.9993  133.7496  156.2858 H   0  0  0  0  0  0  0  0  0  0  0  0
  148.6096  132.6992  156.2150 H   0  0  0  0  0  0  0  0  0  0  0  0
  150.5553  133.2422  153.9229 H   0  0  0  0  0  0  0  0  0  0  0  0
  150.4029  131.7563  154.8258 H   0  0  0  0  0  0  0  0  0  0  0  0
  149.2383  131.6126  152.6258 H   0  0  0  0  0  0  0  0  0  0  0  0
  148.1267  131.3869  153.9541 H   0  0  0  0  0  0  0  0  0  0  0  0
  148.5540  133.9772  152.4009 H   0  0  0  0  0  0  0  0  0  0  0  0
  146.1345  132.1154  152.4399 H   0  0  0  0  0  0  0  0  0  0  0  0
  147.2785  132.2942  151.1116 H   0  0  0  0  0  0  0  0  0  0  0  0
  146.2481  133.6440  151.5704 H   0  0  0  0  0  0  0  0  0  0  0  0
  146.5657  133.4167  154.6417 H   0  0  0  0  0  0  0  0  0  0  0  0
  146.6923  134.9093  153.7560 H   0  0  0  0  0  0  0  0  0  0  0  0
  1  2  1  0  0  0  0
  1 21  1  0  0  0  0
  1 22  1  0  0  0  0
  1 23  1  0  0  0  0
  2 20  1  0  0  0  0
  2  3  2  0  0  0  0
  3  4  1  0  0  0  0
  4  5  1  0  0  0  0
  4  6  2  0  0  0  0
  5 24  1  0  0  0  0
  5 25  1  0  0  0  0
  5 26  1  0  0  0  0
  6  7  1  0  0  0  0
  6 18  1  0  0  0  0
  7  8  1  0  0  0  0
  7 27  1  0  0  0  0
  7 28  1  0  0  0  0
  8  9  2  0  0  0  0
  8 10  1  0  0  0  0
 10 11  1  0  0  0  0
 10 29  1  0  0  0  0
 11 17  1  0  0  0  0
 11 12  1  0  0  0  0
 11 30  1  0  0  0  0
 12 13  1  0  0  0  0
 12 31  1  0  0  0  0
 12 32  1  0  0  0  0
 13 14  1  0  0  0  0
 13 33  1  0  0  0  0
 13 34  1  0  0  0  0
 14 15  1  0  0  0  0
 14 35  1  0  0  0  0
 14 36  1  0  0  0  0
 15 16  1  0  0  0  0
 15 17  1  0  0  0  0
 15 37  1  0  0  0  0
 16 38  1  0  0  0  0
 16 39  1  0  0  0  0
 16 40  1  0  0  0  0
 17 41  1  0  0  0  0
 17 42  1  0  0  0  0
 18 19  2  0  0  0  0
 18 20  1  0  0  0  0
M  CHG  1  20  -1
M  END
> <s_m_source_file>
AV-unprocessed.smi

> <i_m_source_file_index>
2198

> <i_lp_mmshare_version>
43012

> <i_f3d_flags>
0

> <s_epik_input>
W0NIM11jMW5jKFtDSDNdKWMoYyg9TylbbkhdMSlbQ0gyXUMoPU8pW05IXVtDQEBIXTJbQ0gyXVtDSDJdW0NIMl1bQ0BASF0oW0NIM10pW0NIMl0y

> <s_epik_cmdline>
J2VwaWtfcHl0aG9uJywgJy1waCcsICc3LjAnLCAnLXRuJywgJzgnLCAnLW1hJywgJzIwMCcsICctbWV0YWxfYmluZGluZycsICctaW1hZScsICc8aW5maWxlLm1hZT4nLCAnLW9tYWUnLCAnPG91dGZpbGUubWFlPic=

> <r_lp_tautomer_probability>
0.839158

> <r_epik_Ionization_Penalty>
6.67193

> <r_epik_Ionization_Penalty_Charging>
7.66837e-08

> <r_epik_Ionization_Penalty_Neutral>
6.67193

> <r_epik_State_Penalty>
4.51643

> <r_epik_Charging_Adjusted_Penalty>
4.51643

> <i_epik_Tot_Q>
-1

> <i_epik_Tot_abs_Q>
1

> <r_epik_Metal_State_Penalty>
0.851582

> <b_epik_Metal_Only>
1

> <s_lp_Force_Field>
OPLS_2005

> <r_lp_Energy>
13.1445

> <b_lp_Chiralities_Consistent>
1

> <s_lp_Variant>
AV-unprocessed.smi:2198-9

> <Gold.Version>
5.8.1

> <Gold.Id.Protein>
6NUR|6NUR_protein|mol2

> <Gold.PLP.Fitness>
34.5913

> <Gold.PLP.PLP>
-32.4281

> <Gold.PLP.part.hbond>
-1.1724

> <Gold.PLP.part.metal>
0.0000

> <Gold.PLP.part.buried>
-3.7456

> <Gold.PLP.part.nonpolar>
-29.2698

> <Gold.PLP.part.repulsive>
1.4459

> <Gold.PLP.ligand.clash>
0.0000

> <Gold.PLP.ligand.torsion>
0.4221

> <Gold.PLP.Chemscore.Hbond>
1.0000

> <Gold.PLP.Chemscore.CHOScore>
0.0000

> <Gold.PLP.Chemscore.Metal>
0.0000

> <Gold.Chemscore.Hbonds>
donor molecule, donor type, donor heavy atom, donor atom, acceptor molecule, acceptor atom, score
      L1  H    10    29       P1  7948  1.00

> <Gold.PLP.Chemscore.Internal.Correction>
0.0074

> <Gold.Rescore>
     Score         DG    S(hbond)    S(metal)    S(lipo)     H(rot)  DE(clash)    DE(int)     intcor
     11.69     -13.36       0.96        0.00      71.46       1.45       0.08       1.59       ----

> <Gold.Chemscore.Fitness>
11.6869

> <Gold.Chemscore.DG>
-13.3640

> <Gold.Chemscore.ZeroCoef>
-5.4800

> <Gold.Chemscore.Hbond>
0.9649

> <Gold.Chemscore.Metal>
0.0000

> <Gold.Chemscore.Lipo>
71.4569

> <Gold.Chemscore.Internal_Hbond>
0.0000

> <Gold.Chemscore.DEClash>
0.0824

> <Gold.Chemscore.DEInternal>
1.5948

> <Gold.Chemscore.Rot>
1.4450

> <Gold.Chemscore.Internal.Correction>
   9.000000E+99

> <Gold.Chemscore.Hbonds>
donor molecule, donor type, donor heavy atom, donor atom, acceptor molecule, acceptor atom, score
      L1  H    10    29       P1  7948  0.97

> <Gold.Chemscore.Hbond.Weighted>
-3.2228

> <Gold.Chemscore.Metal.Weighted>
-0.0000

> <Gold.Chemscore.Lipo.Weighted>
-8.3605

> <Gold.Chemscore.Internal_Hbond.Weighted>
0.0000

> <Gold.Chemscore.DEClash.Weighted>
0.0824

> <Gold.Chemscore.DEInternal.Weighted>
1.5948

> <Gold.Chemscore.Rot.Weighted>
3.6992

> <Gold.Chemscore.Internal.Correction.Weighted>
   9.000000E+99

> <Gold.Protein.RotatedTorsions>
[ 6907 6896 6895 6894 ] final   46.16 input  -60.11 | X-H torsion
[ 7974 7965 7964 7962 ] final   77.15 input  175.53 | X-H torsion
[ 8008 7997 7996 7995 ] final  105.09 input   59.86 | X-H torsion
[ 10167 10162 10161 10158 ] final  -90.49 input  -65.29 | X-H torsion
[ 10718 10713 10712 10709 ] final -123.71 input   66.30 | X-H torsion
[ 10763 10752 10751 10750 ] final -151.98 input  -60.55 | X-H torsion
[ 11005 11000 10999 10996 ] final    6.08 input  -57.11 | X-H torsion

> <Gold.Protein.ActiveResidues>
 VAL166  LYS551  ARG553  GLY616  TRP617  ASP618  TYR619  PRO620  LYS621  CYS622 
 ASP623  PHE694  ASN695  SER759  ASP760  ASP761  ALA762  ILE779  LEU786  VAL792 
 PHE793  MET794  SER795  GLU796  ALA797  LYS798  CYS799  TRP800  GLU811  SER814 

> <Gold.Protein.RotatedAtoms>
  152.2531  134.8112  160.0442 H   0  0  0  0  0  0  0  0  0  0  0  0  # atno 6907 bound_to 6896
  151.8786  133.3485  159.3767 H   0  0  0  0  0  0  0  0  0  0  0  0  # atno 6908 bound_to 6896
  150.7090  134.4968  159.5586 H   0  0  0  0  0  0  0  0  0  0  0  0  # atno 6909 bound_to 6896
  145.6938  139.2560  143.1745 H   0  0  0  0  0  0  0  0  0  0  0  0  # atno 7974 bound_to 7965
  156.1629  140.3136  155.8839 H   0  0  0  0  0  0  0  0  0  0  0  0  # atno 8008 bound_to 7997
  155.3745  140.0484  157.3062 H   0  0  0  0  0  0  0  0  0  0  0  0  # atno 8009 bound_to 7997
  154.5164  140.2183  155.9068 H   0  0  0  0  0  0  0  0  0  0  0  0  # atno 8010 bound_to 7997
  140.3544  143.2874  151.9688 H   0  0  0  0  0  0  0  0  0  0  0  0  # atno 10167 bound_to 10162
  156.1525  130.6545  150.9935 H   0  0  0  0  0  0  0  0  0  0  0  0  # atno 10718 bound_to 10713
  154.8023  135.3247  154.7519 H   0  0  0  0  0  0  0  0  0  0  0  0  # atno 10763 bound_to 10752
  153.8184  135.6889  153.4835 H   0  0  0  0  0  0  0  0  0  0  0  0  # atno 10764 bound_to 10752
  153.1747  135.4609  154.9893 H   0  0  0  0  0  0  0  0  0  0  0  0  # atno 10765 bound_to 10752
  140.5635  134.0170  155.7980 H   0  0  0  0  0  0  0  0  0  0  0  0  # atno 11005 bound_to 11000
  146.0859  140.7712  142.9619 LP  0  0  0  0  0  0  0  0  0  0  0  0  # atno 17320 bound_to 7965
  144.6989  140.3561  143.7173 LP  0  0  0  0  0  0  0  0  0  0  0  0  # atno 17321 bound_to 7965
  139.4822  144.6048  151.7541 LP  0  0  0  0  0  0  0  0  0  0  0  0  # atno 17342 bound_to 10162
  140.5188  144.0911  150.6016 LP  0  0  0  0  0  0  0  0  0  0  0  0  # atno 17343 bound_to 10162
  157.6669  131.0870  150.7707 LP  0  0  0  0  0  0  0  0  0  0  0  0  # atno 17370 bound_to 10713
  156.7774  130.4848  149.5407 LP  0  0  0  0  0  0  0  0  0  0  0  0  # atno 17371 bound_to 10713
  141.1100  133.9631  157.2927 LP  0  0  0  0  0  0  0  0  0  0  0  0  # atno 17394 bound_to 11000
  139.9396  135.0192  156.8667 LP  0  0  0  0  0  0  0  0  0  0  0  0  # atno 17395 bound_to 11000

$$$$
