AV-unprocessed.smi:2891|AV-procd|sdf|11117|dock8
  -GOLD-   2272015583D 1   1.00000     0.00000
 Structure written by MMmdl.
 35 36  0  0  0  0  0  0  0  0  1 V2000
  152.9894  142.7254  161.9571 C   0  0  0  0  0  0  0  0  0  0  0  0
  152.4733  143.2301  160.7377 O   0  0  0  0  0  0  0  0  0  0  0  0
  152.9859  142.5448  159.6078 C   0  0  0  0  0  0  0  0  0  0  0  0
  152.4472  141.1062  159.6112 C   0  0  0  0  0  0  0  0  0  0  0  0
  152.3645  140.5611  158.2497 N   0  0  0  0  0  0  0  0  0  0  0  0
  151.3703  141.0940  157.4073 C   0  0  0  0  0  0  0  0  0  0  0  0
  151.1954  140.6868  156.1370 C   0  0  0  0  0  0  0  0  0  0  0  0
  150.1754  141.2952  155.3914 N   0  0  0  0  0  0  0  0  0  0  0  0
  149.1922  140.7258  154.6698 C   0  0  0  0  0  0  0  0  0  0  0  0
  149.0112  139.5177  154.5216 O   0  0  0  0  0  0  0  0  0  0  0  0
  148.4121  141.6603  154.1095 N   0  0  0  0  0  0  0  0  0  0  0  0
  147.2842  141.4065  153.2720 C   0  0  0  0  0  0  0  0  0  0  0  0
  146.6028  142.5975  152.6330 C   0  0  0  0  0  0  0  0  0  0  0  0
  145.9278  141.8670  153.7607 C   0  0  0  0  0  0  0  0  0  0  0  0
  152.0891  139.6440  155.6542 C   0  0  0  0  0  0  0  0  0  0  0  0
  153.0492  139.1346  156.4506 C   0  0  0  0  0  0  0  0  0  0  0  0
  153.2368  139.5988  157.8273 C   0  0  0  0  0  0  0  0  0  0  0  0
  154.1237  139.1503  158.5541 O   0  0  0  0  0  0  0  0  0  0  0  0
  152.5680  143.2835  162.7930 H   0  0  0  0  0  0  0  0  0  0  0  0
  154.0747  142.8265  161.9981 H   0  0  0  0  0  0  0  0  0  0  0  0
  152.7301  141.6741  162.0894 H   0  0  0  0  0  0  0  0  0  0  0  0
  152.6832  143.0575  158.6932 H   0  0  0  0  0  0  0  0  0  0  0  0
  154.0767  142.5417  159.6389 H   0  0  0  0  0  0  0  0  0  0  0  0
  153.0765  140.4749  160.2413 H   0  0  0  0  0  0  0  0  0  0  0  0
  151.4643  141.0862  160.0842 H   0  0  0  0  0  0  0  0  0  0  0  0
  150.7633  141.8645  157.8618 H   0  0  0  0  0  0  0  0  0  0  0  0
  150.1919  142.3044  155.4016 H   0  0  0  0  0  0  0  0  0  0  0  0
  148.6343  142.6291  154.2854 H   0  0  0  0  0  0  0  0  0  0  0  0
  147.2943  140.4909  152.6821 H   0  0  0  0  0  0  0  0  0  0  0  0
  147.0035  143.5876  152.8436 H   0  0  0  0  0  0  0  0  0  0  0  0
  146.1938  142.4651  151.6333 H   0  0  0  0  0  0  0  0  0  0  0  0
  145.0692  141.2455  153.5141 H   0  0  0  0  0  0  0  0  0  0  0  0
  145.8761  142.3710  154.7241 H   0  0  0  0  0  0  0  0  0  0  0  0
  152.0109  139.2444  154.6565 H   0  0  0  0  0  0  0  0  0  0  0  0
  153.6969  138.3605  156.0663 H   0  0  0  0  0  0  0  0  0  0  0  0
  1  2  1  0  0  0  0
  1 19  1  0  0  0  0
  1 20  1  0  0  0  0
  1 21  1  0  0  0  0
  2  3  1  0  0  0  0
  3  4  1  0  0  0  0
  3 22  1  0  0  0  0
  3 23  1  0  0  0  0
  4  5  1  0  0  0  0
  4 24  1  0  0  0  0
  4 25  1  0  0  0  0
  5 17  1  0  0  0  0
  5  6  1  0  0  0  0
  6  7  2  0  0  0  0
  6 26  1  0  0  0  0
  7  8  1  0  0  0  0
  7 15  1  0  0  0  0
  8  9  1  0  0  0  0
  8 27  1  0  0  0  0
  9 10  2  0  0  0  0
  9 11  1  0  0  0  0
 11 12  1  0  0  0  0
 11 28  1  0  0  0  0
 12 14  1  0  0  0  0
 12 13  1  0  0  0  0
 12 29  1  0  0  0  0
 13 14  1  0  0  0  0
 13 30  1  0  0  0  0
 13 31  1  0  0  0  0
 14 32  1  0  0  0  0
 14 33  1  0  0  0  0
 15 16  2  0  0  0  0
 15 34  1  0  0  0  0
 16 17  1  0  0  0  0
 16 35  1  0  0  0  0
 17 18  2  0  0  0  0
M  END
> <s_m_source_file>
AV-unprocessed.smi

> <i_m_source_file_index>
2891

> <i_lp_mmshare_version>
43012

> <i_f3d_flags>
0

> <s_epik_input>
W0NIM11PW0NIMl1bQ0gyXW4xW2NIXWMoW2NIXVtjSF1jMT1PKVtOSF1DKD1PKVtOSF1bQ0hdMltDSDJdW0NIMl0y

> <s_epik_cmdline>
J2VwaWtfcHl0aG9uJywgJy1waCcsICc3LjAnLCAnLXRuJywgJzgnLCAnLW1hJywgJzIwMCcsICctbWV0YWxfYmluZGluZycsICctaW1hZScsICc8aW5maWxlLm1hZT4nLCAnLW9tYWUnLCAnPG91dGZpbGUubWFlPic=

> <r_lp_tautomer_probability>
1

> <r_epik_Ionization_Penalty>
2.77726e-05

> <r_epik_Ionization_Penalty_Charging>
5.82689e-06

> <r_epik_Ionization_Penalty_Neutral>
2.19457e-05

> <r_epik_State_Penalty>
-0

> <r_epik_Charging_Adjusted_Penalty>
5.82689e-06

> <i_epik_Tot_Q>
0

> <i_epik_Tot_abs_Q>
0

> <r_epik_Metal_State_Penalty>
-0

> <b_epik_Metal_Only>
0

> <s_lp_Force_Field>
OPLS_2005

> <r_lp_Energy>
28.443

> <b_lp_Chiralities_Consistent>
1

> <s_lp_Variant>
AV-unprocessed.smi:2891-1

> <Gold.Version>
5.8.1

> <Gold.Id.Protein>
6NUR|6NUR_protein|mol2

> <Gold.PLP.Fitness>
46.7163

> <Gold.PLP.PLP>
-39.1924

> <Gold.PLP.part.hbond>
-3.0000

> <Gold.PLP.part.metal>
0.0000

> <Gold.PLP.part.buried>
-4.1683

> <Gold.PLP.part.nonpolar>
-32.2074

> <Gold.PLP.part.repulsive>
0.4252

> <Gold.PLP.ligand.clash>
0.0000

> <Gold.PLP.ligand.torsion>
0.7618

> <Gold.PLP.Chemscore.Hbond>
3.0000

> <Gold.PLP.Chemscore.CHOScore>
0.0000

> <Gold.PLP.Chemscore.Metal>
0.0000

> <Gold.PLP.Chemscore.Internal.Correction>
0.0475

> <Gold.Rescore>
     Score         DG    S(hbond)    S(metal)    S(lipo)     H(rot)  DE(clash)    DE(int)     intcor
     15.01     -15.88       1.75        0.00      75.44       1.67       0.03       0.84       ----

> <Gold.Chemscore.Fitness>
15.0149

> <Gold.Chemscore.DG>
-15.8804

> <Gold.Chemscore.ZeroCoef>
-5.4800

> <Gold.Chemscore.Hbond>
1.7535

> <Gold.Chemscore.Metal>
0.0000

> <Gold.Chemscore.Lipo>
75.4418

> <Gold.Chemscore.Internal_Hbond>
0.0000

> <Gold.Chemscore.DEClash>
0.0263

> <Gold.Chemscore.DEInternal>
0.8393

> <Gold.Chemscore.Rot>
1.6730

> <Gold.Chemscore.Internal.Correction>
   9.000000E+99

> <Gold.Chemscore.Hbonds>
donor molecule, donor type, donor heavy atom, donor atom, acceptor molecule, acceptor atom, score
      L1  H    11    28       P1  8028  0.02

> <Gold.Chemscore.Hbond.Weighted>
-5.8566

> <Gold.Chemscore.Metal.Weighted>
-0.0000

> <Gold.Chemscore.Lipo.Weighted>
-8.8267

> <Gold.Chemscore.Internal_Hbond.Weighted>
0.0000

> <Gold.Chemscore.DEClash.Weighted>
0.0263

> <Gold.Chemscore.DEInternal.Weighted>
0.8393

> <Gold.Chemscore.Rot.Weighted>
4.2828

> <Gold.Chemscore.Internal.Correction.Weighted>
   9.000000E+99

> <Gold.Protein.RotatedTorsions>
[ 6907 6896 6895 6894 ] final -121.72 input  -60.11 | X-H torsion
[ 7974 7965 7964 7962 ] final   91.40 input  175.53 | X-H torsion
[ 8008 7997 7996 7995 ] final   12.08 input   59.86 | X-H torsion
[ 10167 10162 10161 10158 ] final -176.93 input  -65.29 | X-H torsion
[ 10718 10713 10712 10709 ] final   56.94 input   66.30 | X-H torsion
[ 10763 10752 10751 10750 ] final    0.99 input  -60.55 | X-H torsion
[ 11005 11000 10999 10996 ] final   46.84 input  -57.11 | X-H torsion

> <Gold.Protein.ActiveResidues>
 VAL166  LYS551  ARG553  GLY616  TRP617  ASP618  TYR619  PRO620  LYS621  CYS622 
 ASP623  PHE694  ASN695  SER759  ASP760  ASP761  ALA762  ILE779  LEU786  VAL792 
 PHE793  MET794  SER795  GLU796  ALA797  LYS798  CYS799  TRP800  GLU811  SER814 

> <Gold.Protein.RotatedAtoms>
  150.8509  133.7789  159.3025 H   0  0  0  0  0  0  0  0  0  0  0  0  # atno 6907 bound_to 6896
  151.5461  135.1066  159.9948 H   0  0  0  0  0  0  0  0  0  0  0  0  # atno 6908 bound_to 6896
  152.4552  133.7665  159.6831 H   0  0  0  0  0  0  0  0  0  0  0  0  # atno 6909 bound_to 6896
  145.5062  139.2276  143.2750 H   0  0  0  0  0  0  0  0  0  0  0  0  # atno 7974 bound_to 7965
  154.8157  140.2875  155.5821 H   0  0  0  0  0  0  0  0  0  0  0  0  # atno 8008 bound_to 7997
  156.2993  140.2559  156.2985 H   0  0  0  0  0  0  0  0  0  0  0  0  # atno 8009 bound_to 7997
  154.9396  140.0381  157.2079 H   0  0  0  0  0  0  0  0  0  0  0  0  # atno 8010 bound_to 7997
  139.5505  144.2121  152.1068 H   0  0  0  0  0  0  0  0  0  0  0  0  # atno 10167 bound_to 10162
  157.5473  130.8740  149.8910 H   0  0  0  0  0  0  0  0  0  0  0  0  # atno 10718 bound_to 10713
  153.3137  135.6964  153.7092 H   0  0  0  0  0  0  0  0  0  0  0  0  # atno 10763 bound_to 10752
  153.5960  135.3471  155.2929 H   0  0  0  0  0  0  0  0  0  0  0  0  # atno 10764 bound_to 10752
  154.8581  135.4329  154.2282 H   0  0  0  0  0  0  0  0  0  0  0  0  # atno 10765 bound_to 10752
  140.1333  134.4678  155.8505 H   0  0  0  0  0  0  0  0  0  0  0  0  # atno 11005 bound_to 11000
  146.2195  140.5866  142.9023 LP  0  0  0  0  0  0  0  0  0  0  0  0  # atno 17320 bound_to 7965
  144.7752  140.5725  143.6643 LP  0  0  0  0  0  0  0  0  0  0  0  0  # atno 17321 bound_to 7965
  140.1616  144.5020  150.6629 LP  0  0  0  0  0  0  0  0  0  0  0  0  # atno 17342 bound_to 10162
  140.6766  143.2308  151.5491 LP  0  0  0  0  0  0  0  0  0  0  0  0  # atno 17343 bound_to 10162
  156.0546  130.3711  150.1121 LP  0  0  0  0  0  0  0  0  0  0  0  0  # atno 17370 bound_to 10713
  156.9296  130.9709  151.3535 LP  0  0  0  0  0  0  0  0  0  0  0  0  # atno 17371 bound_to 10713
  141.2174  133.6804  156.7109 LP  0  0  0  0  0  0  0  0  0  0  0  0  # atno 17394 bound_to 11000
  140.2815  134.8313  157.3937 LP  0  0  0  0  0  0  0  0  0  0  0  0  # atno 17395 bound_to 11000

$$$$
