AV-unprocessed.smi:2807|AV-procd|sdf|10818|dock6
  -GOLD-   2272015253D 1   1.00000     0.00000
 Structure written by MMmdl.
 32 33  0  0  0  0  0  0  0  0  1 V2000
  152.5911  139.9907  155.3054 O   0  0  0  0  0  0  0  0  0  0  0  0
  151.7020  139.5604  156.0411 C   0  0  0  0  0  0  0  0  0  0  0  0
  150.4062  139.5290  155.6867 N   0  0  0  0  0  0  0  0  0  0  0  0
  149.8556  139.9879  154.4106 C   0  0  2  0  0  0  0  0  0  0  0  0
  149.0927  141.3148  154.5978 C   0  0  0  0  0  0  0  0  0  0  0  0
  147.7298  141.1271  153.9265 C   0  0  0  0  0  0  0  0  0  0  0  0
  147.4619  139.6289  154.0234 C   0  0  0  0  0  0  0  0  0  0  0  0
  148.8362  138.9970  153.7955 C   0  0  2  0  0  0  0  0  0  0  0  0
  148.8797  137.6807  154.3139 O   0  0  0  0  0  0  0  0  0  0  0  0
  152.0465  139.0280  157.4402 C   0  0  0  0  0  0  0  0  0  0  0  0
  150.9521  138.4922  157.9872 F   0  0  0  0  0  0  0  0  0  0  0  0
  152.9572  138.0591  157.3202 F   0  0  0  0  0  0  0  0  0  0  0  0
  152.5828  140.1538  158.3204 C   0  0  0  0  0  0  0  0  0  0  0  0
  151.8093  141.3093  158.5749 C   0  0  0  0  0  0  0  0  0  0  0  0
  152.3463  142.3130  159.4035 C   0  0  0  0  0  0  0  0  0  0  0  0
  153.6304  142.1276  159.9493 C   0  0  0  0  0  0  0  0  0  0  0  0
  154.3229  140.9403  159.6420 C   0  0  0  0  0  0  0  0  0  0  0  0
  153.8174  139.9717  158.8487 N   0  0  0  0  0  0  0  0  0  0  0  0
  149.7467  139.1661  156.3601 H   0  0  0  0  0  0  0  0  0  0  0  0
  150.6641  140.1468  153.6946 H   0  0  0  0  0  0  0  0  0  0  0  0
  148.9405  141.5259  155.6576 H   0  0  0  0  0  0  0  0  0  0  0  0
  149.6359  142.1625  154.1788 H   0  0  0  0  0  0  0  0  0  0  0  0
  146.9465  141.7255  154.3926 H   0  0  0  0  0  0  0  0  0  0  0  0
  147.7929  141.4199  152.8775 H   0  0  0  0  0  0  0  0  0  0  0  0
  147.0959  139.3911  155.0236 H   0  0  0  0  0  0  0  0  0  0  0  0
  146.7167  139.2864  153.3045 H   0  0  0  0  0  0  0  0  0  0  0  0
  149.0157  138.9394  152.7208 H   0  0  0  0  0  0  0  0  0  0  0  0
  148.8578  137.0730  153.5905 H   0  0  0  0  0  0  0  0  0  0  0  0
  150.8234  141.4260  158.1495 H   0  0  0  0  0  0  0  0  0  0  0  0
  151.7820  143.2087  159.6179 H   0  0  0  0  0  0  0  0  0  0  0  0
  154.0730  142.8764  160.5895 H   0  0  0  0  0  0  0  0  0  0  0  0
  155.3094  140.7632  160.0442 H   0  0  0  0  0  0  0  0  0  0  0  0
  1  2  2  0  0  0  0
  2  3  1  0  0  0  0
  2 10  1  0  0  0  0
  3  4  1  0  0  0  0
  3 19  1  0  0  0  0
  4  8  1  0  0  0  0
  4  5  1  0  0  0  0
  4 20  1  0  0  0  0
  5  6  1  0  0  0  0
  5 21  1  0  0  0  0
  5 22  1  0  0  0  0
  6  7  1  0  0  0  0
  6 23  1  0  0  0  0
  6 24  1  0  0  0  0
  7  8  1  0  0  0  0
  7 25  1  0  0  0  0
  7 26  1  0  0  0  0
  8  9  1  0  0  0  0
  8 27  1  0  0  0  0
  9 28  1  0  0  0  0
 10 11  1  0  0  0  0
 10 12  1  0  0  0  0
 10 13  1  0  0  0  0
 13 18  1  0  0  0  0
 13 14  2  0  0  0  0
 14 15  1  0  0  0  0
 14 29  1  0  0  0  0
 15 16  2  0  0  0  0
 15 30  1  0  0  0  0
 16 17  1  0  0  0  0
 16 31  1  0  0  0  0
 17 18  2  0  0  0  0
 17 32  1  0  0  0  0
M  END
> <s_m_source_file>
AV-unprocessed.smi

> <i_m_source_file_index>
2807

> <i_lp_mmshare_version>
43012

> <i_f3d_flags>
0

> <s_epik_input>
bjFbY0hdW2NIXVtjSF1bY0hdYzFDKEYpKEYpQyg9TylbTkhdW0NAQEhdMltDSDJdW0NIMl1bQ0gyXVtDQEhdMltPSF0=

> <s_epik_cmdline>
J2VwaWtfcHl0aG9uJywgJy1waCcsICc3LjAnLCAnLXRuJywgJzgnLCAnLW1hJywgJzIwMCcsICctbWV0YWxfYmluZGluZycsICctaW1hZScsICc8aW5maWxlLm1hZT4nLCAnLW9tYWUnLCAnPG91dGZpbGUubWFlPic=

> <r_lp_tautomer_probability>
1

> <r_epik_Ionization_Penalty>
4.08325e-05

> <r_epik_Ionization_Penalty_Charging>
0

> <r_epik_Ionization_Penalty_Neutral>
4.08325e-05

> <r_epik_State_Penalty>
-0

> <r_epik_Charging_Adjusted_Penalty>
0

> <i_epik_Tot_Q>
0

> <i_epik_Tot_abs_Q>
0

> <r_epik_Metal_State_Penalty>
0.034564

> <b_epik_Metal_Only>
0

> <s_lp_Force_Field>
OPLS_2005

> <r_lp_Energy>
28.2651

> <b_lp_Chiralities_Consistent>
1

> <s_lp_Variant>
AV-unprocessed.smi:2807-3

> <Gold.Version>
5.8.1

> <Gold.Id.Protein>
6NUR|6NUR_protein|mol2

> <Gold.PLP.Fitness>
41.2223

> <Gold.PLP.PLP>
-32.6184

> <Gold.PLP.part.hbond>
-4.0000

> <Gold.PLP.part.metal>
0.0000

> <Gold.PLP.part.buried>
0.6878

> <Gold.PLP.part.nonpolar>
-28.2213

> <Gold.PLP.part.repulsive>
0.0648

> <Gold.PLP.ligand.clash>
0.0000

> <Gold.PLP.ligand.torsion>
0.2627

> <Gold.PLP.Chemscore.Hbond>
3.0391

> <Gold.PLP.Chemscore.CHOScore>
0.0000

> <Gold.PLP.Chemscore.Metal>
0.0000

> <Gold.Chemscore.Hbonds>
donor molecule, donor type, donor heavy atom, donor atom, acceptor molecule, acceptor atom, score
      L1  H     9    28       P1  7948  1.00
      P1  H  7989  7998       L1     1  0.33
      P1  H  7997  8009       L1    18  0.78
      P1  H  7997  8010       L1     1  0.98

> <Gold.PLP.Chemscore.Internal.Correction>
0.0122

> <Gold.Rescore>
     Score         DG    S(hbond)    S(metal)    S(lipo)     H(rot)  DE(clash)    DE(int)     intcor
     16.98     -17.24       2.26        0.00      80.78       2.05       0.07       0.19       ----

> <Gold.Chemscore.Fitness>
16.9816

> <Gold.Chemscore.DG>
-17.2389

> <Gold.Chemscore.ZeroCoef>
-5.4800

> <Gold.Chemscore.Hbond>
2.2590

> <Gold.Chemscore.Metal>
0.0000

> <Gold.Chemscore.Lipo>
80.7775

> <Gold.Chemscore.Internal_Hbond>
0.0000

> <Gold.Chemscore.DEClash>
0.0654

> <Gold.Chemscore.DEInternal>
0.1920

> <Gold.Chemscore.Rot>
2.0457

> <Gold.Chemscore.Internal.Correction>
   9.000000E+99

> <Gold.Chemscore.Hbonds>
donor molecule, donor type, donor heavy atom, donor atom, acceptor molecule, acceptor atom, score
      L1  H     9    28       P1  7948  1.00
      P1  H  7989  7998       L1     1  0.24
      P1  H  7997  8009       L1    18  0.12
      P1  H  7997  8010       L1     1  0.87

> <Gold.Chemscore.Hbond.Weighted>
-7.5450

> <Gold.Chemscore.Metal.Weighted>
-0.0000

> <Gold.Chemscore.Lipo.Weighted>
-9.4510

> <Gold.Chemscore.Internal_Hbond.Weighted>
0.0000

> <Gold.Chemscore.DEClash.Weighted>
0.0654

> <Gold.Chemscore.DEInternal.Weighted>
0.1920

> <Gold.Chemscore.Rot.Weighted>
5.2371

> <Gold.Chemscore.Internal.Correction.Weighted>
   9.000000E+99

> <Gold.Protein.RotatedTorsions>
[ 6907 6896 6895 6894 ] final  145.71 input  -60.11 | X-H torsion
[ 7974 7965 7964 7962 ] final  103.18 input  175.53 | X-H torsion
[ 8008 7997 7996 7995 ] final  116.32 input   59.86 | X-H torsion
[ 10167 10162 10161 10158 ] final -167.53 input  -65.29 | X-H torsion
[ 10718 10713 10712 10709 ] final -178.09 input   66.30 | X-H torsion
[ 10763 10752 10751 10750 ] final  165.02 input  -60.55 | X-H torsion
[ 11005 11000 10999 10996 ] final   16.70 input  -57.11 | X-H torsion

> <Gold.Protein.ActiveResidues>
 VAL166  LYS551  ARG553  GLY616  TRP617  ASP618  TYR619  PRO620  LYS621  CYS622 
 ASP623  PHE694  ASN695  SER759  ASP760  ASP761  ALA762  ILE779  LEU786  VAL792 
 PHE793  MET794  SER795  GLU796  ALA797  LYS798  CYS799  TRP800  GLU811  SER814 

> <Gold.Protein.RotatedAtoms>
  152.1773  133.4683  159.4939 H   0  0  0  0  0  0  0  0  0  0  0  0  # atno 6907 bound_to 6896
  150.6929  134.1878  159.4282 H   0  0  0  0  0  0  0  0  0  0  0  0  # atno 6908 bound_to 6896
  151.9787  135.0039  160.0607 H   0  0  0  0  0  0  0  0  0  0  0  0  # atno 6909 bound_to 6896
  145.3493  139.2443  143.3567 H   0  0  0  0  0  0  0  0  0  0  0  0  # atno 7974 bound_to 7965
  156.2432  140.2920  156.0505 H   0  0  0  0  0  0  0  0  0  0  0  0  # atno 8008 bound_to 7997
  155.1886  140.0406  157.2913 H   0  0  0  0  0  0  0  0  0  0  0  0  # atno 8009 bound_to 7997
  154.6210  140.2476  155.7557 H   0  0  0  0  0  0  0  0  0  0  0  0  # atno 8010 bound_to 7997
  139.6043  144.0944  152.1777 H   0  0  0  0  0  0  0  0  0  0  0  0  # atno 10167 bound_to 10162
  156.8392  130.9680  151.3101 H   0  0  0  0  0  0  0  0  0  0  0  0  # atno 10718 bound_to 10713
  154.3177  135.2756  155.2535 H   0  0  0  0  0  0  0  0  0  0  0  0  # atno 10763 bound_to 10752
  154.4902  135.5835  153.6457 H   0  0  0  0  0  0  0  0  0  0  0  0  # atno 10764 bound_to 10752
  152.9880  135.6133  154.3359 H   0  0  0  0  0  0  0  0  0  0  0  0  # atno 10765 bound_to 10752
  140.4442  134.1291  155.7694 H   0  0  0  0  0  0  0  0  0  0  0  0  # atno 11005 bound_to 11000
  146.2975  140.4106  142.8716 LP  0  0  0  0  0  0  0  0  0  0  0  0  # atno 17320 bound_to 7965
  144.8730  140.7298  143.6035 LP  0  0  0  0  0  0  0  0  0  0  0  0  # atno 17321 bound_to 7965
  140.0548  144.5904  150.7308 LP  0  0  0  0  0  0  0  0  0  0  0  0  # atno 17342 bound_to 10162
  140.7273  143.2650  151.4074 LP  0  0  0  0  0  0  0  0  0  0  0  0  # atno 17343 bound_to 10162
  157.6365  130.8771  149.9368 LP  0  0  0  0  0  0  0  0  0  0  0  0  # atno 17370 bound_to 10713
  156.0890  130.3665  150.0431 LP  0  0  0  0  0  0  0  0  0  0  0  0  # atno 17371 bound_to 10713
  141.1692  133.8642  157.1621 LP  0  0  0  0  0  0  0  0  0  0  0  0  # atno 17394 bound_to 11000
  140.0050  135.0012  157.0272 LP  0  0  0  0  0  0  0  0  0  0  0  0  # atno 17395 bound_to 11000

$$$$
