AV-unprocessed.smi:1056|AV-procd|sdf|4634|dock5
  -GOLD-   22720 3143D 1   1.00000     0.00000
 Structure written by MMmdl.
 46 48  0  0  0  0  0  0  0  0  3 V2000
  152.6401  142.7489  160.9311 C   0  0  0  0  0  0  0  0  0  0  0  0
  152.2234  142.0714  159.6366 C   0  0  0  0  0  0  0  0  0  0  0  0
  151.3546  142.7632  158.7631 C   0  0  0  0  0  0  0  0  0  0  0  0
  150.9967  142.1209  157.5837 C   0  0  0  0  0  0  0  0  0  0  0  0
  150.1730  142.5319  156.5341 N   0  3  0  0  0  0  0  0  0  0  0  0
  150.1254  141.5574  155.5845 C   0  0  0  0  0  0  0  0  0  0  0  0
  150.9054  140.5273  156.0126 N   0  0  0  0  0  0  0  0  0  0  0  0
  151.2060  139.2438  155.3603 C   0  0  0  0  0  0  0  0  0  0  0  0
  149.9423  138.4150  155.0467 C   0  0  2  0  0  0  0  0  0  0  0  0
  150.3037  137.2457  154.3401 O   0  0  0  0  0  0  0  0  0  0  0  0
  148.9248  139.1857  154.1805 C   0  0  0  0  0  0  0  0  0  0  0  0
  147.9225  138.2987  153.5377 N   0  3  2  0  0  0  0  0  0  0  0  0
  147.0064  139.0064  152.6118 C   0  0  0  0  0  0  0  0  0  0  0  0
  146.1465  137.9925  151.8360 C   0  0  0  0  0  0  0  0  0  0  0  0
  145.6333  136.9140  152.6775 N   0  0  0  0  0  0  0  0  0  0  0  0
  146.0657  136.6186  153.9142 C   0  0  0  0  0  0  0  0  0  0  0  0
  145.5931  135.6867  154.5593 O   0  0  0  0  0  0  0  0  0  0  0  0
  147.1798  137.4793  154.5289 C   0  0  0  0  0  0  0  0  0  0  0  0
  151.4697  140.8345  157.2579 C   0  0  0  0  0  0  0  0  0  0  0  0
  152.3216  140.1364  158.1119 C   0  0  0  0  0  0  0  0  0  0  0  0
  152.6994  140.7739  159.3155 C   0  0  0  0  0  0  0  0  0  0  0  0
  153.6317  140.0383  160.2632 C   0  0  0  0  0  0  0  0  0  0  0  0
  152.1964  143.7406  161.0233 H   0  0  0  0  0  0  0  0  0  0  0  0
  153.7234  142.8651  160.9711 H   0  0  0  0  0  0  0  0  0  0  0  0
  152.3217  142.1606  161.7919 H   0  0  0  0  0  0  0  0  0  0  0  0
  150.9870  143.7507  159.0017 H   0  0  0  0  0  0  0  0  0  0  0  0
  149.5714  141.5983  154.6578 H   0  0  0  0  0  0  0  0  0  0  0  0
  151.7387  139.4762  154.4374 H   0  0  0  0  0  0  0  0  0  0  0  0
  151.9052  138.6798  155.9778 H   0  0  0  0  0  0  0  0  0  0  0  0
  149.4796  138.0912  155.9787 H   0  0  0  0  0  0  0  0  0  0  0  0
  149.7395  137.1609  153.5862 H   0  0  0  0  0  0  0  0  0  0  0  0
  148.4121  139.9088  154.8171 H   0  0  0  0  0  0  0  0  0  0  0  0
  149.4338  139.7676  153.4101 H   0  0  0  0  0  0  0  0  0  0  0  0
  146.3666  139.6780  153.1866 H   0  0  0  0  0  0  0  0  0  0  0  0
  147.5584  139.6251  151.9052 H   0  0  0  0  0  0  0  0  0  0  0  0
  145.3130  138.4972  151.3468 H   0  0  0  0  0  0  0  0  0  0  0  0
  146.7435  137.5359  151.0459 H   0  0  0  0  0  0  0  0  0  0  0  0
  144.8956  136.3431  152.2887 H   0  0  0  0  0  0  0  0  0  0  0  0
  147.8788  136.8273  155.0545 H   0  0  0  0  0  0  0  0  0  0  0  0
  146.7278  138.1343  155.2753 H   0  0  0  0  0  0  0  0  0  0  0  0
  152.6836  139.1472  157.8742 H   0  0  0  0  0  0  0  0  0  0  0  0
  153.8920  139.0505  159.8820 H   0  0  0  0  0  0  0  0  0  0  0  0
  153.1614  139.9052  161.2379 H   0  0  0  0  0  0  0  0  0  0  0  0
  154.5577  140.5975  160.3987 H   0  0  0  0  0  0  0  0  0  0  0  0
  148.4427  137.6396  152.9766 H   0  0  0  0  0  0  0  0  0  0  0  0
  149.6819  143.4145  156.4673 H   0  0  0  0  0  0  0  0  0  0  0  0
  1  2  1  0  0  0  0
  1 23  1  0  0  0  0
  1 24  1  0  0  0  0
  1 25  1  0  0  0  0
  2 21  1  0  0  0  0
  2  3  2  0  0  0  0
  3  4  1  0  0  0  0
  3 26  1  0  0  0  0
  4 19  2  0  0  0  0
  4  5  1  0  0  0  0
  5  6  2  0  0  0  0
  5 46  1  0  0  0  0
  6  7  1  0  0  0  0
  6 27  1  0  0  0  0
  7  8  1  0  0  0  0
  7 19  1  0  0  0  0
  8  9  1  0  0  0  0
  8 28  1  0  0  0  0
  8 29  1  0  0  0  0
  9 10  1  0  0  0  0
  9 11  1  0  0  0  0
  9 30  1  0  0  0  0
 10 31  1  0  0  0  0
 11 12  1  0  0  0  0
 11 32  1  0  0  0  0
 11 33  1  0  0  0  0
 12 18  1  0  0  0  0
 12 13  1  0  0  0  0
 12 45  1  0  0  0  0
 13 14  1  0  0  0  0
 13 34  1  0  0  0  0
 13 35  1  0  0  0  0
 14 15  1  0  0  0  0
 14 36  1  0  0  0  0
 14 37  1  0  0  0  0
 15 16  1  0  0  0  0
 15 38  1  0  0  0  0
 16 17  2  0  0  0  0
 16 18  1  0  0  0  0
 18 39  1  0  0  0  0
 18 40  1  0  0  0  0
 19 20  1  0  0  0  0
 20 21  2  0  0  0  0
 20 41  1  0  0  0  0
 21 22  1  0  0  0  0
 22 42  1  0  0  0  0
 22 43  1  0  0  0  0
 22 44  1  0  0  0  0
M  CHG  1   5   1
M  CHG  1  12   1
M  END
> <s_m_source_file>
AV-unprocessed.smi

> <i_m_source_file_index>
1056

> <i_lp_mmshare_version>
43012

> <i_f3d_flags>
0

> <s_epik_input>
W0NIM11jKFtjSF0xKWMoW0NIM10pW2NIXWMoYzEyKW4oW2NIXW4yKVtDSDJdW0NASF0oW09IXSlbQ0gyXU4zW0NIMl1bQ0gyXVtOSF1DKD1PKVtDSDJdMw==

> <s_epik_cmdline>
J2VwaWtfcHl0aG9uJywgJy1waCcsICc3LjAnLCAnLXRuJywgJzgnLCAnLW1hJywgJzIwMCcsICctbWV0YWxfYmluZGluZycsICctaW1hZScsICc8aW5maWxlLm1hZT4nLCAnLW9tYWUnLCAnPG91dGZpbGUubWFlPic=

> <r_epik_Ionization_Penalty>
1.262

> <r_epik_Ionization_Penalty_Charging>
1.26188

> <r_epik_Ionization_Penalty_Neutral>
0.000125436

> <r_epik_State_Penalty>
1.3387

> <r_epik_Charging_Adjusted_Penalty>
2.60058

> <i_epik_Tot_Q>
2

> <i_epik_Tot_abs_Q>
2

> <r_epik_Metal_State_Penalty>
1.58938

> <b_epik_Metal_Only>
0

> <s_lp_Force_Field>
OPLS_2005

> <r_lp_Energy>
36.1571

> <b_lp_Chiralities_Consistent>
1

> <s_lp_Variant>
AV-unprocessed.smi:1056-5

> <Gold.Version>
5.8.1

> <Gold.Id.Protein>
6NUR|6NUR_protein|mol2

> <Gold.PLP.Fitness>
56.5670

> <Gold.PLP.PLP>
-41.9721

> <Gold.PLP.part.hbond>
-4.2770

> <Gold.PLP.part.metal>
0.0000

> <Gold.PLP.part.buried>
-0.6195

> <Gold.PLP.part.nonpolar>
-36.8375

> <Gold.PLP.part.repulsive>
0.1496

> <Gold.PLP.ligand.clash>
0.0000

> <Gold.PLP.ligand.torsion>
0.1755

> <Gold.PLP.Chemscore.Hbond>
4.9750

> <Gold.PLP.Chemscore.CHOScore>
0.0000

> <Gold.PLP.Chemscore.Metal>
0.0000

> <Gold.Chemscore.Hbonds>
donor molecule, donor type, donor heavy atom, donor atom, acceptor molecule, acceptor atom, score
      L1  H     5    46       P1  8028  2.00
      L1  H    10    31       P1  7948  0.89
      L1  H    12    45       P1  7948  2.00

> <Gold.PLP.Chemscore.Internal.Correction>
0.0210

> <Gold.Rescore>
     Score         DG    S(hbond)    S(metal)    S(lipo)     H(rot)  DE(clash)    DE(int)     intcor
     19.69     -20.10       2.77        0.00      99.14       2.44       0.19       0.21       ----

> <Gold.Chemscore.Fitness>
19.6928

> <Gold.Chemscore.DG>
-20.0955

> <Gold.Chemscore.ZeroCoef>
-5.4800

> <Gold.Chemscore.Hbond>
2.7699

> <Gold.Chemscore.Metal>
0.0000

> <Gold.Chemscore.Lipo>
99.1408

> <Gold.Chemscore.Internal_Hbond>
0.0000

> <Gold.Chemscore.DEClash>
0.1889

> <Gold.Chemscore.DEInternal>
0.2138

> <Gold.Chemscore.Rot>
2.4357

> <Gold.Chemscore.Internal.Correction>
   9.000000E+99

> <Gold.Chemscore.Hbonds>
donor molecule, donor type, donor heavy atom, donor atom, acceptor molecule, acceptor atom, score
      L1  H     5    46       P1  8028  0.99
      L1  H    10    31       P1  7948  0.59
      L1  H    12    45       P1  7948  1.00

> <Gold.Chemscore.Hbond.Weighted>
-9.2514

> <Gold.Chemscore.Metal.Weighted>
-0.0000

> <Gold.Chemscore.Lipo.Weighted>
-11.5995

> <Gold.Chemscore.Internal_Hbond.Weighted>
0.0000

> <Gold.Chemscore.DEClash.Weighted>
0.1889

> <Gold.Chemscore.DEInternal.Weighted>
0.2138

> <Gold.Chemscore.Rot.Weighted>
6.2353

> <Gold.Chemscore.Internal.Correction.Weighted>
   9.000000E+99

> <Gold.Protein.RotatedTorsions>
[ 6907 6896 6895 6894 ] final  128.52 input  -60.11 | X-H torsion
[ 7974 7965 7964 7962 ] final   -7.54 input  175.53 | X-H torsion
[ 8008 7997 7996 7995 ] final -109.61 input   59.86 | X-H torsion
[ 10167 10162 10161 10158 ] final   26.94 input  -65.29 | X-H torsion
[ 10718 10713 10712 10709 ] final -117.18 input   66.30 | X-H torsion
[ 10763 10752 10751 10750 ] final  -73.93 input  -60.55 | X-H torsion
[ 11005 11000 10999 10996 ] final -118.48 input  -57.11 | X-H torsion

> <Gold.Protein.ActiveResidues>
 VAL166  LYS551  ARG553  GLY616  TRP617  ASP618  TYR619  PRO620  LYS621  CYS622 
 ASP623  PHE694  ASN695  SER759  ASP760  ASP761  ALA762  ILE779  LEU786  VAL792 
 PHE793  MET794  SER795  GLU796  ALA797  LYS798  CYS799  TRP800  GLU811  SER814 

> <Gold.Protein.RotatedAtoms>
  152.3711  133.6420  159.6087 H   0  0  0  0  0  0  0  0  0  0  0  0  # atno 6907 bound_to 6896
  150.7669  133.9268  159.3423 H   0  0  0  0  0  0  0  0  0  0  0  0  # atno 6908 bound_to 6896
  151.7091  135.0917  160.0315 H   0  0  0  0  0  0  0  0  0  0  0  0  # atno 6909 bound_to 6896
  146.2304  140.2335  142.8341 H   0  0  0  0  0  0  0  0  0  0  0  0  # atno 7974 bound_to 7965
  154.9620  140.0399  157.2194 H   0  0  0  0  0  0  0  0  0  0  0  0  # atno 8008 bound_to 7997
  154.7881  140.2830  155.5990 H   0  0  0  0  0  0  0  0  0  0  0  0  # atno 8009 bound_to 7997
  156.2946  140.2578  156.2722 H   0  0  0  0  0  0  0  0  0  0  0  0  # atno 8010 bound_to 7997
  140.4981  144.0360  150.6322 H   0  0  0  0  0  0  0  0  0  0  0  0  # atno 10167 bound_to 10162
  156.1016  130.6176  150.9131 H   0  0  0  0  0  0  0  0  0  0  0  0  # atno 10718 bound_to 10713
  154.4662  135.5881  153.6290 H   0  0  0  0  0  0  0  0  0  0  0  0  # atno 10763 bound_to 10752
  152.9829  135.6056  154.3424 H   0  0  0  0  0  0  0  0  0  0  0  0  # atno 10764 bound_to 10752
  154.3301  135.2842  155.2455 H   0  0  0  0  0  0  0  0  0  0  0  0  # atno 10765 bound_to 10752
  141.0283  134.0021  157.3182 H   0  0  0  0  0  0  0  0  0  0  0  0  # atno 11005 bound_to 11000
  144.9540  140.8207  143.5554 LP  0  0  0  0  0  0  0  0  0  0  0  0  # atno 17320 bound_to 7965
  145.2298  139.2120  143.5049 LP  0  0  0  0  0  0  0  0  0  0  0  0  # atno 17321 bound_to 7965
  140.3648  143.2887  152.0344 LP  0  0  0  0  0  0  0  0  0  0  0  0  # atno 17342 bound_to 10162
  139.4866  144.6275  151.7135 LP  0  0  0  0  0  0  0  0  0  0  0  0  # atno 17343 bound_to 10162
  157.6187  131.0931  150.8663 LP  0  0  0  0  0  0  0  0  0  0  0  0  # atno 17370 bound_to 10713
  156.8790  130.5172  149.5292 LP  0  0  0  0  0  0  0  0  0  0  0  0  # atno 17371 bound_to 10713
  139.9190  135.0199  156.7993 LP  0  0  0  0  0  0  0  0  0  0  0  0  # atno 17394 bound_to 11000
  140.6453  133.9781  155.7727 LP  0  0  0  0  0  0  0  0  0  0  0  0  # atno 17395 bound_to 11000

$$$$
