AV-unprocessed.smi:47|AV-procd|sdf|438|dock2
  -GOLD-   2262016303D 1   1.00000     0.00000
 Structure written by MMmdl.
 31 33  0  0  0  0  0  0  0  0  1 V2000
  152.6060  135.8876  156.8077 O   0  0  0  0  0  0  0  0  0  0  0  0
  151.7983  137.0236  156.5835 C   0  0  2  0  0  0  0  0  0  0  0  0
  150.7642  136.7952  155.4890 C   0  0  0  0  0  0  0  0  0  0  0  0
  150.3786  138.1346  155.0691 N   0  0  0  0  0  0  0  0  0  0  0  0
  151.5511  139.0053  155.2180 C   0  0  1  0  0  0  0  0  0  0  0  0
  151.2167  140.3195  155.8551 C   0  0  0  0  0  0  0  0  0  0  0  0
  150.3981  141.1777  155.2552 N   0  0  0  0  0  0  0  0  0  0  0  0
  150.4121  142.2193  156.1121 N   0  0  0  0  0  0  0  0  0  0  0  0
  151.2241  141.9614  157.1453 C   0  0  0  0  0  0  0  0  0  0  0  0
  151.4839  142.8821  158.2543 C   0  0  0  0  0  0  0  0  0  0  0  0
  151.2117  144.2633  158.1189 C   0  0  0  0  0  0  0  0  0  0  0  0
  151.4662  145.1495  159.1838 C   0  0  0  0  0  0  0  0  0  0  0  0
  151.9947  144.6643  160.3947 C   0  0  0  0  0  0  0  0  0  0  0  0
  152.2672  143.2914  160.5402 C   0  0  0  0  0  0  0  0  0  0  0  0
  152.0132  142.4046  159.4760 C   0  0  0  0  0  0  0  0  0  0  0  0
  151.7735  140.7528  157.0265 N   0  0  0  0  0  0  0  0  0  0  0  0
  152.5841  138.2148  156.0437 C   0  0  0  0  0  0  0  0  0  0  0  0
  151.2974  137.3016  157.5122 H   0  0  0  0  0  0  0  0  0  0  0  0
  151.9764  139.2029  154.2329 H   0  0  0  0  0  0  0  0  0  0  0  0
  149.8800  143.0631  155.9554 H   0  0  0  0  0  0  0  0  0  0  0  0
  152.9938  135.9600  157.6665 H   0  0  0  0  0  0  0  0  0  0  0  0
  151.2194  136.2654  154.6508 H   0  0  0  0  0  0  0  0  0  0  0  0
  149.9090  136.2117  155.8306 H   0  0  0  0  0  0  0  0  0  0  0  0
  150.0904  138.1054  154.0965 H   0  0  0  0  0  0  0  0  0  0  0  0
  150.8070  144.6577  157.1984 H   0  0  0  0  0  0  0  0  0  0  0  0
  151.2565  146.2029  159.0708 H   0  0  0  0  0  0  0  0  0  0  0  0
  152.1903  145.3440  161.2108 H   0  0  0  0  0  0  0  0  0  0  0  0
  152.6725  142.9169  161.4688 H   0  0  0  0  0  0  0  0  0  0  0  0
  152.2304  141.3548  159.6088 H   0  0  0  0  0  0  0  0  0  0  0  0
  153.0569  138.7995  156.8342 H   0  0  0  0  0  0  0  0  0  0  0  0
  153.3758  137.8660  155.3787 H   0  0  0  0  0  0  0  0  0  0  0  0
  1  2  1  0  0  0  0
  1 21  1  0  0  0  0
  2 18  1  0  0  0  0
  2 17  1  0  0  0  0
  2  3  1  0  0  0  0
  3  4  1  0  0  0  0
  3 22  1  0  0  0  0
  3 23  1  0  0  0  0
  4  5  1  0  0  0  0
  4 24  1  0  0  0  0
  5 19  1  0  0  0  0
  5  6  1  0  0  0  0
  5 17  1  0  0  0  0
  6 16  1  0  0  0  0
  6  7  2  0  0  0  0
  7  8  1  0  0  0  0
  8 20  1  0  0  0  0
  8  9  1  0  0  0  0
  9 10  1  0  0  0  0
  9 16  2  0  0  0  0
 10 15  1  0  0  0  0
 10 11  2  0  0  0  0
 11 12  1  0  0  0  0
 11 25  1  0  0  0  0
 12 13  2  0  0  0  0
 12 26  1  0  0  0  0
 13 14  1  0  0  0  0
 13 27  1  0  0  0  0
 14 15  2  0  0  0  0
 14 28  1  0  0  0  0
 15 29  1  0  0  0  0
 17 30  1  0  0  0  0
 17 31  1  0  0  0  0
M  END
> <s_m_source_file>
AV-unprocessed.smi

> <i_m_source_file_index>
47

> <i_lp_mmshare_version>
43012

> <i_f3d_flags>
0

> <s_epik_input>
W09IXVtDQEhdMVtDSDJdW05IXVtDQEBIXShbQ0gyXTEpYzJuW25IXWMobjIpLWMzW2NIXVtjSF1bY0hdW2NIXVtjSF0z

> <s_epik_cmdline>
J2VwaWtfcHl0aG9uJywgJy1waCcsICc3LjAnLCAnLXRuJywgJzgnLCAnLW1hJywgJzIwMCcsICctbWV0YWxfYmluZGluZycsICctaW1hZScsICc8aW5maWxlLm1hZT4nLCAnLW9tYWUnLCAnPG91dGZpbGUubWFlPic=

> <r_epik_Ionization_Penalty>
1.65981

> <r_epik_Ionization_Penalty_Charging>
0

> <r_epik_Ionization_Penalty_Neutral>
1.65981

> <r_epik_State_Penalty>
2.0492

> <r_epik_Charging_Adjusted_Penalty>
2.0492

> <i_epik_Tot_Q>
0

> <i_epik_Tot_abs_Q>
0

> <r_epik_Metal_State_Penalty>
2.54641

> <b_epik_Metal_Only>
0

> <s_lp_Force_Field>
OPLS_2005

> <r_lp_Energy>
25.8544

> <b_lp_Chiralities_Consistent>
1

> <s_lp_Variant>
AV-unprocessed.smi:47-16

> <Gold.Version>
5.8.1

> <Gold.Id.Protein>
6NUR|6NUR_protein|mol2

> <Gold.PLP.Fitness>
42.5190

> <Gold.PLP.PLP>
-36.4605

> <Gold.PLP.part.hbond>
-3.0000

> <Gold.PLP.part.metal>
0.0000

> <Gold.PLP.part.buried>
-4.3437

> <Gold.PLP.part.nonpolar>
-29.1830

> <Gold.PLP.part.repulsive>
0.2043

> <Gold.PLP.ligand.clash>
0.0000

> <Gold.PLP.ligand.torsion>
0.1800

> <Gold.PLP.Chemscore.Hbond>
2.1342

> <Gold.PLP.Chemscore.CHOScore>
0.0000

> <Gold.PLP.Chemscore.Metal>
0.0000

> <Gold.Chemscore.Hbonds>
donor molecule, donor type, donor heavy atom, donor atom, acceptor molecule, acceptor atom, score
      L1  H     8    20       P1  8028  1.00
      P1  H  7989  7998       L1     7  0.13
      P1  H 10752 10765       L1     1  1.00

> <Gold.PLP.Chemscore.Internal.Correction>
0.0159

> <Gold.Rescore>
     Score         DG    S(hbond)    S(metal)    S(lipo)     H(rot)  DE(clash)    DE(int)     intcor
     18.87     -19.07       1.95        0.00      92.93       1.48       0.01       0.18       ----

> <Gold.Chemscore.Fitness>
18.8672

> <Gold.Chemscore.DG>
-19.0658

> <Gold.Chemscore.ZeroCoef>
-5.4800

> <Gold.Chemscore.Hbond>
1.9455

> <Gold.Chemscore.Metal>
0.0000

> <Gold.Chemscore.Lipo>
92.9336

> <Gold.Chemscore.Internal_Hbond>
0.0000

> <Gold.Chemscore.DEClash>
0.0149

> <Gold.Chemscore.DEInternal>
0.1837

> <Gold.Chemscore.Rot>
1.4786

> <Gold.Chemscore.Internal.Correction>
   9.000000E+99

> <Gold.Chemscore.Hbonds>
donor molecule, donor type, donor heavy atom, donor atom, acceptor molecule, acceptor atom, score
      L1  H     8    20       P1  8028  0.99
      P1  H 10752 10765       L1     1  0.74

> <Gold.Chemscore.Hbond.Weighted>
-6.4979

> <Gold.Chemscore.Metal.Weighted>
-0.0000

> <Gold.Chemscore.Lipo.Weighted>
-10.8732

> <Gold.Chemscore.Internal_Hbond.Weighted>
0.0000

> <Gold.Chemscore.DEClash.Weighted>
0.0149

> <Gold.Chemscore.DEInternal.Weighted>
0.1837

> <Gold.Chemscore.Rot.Weighted>
3.7853

> <Gold.Chemscore.Internal.Correction.Weighted>
   9.000000E+99

> <Gold.Protein.RotatedTorsions>
[ 6907 6896 6895 6894 ] final -176.05 input  -60.11 | X-H torsion
[ 7974 7965 7964 7962 ] final   99.13 input  175.53 | X-H torsion
[ 8008 7997 7996 7995 ] final  -50.78 input   59.86 | X-H torsion
[ 10167 10162 10161 10158 ] final   -7.18 input  -65.29 | X-H torsion
[ 10718 10713 10712 10709 ] final   -3.07 input   66.30 | X-H torsion
[ 10763 10752 10751 10750 ] final -129.33 input  -60.55 | X-H torsion
[ 11005 11000 10999 10996 ] final  -20.89 input  -57.11 | X-H torsion

> <Gold.Protein.ActiveResidues>
 VAL166  LYS551  ARG553  GLY616  TRP617  ASP618  TYR619  PRO620  LYS621  CYS622 
 ASP623  PHE694  ASN695  SER759  ASP760  ASP761  ALA762  ILE779  LEU786  VAL792 
 PHE793  MET794  SER795  GLU796  ALA797  LYS798  CYS799  TRP800  GLU811  SER814 

> <Gold.Protein.RotatedAtoms>
  151.5985  133.3359  159.3042 H   0  0  0  0  0  0  0  0  0  0  0  0  # atno 6907 bound_to 6896
  150.8221  134.7437  159.6792 H   0  0  0  0  0  0  0  0  0  0  0  0  # atno 6908 bound_to 6896
  152.4313  134.5777  159.9991 H   0  0  0  0  0  0  0  0  0  0  0  0  # atno 6909 bound_to 6896
  145.4029  139.2345  143.3290 H   0  0  0  0  0  0  0  0  0  0  0  0  # atno 7974 bound_to 7965
  154.4069  140.1264  156.4722 H   0  0  0  0  0  0  0  0  0  0  0  0  # atno 8008 bound_to 7997
  155.7168  140.3493  155.4978 H   0  0  0  0  0  0  0  0  0  0  0  0  # atno 8009 bound_to 7997
  155.9250  140.1059  157.1167 H   0  0  0  0  0  0  0  0  0  0  0  0  # atno 8010 bound_to 7997
  140.7020  143.6110  150.8704 H   0  0  0  0  0  0  0  0  0  0  0  0  # atno 10167 bound_to 10162
  156.7815  130.5332  149.5750 H   0  0  0  0  0  0  0  0  0  0  0  0  # atno 10718 bound_to 10713
  154.8757  135.3899  154.3902 H   0  0  0  0  0  0  0  0  0  0  0  0  # atno 10763 bound_to 10752
  153.4639  135.7029  153.6039 H   0  0  0  0  0  0  0  0  0  0  0  0  # atno 10764 bound_to 10752
  153.4525  135.3830  155.2260 H   0  0  0  0  0  0  0  0  0  0  0  0  # atno 10765 bound_to 10752
  140.8508  133.7858  155.9964 H   0  0  0  0  0  0  0  0  0  0  0  0  # atno 11005 bound_to 11000
  146.2743  140.4729  142.8802 LP  0  0  0  0  0  0  0  0  0  0  0  0  # atno 17320 bound_to 7965
  144.8361  140.6785  143.6259 LP  0  0  0  0  0  0  0  0  0  0  0  0  # atno 17321 bound_to 7965
  139.9833  143.5927  152.2935 LP  0  0  0  0  0  0  0  0  0  0  0  0  # atno 17342 bound_to 10162
  139.6556  144.7662  151.2062 LP  0  0  0  0  0  0  0  0  0  0  0  0  # atno 17343 bound_to 10162
  156.1215  130.6113  151.0200 LP  0  0  0  0  0  0  0  0  0  0  0  0  # atno 17370 bound_to 10713
  157.6644  131.0874  150.7763 LP  0  0  0  0  0  0  0  0  0  0  0  0  # atno 17371 bound_to 10713
  140.8792  134.2632  157.5152 LP  0  0  0  0  0  0  0  0  0  0  0  0  # atno 17394 bound_to 11000
  139.8704  134.9606  156.4371 LP  0  0  0  0  0  0  0  0  0  0  0  0  # atno 17395 bound_to 11000

$$$$
