AV-unprocessed.smi:2844|AV-procd|sdf|10940|dock5
  -GOLD-   2272015383D 1   1.00000     0.00000
 Structure written by MMmdl.
 38 40  0  0  0  0  0  0  0  0  1 V2000
  152.4698  143.3185  160.9097 C   0  0  0  0  0  0  0  0  0  0  0  0
  152.1304  142.5631  159.6369 C   0  0  0  0  0  0  0  0  0  0  0  0
  152.2050  141.1520  159.6353 C   0  0  0  0  0  0  0  0  0  0  0  0
  151.8958  140.4118  158.4732 C   0  0  0  0  0  0  0  0  0  0  0  0
  151.8986  139.0454  158.2504 N   0  0  0  0  0  0  0  0  0  0  0  0
  151.5203  138.9810  156.9772 C   0  0  0  0  0  0  0  0  0  0  0  0
  151.2733  140.1458  156.3475 N   0  0  0  0  0  0  0  0  0  0  0  0
  150.8515  140.3278  154.9702 C   0  0  0  0  0  0  0  0  0  0  0  0
  149.5075  141.0724  154.8594 C   0  0  1  0  0  0  0  0  0  0  0  0
  149.2015  141.3051  153.4964 O   0  0  0  0  0  0  0  0  0  0  0  0
  148.3601  140.2893  155.5264 C   0  0  0  0  0  0  0  0  0  0  0  0
  147.1035  141.0174  155.5184 N   0  0  0  0  0  0  0  0  0  0  0  0
  146.8683  142.3104  155.0919 C   0  0  0  0  0  0  0  0  0  0  0  0
  145.5376  142.5200  155.2878 C   0  0  0  0  0  0  0  0  0  0  0  0
  144.6580  143.9626  154.9410 Cl  0  0  0  0  0  0  0  0  0  0  0  0
  145.0182  141.3181  155.8322 C   0  0  0  0  0  0  0  0  0  0  0  0
  145.9743  140.4101  155.9654 N   0  0  0  0  0  0  0  0  0  0  0  0
  151.5086  141.1279  157.3029 C   0  0  0  0  0  0  0  0  0  0  0  0
  151.4325  142.5319  157.2913 C   0  0  0  0  0  0  0  0  0  0  0  0
  151.7428  143.2559  158.4617 C   0  0  0  0  0  0  0  0  0  0  0  0
  151.6547  144.7716  158.4410 C   0  0  0  0  0  0  0  0  0  0  0  0
  152.7153  142.6363  161.7241 H   0  0  0  0  0  0  0  0  0  0  0  0
  151.6252  143.9291  161.2293 H   0  0  0  0  0  0  0  0  0  0  0  0
  153.3286  143.9704  160.7488 H   0  0  0  0  0  0  0  0  0  0  0  0
  152.5008  140.6240  160.5299 H   0  0  0  0  0  0  0  0  0  0  0  0
  151.4187  138.0319  156.4712 H   0  0  0  0  0  0  0  0  0  0  0  0
  151.6340  140.8651  154.4323 H   0  0  0  0  0  0  0  0  0  0  0  0
  150.7753  139.3434  154.5069 H   0  0  0  0  0  0  0  0  0  0  0  0
  149.6019  142.0439  155.3466 H   0  0  0  0  0  0  0  0  0  0  0  0
  149.3100  140.4964  153.0202 H   0  0  0  0  0  0  0  0  0  0  0  0
  148.2097  139.3333  155.0227 H   0  0  0  0  0  0  0  0  0  0  0  0
  148.6139  140.0586  156.5620 H   0  0  0  0  0  0  0  0  0  0  0  0
  147.6463  142.9486  154.7000 H   0  0  0  0  0  0  0  0  0  0  0  0
  144.0068  141.0788  156.1261 H   0  0  0  0  0  0  0  0  0  0  0  0
  151.1372  143.0462  156.3886 H   0  0  0  0  0  0  0  0  0  0  0  0
  151.3559  145.1397  157.4592 H   0  0  0  0  0  0  0  0  0  0  0  0
  152.6206  145.2146  158.6845 H   0  0  0  0  0  0  0  0  0  0  0  0
  150.9200  145.1207  159.1669 H   0  0  0  0  0  0  0  0  0  0  0  0
  1  2  1  0  0  0  0
  1 22  1  0  0  0  0
  1 23  1  0  0  0  0
  1 24  1  0  0  0  0
  2 20  1  0  0  0  0
  2  3  2  0  0  0  0
  3  4  1  0  0  0  0
  3 25  1  0  0  0  0
  4 18  2  0  0  0  0
  4  5  1  0  0  0  0
  5  6  2  0  0  0  0
  6  7  1  0  0  0  0
  6 26  1  0  0  0  0
  7  8  1  0  0  0  0
  7 18  1  0  0  0  0
  8  9  1  0  0  0  0
  8 27  1  0  0  0  0
  8 28  1  0  0  0  0
  9 10  1  0  0  0  0
  9 11  1  0  0  0  0
  9 29  1  0  0  0  0
 10 30  1  0  0  0  0
 11 12  1  0  0  0  0
 11 31  1  0  0  0  0
 11 32  1  0  0  0  0
 12 17  1  0  0  0  0
 12 13  1  0  0  0  0
 13 14  2  0  0  0  0
 13 33  1  0  0  0  0
 14 15  1  0  0  0  0
 14 16  1  0  0  0  0
 16 17  2  0  0  0  0
 16 34  1  0  0  0  0
 18 19  1  0  0  0  0
 19 20  2  0  0  0  0
 19 35  1  0  0  0  0
 20 21  1  0  0  0  0
 21 36  1  0  0  0  0
 21 37  1  0  0  0  0
 21 38  1  0  0  0  0
M  END
> <s_m_source_file>
AV-unprocessed.smi

> <i_m_source_file_index>
2844

> <i_lp_mmshare_version>
43012

> <i_f3d_flags>
0

> <s_epik_input>
W0NIM11jKFtjSF0xKWMoW0NIM10pW2NIXWMoYzEyKW4oW2NIXW4yKVtDSDJdW0NASF0oW09IXSlbQ0gyXW4zW2NIXWMoQ2wpW2NIXW4z

> <s_epik_cmdline>
J2VwaWtfcHl0aG9uJywgJy1waCcsICc3LjAnLCAnLXRuJywgJzgnLCAnLW1hJywgJzIwMCcsICctbWV0YWxfYmluZGluZycsICctaW1hZScsICc8aW5maWxlLm1hZT4nLCAnLW9tYWUnLCAnPG91dGZpbGUubWFlPic=

> <r_lp_tautomer_probability>
1

> <r_epik_Ionization_Penalty>
0.1021

> <r_epik_Ionization_Penalty_Charging>
0

> <r_epik_Ionization_Penalty_Neutral>
0.1021

> <r_epik_State_Penalty>
0.0920694

> <r_epik_Charging_Adjusted_Penalty>
0.0920694

> <i_epik_Tot_Q>
0

> <i_epik_Tot_abs_Q>
0

> <r_epik_Metal_State_Penalty>
0.0784292

> <b_epik_Metal_Only>
0

> <s_lp_Force_Field>
OPLS_2005

> <r_lp_Energy>
10.226

> <b_lp_Chiralities_Consistent>
1

> <s_lp_Variant>
AV-unprocessed.smi:2844-2

> <Gold.Version>
5.8.1

> <Gold.Id.Protein>
6NUR|6NUR_protein|mol2

> <Gold.PLP.Fitness>
48.1776

> <Gold.PLP.PLP>
-40.2932

> <Gold.PLP.part.hbond>
-3.0000

> <Gold.PLP.part.metal>
0.0000

> <Gold.PLP.part.buried>
-2.3339

> <Gold.PLP.part.nonpolar>
-34.6234

> <Gold.PLP.part.repulsive>
0.0423

> <Gold.PLP.ligand.clash>
0.0009

> <Gold.PLP.ligand.torsion>
0.0436

> <Gold.PLP.Chemscore.Hbond>
1.6480

> <Gold.PLP.Chemscore.CHOScore>
1.0000

> <Gold.PLP.Chemscore.Metal>
0.0000

> <Gold.Chemscore.Hbonds>
donor molecule, donor type, donor heavy atom, donor atom, acceptor molecule, acceptor atom, score
      L1  H    10    30       P1  7957  0.69
      P1  H  8011  8017       L1    10  0.96
      L1  C    13    33       P1  8028  1.00

> <Gold.PLP.Chemscore.Internal.Correction>
0.0284

> <Gold.Rescore>
     Score         DG    S(hbond)    S(metal)    S(lipo)     H(rot)  DE(clash)    DE(int)     intcor
     14.70     -17.90       1.29        0.00     116.44       2.15       2.12       1.08       ----

> <Gold.Chemscore.Fitness>
14.7028

> <Gold.Chemscore.DG>
-17.9034

> <Gold.Chemscore.ZeroCoef>
-5.4800

> <Gold.Chemscore.Hbond>
1.2913

> <Gold.Chemscore.Metal>
0.0000

> <Gold.Chemscore.Lipo>
116.4366

> <Gold.Chemscore.Internal_Hbond>
0.0000

> <Gold.Chemscore.DEClash>
2.1213

> <Gold.Chemscore.DEInternal>
1.0792

> <Gold.Chemscore.Rot>
2.1534

> <Gold.Chemscore.Internal.Correction>
   9.000000E+99

> <Gold.Chemscore.Hbonds>
donor molecule, donor type, donor heavy atom, donor atom, acceptor molecule, acceptor atom, score
      L1  H    10    30       P1  7957  0.68
      P1  H  8011  8017       L1    10  0.24

> <Gold.Chemscore.Hbond.Weighted>
-4.3130

> <Gold.Chemscore.Metal.Weighted>
-0.0000

> <Gold.Chemscore.Lipo.Weighted>
-13.6231

> <Gold.Chemscore.Internal_Hbond.Weighted>
0.0000

> <Gold.Chemscore.DEClash.Weighted>
2.1213

> <Gold.Chemscore.DEInternal.Weighted>
1.0792

> <Gold.Chemscore.Rot.Weighted>
5.5127

> <Gold.Chemscore.Internal.Correction.Weighted>
   9.000000E+99

> <Gold.Protein.RotatedTorsions>
[ 6907 6896 6895 6894 ] final -177.33 input  -60.11 | X-H torsion
[ 7974 7965 7964 7962 ] final -106.01 input  175.53 | X-H torsion
[ 8008 7997 7996 7995 ] final -114.91 input   59.86 | X-H torsion
[ 10167 10162 10161 10158 ] final  124.34 input  -65.29 | X-H torsion
[ 10718 10713 10712 10709 ] final   30.32 input   66.30 | X-H torsion
[ 10763 10752 10751 10750 ] final -109.25 input  -60.55 | X-H torsion
[ 11005 11000 10999 10996 ] final  -24.98 input  -57.11 | X-H torsion

> <Gold.Protein.ActiveResidues>
 VAL166  LYS551  ARG553  GLY616  TRP617  ASP618  TYR619  PRO620  LYS621  CYS622 
 ASP623  PHE694  ASN695  SER759  ASP760  ASP761  ALA762  ILE779  LEU786  VAL792 
 PHE793  MET794  SER795  GLU796  ALA797  LYS798  CYS799  TRP800  GLU811  SER814 

> <Gold.Protein.RotatedAtoms>
  151.6193  133.3340  159.3084 H   0  0  0  0  0  0  0  0  0  0  0  0  # atno 6907 bound_to 6896
  150.8114  134.7275  159.6703 H   0  0  0  0  0  0  0  0  0  0  0  0  # atno 6908 bound_to 6896
  152.4211  134.5958  160.0038 H   0  0  0  0  0  0  0  0  0  0  0  0  # atno 6909 bound_to 6896
  145.2233  140.9143  143.3247 H   0  0  0  0  0  0  0  0  0  0  0  0  # atno 7974 bound_to 7965
  155.0438  140.0392  157.2519 H   0  0  0  0  0  0  0  0  0  0  0  0  # atno 8008 bound_to 7997
  154.7194  140.2709  155.6531 H   0  0  0  0  0  0  0  0  0  0  0  0  # atno 8009 bound_to 7997
  156.2812  140.2706  156.1861 H   0  0  0  0  0  0  0  0  0  0  0  0  # atno 8010 bound_to 7997
  139.5747  144.6957  151.3684 H   0  0  0  0  0  0  0  0  0  0  0  0  # atno 10167 bound_to 10162
  157.2581  130.7147  149.6439 H   0  0  0  0  0  0  0  0  0  0  0  0  # atno 10718 bound_to 10713
  154.8182  135.4608  154.0704 H   0  0  0  0  0  0  0  0  0  0  0  0  # atno 10763 bound_to 10752
  153.2079  135.6878  153.8156 H   0  0  0  0  0  0  0  0  0  0  0  0  # atno 10764 bound_to 10752
  153.7618  135.3283  155.3315 H   0  0  0  0  0  0  0  0  0  0  0  0  # atno 10765 bound_to 10752
  140.8895  133.7598  156.0403 H   0  0  0  0  0  0  0  0  0  0  0  0  # atno 11005 bound_to 11000
  144.9745  139.3846  143.6292 LP  0  0  0  0  0  0  0  0  0  0  0  0  # atno 17320 bound_to 7965
  146.3371  139.8858  142.8817 LP  0  0  0  0  0  0  0  0  0  0  0  0  # atno 17321 bound_to 7965
  140.7030  143.7584  150.7435 LP  0  0  0  0  0  0  0  0  0  0  0  0  # atno 17342 bound_to 10162
  140.1100  143.4708  152.2376 LP  0  0  0  0  0  0  0  0  0  0  0  0  # atno 17343 bound_to 10162
  155.9664  130.4406  150.5307 LP  0  0  0  0  0  0  0  0  0  0  0  0  # atno 17370 bound_to 10713
  157.3206  131.0681  151.1935 LP  0  0  0  0  0  0  0  0  0  0  0  0  # atno 17371 bound_to 10713
  140.8364  134.3118  157.5330 LP  0  0  0  0  0  0  0  0  0  0  0  0  # atno 17394 bound_to 11000
  139.8728  134.9392  156.3735 LP  0  0  0  0  0  0  0  0  0  0  0  0  # atno 17395 bound_to 11000

$$$$
