#       Name:                AV-unprocessed.smi:552
#       Creating user name   scv26
#       Creation time:       Thu Mar 26 23:39:45 2020


#       File generated by GOLD software.
#

@<TRIPOS>MOLECULE
AV-unprocessed.smi:552
    48    49     1
SMALL
NO_CHARGES


@<TRIPOS>ATOM
      1 ****        -4.5598  -2.1418  -2.2597 C.3            1 S1                 0.0000
      2 ****        -4.9483  -2.8880  -0.9750 C.3            1 S1                 0.0000
      3 ****        -4.5039  -2.1770   0.3181 C.3            1 S1                 0.0000
      4 ****        -5.0057  -2.9123   1.5685 C.3            1 S1                 0.0000
      5 ****        -3.0460  -2.0729   0.3724 N.am           1 S1                 0.0000
      6 ****        -2.3353  -0.9360   0.3295 C.2            1 S1                 0.0000
      7 ****        -2.8403   0.1830   0.2421 O.2            1 S1                 0.0000
      8 ****        -1.0156  -1.1889   0.3678 N.am           1 S1                 0.0000
      9 ****         0.0595  -0.2602   0.3435 C.ar           1 S1                 0.0000
     10 ****        -0.0466   1.0876   0.7613 C.ar           1 S1                 0.0000
     11 ****         1.0957   1.9087   0.7068 C.ar           1 S1                 0.0000
     12 ****         2.3085   1.3581   0.2452 C.ar           1 S1                 0.0000
     13 ****         3.4458   2.1753   0.1866 N.3            1 S1                 0.0000
     14 ****         3.9267   2.4071  -1.1696 C.3            1 S1                 0.0000
     15 ****         5.0883   3.4159  -1.1492 C.3            1 S1                 0.0000
     16 ****         6.1159   2.9448  -0.2815 O.3            1 S1                 0.0000
     17 ****         5.6557   2.7885   1.0581 C.3            1 S1                 0.0000
     18 ****         4.5095   1.7627   1.0936 C.3            1 S1                 0.0000
     19 ****         2.4216   0.0655  -0.1421 N.ar           1 S1                 0.0000
     20 ****         1.3228  -0.7166  -0.0863 C.ar           1 S1                 0.0000
     21 ****        -4.9472  -2.6580  -3.1382 H              1 S1                 0.0000
     22 ****        -3.4778  -2.0710  -2.3719 H              1 S1                 0.0000
     23 ****        -4.9643  -1.1294  -2.2641 H              1 S1                 0.0000
     24 ****        -6.0321  -3.0085  -0.9601 H              1 S1                 0.0000
     25 ****        -4.5330  -3.8962  -1.0046 H              1 S1                 0.0000
     26 ****        -4.9537  -1.1828   0.3259 H              1 S1                 0.0000
     27 ****        -6.0934  -2.9879   1.5679 H              1 S1                 0.0000
     28 ****        -4.7145  -2.3853   2.4777 H              1 S1                 0.0000
     29 ****        -4.6020  -3.9239   1.6248 H              1 S1                 0.0000
     30 ****        -2.5370  -2.9420   0.4392 H              1 S1                 0.0000
     31 ****        -0.7481  -2.1620   0.3482 H              1 S1                 0.0000
     32 ****        -0.9706   1.5025   1.1329 H              1 S1                 0.0000
     33 ****         1.0396   2.9415   1.0185 H              1 S1                 0.0000
     34 ****         4.2614   1.4663  -1.6092 H              1 S1                 0.0000
     35 ****         3.1136   2.7837  -1.7914 H              1 S1                 0.0000
     36 ****         5.4978   3.5388  -2.1518 H              1 S1                 0.0000
     37 ****         4.7444   4.3984  -0.8220 H              1 S1                 0.0000
     38 ****         6.4830   2.4502   1.6819 H              1 S1                 0.0000
     39 ****         5.3285   3.7507   1.4558 H              1 S1                 0.0000
     40 ****         4.1171   1.6730   2.1074 H              1 S1                 0.0000
     41 ****         4.8833   0.7798   0.8029 H              1 S1                 0.0000
     42 ****         1.4577  -1.7409  -0.4017 H              1 S1                 0.0000
     43 ****        -3.8346   0.2809   0.1989 LP             1 S1                 0.0000
     44 ****        -2.2564   0.9943   0.2144 LP             1 S1                 0.0000
     45 ****         3.1335   3.0643   0.5216 LP             1 S1                 0.0000
     46 ****         6.8703   3.6011  -0.2888 LP             1 S1                 0.0000
     47 ****         6.4404   2.0602  -0.6163 LP             1 S1                 0.0000
     48 ****         3.2960  -0.3001  -0.4610 LP             1 S1                 0.0000
@<TRIPOS>BOND
    1    1    2 1     
    2    1   21 1     
    3    1   22 1     
    4    1   23 1     
    5    2    3 1     
    6    2   24 1     
    7    2   25 1     
    8    3    4 1     
    9    3    5 1     
   10    3   26 1     
   11    4   27 1     
   12    4   28 1     
   13    4   29 1     
   14    5    6 am    
   15    5   30 1     
   16    6    7 2     
   17    6    8 am    
   18    8    9 1     
   19    8   31 1     
   20    9   20 ar    
   21    9   10 ar    
   22   10   11 ar    
   23   10   32 1     
   24   11   12 ar    
   25   11   33 1     
   26   12   13 1     
   27   12   19 ar    
   28   13   18 1     
   29   13   14 1     
   30   14   15 1     
   31   14   34 1     
   32   14   35 1     
   33   15   16 1     
   34   15   36 1     
   35   15   37 1     
   36   16   17 1     
   37   17   18 1     
   38   17   38 1     
   39   17   39 1     
   40   18   40 1     
   41   18   41 1     
   42   19   20 ar    
   43   20   42 1     
   44    7   43 1     
   45    7   44 1     
   46   13   45 1     
   47   16   46 1     
   48   16   47 1     
   49   19   48 1     
@<TRIPOS>SUBSTRUCTURE
      1 S1             1
@<TRIPOS>SET
LONE_PAIRS      STATIC     ATOMS    <user>   **** ""
6 43 44 45 46 47 48
DONOR_HYDROGENS      STATIC     ATOMS    <user>   **** ""
2 30 31
ATOM$BLUE        STATIC     ATOMS    COLORGROUP SYSTEM
6 43 44 45 46 47 48
ATOM$RED        STATIC     ATOMS    COLORGROUP SYSTEM
2 30 31
