AV-unprocessed.smi:3253|AV-procd|sdf|12445|dock3
  -GOLD-   2272018343D 1   1.00000     0.00000
 Structure written by MMmdl.
 37 38  0  0  0  0  0  0  0  0  2 V2000
  146.0799  128.5416  152.7053 C   0  0  0  0  0  0  0  0  0  0  0  0
  146.0261  130.0536  152.4171 C   0  0  2  0  0  0  0  0  0  0  0  0
  145.5113  130.3813  151.0012 C   0  0  0  0  0  0  0  0  0  0  0  0
  145.0614  131.7695  150.8605 N   0  0  0  0  0  0  0  0  0  0  0  0
  145.8361  132.9013  150.8550 C   0  0  0  0  0  0  0  0  0  0  0  0
  144.9788  133.9604  150.7020 C   0  0  0  0  0  0  0  0  0  0  0  0
  143.7184  133.4312  150.6239 N   0  3  0  0  0  0  0  0  0  0  0  0
  143.7705  132.0989  150.7236 C   0  0  0  0  0  0  0  0  0  0  0  0
  147.3474  130.6496  152.5950 N   0  0  0  0  0  0  0  0  0  0  0  0
  148.0383  130.6780  153.7455 C   0  0  0  0  0  0  0  0  0  0  0  0
  147.6203  130.1894  154.7958 O   0  0  0  0  0  0  0  0  0  0  0  0
  149.4127  131.3646  153.7038 C   0  0  2  0  0  0  0  0  0  0  0  0
  150.1988  131.1331  155.0106 C   0  0  0  0  0  0  0  0  0  0  0  0
  150.2705  132.5111  155.6472 C   0  0  0  0  0  0  0  0  0  0  0  0
  150.7484  132.7077  156.7634 O   0  0  0  0  0  0  0  0  0  0  0  0
  149.7459  133.4378  154.8410 N   0  0  0  0  0  0  0  0  0  0  0  0
  149.6355  134.8595  155.1375 C   0  0  0  0  0  0  0  0  0  0  0  0
  149.3015  132.8995  153.5669 C   0  0  0  0  0  0  0  0  0  0  0  0
  145.0912  128.0870  152.6439 H   0  0  0  0  0  0  0  0  0  0  0  0
  146.4608  128.3433  153.7077 H   0  0  0  0  0  0  0  0  0  0  0  0
  146.7284  128.0262  151.9962 H   0  0  0  0  0  0  0  0  0  0  0  0
  145.3413  130.5119  153.1332 H   0  0  0  0  0  0  0  0  0  0  0  0
  146.2923  130.2095  150.2586 H   0  0  0  0  0  0  0  0  0  0  0  0
  144.6753  129.7317  150.7373 H   0  0  0  0  0  0  0  0  0  0  0  0
  146.9116  132.8703  150.9549 H   0  0  0  0  0  0  0  0  0  0  0  0
  145.1663  135.0230  150.6449 H   0  0  0  0  0  0  0  0  0  0  0  0
  142.9346  131.4227  150.6954 H   0  0  0  0  0  0  0  0  0  0  0  0
  147.7700  131.0733  151.7815 H   0  0  0  0  0  0  0  0  0  0  0  0
  149.9814  130.9684  152.8604 H   0  0  0  0  0  0  0  0  0  0  0  0
  149.7228  130.4240  155.6901 H   0  0  0  0  0  0  0  0  0  0  0  0
  151.2081  130.7757  154.8041 H   0  0  0  0  0  0  0  0  0  0  0  0
  150.6167  135.2844  155.3514 H   0  0  0  0  0  0  0  0  0  0  0  0
  148.9952  135.0188  156.0056 H   0  0  0  0  0  0  0  0  0  0  0  0
  149.2070  135.4041  154.2958 H   0  0  0  0  0  0  0  0  0  0  0  0
  149.9542  133.2662  152.7733 H   0  0  0  0  0  0  0  0  0  0  0  0
  148.2886  133.2385  153.3420 H   0  0  0  0  0  0  0  0  0  0  0  0
  142.8678  133.9680  150.5080 H   0  0  0  0  0  0  0  0  0  0  0  0
  1  2  1  0  0  0  0
  1 19  1  0  0  0  0
  1 20  1  0  0  0  0
  1 21  1  0  0  0  0
  2  3  1  0  0  0  0
  2  9  1  0  0  0  0
  2 22  1  0  0  0  0
  3  4  1  0  0  0  0
  3 23  1  0  0  0  0
  3 24  1  0  0  0  0
  4  8  1  0  0  0  0
  4  5  1  0  0  0  0
  5  6  2  0  0  0  0
  5 25  1  0  0  0  0
  6  7  1  0  0  0  0
  6 26  1  0  0  0  0
  7  8  2  0  0  0  0
  7 37  1  0  0  0  0
  8 27  1  0  0  0  0
  9 10  1  0  0  0  0
  9 28  1  0  0  0  0
 10 11  2  0  0  0  0
 10 12  1  0  0  0  0
 12 18  1  0  0  0  0
 12 13  1  0  0  0  0
 12 29  1  0  0  0  0
 13 14  1  0  0  0  0
 13 30  1  0  0  0  0
 13 31  1  0  0  0  0
 14 15  2  0  0  0  0
 14 16  1  0  0  0  0
 16 17  1  0  0  0  0
 16 18  1  0  0  0  0
 17 32  1  0  0  0  0
 17 33  1  0  0  0  0
 17 34  1  0  0  0  0
 18 35  1  0  0  0  0
 18 36  1  0  0  0  0
M  CHG  1   7   1
M  END
> <s_m_source_file>
AV-unprocessed.smi

> <i_m_source_file_index>
3253

> <i_lp_mmshare_version>
43012

> <i_f3d_flags>
0

> <s_epik_input>
W2NIXTFuW2NIXVtjSF1uMVtDSDJdW0NAQEhdKFtDSDNdKVtOSF1DKD1PKVtDQEBIXTJbQ0gyXUMoPU8pTihbQ0gzXSlbQ0gyXTI=

> <s_epik_cmdline>
J2VwaWtfcHl0aG9uJywgJy1waCcsICc3LjAnLCAnLXRuJywgJzgnLCAnLW1hJywgJzIwMCcsICctbWV0YWxfYmluZGluZycsICctaW1hZScsICc8aW5maWxlLm1hZT4nLCAnLW9tYWUnLCAnPG91dGZpbGUubWFlPic=

> <r_lp_tautomer_probability>
1

> <r_epik_Ionization_Penalty>
0.251561

> <r_epik_Ionization_Penalty_Charging>
0

> <r_epik_Ionization_Penalty_Neutral>
0.251561

> <r_epik_State_Penalty>
0.242926

> <r_epik_Charging_Adjusted_Penalty>
0.242926

> <i_epik_Tot_Q>
1

> <i_epik_Tot_abs_Q>
1

> <r_epik_Metal_State_Penalty>
0.533885

> <b_epik_Metal_Only>
0

> <s_lp_Force_Field>
OPLS_2005

> <r_lp_Energy>
15.657

> <b_lp_Chiralities_Consistent>
1

> <s_lp_Variant>
AV-unprocessed.smi:3253-1

> <Gold.Version>
5.8.1

> <Gold.Id.Protein>
6NUR|6NUR_protein|mol2

> <Gold.PLP.Fitness>
46.4679

> <Gold.PLP.PLP>
-35.0146

> <Gold.PLP.part.hbond>
-2.0000

> <Gold.PLP.part.metal>
0.0000

> <Gold.PLP.part.buried>
-5.5856

> <Gold.PLP.part.nonpolar>
-28.0289

> <Gold.PLP.part.repulsive>
0.0727

> <Gold.PLP.ligand.clash>
0.0000

> <Gold.PLP.ligand.torsion>
0.4569

> <Gold.PLP.Chemscore.Hbond>
2.9745

> <Gold.PLP.Chemscore.CHOScore>
1.1374

> <Gold.PLP.Chemscore.Metal>
0.0000

> <Gold.Chemscore.Hbonds>
donor molecule, donor type, donor heavy atom, donor atom, acceptor molecule, acceptor atom, score
      L1  H     7    37       P1 10186  1.46
      L1  H     9    28       P1 10747  0.93
      L1  C     8    27       P1 10952  0.77

> <Gold.PLP.Chemscore.Internal.Correction>
0.0316

> <Gold.Rescore>
     Score         DG    S(hbond)    S(metal)    S(lipo)     H(rot)  DE(clash)    DE(int)     intcor
     12.88     -15.01       1.97        0.00      69.83       2.03       1.42       0.71       ----

> <Gold.Chemscore.Fitness>
12.8816

> <Gold.Chemscore.DG>
-15.0082

> <Gold.Chemscore.ZeroCoef>
-5.4800

> <Gold.Chemscore.Hbond>
1.9658

> <Gold.Chemscore.Metal>
0.0000

> <Gold.Chemscore.Lipo>
69.8265

> <Gold.Chemscore.Internal_Hbond>
0.0000

> <Gold.Chemscore.DEClash>
1.4167

> <Gold.Chemscore.DEInternal>
0.7099

> <Gold.Chemscore.Rot>
2.0341

> <Gold.Chemscore.Internal.Correction>
   9.000000E+99

> <Gold.Chemscore.Hbonds>
donor molecule, donor type, donor heavy atom, donor atom, acceptor molecule, acceptor atom, score
      L1  H     7    37       P1 10186  0.64
      L1  H     9    28       P1 10747  0.89

> <Gold.Chemscore.Hbond.Weighted>
-6.5657

> <Gold.Chemscore.Metal.Weighted>
-0.0000

> <Gold.Chemscore.Lipo.Weighted>
-8.1697

> <Gold.Chemscore.Internal_Hbond.Weighted>
0.0000

> <Gold.Chemscore.DEClash.Weighted>
1.4167

> <Gold.Chemscore.DEInternal.Weighted>
0.7099

> <Gold.Chemscore.Rot.Weighted>
5.2072

> <Gold.Chemscore.Internal.Correction.Weighted>
   9.000000E+99

> <Gold.Protein.RotatedTorsions>
[ 6907 6896 6895 6894 ] final -179.28 input  -60.11 | X-H torsion
[ 7974 7965 7964 7962 ] final -161.55 input  175.53 | X-H torsion
[ 8008 7997 7996 7995 ] final   11.75 input   59.86 | X-H torsion
[ 10167 10162 10161 10158 ] final -116.38 input  -65.29 | X-H torsion
[ 10718 10713 10712 10709 ] final   79.22 input   66.30 | X-H torsion
[ 10763 10752 10751 10750 ] final   48.02 input  -60.55 | X-H torsion
[ 11005 11000 10999 10996 ] final -119.88 input  -57.11 | X-H torsion

> <Gold.Protein.ActiveResidues>
 VAL166  LYS551  ARG553  GLY616  TRP617  ASP618  TYR619  PRO620  LYS621  CYS622 
 ASP623  PHE694  ASN695  SER759  ASP760  ASP761  ALA762  ILE779  LEU786  VAL792 
 PHE793  MET794  SER795  GLU796  ALA797  LYS798  CYS799  TRP800  GLU811  SER814 

> <Gold.Protein.RotatedAtoms>
  151.6509  133.3321  159.3151 H   0  0  0  0  0  0  0  0  0  0  0  0  # atno 6907 bound_to 6896
  150.7961  134.7025  159.6567 H   0  0  0  0  0  0  0  0  0  0  0  0  # atno 6908 bound_to 6896
  152.4048  134.6230  160.0107 H   0  0  0  0  0  0  0  0  0  0  0  0  # atno 6909 bound_to 6896
  144.7387  140.3382  143.6140 H   0  0  0  0  0  0  0  0  0  0  0  0  # atno 7974 bound_to 7965
  154.8112  140.2868  155.5852 H   0  0  0  0  0  0  0  0  0  0  0  0  # atno 8008 bound_to 7997
  156.2988  140.2568  156.2930 H   0  0  0  0  0  0  0  0  0  0  0  0  # atno 8009 bound_to 7997
  154.9445  140.0380  157.2103 H   0  0  0  0  0  0  0  0  0  0  0  0  # atno 8010 bound_to 7997
  140.0798  143.4798  152.1932 H   0  0  0  0  0  0  0  0  0  0  0  0  # atno 10167 bound_to 10162
  157.6770  130.9904  150.1901 H   0  0  0  0  0  0  0  0  0  0  0  0  # atno 10718 bound_to 10713
  152.9795  135.5958  154.3857 H   0  0  0  0  0  0  0  0  0  0  0  0  # atno 10763 bound_to 10752
  154.3517  135.2767  155.2370 H   0  0  0  0  0  0  0  0  0  0  0  0  # atno 10764 bound_to 10752
  154.4406  135.6014  153.6182 H   0  0  0  0  0  0  0  0  0  0  0  0  # atno 10765 bound_to 10752
  141.0184  134.0161  157.3317 H   0  0  0  0  0  0  0  0  0  0  0  0  # atno 11005 bound_to 11000
  145.7402  139.1762  143.2380 LP  0  0  0  0  0  0  0  0  0  0  0  0  # atno 17320 bound_to 7965
  146.1140  140.7393  142.9489 LP  0  0  0  0  0  0  0  0  0  0  0  0  # atno 17321 bound_to 7965
  139.5786  144.7500  151.3699 LP  0  0  0  0  0  0  0  0  0  0  0  0  # atno 17342 bound_to 10162
  140.7083  143.7456  150.7522 LP  0  0  0  0  0  0  0  0  0  0  0  0  # atno 17343 bound_to 10162
  156.2614  130.3711  149.8126 LP  0  0  0  0  0  0  0  0  0  0  0  0  # atno 17370 bound_to 10713
  156.5870  130.8490  151.3398 LP  0  0  0  0  0  0  0  0  0  0  0  0  # atno 17371 bound_to 10713
  139.9131  135.0193  156.7772 LP  0  0  0  0  0  0  0  0  0  0  0  0  # atno 17394 bound_to 11000
  140.6616  133.9640  155.7807 LP  0  0  0  0  0  0  0  0  0  0  0  0  # atno 17395 bound_to 11000

$$$$
