AV-unprocessed.smi:3154|AV-procd|sdf|12024|dock4
  -GOLD-   2272017443D 1   1.00000     0.00000
 Structure written by MMmdl.
 34 35  0  0  0  0  0  0  0  0  1 V2000
  147.6472  131.9577  153.3714 C   0  0  0  0  0  0  0  0  0  0  0  0
  147.5742  133.4124  152.8755 C   0  0  1  0  0  0  0  0  0  0  0  0
  146.1221  133.8854  152.6210 C   0  0  0  0  0  0  0  0  0  0  0  0
  145.5274  133.2821  151.4416 N   0  0  0  0  0  0  0  0  0  0  0  0
  146.0906  132.3820  150.5615 C   0  0  0  0  0  0  0  0  0  0  0  0
  145.1484  132.0940  149.6160 C   0  0  0  0  0  0  0  0  0  0  0  0
  144.0241  132.8710  150.0120 C   0  0  0  0  0  0  0  0  0  0  0  0
  144.2522  133.5772  151.1075 N   0  0  0  0  0  0  0  0  0  0  0  0
  148.2261  134.2437  153.8829 N   0  0  0  0  0  0  0  0  0  0  0  0
  149.6171  133.8464  154.1365 C   0  0  0  0  0  0  0  0  0  0  0  0
  150.3736  134.9399  154.8867 C   0  0  0  0  0  0  0  0  0  0  0  0
  150.9417  134.6792  155.9470 O   0  0  0  0  0  0  0  0  0  0  0  0
  150.3732  136.1565  154.3218 N   0  0  0  0  0  0  0  0  0  0  0  0
  151.0182  137.3157  154.8475 C   0  0  0  0  0  0  0  0  0  0  0  0
  150.7792  138.6332  154.1425 C   0  0  0  0  0  0  0  0  0  0  0  0
  152.1121  137.9486  154.0146 C   0  0  0  0  0  0  0  0  0  0  0  0
  147.2587  131.2619  152.6275 H   0  0  0  0  0  0  0  0  0  0  0  0
  147.0710  131.8203  154.2872 H   0  0  0  0  0  0  0  0  0  0  0  0
  148.6765  131.6618  153.5774 H   0  0  0  0  0  0  0  0  0  0  0  0
  148.1445  133.4693  151.9469 H   0  0  0  0  0  0  0  0  0  0  0  0
  145.4938  133.6450  153.4799 H   0  0  0  0  0  0  0  0  0  0  0  0
  146.0745  134.9667  152.4945 H   0  0  0  0  0  0  0  0  0  0  0  0
  147.1041  132.0276  150.6783 H   0  0  0  0  0  0  0  0  0  0  0  0
  145.2463  131.4282  148.7712 H   0  0  0  0  0  0  0  0  0  0  0  0
  143.0550  132.9412  149.5404 H   0  0  0  0  0  0  0  0  0  0  0  0
  147.6830  134.1940  154.7327 H   0  0  0  0  0  0  0  0  0  0  0  0
  149.6430  132.9248  154.7202 H   0  0  0  0  0  0  0  0  0  0  0  0
  150.1365  133.6501  153.1990 H   0  0  0  0  0  0  0  0  0  0  0  0
  149.8767  136.2696  153.4499 H   0  0  0  0  0  0  0  0  0  0  0  0
  151.1489  137.3691  155.9274 H   0  0  0  0  0  0  0  0  0  0  0  0
  150.1293  138.6339  153.2695 H   0  0  0  0  0  0  0  0  0  0  0  0
  150.7318  139.5292  154.7581 H   0  0  0  0  0  0  0  0  0  0  0  0
  152.9552  138.3876  154.5444 H   0  0  0  0  0  0  0  0  0  0  0  0
  152.3519  137.4919  153.0562 H   0  0  0  0  0  0  0  0  0  0  0  0
  1  2  1  0  0  0  0
  1 17  1  0  0  0  0
  1 18  1  0  0  0  0
  1 19  1  0  0  0  0
  2  3  1  0  0  0  0
  2  9  1  0  0  0  0
  2 20  1  0  0  0  0
  3  4  1  0  0  0  0
  3 21  1  0  0  0  0
  3 22  1  0  0  0  0
  4  8  1  0  0  0  0
  4  5  1  0  0  0  0
  5  6  2  0  0  0  0
  5 23  1  0  0  0  0
  6  7  1  0  0  0  0
  6 24  1  0  0  0  0
  7  8  2  0  0  0  0
  7 25  1  0  0  0  0
  9 10  1  0  0  0  0
  9 26  1  0  0  0  0
 10 11  1  0  0  0  0
 10 27  1  0  0  0  0
 10 28  1  0  0  0  0
 11 12  2  0  0  0  0
 11 13  1  0  0  0  0
 13 14  1  0  0  0  0
 13 29  1  0  0  0  0
 14 16  1  0  0  0  0
 14 15  1  0  0  0  0
 14 30  1  0  0  0  0
 15 16  1  0  0  0  0
 15 31  1  0  0  0  0
 15 32  1  0  0  0  0
 16 33  1  0  0  0  0
 16 34  1  0  0  0  0
M  END
> <s_m_source_file>
AV-unprocessed.smi

> <i_m_source_file_index>
3154

> <i_lp_mmshare_version>
43012

> <i_f3d_flags>
0

> <s_epik_input>
bjFbY0hdW2NIXVtjSF1uMVtDSDJdW0NAQEhdKFtDSDNdKVtOSF1bQ0gyXUMoPU8pW05IXVtDSF0yW0NIMl1bQ0gyXTI=

> <s_epik_cmdline>
J2VwaWtfcHl0aG9uJywgJy1waCcsICc3LjAnLCAnLXRuJywgJzgnLCAnLW1hJywgJzIwMCcsICctbWV0YWxfYmluZGluZycsICctaW1hZScsICc8aW5maWxlLm1hZT4nLCAnLW9tYWUnLCAnPG91dGZpbGUubWFlPic=

> <r_lp_tautomer_probability>
1

> <r_epik_Ionization_Penalty>
1.00229

> <r_epik_Ionization_Penalty_Charging>
0

> <r_epik_Ionization_Penalty_Neutral>
1.00229

> <r_epik_State_Penalty>
1.0509

> <r_epik_Charging_Adjusted_Penalty>
1.0509

> <i_epik_Tot_Q>
0

> <i_epik_Tot_abs_Q>
0

> <r_epik_Metal_State_Penalty>
1.05084

> <b_epik_Metal_Only>
0

> <s_lp_Force_Field>
OPLS_2005

> <r_lp_Energy>
18.1237

> <b_lp_Chiralities_Consistent>
1

> <s_lp_Variant>
AV-unprocessed.smi:3154-4

> <Gold.Version>
5.8.1

> <Gold.Id.Protein>
6NUR|6NUR_protein|mol2

> <Gold.PLP.Fitness>
41.9573

> <Gold.PLP.PLP>
-33.2127

> <Gold.PLP.part.hbond>
-2.8733

> <Gold.PLP.part.metal>
0.0000

> <Gold.PLP.part.buried>
-3.3893

> <Gold.PLP.part.nonpolar>
-26.5434

> <Gold.PLP.part.repulsive>
0.2385

> <Gold.PLP.ligand.clash>
0.0000

> <Gold.PLP.ligand.torsion>
0.1808

> <Gold.PLP.Chemscore.Hbond>
1.0000

> <Gold.PLP.Chemscore.CHOScore>
2.0000

> <Gold.PLP.Chemscore.Metal>
0.0000

> <Gold.Chemscore.Hbonds>
donor molecule, donor type, donor heavy atom, donor atom, acceptor molecule, acceptor atom, score
      L1  H    13    29       P1  7948  0.80
      L1  C     5    23       P1 10747  1.00
      L1  C     7    25       P1 10186  1.00

> <Gold.PLP.Chemscore.Internal.Correction>
0.1061

> <Gold.Rescore>
     Score         DG    S(hbond)    S(metal)    S(lipo)     H(rot)  DE(clash)    DE(int)     intcor
     11.22     -11.58       0.87        0.00      73.78       2.12       0.17       0.18       ----

> <Gold.Chemscore.Fitness>
11.2240

> <Gold.Chemscore.DG>
-11.5774

> <Gold.Chemscore.ZeroCoef>
-5.4800

> <Gold.Chemscore.Hbond>
0.8678

> <Gold.Chemscore.Metal>
0.0000

> <Gold.Chemscore.Lipo>
73.7845

> <Gold.Chemscore.Internal_Hbond>
0.0000

> <Gold.Chemscore.DEClash>
0.1728

> <Gold.Chemscore.DEInternal>
0.1806

> <Gold.Chemscore.Rot>
2.1225

> <Gold.Chemscore.Internal.Correction>
   9.000000E+99

> <Gold.Chemscore.Hbonds>
donor molecule, donor type, donor heavy atom, donor atom, acceptor molecule, acceptor atom, score
      L1  H    13    29       P1  7948  0.12

> <Gold.Chemscore.Hbond.Weighted>
-2.8983

> <Gold.Chemscore.Metal.Weighted>
-0.0000

> <Gold.Chemscore.Lipo.Weighted>
-8.6328

> <Gold.Chemscore.Internal_Hbond.Weighted>
0.0000

> <Gold.Chemscore.DEClash.Weighted>
0.1728

> <Gold.Chemscore.DEInternal.Weighted>
0.1806

> <Gold.Chemscore.Rot.Weighted>
5.4337

> <Gold.Chemscore.Internal.Correction.Weighted>
   9.000000E+99

> <Gold.Protein.RotatedTorsions>
[ 6907 6896 6895 6894 ] final  -10.55 input  -60.11 | X-H torsion
[ 7974 7965 7964 7962 ] final   42.68 input  175.53 | X-H torsion
[ 8008 7997 7996 7995 ] final -145.87 input   59.86 | X-H torsion
[ 10167 10162 10161 10158 ] final  175.02 input  -65.29 | X-H torsion
[ 10718 10713 10712 10709 ] final  -75.95 input   66.30 | X-H torsion
[ 10763 10752 10751 10750 ] final  -66.00 input  -60.55 | X-H torsion
[ 11005 11000 10999 10996 ] final  144.09 input  -57.11 | X-H torsion

> <Gold.Protein.ActiveResidues>
 VAL166  LYS551  ARG553  GLY616  TRP617  ASP618  TYR619  PRO620  LYS621  CYS622 
 ASP623  PHE694  ASN695  SER759  ASP760  ASP761  ALA762  ILE779  LEU786  VAL792 
 PHE793  MET794  SER795  GLU796  ALA797  LYS798  CYS799  TRP800  GLU811  SER814 

> <Gold.Protein.RotatedAtoms>
  151.4001  135.0969  159.9552 H   0  0  0  0  0  0  0  0  0  0  0  0  # atno 6907 bound_to 6896
  152.5053  133.8896  159.7398 H   0  0  0  0  0  0  0  0  0  0  0  0  # atno 6908 bound_to 6896
  150.9368  133.6646  159.2827 H   0  0  0  0  0  0  0  0  0  0  0  0  # atno 6909 bound_to 6896
  146.0720  139.5273  142.9592 H   0  0  0  0  0  0  0  0  0  0  0  0  # atno 7974 bound_to 7965
  155.5501  140.0616  157.2851 H   0  0  0  0  0  0  0  0  0  0  0  0  # atno 8008 bound_to 7997
  154.4423  140.1904  156.0723 H   0  0  0  0  0  0  0  0  0  0  0  0  # atno 8009 bound_to 7997
  156.0522  140.3283  155.7368 H   0  0  0  0  0  0  0  0  0  0  0  0  # atno 8010 bound_to 7997
  139.5162  144.3079  152.0318 H   0  0  0  0  0  0  0  0  0  0  0  0  # atno 10167 bound_to 10162
  156.0190  130.4453  150.3121 H   0  0  0  0  0  0  0  0  0  0  0  0  # atno 10718 bound_to 10713
  154.3534  135.6131  153.5654 H   0  0  0  0  0  0  0  0  0  0  0  0  # atno 10763 bound_to 10752
  152.9797  135.5798  154.4717 H   0  0  0  0  0  0  0  0  0  0  0  0  # atno 10764 bound_to 10752
  154.4442  135.2851  155.1804 H   0  0  0  0  0  0  0  0  0  0  0  0  # atno 10765 bound_to 10752
  140.0605  134.9207  157.1175 H   0  0  0  0  0  0  0  0  0  0  0  0  # atno 11005 bound_to 11000
  145.6375  141.0291  143.1830 LP  0  0  0  0  0  0  0  0  0  0  0  0  # atno 17320 bound_to 7965
  144.7237  139.7944  143.7372 LP  0  0  0  0  0  0  0  0  0  0  0  0  # atno 17321 bound_to 7965
  140.2525  144.4154  150.6216 LP  0  0  0  0  0  0  0  0  0  0  0  0  # atno 17342 bound_to 10162
  140.6215  143.2177  151.6685 LP  0  0  0  0  0  0  0  0  0  0  0  0  # atno 17343 bound_to 10162
  157.1222  131.0250  151.3004 LP  0  0  0  0  0  0  0  0  0  0  0  0  # atno 17370 bound_to 10713
  157.4618  130.7658  149.7243 LP  0  0  0  0  0  0  0  0  0  0  0  0  # atno 17371 bound_to 10713
  140.3778  134.2320  155.7173 LP  0  0  0  0  0  0  0  0  0  0  0  0  # atno 17394 bound_to 11000
  141.1971  133.8067  157.0643 LP  0  0  0  0  0  0  0  0  0  0  0  0  # atno 17395 bound_to 11000

$$$$
