AV-unprocessed.smi:2473|AV-procd|sdf|9744|dock8
  -GOLD-   2272013383D 1   1.00000     0.00000
 Structure written by MMmdl.
 48 49  0  0  0  0  0  0  0  0  2 V2000
  154.0000  141.4153  160.8512 C   0  0  0  0  0  0  0  0  0  0  0  0
  153.2696  142.1171  159.6973 C   0  0  1  0  0  0  0  0  0  0  0  0
  152.3895  141.1292  158.9129 C   0  0  0  0  0  0  0  0  0  0  0  0
  151.6573  141.8243  157.7492 C   0  0  1  0  0  0  0  0  0  0  0  0
  150.7876  140.8149  156.9886 C   0  0  0  0  0  0  0  0  0  0  0  0
  149.8491  140.2497  157.5505 O   0  0  0  0  0  0  0  0  0  0  0  0
  151.1267  140.5782  155.7124 N   0  0  0  0  0  0  0  0  0  0  0  0
  150.4783  139.6061  154.8378 C   0  0  0  0  0  0  0  0  0  0  0  0
  151.4203  138.4624  154.4091 C   0  0  0  0  0  0  0  0  0  0  0  0
  151.0009  137.1076  154.9028 C   0  0  0  0  0  0  0  0  0  0  0  0
  150.1058  136.3137  154.3027 N   0  3  0  0  0  0  0  0  0  0  0  0
  149.9589  135.1457  154.9993 C   0  0  0  0  0  0  0  0  0  0  0  0
  150.8007  135.2298  156.0769 C   0  0  0  0  0  0  0  0  0  0  0  0
  151.4258  136.4476  155.9946 N   0  0  0  0  0  0  0  0  0  0  0  0
  152.4094  136.9802  156.9400 C   0  0  0  0  0  0  0  0  0  0  0  0
  150.8156  143.0092  158.2751 C   0  0  0  0  0  0  0  0  0  0  0  0
  151.6395  144.0376  159.0895 C   0  0  0  0  0  0  0  0  0  0  0  0
  152.5942  144.8340  158.1730 C   0  0  0  0  0  0  0  0  0  0  0  0
  150.6706  145.0428  159.7428 C   0  0  0  0  0  0  0  0  0  0  0  0
  152.4244  143.3035  160.2062 C   0  0  0  0  0  0  0  0  0  0  0  0
  153.2962  140.9973  161.5715 H   0  0  0  0  0  0  0  0  0  0  0  0
  154.6491  142.1099  161.3850 H   0  0  0  0  0  0  0  0  0  0  0  0
  154.6235  140.5998  160.4834 H   0  0  0  0  0  0  0  0  0  0  0  0
  154.0353  142.4995  159.0222 H   0  0  0  0  0  0  0  0  0  0  0  0
  153.0081  140.3170  158.5279 H   0  0  0  0  0  0  0  0  0  0  0  0
  151.6657  140.6710  159.5894 H   0  0  0  0  0  0  0  0  0  0  0  0
  152.4045  142.2088  157.0541 H   0  0  0  0  0  0  0  0  0  0  0  0
  151.9045  141.0943  155.3269 H   0  0  0  0  0  0  0  0  0  0  0  0
  149.5833  139.2046  155.3155 H   0  0  0  0  0  0  0  0  0  0  0  0
  150.1389  140.1459  153.9533 H   0  0  0  0  0  0  0  0  0  0  0  0
  151.4981  138.4189  153.3234 H   0  0  0  0  0  0  0  0  0  0  0  0
  152.4275  138.6372  154.7884 H   0  0  0  0  0  0  0  0  0  0  0  0
  149.2837  134.3633  154.6849 H   0  0  0  0  0  0  0  0  0  0  0  0
  150.9938  134.5311  156.8781 H   0  0  0  0  0  0  0  0  0  0  0  0
  152.6332  136.2284  157.6972 H   0  0  0  0  0  0  0  0  0  0  0  0
  152.0005  137.8681  157.4226 H   0  0  0  0  0  0  0  0  0  0  0  0
  153.3259  137.2362  156.4102 H   0  0  0  0  0  0  0  0  0  0  0  0
  150.3200  143.5100  157.4420 H   0  0  0  0  0  0  0  0  0  0  0  0
  150.0150  142.6226  158.9083 H   0  0  0  0  0  0  0  0  0  0  0  0
  153.1543  145.5780  158.7403 H   0  0  0  0  0  0  0  0  0  0  0  0
  152.0420  145.3653  157.3969 H   0  0  0  0  0  0  0  0  0  0  0  0
  153.3234  144.2001  157.6708 H   0  0  0  0  0  0  0  0  0  0  0  0
  151.2074  145.7879  160.3312 H   0  0  0  0  0  0  0  0  0  0  0  0
  149.9670  144.5450  160.4110 H   0  0  0  0  0  0  0  0  0  0  0  0
  150.0859  145.5761  158.9926 H   0  0  0  0  0  0  0  0  0  0  0  0
  151.7200  142.9291  160.9509 H   0  0  0  0  0  0  0  0  0  0  0  0
  153.0652  144.0117  160.7335 H   0  0  0  0  0  0  0  0  0  0  0  0
  149.6093  136.5473  153.4521 H   0  0  0  0  0  0  0  0  0  0  0  0
  1  2  1  0  0  0  0
  1 21  1  0  0  0  0
  1 22  1  0  0  0  0
  1 23  1  0  0  0  0
  2 20  1  0  0  0  0
  2  3  1  0  0  0  0
  2 24  1  0  0  0  0
  3  4  1  0  0  0  0
  3 25  1  0  0  0  0
  3 26  1  0  0  0  0
  4  5  1  0  0  0  0
  4 16  1  0  0  0  0
  4 27  1  0  0  0  0
  5  6  2  0  0  0  0
  5  7  1  0  0  0  0
  7  8  1  0  0  0  0
  7 28  1  0  0  0  0
  8  9  1  0  0  0  0
  8 29  1  0  0  0  0
  8 30  1  0  0  0  0
  9 10  1  0  0  0  0
  9 31  1  0  0  0  0
  9 32  1  0  0  0  0
 10 14  1  0  0  0  0
 10 11  2  0  0  0  0
 11 12  1  0  0  0  0
 11 48  1  0  0  0  0
 12 13  2  0  0  0  0
 12 33  1  0  0  0  0
 13 14  1  0  0  0  0
 13 34  1  0  0  0  0
 14 15  1  0  0  0  0
 15 35  1  0  0  0  0
 15 36  1  0  0  0  0
 15 37  1  0  0  0  0
 16 17  1  0  0  0  0
 16 38  1  0  0  0  0
 16 39  1  0  0  0  0
 17 18  1  0  0  0  0
 17 19  1  0  0  0  0
 17 20  1  0  0  0  0
 18 40  1  0  0  0  0
 18 41  1  0  0  0  0
 18 42  1  0  0  0  0
 19 43  1  0  0  0  0
 19 44  1  0  0  0  0
 19 45  1  0  0  0  0
 20 46  1  0  0  0  0
 20 47  1  0  0  0  0
M  CHG  1  11   1
M  END
> <s_m_source_file>
AV-unprocessed.smi

> <i_m_source_file_index>
2473

> <i_lp_mmshare_version>
43012

> <i_f3d_flags>
0

> <s_epik_input>
W0NIM11bQ0BASF0oW0NIMl0xKVtDSDJdW0NASF0oW0NIMl1DMShbQ0gzXSlbQ0gzXSlDKD1PKVtOSF1bQ0gyXVtDSDJdYzJuW2NIXVtjSF1uMltDSDNd

> <s_epik_cmdline>
J2VwaWtfcHl0aG9uJywgJy1waCcsICc3LjAnLCAnLXRuJywgJzgnLCAnLW1hJywgJzIwMCcsICctbWV0YWxfYmluZGluZycsICctaW1hZScsICc8aW5maWxlLm1hZT4nLCAnLW9tYWUnLCAnPG91dGZpbGUubWFlPic=

> <r_lp_tautomer_probability>
1

> <r_epik_Ionization_Penalty>
0.0796112

> <r_epik_Ionization_Penalty_Charging>
0

> <r_epik_Ionization_Penalty_Neutral>
0.0796112

> <r_epik_State_Penalty>
0.0704541

> <r_epik_Charging_Adjusted_Penalty>
0.0704541

> <i_epik_Tot_Q>
1

> <i_epik_Tot_abs_Q>
1

> <r_epik_Metal_State_Penalty>
0.409899

> <b_epik_Metal_Only>
0

> <s_lp_Force_Field>
OPLS_2005

> <r_lp_Energy>
16.0975

> <b_lp_Chiralities_Consistent>
1

> <s_lp_Variant>
AV-unprocessed.smi:2473-2

> <Gold.Version>
5.8.1

> <Gold.Id.Protein>
6NUR|6NUR_protein|mol2

> <Gold.PLP.Fitness>
50.0227

> <Gold.PLP.PLP>
-45.4611

> <Gold.PLP.part.hbond>
-1.6198

> <Gold.PLP.part.metal>
0.0000

> <Gold.PLP.part.buried>
-6.1435

> <Gold.PLP.part.nonpolar>
-38.6919

> <Gold.PLP.part.repulsive>
0.1966

> <Gold.PLP.ligand.clash>
0.0000

> <Gold.PLP.ligand.torsion>
0.7315

> <Gold.PLP.Chemscore.Hbond>
2.0000

> <Gold.PLP.Chemscore.CHOScore>
0.0000

> <Gold.PLP.Chemscore.Metal>
0.0000

> <Gold.Chemscore.Hbonds>
donor molecule, donor type, donor heavy atom, donor atom, acceptor molecule, acceptor atom, score
      L1  H    11    48       P1  7948  2.00

> <Gold.PLP.Chemscore.Internal.Correction>
0.0246

> <Gold.Rescore>
     Score         DG    S(hbond)    S(metal)    S(lipo)     H(rot)  DE(clash)    DE(int)     intcor
     18.30     -19.07       0.90        0.00     125.06       1.58       0.01       0.76       ----

> <Gold.Chemscore.Fitness>
18.2979

> <Gold.Chemscore.DG>
-19.0686

> <Gold.Chemscore.ZeroCoef>
-5.4800

> <Gold.Chemscore.Hbond>
0.9001

> <Gold.Chemscore.Metal>
0.0000

> <Gold.Chemscore.Lipo>
125.0591

> <Gold.Chemscore.Internal_Hbond>
0.0000

> <Gold.Chemscore.DEClash>
0.0077

> <Gold.Chemscore.DEInternal>
0.7630

> <Gold.Chemscore.Rot>
1.5818

> <Gold.Chemscore.Internal.Correction>
   9.000000E+99

> <Gold.Chemscore.Hbonds>
donor molecule, donor type, donor heavy atom, donor atom, acceptor molecule, acceptor atom, score
      L1  H    11    48       P1  7948  0.54

> <Gold.Chemscore.Hbond.Weighted>
-3.0062

> <Gold.Chemscore.Metal.Weighted>
-0.0000

> <Gold.Chemscore.Lipo.Weighted>
-14.6319

> <Gold.Chemscore.Internal_Hbond.Weighted>
0.0000

> <Gold.Chemscore.DEClash.Weighted>
0.0077

> <Gold.Chemscore.DEInternal.Weighted>
0.7630

> <Gold.Chemscore.Rot.Weighted>
4.0495

> <Gold.Chemscore.Internal.Correction.Weighted>
   9.000000E+99

> <Gold.Protein.RotatedTorsions>
[ 6907 6896 6895 6894 ] final   -2.76 input  -60.11 | X-H torsion
[ 7974 7965 7964 7962 ] final -178.68 input  175.53 | X-H torsion
[ 8008 7997 7996 7995 ] final -161.18 input   59.86 | X-H torsion
[ 10167 10162 10161 10158 ] final -159.81 input  -65.29 | X-H torsion
[ 10718 10713 10712 10709 ] final  -47.97 input   66.30 | X-H torsion
[ 10763 10752 10751 10750 ] final -129.88 input  -60.55 | X-H torsion
[ 11005 11000 10999 10996 ] final  101.31 input  -57.11 | X-H torsion

> <Gold.Protein.ActiveResidues>
 VAL166  LYS551  ARG553  GLY616  TRP617  ASP618  TYR619  PRO620  LYS621  CYS622 
 ASP623  PHE694  ASN695  SER759  ASP760  ASP761  ALA762  ILE779  LEU786  VAL792 
 PHE793  MET794  SER795  GLU796  ALA797  LYS798  CYS799  TRP800  GLU811  SER814 

> <Gold.Protein.RotatedAtoms>
  151.5247  135.1067  159.9887 H   0  0  0  0  0  0  0  0  0  0  0  0  # atno 6907 bound_to 6896
  152.4605  133.7808  159.6860 H   0  0  0  0  0  0  0  0  0  0  0  0  # atno 6908 bound_to 6896
  150.8565  133.7643  159.3032 H   0  0  0  0  0  0  0  0  0  0  0  0  # atno 6909 bound_to 6896
  144.7132  140.0832  143.6424 H   0  0  0  0  0  0  0  0  0  0  0  0  # atno 7974 bound_to 7965
  155.7884  140.0875  157.2022 H   0  0  0  0  0  0  0  0  0  0  0  0  # atno 8008 bound_to 7997
  154.3986  140.1494  156.3192 H   0  0  0  0  0  0  0  0  0  0  0  0  # atno 8009 bound_to 7997
  155.8583  140.3431  155.5742 H   0  0  0  0  0  0  0  0  0  0  0  0  # atno 8010 bound_to 7997
  139.6586  143.9953  152.2211 H   0  0  0  0  0  0  0  0  0  0  0  0  # atno 10167 bound_to 10162
  156.2033  130.4157  149.9212 H   0  0  0  0  0  0  0  0  0  0  0  0  # atno 10718 bound_to 10713
  154.8757  135.3881  154.3992 H   0  0  0  0  0  0  0  0  0  0  0  0  # atno 10763 bound_to 10752
  153.4718  135.7030  153.5994 H   0  0  0  0  0  0  0  0  0  0  0  0  # atno 10764 bound_to 10752
  153.4448  135.3848  155.2217 H   0  0  0  0  0  0  0  0  0  0  0  0  # atno 10765 bound_to 10752
  139.8773  134.9178  156.4888 H   0  0  0  0  0  0  0  0  0  0  0  0  # atno 11005 bound_to 11000
  145.9684  139.2852  143.1113 LP  0  0  0  0  0  0  0  0  0  0  0  0  # atno 17320 bound_to 7965
  145.9143  140.9159  143.0438 LP  0  0  0  0  0  0  0  0  0  0  0  0  # atno 17321 bound_to 7965
  139.9686  144.6509  150.8011 LP  0  0  0  0  0  0  0  0  0  0  0  0  # atno 17342 bound_to 10162
  140.7570  143.3078  151.2920 LP  0  0  0  0  0  0  0  0  0  0  0  0  # atno 17343 bound_to 10162
  156.6914  130.8897  151.3588 LP  0  0  0  0  0  0  0  0  0  0  0  0  # atno 17370 bound_to 10713
  157.6998  130.9321  150.0751 LP  0  0  0  0  0  0  0  0  0  0  0  0  # atno 17371 bound_to 10713
  140.8673  133.8014  155.9328 LP  0  0  0  0  0  0  0  0  0  0  0  0  # atno 17394 bound_to 11000
  140.8988  134.2404  157.5053 LP  0  0  0  0  0  0  0  0  0  0  0  0  # atno 17395 bound_to 11000

$$$$
