#       Name:                AV-unprocessed.smi:99
#       Creating user name   scv26
#       Creation time:       Thu Mar 26 17:35:05 2020


#       File generated by GOLD software.
#

@<TRIPOS>MOLECULE
AV-unprocessed.smi:99
    65    68     1
SMALL
NO_CHARGES


@<TRIPOS>ATOM
      1 ****        -3.9753   0.5307   0.6270 O.2            1 S1                 0.0000
      2 ****        -3.3418   1.4747   0.1502 C.2            1 S1                 0.0000
      3 ****        -2.0173   1.4357  -0.0934 O.3            1 S1                 0.0000
      4 ****        -1.2710   0.2728   0.2242 C.3            1 S1                 0.0000
      5 ****         0.2038   0.5161  -0.1109 C.3            1 S1                 0.0000
      6 ****         0.7810   1.4167   0.8326 O.3            1 S1                 0.0000
      7 ****         2.1380   1.1259   1.0195 C.3            1 S1                 0.0000
      8 ****         2.3976   0.8883   2.4908 N.am           1 S1                 0.0000
      9 ****         1.4010   0.4380   3.3479 C.2            1 S1                 0.0000
     10 ****         1.6118   0.1992   4.6641 C.2            1 S1                 0.0000
     11 ****         2.9316   0.4034   5.2521 C.2            1 S1                 0.0000
     12 ****         3.2180   0.2176   6.4328 O.2            1 S1                 0.0000
     13 ****         3.9064   0.8414   4.3512 N.am           1 S1                 0.0000
     14 ****         3.7026   1.0869   2.9926 C.2            1 S1                 0.0000
     15 ****         4.6406   1.4518   2.2849 O.2            1 S1                 0.0000
     16 ****         2.4619  -0.1427   0.2168 C.3            1 S1                 0.0000
     17 ****         3.0694   0.1983  -1.0160 O.3            1 S1                 0.0000
     18 ****         1.0695  -0.7293   0.0356 C.3            1 S1                 0.0000
     19 ****         0.9778  -1.6348  -1.0584 O.3            1 S1                 0.0000
     20 ****         1.3417  -2.9273  -0.9119 C.2            1 S1                 0.0000
     21 ****         1.7664  -3.4014   0.1435 O.2            1 S1                 0.0000
     22 ****         1.1847  -3.7204  -2.1646 C.ar           1 S1                 0.0000
     23 ****         1.5378  -5.0900  -2.1653 C.ar           1 S1                 0.0000
     24 ****         1.4039  -5.8648  -3.3339 C.ar           1 S1                 0.0000
     25 ****         0.9153  -5.2792  -4.5161 C.ar           1 S1                 0.0000
     26 ****         0.5598  -3.9178  -4.5281 C.ar           1 S1                 0.0000
     27 ****         0.6927  -3.1413  -3.3603 C.ar           1 S1                 0.0000
     28 ****        -3.9613   2.7812  -0.2165 C.ar           1 S1                 0.0000
     29 ****        -5.3528   2.9633  -0.0385 C.ar           1 S1                 0.0000
     30 ****        -5.9647   4.1875  -0.3714 C.ar           1 S1                 0.0000
     31 ****        -5.1925   5.2447  -0.8865 C.ar           1 S1                 0.0000
     32 ****        -3.8076   5.0762  -1.0692 C.ar           1 S1                 0.0000
     33 ****        -3.1939   3.8526  -0.7370 C.ar           1 S1                 0.0000
     34 ****         4.8378   0.9871   4.7127 H              1 S1                 0.0000
     35 ****        -1.3874   0.0166   1.2781 H              1 S1                 0.0000
     36 ****        -1.6510  -0.5644  -0.3629 H              1 S1                 0.0000
     37 ****         0.3145   0.9295  -1.1149 H              1 S1                 0.0000
     38 ****         2.7312   1.9997   0.7417 H              1 S1                 0.0000
     39 ****         0.4064   0.2591   2.9676 H              1 S1                 0.0000
     40 ****         0.7991  -0.1478   5.2859 H              1 S1                 0.0000
     41 ****         3.1272  -0.8091   0.7675 H              1 S1                 0.0000
     42 ****         3.2063  -0.5942  -1.5124 H              1 S1                 0.0000
     43 ****         0.7756  -1.2317   0.9591 H              1 S1                 0.0000
     44 ****         1.9164  -5.5617  -1.2699 H              1 S1                 0.0000
     45 ****         1.6773  -6.9097  -3.3224 H              1 S1                 0.0000
     46 ****         0.8134  -5.8735  -5.4122 H              1 S1                 0.0000
     47 ****         0.1845  -3.4673  -5.4351 H              1 S1                 0.0000
     48 ****         0.4108  -2.0994  -3.4043 H              1 S1                 0.0000
     49 ****        -5.9663   2.1662   0.3559 H              1 S1                 0.0000
     50 ****        -7.0277   4.3153  -0.2300 H              1 S1                 0.0000
     51 ****        -5.6617   6.1837  -1.1405 H              1 S1                 0.0000
     52 ****        -3.2135   5.8872  -1.4640 H              1 S1                 0.0000
     53 ****        -2.1285   3.7578  -0.8882 H              1 S1                 0.0000
     54 ****        -3.5058  -0.3223   0.8547 LP             1 S1                 0.0000
     55 ****        -4.9587   0.6181   0.7860 LP             1 S1                 0.0000
     56 ****         0.3022   1.3299   1.7062 LP             1 S1                 0.0000
     57 ****         0.6885   2.3529   0.4934 LP             1 S1                 0.0000
     58 ****         2.5182  -0.0987   7.0733 LP             1 S1                 0.0000
     59 ****         4.1508   0.3828   6.7530 LP             1 S1                 0.0000
     60 ****         4.4952   1.6208   1.3101 LP             1 S1                 0.0000
     61 ****         5.5483   1.5795   2.6846 LP             1 S1                 0.0000
     62 ****         3.9473   0.6463  -0.8469 LP             1 S1                 0.0000
     63 ****         2.4723   0.8172  -1.5265 LP             1 S1                 0.0000
     64 ****         1.8570  -2.8200   0.9521 LP             1 S1                 0.0000
     65 ****         2.0204  -4.3674   0.1912 LP             1 S1                 0.0000
@<TRIPOS>BOND
    1    1    2 2     
    2    2    3 1     
    3    2   28 1     
    4    3    4 1     
    5    4    5 1     
    6    4   35 1     
    7    4   36 1     
    8    5   18 1     
    9    5    6 1     
   10    5   37 1     
   11    6    7 1     
   12    7    8 1     
   13    7   16 1     
   14    7   38 1     
   15    8   14 1     
   16    8    9 1     
   17    9   10 2     
   18    9   39 1     
   19   10   11 1     
   20   10   40 1     
   21   11   12 2     
   22   11   13 1     
   23   13   34 1     
   24   13   14 1     
   25   14   15 2     
   26   16   17 1     
   27   16   18 1     
   28   16   41 1     
   29   17   42 1     
   30   18   19 1     
   31   18   43 1     
   32   19   20 1     
   33   20   21 2     
   34   20   22 1     
   35   22   27 ar    
   36   22   23 ar    
   37   23   24 ar    
   38   23   44 1     
   39   24   25 ar    
   40   24   45 1     
   41   25   26 ar    
   42   25   46 1     
   43   26   27 ar    
   44   26   47 1     
   45   27   48 1     
   46   28   33 ar    
   47   28   29 ar    
   48   29   30 ar    
   49   29   49 1     
   50   30   31 ar    
   51   30   50 1     
   52   31   32 ar    
   53   31   51 1     
   54   32   33 ar    
   55   32   52 1     
   56   33   53 1     
   57    1   54 1     
   58    1   55 1     
   59    6   56 1     
   60    6   57 1     
   61   12   58 1     
   62   12   59 1     
   63   15   60 1     
   64   15   61 1     
   65   17   62 1     
   66   17   63 1     
   67   21   64 1     
   68   21   65 1     
@<TRIPOS>SUBSTRUCTURE
      1 S1             1
@<TRIPOS>SET
LONE_PAIRS      STATIC     ATOMS    <user>   **** ""
12 54 55 56 57 58 59 60 61 62 63 64 65
DONOR_HYDROGENS      STATIC     ATOMS    <user>   **** ""
2 34 42
ATOM$BLUE        STATIC     ATOMS    COLORGROUP SYSTEM
12 54 55 56 57 58 59 60 61 62 63 64 65
ATOM$RED        STATIC     ATOMS    COLORGROUP SYSTEM
2 34 42
