AV-unprocessed.smi:2187|AV-procd|sdf|8879|dock3
  -GOLD-   2272012 83D 1   1.00000     0.00000
 Structure written by MMmdl.
 42 43  0  0  0  0  0  0  0  0  1 V2000
  149.9676  135.0236  156.6320 C   0  0  0  0  0  0  0  0  0  0  0  0
  150.1149  133.5580  156.3372 C   0  0  0  0  0  0  0  0  0  0  0  0
  150.3165  132.7150  157.3363 N   0  0  0  0  0  0  0  0  0  0  0  0
  150.3914  131.5019  156.7533 N   0  0  0  0  0  0  0  0  0  0  0  0
  150.6076  130.3294  157.5785 C   0  0  0  0  0  0  0  0  0  0  0  0
  150.2325  131.5780  155.3833 C   0  0  0  0  0  0  0  0  0  0  0  0
  150.2647  130.3665  154.5082 C   0  0  0  0  0  0  0  0  0  0  0  0
  150.0539  132.8997  155.0731 C   0  0  0  0  0  0  0  0  0  0  0  0
  149.8315  133.5255  153.7196 C   0  0  0  0  0  0  0  0  0  0  0  0
  148.5166  133.0125  153.1344 C   0  0  0  0  0  0  0  0  0  0  0  0
  148.2354  131.8163  153.2045 O   0  0  0  0  0  0  0  0  0  0  0  0
  147.7157  133.9317  152.5714 N   0  0  0  0  0  0  0  0  0  0  0  0
  146.4002  133.6722  151.9834 C   0  0  1  0  0  0  0  0  0  0  0  0
  146.5607  132.4957  150.9933 C   0  0  0  0  0  0  0  0  0  0  0  0
  145.4659  132.4370  149.9141 C   0  0  0  0  0  0  0  0  0  0  0  0
  144.0490  132.1644  150.4412 C   0  0  0  0  0  0  0  0  0  0  0  0
  143.5199  133.2574  151.3855 C   0  0  0  0  0  0  0  0  0  0  0  0
  144.0826  133.1439  152.7248 N   0  0  0  0  0  0  0  0  0  0  0  0
  145.3709  133.2861  153.0717 C   0  0  0  0  0  0  0  0  0  0  0  0
  145.7244  133.1069  154.2372 O   0  0  0  0  0  0  0  0  0  0  0  0
  148.9169  135.3140  156.6392 H   0  0  0  0  0  0  0  0  0  0  0  0
  150.4741  135.6287  155.8804 H   0  0  0  0  0  0  0  0  0  0  0  0
  150.3907  135.2839  157.6029 H   0  0  0  0  0  0  0  0  0  0  0  0
  151.4076  129.7226  157.1540 H   0  0  0  0  0  0  0  0  0  0  0  0
  149.6931  129.7374  157.6180 H   0  0  0  0  0  0  0  0  0  0  0  0
  150.8872  130.6183  158.5926 H   0  0  0  0  0  0  0  0  0  0  0  0
  149.9153  130.5963  153.5017 H   0  0  0  0  0  0  0  0  0  0  0  0
  149.6243  129.5800  154.9075 H   0  0  0  0  0  0  0  0  0  0  0  0
  151.2782  129.9732  154.4312 H   0  0  0  0  0  0  0  0  0  0  0  0
  149.8043  134.6141  153.7827 H   0  0  0  0  0  0  0  0  0  0  0  0
  150.6415  133.2885  153.0292 H   0  0  0  0  0  0  0  0  0  0  0  0
  148.0371  134.8884  152.5544 H   0  0  0  0  0  0  0  0  0  0  0  0
  146.0686  134.5675  151.4542 H   0  0  0  0  0  0  0  0  0  0  0  0
  147.5141  132.5968  150.4721 H   0  0  0  0  0  0  0  0  0  0  0  0
  146.6195  131.5436  151.5239 H   0  0  0  0  0  0  0  0  0  0  0  0
  145.4687  133.3677  149.3457 H   0  0  0  0  0  0  0  0  0  0  0  0
  145.7250  131.6543  149.2003 H   0  0  0  0  0  0  0  0  0  0  0  0
  143.3780  132.0939  149.5846 H   0  0  0  0  0  0  0  0  0  0  0  0
  144.0095  131.1908  150.9317 H   0  0  0  0  0  0  0  0  0  0  0  0
  143.6979  134.2534  150.9774 H   0  0  0  0  0  0  0  0  0  0  0  0
  142.4390  133.1547  151.4818 H   0  0  0  0  0  0  0  0  0  0  0  0
  143.4339  132.9040  153.4607 H   0  0  0  0  0  0  0  0  0  0  0  0
  1  2  1  0  0  0  0
  1 21  1  0  0  0  0
  1 22  1  0  0  0  0
  1 23  1  0  0  0  0
  2  8  1  0  0  0  0
  2  3  2  0  0  0  0
  3  4  1  0  0  0  0
  4  5  1  0  0  0  0
  4  6  1  0  0  0  0
  5 24  1  0  0  0  0
  5 25  1  0  0  0  0
  5 26  1  0  0  0  0
  6  7  1  0  0  0  0
  6  8  2  0  0  0  0
  7 27  1  0  0  0  0
  7 28  1  0  0  0  0
  7 29  1  0  0  0  0
  8  9  1  0  0  0  0
  9 10  1  0  0  0  0
  9 30  1  0  0  0  0
  9 31  1  0  0  0  0
 10 11  2  0  0  0  0
 10 12  1  0  0  0  0
 12 13  1  0  0  0  0
 12 32  1  0  0  0  0
 13 19  1  0  0  0  0
 13 14  1  0  0  0  0
 13 33  1  0  0  0  0
 14 15  1  0  0  0  0
 14 34  1  0  0  0  0
 14 35  1  0  0  0  0
 15 16  1  0  0  0  0
 15 36  1  0  0  0  0
 15 37  1  0  0  0  0
 16 17  1  0  0  0  0
 16 38  1  0  0  0  0
 16 39  1  0  0  0  0
 17 18  1  0  0  0  0
 17 40  1  0  0  0  0
 17 41  1  0  0  0  0
 18 19  1  0  0  0  0
 18 42  1  0  0  0  0
 19 20  2  0  0  0  0
M  END
> <s_m_source_file>
AV-unprocessed.smi

> <i_m_source_file_index>
2187

> <i_lp_mmshare_version>
43012

> <i_f3d_flags>
0

> <s_epik_input>
W0NIM11jMW5uKFtDSDNdKWMoW0NIM10pYzFbQ0gyXUMoPU8pW05IXVtDQEBIXTJbQ0gyXVtDSDJdW0NIMl1bQ0gyXVtOSF1DMj1P

> <s_epik_cmdline>
J2VwaWtfcHl0aG9uJywgJy1waCcsICc3LjAnLCAnLXRuJywgJzgnLCAnLW1hJywgJzIwMCcsICctbWV0YWxfYmluZGluZycsICctaW1hZScsICc8aW5maWxlLm1hZT4nLCAnLW9tYWUnLCAnPG91dGZpbGUubWFlPic=

> <r_lp_tautomer_probability>
1

> <r_epik_Ionization_Penalty>
0.00280384

> <r_epik_Ionization_Penalty_Charging>
0

> <r_epik_Ionization_Penalty_Neutral>
0.00280384

> <r_epik_State_Penalty>
0.00195959

> <r_epik_Charging_Adjusted_Penalty>
0.00195959

> <i_epik_Tot_Q>
0

> <i_epik_Tot_abs_Q>
0

> <r_epik_Metal_State_Penalty>
-0

> <b_epik_Metal_Only>
0

> <s_lp_Force_Field>
OPLS_2005

> <r_lp_Energy>
5.77256

> <b_lp_Chiralities_Consistent>
1

> <s_lp_Variant>
AV-unprocessed.smi:2187-2

> <Gold.Version>
5.8.1

> <Gold.Id.Protein>
6NUR|6NUR_protein|mol2

> <Gold.PLP.Fitness>
39.8195

> <Gold.PLP.PLP>
-31.6539

> <Gold.PLP.part.hbond>
-3.0000

> <Gold.PLP.part.metal>
0.0000

> <Gold.PLP.part.buried>
-2.9809

> <Gold.PLP.part.nonpolar>
-25.1135

> <Gold.PLP.part.repulsive>
0.2294

> <Gold.PLP.ligand.clash>
0.0000

> <Gold.PLP.ligand.torsion>
0.2874

> <Gold.PLP.Chemscore.Hbond>
2.9120

> <Gold.PLP.Chemscore.CHOScore>
0.0000

> <Gold.PLP.Chemscore.Metal>
0.0000

> <Gold.Chemscore.Hbonds>
donor molecule, donor type, donor heavy atom, donor atom, acceptor molecule, acceptor atom, score
      L1  H    12    32       P1  7948  1.00
      L1  H    18    42       P1 10957  1.00
      P1  H  6896  6909       L1     3  0.54

> <Gold.PLP.Chemscore.Internal.Correction>
0.0044

> <Gold.Rescore>
     Score         DG    S(hbond)    S(metal)    S(lipo)     H(rot)  DE(clash)    DE(int)     intcor
     15.93     -18.55       2.52        0.00      71.70       1.46       0.14       2.48       ----

> <Gold.Chemscore.Fitness>
15.9303

> <Gold.Chemscore.DG>
-18.5526

> <Gold.Chemscore.ZeroCoef>
-5.4800

> <Gold.Chemscore.Hbond>
2.5197

> <Gold.Chemscore.Metal>
0.0000

> <Gold.Chemscore.Lipo>
71.7001

> <Gold.Chemscore.Internal_Hbond>
0.0000

> <Gold.Chemscore.DEClash>
0.1384

> <Gold.Chemscore.DEInternal>
2.4839

> <Gold.Chemscore.Rot>
1.4578

> <Gold.Chemscore.Internal.Correction>
   9.000000E+99

> <Gold.Chemscore.Hbonds>
donor molecule, donor type, donor heavy atom, donor atom, acceptor molecule, acceptor atom, score
      L1  H    12    32       P1  7948  0.75
      L1  H    18    42       P1 10957  0.76
      P1  H  6896  6909       L1     3  0.44

> <Gold.Chemscore.Hbond.Weighted>
-8.4157

> <Gold.Chemscore.Metal.Weighted>
-0.0000

> <Gold.Chemscore.Lipo.Weighted>
-8.3889

> <Gold.Chemscore.Internal_Hbond.Weighted>
0.0000

> <Gold.Chemscore.DEClash.Weighted>
0.1384

> <Gold.Chemscore.DEInternal.Weighted>
2.4839

> <Gold.Chemscore.Rot.Weighted>
3.7321

> <Gold.Chemscore.Internal.Correction.Weighted>
   9.000000E+99

> <Gold.Protein.RotatedTorsions>
[ 6907 6896 6895 6894 ] final   -4.14 input  -60.11 | X-H torsion
[ 7974 7965 7964 7962 ] final  121.59 input  175.53 | X-H torsion
[ 8008 7997 7996 7995 ] final   93.52 input   59.86 | X-H torsion
[ 10167 10162 10161 10158 ] final   35.00 input  -65.29 | X-H torsion
[ 10718 10713 10712 10709 ] final -110.95 input   66.30 | X-H torsion
[ 10763 10752 10751 10750 ] final   88.72 input  -60.55 | X-H torsion
[ 11005 11000 10999 10996 ] final -124.35 input  -57.11 | X-H torsion

> <Gold.Protein.ActiveResidues>
 VAL166  LYS551  ARG553  GLY616  TRP617  ASP618  TYR619  PRO620  LYS621  CYS622 
 ASP623  PHE694  ASN695  SER759  ASP760  ASP761  ALA762  ILE779  LEU786  VAL792 
 PHE793  MET794  SER795  GLU796  ALA797  LYS798  CYS799  TRP800  GLU811  SER814 

> <Gold.Protein.RotatedAtoms>
  151.5024  135.1062  159.9832 H   0  0  0  0  0  0  0  0  0  0  0  0  # atno 6907 bound_to 6896
  152.4696  133.7996  159.6956 H   0  0  0  0  0  0  0  0  0  0  0  0  # atno 6908 bound_to 6896
  150.8698  133.7459  159.2991 H   0  0  0  0  0  0  0  0  0  0  0  0  # atno 6909 bound_to 6896
  145.1175  139.3411  143.4731 H   0  0  0  0  0  0  0  0  0  0  0  0  # atno 7974 bound_to 7965
  156.0476  140.3312  155.7315 H   0  0  0  0  0  0  0  0  0  0  0  0  # atno 8008 bound_to 7997
  155.5649  140.0622  157.2838 H   0  0  0  0  0  0  0  0  0  0  0  0  # atno 8009 bound_to 7997
  154.4421  140.1871  156.0809 H   0  0  0  0  0  0  0  0  0  0  0  0  # atno 8010 bound_to 7997
  140.4263  144.1389  150.6153 H   0  0  0  0  0  0  0  0  0  0  0  0  # atno 10167 bound_to 10162
  156.0619  130.5842  150.8306 H   0  0  0  0  0  0  0  0  0  0  0  0  # atno 10718 bound_to 10713
  153.1797  135.4496  155.0012 H   0  0  0  0  0  0  0  0  0  0  0  0  # atno 10763 bound_to 10752
  154.8022  135.3260  154.7524 H   0  0  0  0  0  0  0  0  0  0  0  0  # atno 10764 bound_to 10752
  153.7990  135.6964  153.4914 H   0  0  0  0  0  0  0  0  0  0  0  0  # atno 10765 bound_to 10752
  140.9848  134.0622  157.3724 H   0  0  0  0  0  0  0  0  0  0  0  0  # atno 11005 bound_to 11000
  146.3523  140.1120  142.8603 LP  0  0  0  0  0  0  0  0  0  0  0  0  # atno 17320 bound_to 7965
  145.0777  140.9200  143.4844 LP  0  0  0  0  0  0  0  0  0  0  0  0  # atno 17321 bound_to 7965
  140.4478  143.2499  151.9388 LP  0  0  0  0  0  0  0  0  0  0  0  0  # atno 17342 bound_to 10162
  139.4783  144.5592  151.8266 LP  0  0  0  0  0  0  0  0  0  0  0  0  # atno 17343 bound_to 10162
  157.5634  131.0946  150.9526 LP  0  0  0  0  0  0  0  0  0  0  0  0  # atno 17370 bound_to 10713
  156.9758  130.5508  149.5293 LP  0  0  0  0  0  0  0  0  0  0  0  0  # atno 17371 bound_to 10713
  139.8966  135.0146  156.7057 LP  0  0  0  0  0  0  0  0  0  0  0  0  # atno 17394 bound_to 11000
  140.7131  133.9205  155.8097 LP  0  0  0  0  0  0  0  0  0  0  0  0  # atno 17395 bound_to 11000

$$$$
