AV-unprocessed.smi:3330|AV-procd|sdf|12816|dock10
  -GOLD-   2272019183D 1   1.00000     0.00000
 Structure written by MMmdl.
 37 38  0  0  0  0  0  0  0  0  2 V2000
  149.1135  141.3928  156.6990 C   0  0  0  0  0  0  0  0  0  0  0  0
  150.4799  141.6242  156.0248 C   0  0  1  0  0  0  0  0  0  0  0  0
  150.9580  142.9595  156.3723 N   0  0  0  0  0  0  0  0  0  0  0  0
  150.8770  143.2152  157.8031 C   0  0  0  0  0  0  0  0  0  0  0  0
  152.1934  143.8439  158.2918 C   0  0  0  0  0  0  0  0  0  0  0  0
  152.3031  143.8167  159.7567 N   0  0  0  0  0  0  0  0  0  0  0  0
  152.8423  142.8138  160.4572 C   0  0  0  0  0  0  0  0  0  0  0  0
  153.3376  141.7710  160.0288 O   0  0  0  0  0  0  0  0  0  0  0  0
  152.7569  143.1817  161.9201 C   0  0  0  0  0  0  0  0  0  0  0  0
  152.1390  144.4869  161.8752 N   0  5  0  0  0  0  0  0  0  0  0  0
  151.8978  144.8023  160.5810 C   0  0  0  0  0  0  0  0  0  0  0  0
  151.3823  145.8383  160.1616 O   0  0  0  0  0  0  0  0  0  0  0  0
  151.5545  140.5895  156.4578 C   0  0  1  0  0  0  0  0  0  0  0  0
  151.5266  140.2911  157.9684 C   0  0  0  0  0  0  0  0  0  0  0  0
  151.4338  139.3413  155.7096 N   0  0  0  0  0  0  0  0  0  0  0  0
  151.2994  138.0612  156.2063 C   0  0  0  0  0  0  0  0  0  0  0  0
  151.2312  137.2132  155.1387 C   0  0  0  0  0  0  0  0  0  0  0  0
  151.3359  138.0774  154.0134 C   0  0  0  0  0  0  0  0  0  0  0  0
  151.4495  139.3496  154.3570 N   0  0  0  0  0  0  0  0  0  0  0  0
  148.6857  140.4323  156.4138 H   0  0  0  0  0  0  0  0  0  0  0  0
  148.3862  142.1519  156.4127 H   0  0  0  0  0  0  0  0  0  0  0  0
  149.1996  141.4095  157.7859 H   0  0  0  0  0  0  0  0  0  0  0  0
  150.3611  141.5548  154.9423 H   0  0  0  0  0  0  0  0  0  0  0  0
  150.3672  143.6350  155.9073 H   0  0  0  0  0  0  0  0  0  0  0  0
  150.0427  143.8795  158.0324 H   0  0  0  0  0  0  0  0  0  0  0  0
  150.6972  142.2773  158.3284 H   0  0  0  0  0  0  0  0  0  0  0  0
  153.0321  143.2906  157.8668 H   0  0  0  0  0  0  0  0  0  0  0  0
  152.2978  144.8614  157.9109 H   0  0  0  0  0  0  0  0  0  0  0  0
  152.1597  142.4415  162.4535 H   0  0  0  0  0  0  0  0  0  0  0  0
  153.7528  143.1919  162.3629 H   0  0  0  0  0  0  0  0  0  0  0  0
  152.5374  141.0028  156.2251 H   0  0  0  0  0  0  0  0  0  0  0  0
  151.7882  141.1691  158.5578 H   0  0  0  0  0  0  0  0  0  0  0  0
  152.2439  139.5108  158.2248 H   0  0  0  0  0  0  0  0  0  0  0  0
  150.5407  139.9539  158.2901 H   0  0  0  0  0  0  0  0  0  0  0  0
  151.2700  137.8614  157.2672 H   0  0  0  0  0  0  0  0  0  0  0  0
  151.1310  136.1383  155.1581 H   0  0  0  0  0  0  0  0  0  0  0  0
  151.3338  137.8197  152.9646 H   0  0  0  0  0  0  0  0  0  0  0  0
  1  2  1  0  0  0  0
  1 20  1  0  0  0  0
  1 21  1  0  0  0  0
  1 22  1  0  0  0  0
  2  3  1  0  0  0  0
  2 13  1  0  0  0  0
  2 23  1  0  0  0  0
  3  4  1  0  0  0  0
  3 24  1  0  0  0  0
  4  5  1  0  0  0  0
  4 25  1  0  0  0  0
  4 26  1  0  0  0  0
  5  6  1  0  0  0  0
  5 27  1  0  0  0  0
  5 28  1  0  0  0  0
  6 11  1  0  0  0  0
  6  7  1  0  0  0  0
  7  8  2  0  0  0  0
  7  9  1  0  0  0  0
  9 10  1  0  0  0  0
  9 29  1  0  0  0  0
  9 30  1  0  0  0  0
 10 11  1  0  0  0  0
 11 12  2  0  0  0  0
 13 14  1  0  0  0  0
 13 15  1  0  0  0  0
 13 31  1  0  0  0  0
 14 32  1  0  0  0  0
 14 33  1  0  0  0  0
 14 34  1  0  0  0  0
 15 19  1  0  0  0  0
 15 16  1  0  0  0  0
 16 17  2  0  0  0  0
 16 35  1  0  0  0  0
 17 18  1  0  0  0  0
 17 36  1  0  0  0  0
 18 19  2  0  0  0  0
 18 37  1  0  0  0  0
M  CHG  1  10  -1
M  END
> <s_m_source_file>
AV-unprocessed.smi

> <i_m_source_file_index>
3330

> <i_lp_mmshare_version>
43012

> <i_f3d_flags>
0

> <s_epik_input>
bjFbY0hdW2NIXVtjSF1uMVtDQEBIXShbQ0gzXSlbQ0BIXShbQ0gzXSlbTkhdW0NIMl1bQ0gyXU4yQyg9TylbQ0gyXVtOSF1DMj1P

> <s_epik_cmdline>
J2VwaWtfcHl0aG9uJywgJy1waCcsICc3LjAnLCAnLXRuJywgJzgnLCAnLW1hJywgJzIwMCcsICctbWV0YWxfYmluZGluZycsICctaW1hZScsICc8aW5maWxlLm1hZT4nLCAnLW9tYWUnLCAnPG91dGZpbGUubWFlPic=

> <r_lp_tautomer_probability>
1

> <r_epik_Ionization_Penalty>
8.77477

> <r_epik_Ionization_Penalty_Charging>
6.28461

> <r_epik_Ionization_Penalty_Neutral>
2.49016

> <r_epik_State_Penalty>
8.73376

> <r_epik_Charging_Adjusted_Penalty>
15.0184

> <i_epik_Tot_Q>
-1

> <i_epik_Tot_abs_Q>
1

> <r_epik_Metal_State_Penalty>
4.73175

> <b_epik_Metal_Only>
1

> <s_lp_Force_Field>
OPLS_2005

> <r_lp_Energy>
23.0712

> <b_lp_Chiralities_Consistent>
1

> <s_lp_Variant>
AV-unprocessed.smi:3330-16

> <Gold.Version>
5.8.1

> <Gold.Id.Protein>
6NUR|6NUR_protein|mol2

> <Gold.PLP.Fitness>
48.8650

> <Gold.PLP.PLP>
-42.2588

> <Gold.PLP.part.hbond>
-2.9978

> <Gold.PLP.part.metal>
0.0000

> <Gold.PLP.part.buried>
-6.1249

> <Gold.PLP.part.nonpolar>
-33.9735

> <Gold.PLP.part.repulsive>
1.8613

> <Gold.PLP.ligand.clash>
0.0006

> <Gold.PLP.ligand.torsion>
1.2410

> <Gold.PLP.Chemscore.Hbond>
2.0000

> <Gold.PLP.Chemscore.CHOScore>
1.0000

> <Gold.PLP.Chemscore.Metal>
0.0000

> <Gold.Chemscore.Hbonds>
donor molecule, donor type, donor heavy atom, donor atom, acceptor molecule, acceptor atom, score
      L1  H     3    24       P1  8028  1.00
      P1  H  7989  7998       L1    19  1.00
      L1  C    18    37       P1  7949  1.00

> <Gold.PLP.Chemscore.Internal.Correction>
0.0888

> <Gold.Rescore>
     Score         DG    S(hbond)    S(metal)    S(lipo)     H(rot)  DE(clash)    DE(int)     intcor
     10.29     -13.93       1.99        0.00      70.54       2.52       0.91       2.72       ----

> <Gold.Chemscore.Fitness>
10.2931

> <Gold.Chemscore.DG>
-13.9301

> <Gold.Chemscore.ZeroCoef>
-5.4800

> <Gold.Chemscore.Hbond>
1.9873

> <Gold.Chemscore.Metal>
0.0000

> <Gold.Chemscore.Lipo>
70.5435

> <Gold.Chemscore.Internal_Hbond>
0.0000

> <Gold.Chemscore.DEClash>
0.9131

> <Gold.Chemscore.DEInternal>
2.7239

> <Gold.Chemscore.Rot>
2.5160

> <Gold.Chemscore.Internal.Correction>
   9.000000E+99

> <Gold.Chemscore.Hbonds>
donor molecule, donor type, donor heavy atom, donor atom, acceptor molecule, acceptor atom, score
      L1  H     3    24       P1  8028  0.99
      P1  H  7989  7998       L1    19  0.98

> <Gold.Chemscore.Hbond.Weighted>
-6.6375

> <Gold.Chemscore.Metal.Weighted>
-0.0000

> <Gold.Chemscore.Lipo.Weighted>
-8.2536

> <Gold.Chemscore.Internal_Hbond.Weighted>
0.0000

> <Gold.Chemscore.DEClash.Weighted>
0.9131

> <Gold.Chemscore.DEInternal.Weighted>
2.7239

> <Gold.Chemscore.Rot.Weighted>
6.4410

> <Gold.Chemscore.Internal.Correction.Weighted>
   9.000000E+99

> <Gold.Protein.RotatedTorsions>
[ 6907 6896 6895 6894 ] final -126.05 input  -60.11 | X-H torsion
[ 7974 7965 7964 7962 ] final  -51.04 input  175.53 | X-H torsion
[ 8008 7997 7996 7995 ] final   84.16 input   59.86 | X-H torsion
[ 10167 10162 10161 10158 ] final -128.46 input  -65.29 | X-H torsion
[ 10718 10713 10712 10709 ] final   38.25 input   66.30 | X-H torsion
[ 10763 10752 10751 10750 ] final -115.34 input  -60.55 | X-H torsion
[ 11005 11000 10999 10996 ] final -177.20 input  -57.11 | X-H torsion

> <Gold.Protein.ActiveResidues>
 VAL166  LYS551  ARG553  GLY616  TRP617  ASP618  TYR619  PRO620  LYS621  CYS622 
 ASP623  PHE694  ASN695  SER759  ASP760  ASP761  ALA762  ILE779  LEU786  VAL792 
 PHE793  MET794  SER795  GLU796  ALA797  LYS798  CYS799  TRP800  GLU811  SER814 

> <Gold.Protein.RotatedAtoms>
  150.8930  133.7218  159.2899 H   0  0  0  0  0  0  0  0  0  0  0  0  # atno 6907 bound_to 6896
  151.4762  135.1048  159.9775 H   0  0  0  0  0  0  0  0  0  0  0  0  # atno 6908 bound_to 6896
  152.4831  133.8257  159.7132 H   0  0  0  0  0  0  0  0  0  0  0  0  # atno 6909 bound_to 6896
  145.9233  140.7815  142.9636 H   0  0  0  0  0  0  0  0  0  0  0  0  # atno 7974 bound_to 7965
  155.9334  140.3413  155.6268 H   0  0  0  0  0  0  0  0  0  0  0  0  # atno 8008 bound_to 7997
  155.7129  140.0774  157.2382 H   0  0  0  0  0  0  0  0  0  0  0  0  # atno 8009 bound_to 7997
  154.4089  140.1619  156.2304 H   0  0  0  0  0  0  0  0  0  0  0  0  # atno 8010 bound_to 7997
  139.9501  143.6066  152.2478 H   0  0  0  0  0  0  0  0  0  0  0  0  # atno 10167 bound_to 10162
  157.3566  130.7627  149.7017 H   0  0  0  0  0  0  0  0  0  0  0  0  # atno 10718 bound_to 10713
  154.8477  135.4385  154.1648 H   0  0  0  0  0  0  0  0  0  0  0  0  # atno 10763 bound_to 10752
  153.2776  135.6950  153.7424 H   0  0  0  0  0  0  0  0  0  0  0  0  # atno 10764 bound_to 10752
  153.6641  135.3430  155.3110 H   0  0  0  0  0  0  0  0  0  0  0  0  # atno 10765 bound_to 10752
  140.4436  134.6409  157.4769 H   0  0  0  0  0  0  0  0  0  0  0  0  # atno 11005 bound_to 11000
  144.6755  140.2010  143.7387 LP  0  0  0  0  0  0  0  0  0  0  0  0  # atno 17320 bound_to 7965
  145.8522  139.2181  143.1765 LP  0  0  0  0  0  0  0  0  0  0  0  0  # atno 17321 bound_to 7965
  139.6636  144.7662  151.1916 LP  0  0  0  0  0  0  0  0  0  0  0  0  # atno 17342 bound_to 10162
  140.7585  143.5973  150.8735 LP  0  0  0  0  0  0  0  0  0  0  0  0  # atno 17343 bound_to 10162
  155.9730  130.4125  150.4038 LP  0  0  0  0  0  0  0  0  0  0  0  0  # atno 17370 bound_to 10713
  157.2109  131.0460  151.2600 LP  0  0  0  0  0  0  0  0  0  0  0  0  # atno 17371 bound_to 10713
  140.0054  134.6773  155.9464 LP  0  0  0  0  0  0  0  0  0  0  0  0  # atno 17394 bound_to 11000
  141.1695  133.6537  156.4600 LP  0  0  0  0  0  0  0  0  0  0  0  0  # atno 17395 bound_to 11000

$$$$
