AV-unprocessed.smi:2693|AV-procd|sdf|10401|dock3
  -GOLD-   2272014433D 1   1.00000     0.00000
 Structure written by MMmdl.
 45 47  0  0  0  0  0  0  0  0  1 V2000
  144.7854  131.2857  151.0515 C   0  0  0  0  0  0  0  0  0  0  0  0
  144.6263  132.6068  150.4505 N   0  0  0  0  0  0  0  0  0  0  0  0
  144.0392  132.6756  149.1154 C   0  0  0  0  0  0  0  0  0  0  0  0
  145.0296  133.7633  151.1246 C   0  0  0  0  0  0  0  0  0  0  0  0
  144.8065  134.9379  150.5207 N   0  0  0  0  0  0  0  0  0  0  0  0
  145.1982  136.0596  151.1615 C   0  0  0  0  0  0  0  0  0  0  0  0
  145.8281  136.0101  152.4280 C   0  0  0  0  0  0  0  0  0  0  0  0
  146.2500  137.1419  153.1757 N   0  0  0  0  0  0  0  0  0  0  0  0
  146.4873  138.3884  152.7342 C   0  0  0  0  0  0  0  0  0  0  0  0
  146.4296  138.7511  151.5596 O   0  0  0  0  0  0  0  0  0  0  0  0
  146.8124  139.2064  153.7436 N   0  0  0  0  0  0  0  0  0  0  0  0
  147.1206  140.6299  153.5954 C   0  0  2  0  0  0  0  0  0  0  0  0
  148.5203  141.0020  154.1350 C   0  0  2  0  0  0  0  0  0  0  0  0
  149.5496  139.9712  154.5310 C   0  0  0  0  0  0  0  0  0  0  0  0
  149.3641  139.8719  156.0479 C   0  0  0  0  0  0  0  0  0  0  0  0
  148.0507  140.3727  156.2880 O   0  0  0  0  0  0  0  0  0  0  0  0
  147.8370  141.4741  155.4079 C   0  0  2  0  0  0  0  0  0  0  0  0
  146.4728  141.5234  154.6891 C   0  0  0  0  0  0  0  0  0  0  0  0
  146.0744  142.9186  154.1989 C   0  0  0  0  0  0  0  0  0  0  0  0
  145.2711  140.9877  155.4796 C   0  0  0  0  0  0  0  0  0  0  0  0
  145.9992  134.7235  152.9765 C   0  0  0  0  0  0  0  0  0  0  0  0
  145.6057  133.6095  152.3243 N   0  0  0  0  0  0  0  0  0  0  0  0
  144.1601  131.1965  151.9401 H   0  0  0  0  0  0  0  0  0  0  0  0
  145.8232  131.1198  151.3422 H   0  0  0  0  0  0  0  0  0  0  0  0
  144.5047  130.4890  150.3629 H   0  0  0  0  0  0  0  0  0  0  0  0
  143.1650  133.3274  149.1155 H   0  0  0  0  0  0  0  0  0  0  0  0
  143.7199  131.6961  148.7594 H   0  0  0  0  0  0  0  0  0  0  0  0
  144.7638  133.0711  148.4030 H   0  0  0  0  0  0  0  0  0  0  0  0
  144.9794  136.9850  150.6523 H   0  0  0  0  0  0  0  0  0  0  0  0
  146.4180  136.9766  154.1573 H   0  0  0  0  0  0  0  0  0  0  0  0
  146.8345  138.8301  154.6801 H   0  0  0  0  0  0  0  0  0  0  0  0
  146.9612  141.0065  152.5832 H   0  0  0  0  0  0  0  0  0  0  0  0
  148.9363  141.8451  153.5809 H   0  0  0  0  0  0  0  0  0  0  0  0
  149.3786  139.0106  154.0457 H   0  0  0  0  0  0  0  0  0  0  0  0
  150.5636  140.2844  154.2803 H   0  0  0  0  0  0  0  0  0  0  0  0
  149.4796  138.8540  156.4208 H   0  0  0  0  0  0  0  0  0  0  0  0
  150.0847  140.5083  156.5638 H   0  0  0  0  0  0  0  0  0  0  0  0
  148.2153  142.4223  155.7930 H   0  0  0  0  0  0  0  0  0  0  0  0
  145.8409  143.5852  155.0297 H   0  0  0  0  0  0  0  0  0  0  0  0
  145.1981  142.8782  153.5512 H   0  0  0  0  0  0  0  0  0  0  0  0
  146.8748  143.3885  153.6263 H   0  0  0  0  0  0  0  0  0  0  0  0
  144.9971  141.6594  156.2935 H   0  0  0  0  0  0  0  0  0  0  0  0
  145.4738  140.0163  155.9309 H   0  0  0  0  0  0  0  0  0  0  0  0
  144.3945  140.8700  154.8416 H   0  0  0  0  0  0  0  0  0  0  0  0
  146.4579  134.5832  153.9444 H   0  0  0  0  0  0  0  0  0  0  0  0
  1  2  1  0  0  0  0
  1 23  1  0  0  0  0
  1 24  1  0  0  0  0
  1 25  1  0  0  0  0
  2  3  1  0  0  0  0
  2  4  1  0  0  0  0
  3 26  1  0  0  0  0
  3 27  1  0  0  0  0
  3 28  1  0  0  0  0
  4 22  1  0  0  0  0
  4  5  2  0  0  0  0
  5  6  1  0  0  0  0
  6  7  2  0  0  0  0
  6 29  1  0  0  0  0
  7  8  1  0  0  0  0
  7 21  1  0  0  0  0
  8  9  1  0  0  0  0
  8 30  1  0  0  0  0
  9 10  2  0  0  0  0
  9 11  1  0  0  0  0
 11 12  1  0  0  0  0
 11 31  1  0  0  0  0
 12 18  1  0  0  0  0
 12 13  1  0  0  0  0
 12 32  1  0  0  0  0
 13 17  1  0  0  0  0
 13 14  1  0  0  0  0
 13 33  1  0  0  0  0
 14 15  1  0  0  0  0
 14 34  1  0  0  0  0
 14 35  1  0  0  0  0
 15 16  1  0  0  0  0
 15 36  1  0  0  0  0
 15 37  1  0  0  0  0
 16 17  1  0  0  0  0
 17 18  1  0  0  0  0
 17 38  1  0  0  0  0
 18 19  1  0  0  0  0
 18 20  1  0  0  0  0
 19 39  1  0  0  0  0
 19 40  1  0  0  0  0
 19 41  1  0  0  0  0
 20 42  1  0  0  0  0
 20 43  1  0  0  0  0
 20 44  1  0  0  0  0
 21 22  2  0  0  0  0
 21 45  1  0  0  0  0
M  END
> <s_m_source_file>
AV-unprocessed.smi

> <i_m_source_file_index>
2693

> <i_lp_mmshare_version>
43012

> <i_f3d_flags>
0

> <s_epik_input>
W0NIM11OKFtDSDNdKWMxbltjSF1jKFtjSF1uMSlbTkhdQyg9TylbTkhdW0NASF0yQyhbQ0gzXSkoW0NIM10pW0NAQEhdKFtDQEhdMjMpT1tDSDJdW0NIMl0z

> <s_epik_cmdline>
J2VwaWtfcHl0aG9uJywgJy1waCcsICc3LjAnLCAnLXRuJywgJzgnLCAnLW1hJywgJzIwMCcsICctbWV0YWxfYmluZGluZycsICctaW1hZScsICc8aW5maWxlLm1hZT4nLCAnLW9tYWUnLCAnPG91dGZpbGUubWFlPic=

> <r_lp_tautomer_probability>
1

> <r_epik_Ionization_Penalty>
0.00031779

> <r_epik_Ionization_Penalty_Charging>
0

> <r_epik_Ionization_Penalty_Neutral>
0.00031779

> <r_epik_State_Penalty>
-0

> <r_epik_Charging_Adjusted_Penalty>
0

> <i_epik_Tot_Q>
0

> <i_epik_Tot_abs_Q>
0

> <r_epik_Metal_State_Penalty>
-0

> <b_epik_Metal_Only>
0

> <s_lp_Force_Field>
OPLS_2005

> <r_lp_Energy>
31.9605

> <b_lp_Chiralities_Consistent>
1

> <s_lp_Variant>
AV-unprocessed.smi:2693-5

> <Gold.Version>
5.8.1

> <Gold.Id.Protein>
6NUR|6NUR_protein|mol2

> <Gold.PLP.Fitness>
41.1912

> <Gold.PLP.PLP>
-37.4307

> <Gold.PLP.part.hbond>
-1.3131

> <Gold.PLP.part.metal>
0.0000

> <Gold.PLP.part.buried>
-2.7874

> <Gold.PLP.part.nonpolar>
-34.3620

> <Gold.PLP.part.repulsive>
0.9518

> <Gold.PLP.ligand.clash>
0.0000

> <Gold.PLP.ligand.torsion>
0.1998

> <Gold.PLP.Chemscore.Hbond>
0.3250

> <Gold.PLP.Chemscore.CHOScore>
1.0000

> <Gold.PLP.Chemscore.Metal>
0.0000

> <Gold.Chemscore.Hbonds>
donor molecule, donor type, donor heavy atom, donor atom, acceptor molecule, acceptor atom, score
      L1  C     6    29       P1 10171  1.00

> <Gold.PLP.Chemscore.Internal.Correction>
0.1852

> <Gold.Rescore>
     Score         DG    S(hbond)    S(metal)    S(lipo)     H(rot)  DE(clash)    DE(int)     intcor
     12.63     -14.64       0.62        0.00      82.56       1.00       0.82       1.18       ----

> <Gold.Chemscore.Fitness>
12.6340

> <Gold.Chemscore.DG>
-14.6380

> <Gold.Chemscore.ZeroCoef>
-5.4800

> <Gold.Chemscore.Hbond>
0.6162

> <Gold.Chemscore.Metal>
0.0000

> <Gold.Chemscore.Lipo>
82.5631

> <Gold.Chemscore.Internal_Hbond>
0.0000

> <Gold.Chemscore.DEClash>
0.8223

> <Gold.Chemscore.DEInternal>
1.1816

> <Gold.Chemscore.Rot>
1.0000

> <Gold.Chemscore.Internal.Correction>
   9.000000E+99

> <Gold.Chemscore.Hbond.Weighted>
-2.0581

> <Gold.Chemscore.Metal.Weighted>
-0.0000

> <Gold.Chemscore.Lipo.Weighted>
-9.6599

> <Gold.Chemscore.Internal_Hbond.Weighted>
0.0000

> <Gold.Chemscore.DEClash.Weighted>
0.8223

> <Gold.Chemscore.DEInternal.Weighted>
1.1816

> <Gold.Chemscore.Rot.Weighted>
2.5600

> <Gold.Chemscore.Internal.Correction.Weighted>
   9.000000E+99

> <Gold.Protein.RotatedTorsions>
[ 6907 6896 6895 6894 ] final -160.90 input  -60.11 | X-H torsion
[ 7974 7965 7964 7962 ] final -107.11 input  175.53 | X-H torsion
[ 8008 7997 7996 7995 ] final -109.65 input   59.86 | X-H torsion
[ 10167 10162 10161 10158 ] final -101.87 input  -65.29 | X-H torsion
[ 10718 10713 10712 10709 ] final -128.85 input   66.30 | X-H torsion
[ 10763 10752 10751 10750 ] final  -33.38 input  -60.55 | X-H torsion
[ 11005 11000 10999 10996 ] final  -69.16 input  -57.11 | X-H torsion

> <Gold.Protein.ActiveResidues>
 VAL166  LYS551  ARG553  GLY616  TRP617  ASP618  TYR619  PRO620  LYS621  CYS622 
 ASP623  PHE694  ASN695  SER759  ASP760  ASP761  ALA762  ILE779  LEU786  VAL792 
 PHE793  MET794  SER795  GLU796  ALA797  LYS798  CYS799  TRP800  GLU811  SER814 

> <Gold.Protein.RotatedAtoms>
  151.3563  133.3906  159.2684 H   0  0  0  0  0  0  0  0  0  0  0  0  # atno 6907 bound_to 6896
  150.9761  134.9126  159.7827 H   0  0  0  0  0  0  0  0  0  0  0  0  # atno 6908 bound_to 6896
  152.5201  134.3526  159.9309 H   0  0  0  0  0  0  0  0  0  0  0  0  # atno 6909 bound_to 6896
  145.2094  140.9090  143.3323 H   0  0  0  0  0  0  0  0  0  0  0  0  # atno 7974 bound_to 7965
  154.9626  140.0399  157.2197 H   0  0  0  0  0  0  0  0  0  0  0  0  # atno 8008 bound_to 7997
  154.7875  140.2829  155.5994 H   0  0  0  0  0  0  0  0  0  0  0  0  # atno 8009 bound_to 7997
  156.2945  140.2580  156.2715 H   0  0  0  0  0  0  0  0  0  0  0  0  # atno 8010 bound_to 7997
  140.2367  143.3568  152.0838 H   0  0  0  0  0  0  0  0  0  0  0  0  # atno 10167 bound_to 10162
  156.1990  130.6845  151.0516 H   0  0  0  0  0  0  0  0  0  0  0  0  # atno 10718 bound_to 10713
  153.8293  135.6867  153.4816 H   0  0  0  0  0  0  0  0  0  0  0  0  # atno 10763 bound_to 10752
  153.1521  135.4614  154.9649 H   0  0  0  0  0  0  0  0  0  0  0  0  # atno 10764 bound_to 10752
  154.7894  135.3296  154.7758 H   0  0  0  0  0  0  0  0  0  0  0  0  # atno 10765 bound_to 10752
  141.1548  133.6758  156.6557 H   0  0  0  0  0  0  0  0  0  0  0  0  # atno 11005 bound_to 11000
  144.9871  139.3726  143.6233 LP  0  0  0  0  0  0  0  0  0  0  0  0  # atno 17320 bound_to 7965
  146.3401  139.9037  142.8790 LP  0  0  0  0  0  0  0  0  0  0  0  0  # atno 17321 bound_to 7965
  139.5091  144.6861  151.5882 LP  0  0  0  0  0  0  0  0  0  0  0  0  # atno 17342 bound_to 10162
  140.6144  143.9376  150.6477 LP  0  0  0  0  0  0  0  0  0  0  0  0  # atno 17343 bound_to 10162
  157.6974  131.0789  150.6925 LP  0  0  0  0  0  0  0  0  0  0  0  0  # atno 17370 bound_to 10713
  156.6982  130.4615  149.5580 LP  0  0  0  0  0  0  0  0  0  0  0  0  # atno 17371 bound_to 10713
  140.3286  134.7948  157.4308 LP  0  0  0  0  0  0  0  0  0  0  0  0  # atno 17394 bound_to 11000
  140.1036  134.5440  155.8330 LP  0  0  0  0  0  0  0  0  0  0  0  0  # atno 17395 bound_to 11000

$$$$
