#       Name:                AV-unprocessed.smi:3056
#       Creating user name   scv26
#       Creation time:       Fri Mar 27 17:04:24 2020


#       File generated by GOLD software.
#

@<TRIPOS>MOLECULE
AV-unprocessed.smi:3056
    53    54     1
SMALL
NO_CHARGES


@<TRIPOS>ATOM
      1 ****        -1.2533   0.3935  -5.2677 C.3            1 S1                 0.0000
      2 ****        -1.2053   0.7337  -3.8061 C.2            1 S1                 0.0000
      3 ****        -1.7941   0.0231  -2.7222 C.2            1 S1                 0.0000
      4 ****        -1.5579   0.5885  -1.5501 N.2            1 S1                 0.0000
      5 ****        -0.8238   1.6840  -1.8405 N.pl3          1 S1                 0.0000
      6 ****        -0.3540   2.5442  -0.7606 C.3            1 S1                 0.0000
      7 ****        -0.7799   3.9993  -1.0298 C.3            1 S1                 0.0000
      8 ****         1.1769   2.3861  -0.5480 C.3            1 S1                 0.0000
      9 ****         1.7211   3.1995   0.6416 C.3            1 S1                 0.0000
     10 ****         1.5932   0.9624  -0.4576 N.4            1 S1                 1.0000
     11 ****         1.1334   0.2000   0.7271 C.3            1 S1                 0.0000
     12 ****         1.5139  -1.2856   0.6434 C.2            1 S1                 0.0000
     13 ****         2.1495  -1.6817  -0.3354 O.2            1 S1                 0.0000
     14 ****         1.1381  -2.1161   1.6451 N.am           1 S1                 0.0000
     15 ****         1.4008  -3.5574   1.6345 C.3            1 S1                 0.0000
     16 ****         0.0504  -4.2934   1.5784 C.3            1 S1                 0.0000
     17 ****        -0.7573  -3.9015   2.6864 O.3            1 S1                 0.0000
     18 ****        -1.0084  -2.4978   2.7393 C.3            1 S1                 0.0000
     19 ****        -1.9007  -2.2143   3.9527 C.3            1 S1                 0.0000
     20 ****         0.3378  -1.7496   2.8177 C.3            1 S1                 0.0000
     21 ****        -0.5906   1.7905  -3.1971 C.2            1 S1                 0.0000
     22 ****        -1.8506  -0.4986  -5.4574 H              1 S1                 0.0000
     23 ****        -0.2579   0.2051  -5.6699 H              1 S1                 0.0000
     24 ****        -1.6901   1.2023  -5.8537 H              1 S1                 0.0000
     25 ****        -2.3793  -0.8841  -2.7521 H              1 S1                 0.0000
     26 ****        -0.8659   2.2368   0.1526 H              1 S1                 0.0000
     27 ****        -0.5879   4.6394  -0.1690 H              1 S1                 0.0000
     28 ****        -1.8488   4.0601  -1.2382 H              1 S1                 0.0000
     29 ****        -0.2510   4.4226  -1.8843 H              1 S1                 0.0000
     30 ****         1.6722   2.7634  -1.4436 H              1 S1                 0.0000
     31 ****         1.6136   4.2710   0.4741 H              1 S1                 0.0000
     32 ****         2.7835   3.0070   0.7953 H              1 S1                 0.0000
     33 ****         1.1995   2.9588   1.5682 H              1 S1                 0.0000
     34 ****         1.2453   0.4873  -1.2785 H              1 S1                 0.0000
     35 ****         1.5759   0.6266   1.6272 H              1 S1                 0.0000
     36 ****         0.0500   0.2728   0.8142 H              1 S1                 0.0000
     37 ****         2.0276  -3.8715   0.7989 H              1 S1                 0.0000
     38 ****         1.9432  -3.8335   2.5399 H              1 S1                 0.0000
     39 ****        -0.4696  -4.0799   0.6432 H              1 S1                 0.0000
     40 ****         0.2060  -5.3715   1.6186 H              1 S1                 0.0000
     41 ****        -1.5434  -2.1982   1.8361 H              1 S1                 0.0000
     42 ****        -2.1310  -1.1516   4.0313 H              1 S1                 0.0000
     43 ****        -1.4163  -2.5217   4.8800 H              1 S1                 0.0000
     44 ****        -2.8456  -2.7529   3.8763 H              1 S1                 0.0000
     45 ****         0.8769  -2.0384   3.7214 H              1 S1                 0.0000
     46 ****         0.1600  -0.6795   2.9107 H              1 S1                 0.0000
     47 ****        -0.0099   2.6003  -3.6142 H              1 S1                 0.0000
     48 ****         2.6023   0.9223  -0.4774 H              1 S1                 0.0000
     49 ****        -1.8566   0.2744  -0.6489 LP             1 S1                 0.0000
     50 ****         2.4082  -1.0395  -1.0569 LP             1 S1                 0.0000
     51 ****         2.4066  -2.6454  -0.4081 LP             1 S1                 0.0000
     52 ****        -0.2914  -4.1717   3.5290 LP             1 S1                 0.0000
     53 ****        -1.6343  -4.3778   2.6230 LP             1 S1                 0.0000
@<TRIPOS>BOND
    1    1    2 1     
    2    1   22 1     
    3    1   23 1     
    4    1   24 1     
    5    2   21 2     
    6    2    3 1     
    7    3    4 2     
    8    3   25 1     
    9    4    5 1     
   10    5    6 1     
   11    5   21 1     
   12    6    7 1     
   13    6    8 1     
   14    6   26 1     
   15    7   27 1     
   16    7   28 1     
   17    7   29 1     
   18    8    9 1     
   19    8   10 1     
   20    8   30 1     
   21    9   31 1     
   22    9   32 1     
   23    9   33 1     
   24   10   11 1     
   25   10   34 1     
   26   10   48 1     
   27   11   12 1     
   28   11   35 1     
   29   11   36 1     
   30   12   13 2     
   31   12   14 am    
   32   14   20 1     
   33   14   15 1     
   34   15   16 1     
   35   15   37 1     
   36   15   38 1     
   37   16   17 1     
   38   16   39 1     
   39   16   40 1     
   40   17   18 1     
   41   18   19 1     
   42   18   20 1     
   43   18   41 1     
   44   19   42 1     
   45   19   43 1     
   46   19   44 1     
   47   20   45 1     
   48   20   46 1     
   49   21   47 1     
   50    4   49 1     
   51   13   50 1     
   52   13   51 1     
   53   17   52 1     
   54   17   53 1     
@<TRIPOS>SUBSTRUCTURE
      1 S1             1
@<TRIPOS>SET
LONE_PAIRS      STATIC     ATOMS    <user>   **** ""
5 49 50 51 52 53
DONOR_HYDROGENS      STATIC     ATOMS    <user>   **** ""
2 34 48
ATOM$BLUE        STATIC     ATOMS    COLORGROUP SYSTEM
5 49 50 51 52 53
ATOM$RED        STATIC     ATOMS    COLORGROUP SYSTEM
2 34 48
