AV-unprocessed.smi:1423|AV-procd|sdf|5796|dock4
  -GOLD-   22720 5443D 1   1.00000     0.00000
 Structure written by MMmdl.
 44 45  0  0  0  0  0  0  0  0  2 V2000
  135.8465  138.9939  154.2427 C   0  0  0  0  0  0  0  0  0  0  0  0
  136.6424  137.8375  154.4772 O   0  0  0  0  0  0  0  0  0  0  0  0
  137.9784  137.8813  154.1350 C   0  0  0  0  0  0  0  0  0  0  0  0
  138.7757  136.7471  154.3855 C   0  0  0  0  0  0  0  0  0  0  0  0
  140.1408  136.7835  154.0426 C   0  0  0  0  0  0  0  0  0  0  0  0
  140.6705  137.9626  153.4648 C   0  0  0  0  0  0  0  0  0  0  0  0
  142.0248  138.1271  153.0633 N   0  0  0  0  0  0  0  0  0  0  0  0
  142.9550  137.1855  152.8285 C   0  0  0  0  0  0  0  0  0  0  0  0
  142.7856  135.9715  152.9341 O   0  0  0  0  0  0  0  0  0  0  0  0
  144.1246  137.7373  152.4733 N   0  0  0  0  0  0  0  0  0  0  0  0
  145.3391  136.9951  152.1347 C   0  0  2  0  0  0  0  0  0  0  0  0
  146.1806  136.6637  153.3839 C   0  0  0  0  0  0  0  0  0  0  0  0
  146.8570  137.9135  153.9728 C   0  0  0  0  0  0  0  0  0  0  0  0
  147.6874  138.6028  152.9496 N   0  3  2  0  0  0  0  0  0  0  0  0
  148.4804  139.7307  153.5035 C   0  0  0  0  0  0  0  0  0  0  0  0
  149.8551  139.2998  154.0262 C   0  0  0  0  0  0  0  0  0  0  0  0
  150.1927  138.0209  153.8464 N   0  0  0  0  0  0  0  0  0  0  0  0
  150.5963  140.0989  154.5957 O   0  0  0  0  0  0  0  0  0  0  0  0
  146.8775  139.0027  151.7708 C   0  0  0  0  0  0  0  0  0  0  0  0
  146.1919  137.7841  151.1257 C   0  0  0  0  0  0  0  0  0  0  0  0
  139.7841  139.0372  153.2432 C   0  0  0  0  0  0  0  0  0  0  0  0
  138.4749  139.0089  153.5688 N   0  0  0  0  0  0  0  0  0  0  0  0
  134.8263  138.8025  154.5750 H   0  0  0  0  0  0  0  0  0  0  0  0
  135.8078  139.2418  153.1810 H   0  0  0  0  0  0  0  0  0  0  0  0
  136.2188  139.8556  154.7983 H   0  0  0  0  0  0  0  0  0  0  0  0
  138.3462  135.8618  154.8305 H   0  0  0  0  0  0  0  0  0  0  0  0
  140.7421  135.9060  154.2202 H   0  0  0  0  0  0  0  0  0  0  0  0
  142.3369  139.0845  152.9928 H   0  0  0  0  0  0  0  0  0  0  0  0
  144.1720  138.7439  152.4118 H   0  0  0  0  0  0  0  0  0  0  0  0
  145.0354  136.0606  151.6588 H   0  0  0  0  0  0  0  0  0  0  0  0
  145.5694  136.1758  154.1440 H   0  0  0  0  0  0  0  0  0  0  0  0
  146.9510  135.9409  153.1117 H   0  0  0  0  0  0  0  0  0  0  0  0
  146.1055  138.6026  154.3612 H   0  0  0  0  0  0  0  0  0  0  0  0
  147.4748  137.6160  154.8206 H   0  0  0  0  0  0  0  0  0  0  0  0
  148.6634  140.4696  152.7221 H   0  0  0  0  0  0  0  0  0  0  0  0
  147.9150  140.2376  154.2873 H   0  0  0  0  0  0  0  0  0  0  0  0
  151.0886  137.6814  154.1660 H   0  0  0  0  0  0  0  0  0  0  0  0
  149.5498  137.3933  153.3843 H   0  0  0  0  0  0  0  0  0  0  0  0
  146.1356  139.7440  152.0721 H   0  0  0  0  0  0  0  0  0  0  0  0
  147.5185  139.4812  151.0295 H   0  0  0  0  0  0  0  0  0  0  0  0
  146.9579  137.1244  150.7155 H   0  0  0  0  0  0  0  0  0  0  0  0
  145.5814  138.1003  150.2788 H   0  0  0  0  0  0  0  0  0  0  0  0
  140.1365  139.9541  152.7933 H   0  0  0  0  0  0  0  0  0  0  0  0
  148.3614  137.9283  152.6150 H   0  0  0  0  0  0  0  0  0  0  0  0
  1  2  1  0  0  0  0
  1 23  1  0  0  0  0
  1 24  1  0  0  0  0
  1 25  1  0  0  0  0
  2  3  1  0  0  0  0
  3 22  1  0  0  0  0
  3  4  2  0  0  0  0
  4  5  1  0  0  0  0
  4 26  1  0  0  0  0
  5  6  2  0  0  0  0
  5 27  1  0  0  0  0
  6  7  1  0  0  0  0
  6 21  1  0  0  0  0
  7  8  1  0  0  0  0
  7 28  1  0  0  0  0
  8  9  2  0  0  0  0
  8 10  1  0  0  0  0
 10 11  1  0  0  0  0
 10 29  1  0  0  0  0
 11 20  1  0  0  0  0
 11 12  1  0  0  0  0
 11 30  1  0  0  0  0
 12 13  1  0  0  0  0
 12 31  1  0  0  0  0
 12 32  1  0  0  0  0
 13 14  1  0  0  0  0
 13 33  1  0  0  0  0
 13 34  1  0  0  0  0
 14 15  1  0  0  0  0
 14 19  1  0  0  0  0
 14 44  1  0  0  0  0
 15 16  1  0  0  0  0
 15 35  1  0  0  0  0
 15 36  1  0  0  0  0
 16 17  1  0  0  0  0
 16 18  2  0  0  0  0
 17 37  1  0  0  0  0
 17 38  1  0  0  0  0
 19 20  1  0  0  0  0
 19 39  1  0  0  0  0
 19 40  1  0  0  0  0
 20 41  1  0  0  0  0
 20 42  1  0  0  0  0
 21 22  2  0  0  0  0
 21 43  1  0  0  0  0
M  CHG  1  14   1
M  END
> <s_m_source_file>
AV-unprocessed.smi

> <i_m_source_file_index>
1423

> <i_lp_mmshare_version>
43012

> <i_f3d_flags>
0

> <s_epik_input>
W0NIM11PYzFbY0hdW2NIXWMoW2NIXW4xKVtOSF1DKD1PKVtOSF1bQ0hdMltDSDJdW0NIMl1OKFtDSDJdW0NIMl0yKVtDSDJdQyg9TylbTkgyXQ==

> <s_epik_cmdline>
J2VwaWtfcHl0aG9uJywgJy1waCcsICc3LjAnLCAnLXRuJywgJzgnLCAnLW1hJywgJzIwMCcsICctbWV0YWxfYmluZGluZycsICctaW1hZScsICc8aW5maWxlLm1hZT4nLCAnLW9tYWUnLCAnPG91dGZpbGUubWFlPic=

> <r_lp_tautomer_probability>
1

> <r_epik_Ionization_Penalty>
0.838963

> <r_epik_Ionization_Penalty_Charging>
0.838844

> <r_epik_Ionization_Penalty_Neutral>
0.0001192

> <r_epik_State_Penalty>
0.8734

> <r_epik_Charging_Adjusted_Penalty>
1.71224

> <i_epik_Tot_Q>
1

> <i_epik_Tot_abs_Q>
1

> <r_epik_Metal_State_Penalty>
0.890706

> <b_epik_Metal_Only>
0

> <s_lp_Force_Field>
OPLS_2005

> <r_lp_Energy>
16.4792

> <b_lp_Chiralities_Consistent>
1

> <s_lp_Variant>
AV-unprocessed.smi:1423-3

> <Gold.Version>
5.8.1

> <Gold.Id.Protein>
6NUR|6NUR_protein|mol2

> <Gold.PLP.Fitness>
54.6272

> <Gold.PLP.PLP>
-35.3845

> <Gold.PLP.part.hbond>
-7.3781

> <Gold.PLP.part.metal>
0.0000

> <Gold.PLP.part.buried>
5.7212

> <Gold.PLP.part.nonpolar>
-34.0983

> <Gold.PLP.part.repulsive>
0.5213

> <Gold.PLP.ligand.clash>
0.0000

> <Gold.PLP.ligand.torsion>
0.8904

> <Gold.PLP.Chemscore.Hbond>
6.0000

> <Gold.PLP.Chemscore.CHOScore>
1.0000

> <Gold.PLP.Chemscore.Metal>
0.0000

> <Gold.Chemscore.Hbonds>
donor molecule, donor type, donor heavy atom, donor atom, acceptor molecule, acceptor atom, score
      L1  H     7    28       P1 10175  1.00
      L1  H    10    29       P1 10175  1.00
      L1  H    14    44       P1  7948  2.00
      L1  H    17    38       P1  7948  1.00
      P1  H  7989  7998       L1    18  1.00
      L1  C    21    43       P1 10160  1.00

> <Gold.PLP.Chemscore.Internal.Correction>
0.0234

> <Gold.Rescore>
     Score         DG    S(hbond)    S(metal)    S(lipo)     H(rot)  DE(clash)    DE(int)     intcor
     16.72     -19.63       3.86        0.00      61.71       2.33       1.44       1.47       ----

> <Gold.Chemscore.Fitness>
16.7217

> <Gold.Chemscore.DG>
-19.6316

> <Gold.Chemscore.ZeroCoef>
-5.4800

> <Gold.Chemscore.Hbond>
3.8588

> <Gold.Chemscore.Metal>
0.0000

> <Gold.Chemscore.Lipo>
61.7141

> <Gold.Chemscore.Internal_Hbond>
0.0000

> <Gold.Chemscore.DEClash>
1.4400

> <Gold.Chemscore.DEInternal>
1.4698

> <Gold.Chemscore.Rot>
2.3271

> <Gold.Chemscore.Internal.Correction>
   9.000000E+99

> <Gold.Chemscore.Hbonds>
donor molecule, donor type, donor heavy atom, donor atom, acceptor molecule, acceptor atom, score
      L1  H     7    28       P1 10175  0.96
      L1  H    10    29       P1 10175  1.00
      L1  H    14    44       P1  7948  0.98
      L1  H    17    38       P1  7948  0.83
      P1  H  7989  7998       L1    18  0.78

> <Gold.Chemscore.Hbond.Weighted>
-12.8884

> <Gold.Chemscore.Metal.Weighted>
-0.0000

> <Gold.Chemscore.Lipo.Weighted>
-7.2206

> <Gold.Chemscore.Internal_Hbond.Weighted>
0.0000

> <Gold.Chemscore.DEClash.Weighted>
1.4400

> <Gold.Chemscore.DEInternal.Weighted>
1.4698

> <Gold.Chemscore.Rot.Weighted>
5.9573

> <Gold.Chemscore.Internal.Correction.Weighted>
   9.000000E+99

> <Gold.Protein.RotatedTorsions>
[ 6907 6896 6895 6894 ] final   63.91 input  -60.11 | X-H torsion
[ 7974 7965 7964 7962 ] final  119.07 input  175.53 | X-H torsion
[ 8008 7997 7996 7995 ] final   78.65 input   59.86 | X-H torsion
[ 10167 10162 10161 10158 ] final   79.59 input  -65.29 | X-H torsion
[ 10718 10713 10712 10709 ] final  -90.93 input   66.30 | X-H torsion
[ 10763 10752 10751 10750 ] final -168.78 input  -60.55 | X-H torsion
[ 11005 11000 10999 10996 ] final  102.68 input  -57.11 | X-H torsion

> <Gold.Protein.ActiveResidues>
 VAL166  LYS551  ARG553  GLY616  TRP617  ASP618  TYR619  PRO620  LYS621  CYS622 
 ASP623  PHE694  ASN695  SER759  ASP760  ASP761  ALA762  ILE779  LEU786  VAL792 
 PHE793  MET794  SER795  GLU796  ALA797  LYS798  CYS799  TRP800  GLU811  SER814 

> <Gold.Protein.RotatedAtoms>
  152.4290  134.5814  159.9948 H   0  0  0  0  0  0  0  0  0  0  0  0  # atno 6907 bound_to 6896
  151.5942  133.3357  159.3042 H   0  0  0  0  0  0  0  0  0  0  0  0  # atno 6908 bound_to 6896
  150.8181  134.7411  159.6813 H   0  0  0  0  0  0  0  0  0  0  0  0  # atno 6909 bound_to 6896
  145.1475  139.3230  143.4584 H   0  0  0  0  0  0  0  0  0  0  0  0  # atno 7974 bound_to 7965
  155.8587  140.3454  155.5742 H   0  0  0  0  0  0  0  0  0  0  0  0  # atno 8008 bound_to 7997
  155.7957  140.0878  157.2004 H   0  0  0  0  0  0  0  0  0  0  0  0  # atno 8009 bound_to 7997
  154.4011  140.1475  156.3202 H   0  0  0  0  0  0  0  0  0  0  0  0  # atno 8010 bound_to 7997
  139.9587  144.5976  150.8093 H   0  0  0  0  0  0  0  0  0  0  0  0  # atno 10167 bound_to 10162
  155.9990  130.4929  150.5398 H   0  0  0  0  0  0  0  0  0  0  0  0  # atno 10718 bound_to 10713
  154.6593  135.2922  154.9887 H   0  0  0  0  0  0  0  0  0  0  0  0  # atno 10763 bound_to 10752
  154.0953  135.6585  153.4863 H   0  0  0  0  0  0  0  0  0  0  0  0  # atno 10764 bound_to 10752
  153.0420  135.5229  154.7536 H   0  0  0  0  0  0  0  0  0  0  0  0  # atno 10765 bound_to 10752
  139.8779  134.9233  156.5094 H   0  0  0  0  0  0  0  0  0  0  0  0  # atno 11005 bound_to 11000
  146.3498  140.1537  142.8592 LP  0  0  0  0  0  0  0  0  0  0  0  0  # atno 17320 bound_to 7965
  145.0466  140.8986  143.5021 LP  0  0  0  0  0  0  0  0  0  0  0  0  # atno 17321 bound_to 7965
  140.7560  143.3057  151.2967 LP  0  0  0  0  0  0  0  0  0  0  0  0  # atno 17342 bound_to 10162
  139.6571  144.0256  152.2667 LP  0  0  0  0  0  0  0  0  0  0  0  0  # atno 17343 bound_to 10162
  157.3336  131.0704  151.1842 LP  0  0  0  0  0  0  0  0  0  0  0  0  # atno 17370 bound_to 10713
  157.2714  130.6706  149.6021 LP  0  0  0  0  0  0  0  0  0  0  0  0  # atno 17371 bound_to 10713
  140.8531  133.8117  155.9189 LP  0  0  0  0  0  0  0  0  0  0  0  0  # atno 17394 bound_to 11000
  140.9124  134.2243  157.4977 LP  0  0  0  0  0  0  0  0  0  0  0  0  # atno 17395 bound_to 11000

$$$$
