AV-unprocessed.smi:1487|AV-procd|sdf|6008|dock5
  -GOLD-   22720 6103D 1   1.00000     0.00000
 Structure written by MMmdl.
 48 50  0  0  0  0  0  0  0  0  2 V2000
  151.9964  144.9200  160.3342 C   0  0  0  0  0  0  0  0  0  0  0  0
  151.7730  143.7587  159.3819 C   0  0  0  0  0  0  0  0  0  0  0  0
  151.0422  143.9770  158.1924 C   0  0  0  0  0  0  0  0  0  0  0  0
  150.8098  142.9234  157.2816 C   0  0  0  0  0  0  0  0  0  0  0  0
  150.1319  142.9116  156.0745 N   0  0  0  0  0  0  0  0  0  0  0  0
  150.2611  141.6404  155.7064 C   0  0  0  0  0  0  0  0  0  0  0  0
  150.9483  140.8264  156.5309 N   0  0  0  0  0  0  0  0  0  0  0  0
  151.2164  139.4119  156.3399 C   0  0  0  0  0  0  0  0  0  0  0  0
  152.0436  139.1313  155.0703 C   0  0  1  0  0  0  0  0  0  0  0  0
  153.4064  138.9819  155.4204 O   0  0  0  0  0  0  0  0  0  0  0  0
  151.5775  137.8440  154.3623 C   0  0  0  0  0  0  0  0  0  0  0  0
  150.1041  137.7970  154.1778 N   0  3  1  0  0  0  0  0  0  0  0  0
  149.4054  137.2073  155.3497 C   0  0  0  0  0  0  0  0  0  0  0  0
  147.9011  137.0388  155.0760 C   0  0  0  0  0  0  0  0  0  0  0  0
  147.2602  138.3736  154.6751 C   0  0  0  0  0  0  0  0  0  0  0  0
  148.0168  138.9759  153.4824 C   0  0  1  0  0  0  0  0  0  0  0  0
  147.4795  140.2451  153.1763 O   0  0  0  0  0  0  0  0  0  0  0  0
  149.5188  139.1097  153.7938 C   0  0  0  0  0  0  0  0  0  0  0  0
  151.3330  141.6349  157.5955 C   0  0  0  0  0  0  0  0  0  0  0  0
  152.0629  141.4056  158.7754 C   0  0  0  0  0  0  0  0  0  0  0  0
  152.2849  142.4691  159.6749 C   0  0  0  0  0  0  0  0  0  0  0  0
  153.0713  142.2105  160.9479 C   0  0  0  0  0  0  0  0  0  0  0  0
  151.5929  145.8490  159.9304 H   0  0  0  0  0  0  0  0  0  0  0  0
  153.0611  145.0704  160.5140 H   0  0  0  0  0  0  0  0  0  0  0  0
  151.5066  144.7280  161.2891 H   0  0  0  0  0  0  0  0  0  0  0  0
  150.6513  144.9589  157.9697 H   0  0  0  0  0  0  0  0  0  0  0  0
  149.8322  141.2797  154.7829 H   0  0  0  0  0  0  0  0  0  0  0  0
  151.7307  139.0324  157.2238 H   0  0  0  0  0  0  0  0  0  0  0  0
  150.2608  138.8884  156.2895 H   0  0  0  0  0  0  0  0  0  0  0  0
  151.9564  139.9888  154.4034 H   0  0  0  0  0  0  0  0  0  0  0  0
  153.8439  138.5063  154.7298 H   0  0  0  0  0  0  0  0  0  0  0  0
  152.0755  137.7870  153.3926 H   0  0  0  0  0  0  0  0  0  0  0  0
  151.8991  136.9611  154.9171 H   0  0  0  0  0  0  0  0  0  0  0  0
  149.8346  136.2317  155.5822 H   0  0  0  0  0  0  0  0  0  0  0  0
  149.5616  137.8398  156.2251 H   0  0  0  0  0  0  0  0  0  0  0  0
  147.7533  136.3077  154.2800 H   0  0  0  0  0  0  0  0  0  0  0  0
  147.4036  136.6380  155.9597 H   0  0  0  0  0  0  0  0  0  0  0  0
  146.2091  138.2248  154.4241 H   0  0  0  0  0  0  0  0  0  0  0  0
  147.2861  139.0602  155.5226 H   0  0  0  0  0  0  0  0  0  0  0  0
  147.8848  138.3374  152.6076 H   0  0  0  0  0  0  0  0  0  0  0  0
  147.9136  140.5833  152.4078 H   0  0  0  0  0  0  0  0  0  0  0  0
  149.6747  139.8246  154.6037 H   0  0  0  0  0  0  0  0  0  0  0  0
  150.0308  139.5095  152.9188 H   0  0  0  0  0  0  0  0  0  0  0  0
  152.4488  140.4194  158.9874 H   0  0  0  0  0  0  0  0  0  0  0  0
  153.3643  141.1633  161.0297 H   0  0  0  0  0  0  0  0  0  0  0  0
  152.4727  142.4592  161.8247 H   0  0  0  0  0  0  0  0  0  0  0  0
  153.9789  142.8143  160.9649 H   0  0  0  0  0  0  0  0  0  0  0  0
  149.9404  137.1627  153.4083 H   0  0  0  0  0  0  0  0  0  0  0  0
  1  2  1  0  0  0  0
  1 23  1  0  0  0  0
  1 24  1  0  0  0  0
  1 25  1  0  0  0  0
  2 21  1  0  0  0  0
  2  3  2  0  0  0  0
  3  4  1  0  0  0  0
  3 26  1  0  0  0  0
  4 19  2  0  0  0  0
  4  5  1  0  0  0  0
  5  6  2  0  0  0  0
  6  7  1  0  0  0  0
  6 27  1  0  0  0  0
  7  8  1  0  0  0  0
  7 19  1  0  0  0  0
  8  9  1  0  0  0  0
  8 28  1  0  0  0  0
  8 29  1  0  0  0  0
  9 10  1  0  0  0  0
  9 11  1  0  0  0  0
  9 30  1  0  0  0  0
 10 31  1  0  0  0  0
 11 12  1  0  0  0  0
 11 32  1  0  0  0  0
 11 33  1  0  0  0  0
 12 18  1  0  0  0  0
 12 13  1  0  0  0  0
 12 48  1  0  0  0  0
 13 14  1  0  0  0  0
 13 34  1  0  0  0  0
 13 35  1  0  0  0  0
 14 15  1  0  0  0  0
 14 36  1  0  0  0  0
 14 37  1  0  0  0  0
 15 16  1  0  0  0  0
 15 38  1  0  0  0  0
 15 39  1  0  0  0  0
 16 17  1  0  0  0  0
 16 18  1  0  0  0  0
 16 40  1  0  0  0  0
 17 41  1  0  0  0  0
 18 42  1  0  0  0  0
 18 43  1  0  0  0  0
 19 20  1  0  0  0  0
 20 21  2  0  0  0  0
 20 44  1  0  0  0  0
 21 22  1  0  0  0  0
 22 45  1  0  0  0  0
 22 46  1  0  0  0  0
 22 47  1  0  0  0  0
M  CHG  1  12   1
M  END
> <s_m_source_file>
AV-unprocessed.smi

> <i_m_source_file_index>
1487

> <i_lp_mmshare_version>
43012

> <i_f3d_flags>
0

> <s_epik_input>
W0NIM11jKFtjSF0xKWMoW0NIM10pW2NIXWMoYzEyKW4oW2NIXW4yKVtDSDJdW0NASF0oW09IXSlbQ0gyXU4zW0NIMl1bQ0gyXVtDSDJdW0NAQEhdKFtPSF0pW0NIMl0z

> <s_epik_cmdline>
J2VwaWtfcHl0aG9uJywgJy1waCcsICc3LjAnLCAnLXRuJywgJzgnLCAnLW1hJywgJzIwMCcsICctbWV0YWxfYmluZGluZycsICctaW1hZScsICc8aW5maWxlLm1hZT4nLCAnLW9tYWUnLCAnPG91dGZpbGUubWFlPic=

> <r_epik_Ionization_Penalty>
0.0940186

> <r_epik_Ionization_Penalty_Charging>
0.00679686

> <r_epik_Ionization_Penalty_Neutral>
0.0872218

> <r_epik_State_Penalty>
0.0799311

> <r_epik_Charging_Adjusted_Penalty>
0.086728

> <i_epik_Tot_Q>
1

> <i_epik_Tot_abs_Q>
1

> <r_epik_Metal_State_Penalty>
7.95545e-05

> <b_epik_Metal_Only>
0

> <s_lp_Force_Field>
OPLS_2005

> <r_lp_Energy>
21.5016

> <b_lp_Chiralities_Consistent>
1

> <s_lp_Variant>
AV-unprocessed.smi:1487-2

> <Gold.Version>
5.8.1

> <Gold.Id.Protein>
6NUR|6NUR_protein|mol2

> <Gold.PLP.Fitness>
49.6416

> <Gold.PLP.PLP>
-40.2839

> <Gold.PLP.part.hbond>
-3.0000

> <Gold.PLP.part.metal>
0.0000

> <Gold.PLP.part.buried>
-3.2931

> <Gold.PLP.part.nonpolar>
-39.6194

> <Gold.PLP.part.repulsive>
4.5804

> <Gold.PLP.ligand.clash>
0.0000

> <Gold.PLP.ligand.torsion>
0.8494

> <Gold.PLP.Chemscore.Hbond>
3.6734

> <Gold.PLP.Chemscore.CHOScore>
0.0000

> <Gold.PLP.Chemscore.Metal>
0.0000

> <Gold.Chemscore.Hbonds>
donor molecule, donor type, donor heavy atom, donor atom, acceptor molecule, acceptor atom, score
      L1  H    12    48       P1  7948  2.00
      L1  H    17    41       P1  7957  0.52
      P1  H  7997  8010       L1    10  0.99

> <Gold.PLP.Chemscore.Internal.Correction>
0.0362

> <Gold.Rescore>
     Score         DG    S(hbond)    S(metal)    S(lipo)     H(rot)  DE(clash)    DE(int)     intcor
     15.34     -19.95       2.18        0.00     119.98       2.67       2.57       2.04       ----

> <Gold.Chemscore.Fitness>
15.3411

> <Gold.Chemscore.DG>
-19.9548

> <Gold.Chemscore.ZeroCoef>
-5.4800

> <Gold.Chemscore.Hbond>
2.1783

> <Gold.Chemscore.Metal>
0.0000

> <Gold.Chemscore.Lipo>
119.9802

> <Gold.Chemscore.Internal_Hbond>
0.0000

> <Gold.Chemscore.DEClash>
2.5717

> <Gold.Chemscore.DEInternal>
2.0420

> <Gold.Chemscore.Rot>
2.6712

> <Gold.Chemscore.Internal.Correction>
   9.000000E+99

> <Gold.Chemscore.Hbonds>
donor molecule, donor type, donor heavy atom, donor atom, acceptor molecule, acceptor atom, score
      L1  H    12    48       P1  7948  0.33
      L1  H    17    41       P1  7957  0.52
      P1  H  7997  8010       L1    10  0.82

> <Gold.Chemscore.Hbond.Weighted>
-7.2754

> <Gold.Chemscore.Metal.Weighted>
-0.0000

> <Gold.Chemscore.Lipo.Weighted>
-14.0377

> <Gold.Chemscore.Internal_Hbond.Weighted>
0.0000

> <Gold.Chemscore.DEClash.Weighted>
2.5717

> <Gold.Chemscore.DEInternal.Weighted>
2.0420

> <Gold.Chemscore.Rot.Weighted>
6.8383

> <Gold.Chemscore.Internal.Correction.Weighted>
   9.000000E+99

> <Gold.Protein.RotatedTorsions>
[ 6907 6896 6895 6894 ] final  106.92 input  -60.11 | X-H torsion
[ 7974 7965 7964 7962 ] final  -75.99 input  175.53 | X-H torsion
[ 8008 7997 7996 7995 ] final   85.29 input   59.86 | X-H torsion
[ 10167 10162 10161 10158 ] final  -83.94 input  -65.29 | X-H torsion
[ 10718 10713 10712 10709 ] final  -73.45 input   66.30 | X-H torsion
[ 10763 10752 10751 10750 ] final  -53.26 input  -60.55 | X-H torsion
[ 11005 11000 10999 10996 ] final  127.41 input  -57.11 | X-H torsion

> <Gold.Protein.ActiveResidues>
 VAL166  LYS551  ARG553  GLY616  TRP617  ASP618  TYR619  PRO620  LYS621  CYS622 
 ASP623  PHE694  ASN695  SER759  ASP760  ASP761  ALA762  ILE779  LEU786  VAL792 
 PHE793  MET794  SER795  GLU796  ALA797  LYS798  CYS799  TRP800  GLU811  SER814 

> <Gold.Protein.RotatedAtoms>
  152.5175  133.9311  159.7580 H   0  0  0  0  0  0  0  0  0  0  0  0  # atno 6907 bound_to 6896
  150.9661  133.6385  159.2753 H   0  0  0  0  0  0  0  0  0  0  0  0  # atno 6908 bound_to 6896
  151.3612  135.0910  159.9488 H   0  0  0  0  0  0  0  0  0  0  0  0  # atno 6909 bound_to 6896
  145.6188  140.9368  143.1149 H   0  0  0  0  0  0  0  0  0  0  0  0  # atno 7974 bound_to 7965
  155.9481  140.3403  155.6384 H   0  0  0  0  0  0  0  0  0  0  0  0  # atno 8008 bound_to 7997
  155.6955  140.0754  157.2449 H   0  0  0  0  0  0  0  0  0  0  0  0  # atno 8009 bound_to 7997
  154.4116  140.1649  156.2121 H   0  0  0  0  0  0  0  0  0  0  0  0  # atno 8010 bound_to 7997
  140.4179  143.2596  151.8930 H   0  0  0  0  0  0  0  0  0  0  0  0  # atno 10167 bound_to 10162
  156.0280  130.4394  150.2744 H   0  0  0  0  0  0  0  0  0  0  0  0  # atno 10718 bound_to 10713
  154.1559  135.6482  153.4974 H   0  0  0  0  0  0  0  0  0  0  0  0  # atno 10763 bound_to 10752
  153.0124  135.5349  154.6760 H   0  0  0  0  0  0  0  0  0  0  0  0  # atno 10764 bound_to 10752
  154.6061  135.2949  155.0455 H   0  0  0  0  0  0  0  0  0  0  0  0  # atno 10765 bound_to 10752
  139.9506  134.9622  156.8850 H   0  0  0  0  0  0  0  0  0  0  0  0  # atno 11005 bound_to 11000
  144.7239  139.7937  143.7372 LP  0  0  0  0  0  0  0  0  0  0  0  0  # atno 17320 bound_to 7965
  146.1447  139.4514  143.0086 LP  0  0  0  0  0  0  0  0  0  0  0  0  # atno 17321 bound_to 7965
  139.4782  144.5468  151.8445 LP  0  0  0  0  0  0  0  0  0  0  0  0  # atno 17342 bound_to 10162
  140.4566  144.1780  150.5902 LP  0  0  0  0  0  0  0  0  0  0  0  0  # atno 17343 bound_to 10162
  157.0847  131.0153  151.3144 LP  0  0  0  0  0  0  0  0  0  0  0  0  # atno 17370 bound_to 10713
  157.4900  130.7816  149.7498 LP  0  0  0  0  0  0  0  0  0  0  0  0  # atno 17371 bound_to 10713
  140.5729  134.0426  155.7436 LP  0  0  0  0  0  0  0  0  0  0  0  0  # atno 17394 bound_to 11000
  141.1168  133.9528  157.2808 LP  0  0  0  0  0  0  0  0  0  0  0  0  # atno 17395 bound_to 11000

$$$$
