AV-unprocessed.smi:2493|AV-procd|sdf|9819|dock1
  -GOLD-   2272013453D 1   1.00000     0.00000
 Structure written by MMmdl.
 41 42  0  0  0  0  0  0  0  0  1 V2000
  151.9321  145.9185  159.9140 C   0  0  0  0  0  0  0  0  0  0  0  0
  151.5559  144.4214  159.8250 C   0  0  0  0  0  0  0  0  0  0  0  0
  150.2230  144.2715  159.0379 C   0  0  0  0  0  0  0  0  0  0  0  0
  149.0962  144.9672  159.6582 N   0  0  0  0  0  0  0  0  0  0  0  0
  147.9418  144.4030  160.0471 C   0  0  0  0  0  0  0  0  0  0  0  0
  147.6883  143.2064  159.9120 O   0  0  0  0  0  0  0  0  0  0  0  0
  146.9079  145.3353  160.6792 C   0  0  0  0  0  0  0  0  0  0  0  0
  145.6549  144.5964  161.0256 C   0  0  0  0  0  0  0  0  0  0  0  0
  145.4497  143.4605  161.7583 C   0  0  0  0  0  0  0  0  0  0  0  0
  144.0380  143.2711  161.7182 C   0  0  0  0  0  0  0  0  0  0  0  0
  143.4140  144.2083  161.0226 N   0  0  0  0  0  0  0  0  0  0  0  0
  144.4103  145.0123  160.6065 N   0  0  0  0  0  0  0  0  0  0  0  0
  152.6803  143.7038  159.0278 C   0  0  0  0  0  0  0  0  0  0  0  0
  152.7735  142.1755  159.1955 C   0  0  0  0  0  0  0  0  0  0  0  0
  153.6813  141.7586  160.3649 C   0  0  0  0  0  0  0  0  0  0  0  0
  153.0876  142.0127  161.7577 C   0  0  0  0  0  0  0  0  0  0  0  0
  152.6594  143.4672  162.0176 C   0  0  0  0  0  0  0  0  0  0  0  0
  151.3746  143.8559  161.2626 C   0  0  0  0  0  0  0  0  0  0  0  0
  144.2303  145.8291  160.0397 H   0  0  0  0  0  0  0  0  0  0  0  0
  152.0164  146.3638  158.9219 H   0  0  0  0  0  0  0  0  0  0  0  0
  152.8879  146.0634  160.4182 H   0  0  0  0  0  0  0  0  0  0  0  0
  151.1923  146.4961  160.4680 H   0  0  0  0  0  0  0  0  0  0  0  0
  150.3514  144.5999  158.0049 H   0  0  0  0  0  0  0  0  0  0  0  0
  149.9458  143.2193  158.9744 H   0  0  0  0  0  0  0  0  0  0  0  0
  149.2085  145.9589  159.8114 H   0  0  0  0  0  0  0  0  0  0  0  0
  147.3347  145.7916  161.5731 H   0  0  0  0  0  0  0  0  0  0  0  0
  146.6838  146.1515  159.9909 H   0  0  0  0  0  0  0  0  0  0  0  0
  146.1961  142.8530  162.2485 H   0  0  0  0  0  0  0  0  0  0  0  0
  143.4528  142.4845  162.1715 H   0  0  0  0  0  0  0  0  0  0  0  0
  152.5532  143.9280  157.9676 H   0  0  0  0  0  0  0  0  0  0  0  0
  153.6509  144.1349  159.2774 H   0  0  0  0  0  0  0  0  0  0  0  0
  151.7872  141.7196  159.2835 H   0  0  0  0  0  0  0  0  0  0  0  0
  153.2071  141.7649  158.2829 H   0  0  0  0  0  0  0  0  0  0  0  0
  153.8982  140.6936  160.2764 H   0  0  0  0  0  0  0  0  0  0  0  0
  154.6451  142.2621  160.2801 H   0  0  0  0  0  0  0  0  0  0  0  0
  152.2412  141.3450  161.9223 H   0  0  0  0  0  0  0  0  0  0  0  0
  153.8327  141.7299  162.5019 H   0  0  0  0  0  0  0  0  0  0  0  0
  152.4605  143.5623  163.0856 H   0  0  0  0  0  0  0  0  0  0  0  0
  153.4732  144.1613  161.8071 H   0  0  0  0  0  0  0  0  0  0  0  0
  150.8369  144.5915  161.8625 H   0  0  0  0  0  0  0  0  0  0  0  0
  150.7133  142.9886  161.2393 H   0  0  0  0  0  0  0  0  0  0  0  0
  1  2  1  0  0  0  0
  1 20  1  0  0  0  0
  1 21  1  0  0  0  0
  1 22  1  0  0  0  0
  2 18  1  0  0  0  0
  2  3  1  0  0  0  0
  2 13  1  0  0  0  0
  3  4  1  0  0  0  0
  3 23  1  0  0  0  0
  3 24  1  0  0  0  0
  4  5  1  0  0  0  0
  4 25  1  0  0  0  0
  5  6  2  0  0  0  0
  5  7  1  0  0  0  0
  7  8  1  0  0  0  0
  7 26  1  0  0  0  0
  7 27  1  0  0  0  0
  8 12  1  0  0  0  0
  8  9  2  0  0  0  0
  9 10  1  0  0  0  0
  9 28  1  0  0  0  0
 10 11  2  0  0  0  0
 10 29  1  0  0  0  0
 11 12  1  0  0  0  0
 12 19  1  0  0  0  0
 13 14  1  0  0  0  0
 13 30  1  0  0  0  0
 13 31  1  0  0  0  0
 14 15  1  0  0  0  0
 14 32  1  0  0  0  0
 14 33  1  0  0  0  0
 15 16  1  0  0  0  0
 15 34  1  0  0  0  0
 15 35  1  0  0  0  0
 16 17  1  0  0  0  0
 16 36  1  0  0  0  0
 16 37  1  0  0  0  0
 17 18  1  0  0  0  0
 17 38  1  0  0  0  0
 17 39  1  0  0  0  0
 18 40  1  0  0  0  0
 18 41  1  0  0  0  0
M  END
> <s_m_source_file>
AV-unprocessed.smi

> <i_m_source_file_index>
2493

> <i_lp_mmshare_version>
43012

> <i_f3d_flags>
0

> <s_epik_input>
W0NIMl0xW0NIMl1bQ0gyXVtDSDJdW0NIMl1bQ0gyXUMxKFtDSDNdKVtDSDJdW05IXUMoPU8pW0NIMl1jMltjSF1bY0hdbltuSF0y

> <s_epik_cmdline>
J2VwaWtfcHl0aG9uJywgJy1waCcsICc3LjAnLCAnLXRuJywgJzgnLCAnLW1hJywgJzIwMCcsICctbWV0YWxfYmluZGluZycsICctaW1hZScsICc8aW5maWxlLm1hZT4nLCAnLW9tYWUnLCAnPG91dGZpbGUubWFlPic=

> <r_lp_tautomer_probability>
0.5

> <r_epik_Ionization_Penalty>
2.55018e-05

> <r_epik_Ionization_Penalty_Charging>
0

> <r_epik_Ionization_Penalty_Neutral>
2.55018e-05

> <r_epik_State_Penalty>
0.41068

> <r_epik_Charging_Adjusted_Penalty>
0.41068

> <i_epik_Tot_Q>
0

> <i_epik_Tot_abs_Q>
0

> <r_epik_Metal_State_Penalty>
0.410675

> <b_epik_Metal_Only>
0

> <s_lp_Force_Field>
OPLS_2005

> <r_lp_Energy>
19.8643

> <b_lp_Chiralities_Consistent>
1

> <s_lp_Variant>
AV-unprocessed.smi:2493-1

> <Gold.Version>
5.8.1

> <Gold.Id.Protein>
6NUR|6NUR_protein|mol2

> <Gold.PLP.Fitness>
50.9694

> <Gold.PLP.PLP>
-48.1890

> <Gold.PLP.part.hbond>
-3.1668

> <Gold.PLP.part.metal>
0.0000

> <Gold.PLP.part.buried>
-5.2604

> <Gold.PLP.part.nonpolar>
-40.5902

> <Gold.PLP.part.repulsive>
0.4105

> <Gold.PLP.ligand.clash>
0.0000

> <Gold.PLP.ligand.torsion>
0.0577

> <Gold.PLP.Chemscore.Hbond>
0.9600

> <Gold.PLP.Chemscore.CHOScore>
0.0000

> <Gold.PLP.Chemscore.Metal>
0.0000

> <Gold.Chemscore.Hbonds>
donor molecule, donor type, donor heavy atom, donor atom, acceptor molecule, acceptor atom, score
      P1  H  6933  6944       L1     6  0.93

> <Gold.PLP.Chemscore.Internal.Correction>
0.0158

> <Gold.Rescore>
     Score         DG    S(hbond)    S(metal)    S(lipo)     H(rot)  DE(clash)    DE(int)     intcor
     18.69     -19.49       1.02        0.00     126.99       1.66       0.14       0.66       ----

> <Gold.Chemscore.Fitness>
18.6902

> <Gold.Chemscore.DG>
-19.4911

> <Gold.Chemscore.ZeroCoef>
-5.4800

> <Gold.Chemscore.Hbond>
1.0180

> <Gold.Chemscore.Metal>
0.0000

> <Gold.Chemscore.Lipo>
126.9947

> <Gold.Chemscore.Internal_Hbond>
0.0000

> <Gold.Chemscore.DEClash>
0.1389

> <Gold.Chemscore.DEInternal>
0.6620

> <Gold.Chemscore.Rot>
1.6592

> <Gold.Chemscore.Internal.Correction>
   9.000000E+99

> <Gold.Chemscore.Hbonds>
donor molecule, donor type, donor heavy atom, donor atom, acceptor molecule, acceptor atom, score
      P1  H  6933  6944       L1     6  0.45

> <Gold.Chemscore.Hbond.Weighted>
-3.4002

> <Gold.Chemscore.Metal.Weighted>
-0.0000

> <Gold.Chemscore.Lipo.Weighted>
-14.8584

> <Gold.Chemscore.Internal_Hbond.Weighted>
0.0000

> <Gold.Chemscore.DEClash.Weighted>
0.1389

> <Gold.Chemscore.DEInternal.Weighted>
0.6620

> <Gold.Chemscore.Rot.Weighted>
4.2475

> <Gold.Chemscore.Internal.Correction.Weighted>
   9.000000E+99

> <Gold.Protein.RotatedTorsions>
[ 6907 6896 6895 6894 ] final -103.82 input  -60.11 | X-H torsion
[ 7974 7965 7964 7962 ] final   -2.32 input  175.53 | X-H torsion
[ 8008 7997 7996 7995 ] final   64.94 input   59.86 | X-H torsion
[ 10167 10162 10161 10158 ] final  112.77 input  -65.29 | X-H torsion
[ 10718 10713 10712 10709 ] final  -61.06 input   66.30 | X-H torsion
[ 10763 10752 10751 10750 ] final  158.46 input  -60.55 | X-H torsion
[ 11005 11000 10999 10996 ] final -150.19 input  -57.11 | X-H torsion

> <Gold.Protein.ActiveResidues>
 VAL166  LYS551  ARG553  GLY616  TRP617  ASP618  TYR619  PRO620  LYS621  CYS622 
 ASP623  PHE694  ASN695  SER759  ASP760  ASP761  ALA762  ILE779  LEU786  VAL792 
 PHE793  MET794  SER795  GLU796  ALA797  LYS798  CYS799  TRP800  GLU811  SER814 

> <Gold.Protein.RotatedAtoms>
  150.7258  134.0372  159.3752 H   0  0  0  0  0  0  0  0  0  0  0  0  # atno 6907 bound_to 6896
  151.8343  135.0609  160.0450 H   0  0  0  0  0  0  0  0  0  0  0  0  # atno 6908 bound_to 6896
  152.2910  133.5525  159.5594 H   0  0  0  0  0  0  0  0  0  0  0  0  # atno 6909 bound_to 6896
  146.2406  140.1554  142.8333 H   0  0  0  0  0  0  0  0  0  0  0  0  # atno 7974 bound_to 7965
  155.6540  140.3497  155.4758 H   0  0  0  0  0  0  0  0  0  0  0  0  # atno 8008 bound_to 7997
  155.9824  140.1177  157.0737 H   0  0  0  0  0  0  0  0  0  0  0  0  # atno 8009 bound_to 7997
  154.4195  140.1135  156.5440 H   0  0  0  0  0  0  0  0  0  0  0  0  # atno 8010 bound_to 7997
  139.6511  144.7128  151.2047 H   0  0  0  0  0  0  0  0  0  0  0  0  # atno 10167 bound_to 10162
  156.0947  130.4194  150.0941 H   0  0  0  0  0  0  0  0  0  0  0  0  # atno 10718 bound_to 10713
  154.2164  135.2784  155.2940 H   0  0  0  0  0  0  0  0  0  0  0  0  # atno 10763 bound_to 10752
  154.5737  135.5610  153.7122 H   0  0  0  0  0  0  0  0  0  0  0  0  # atno 10764 bound_to 10752
  153.0052  135.6327  154.2304 H   0  0  0  0  0  0  0  0  0  0  0  0  # atno 10765 bound_to 10752
  140.7428  134.3494  157.5143 H   0  0  0  0  0  0  0  0  0  0  0  0  # atno 11005 bound_to 11000
  145.0133  140.8732  143.5211 LP  0  0  0  0  0  0  0  0  0  0  0  0  # atno 17320 bound_to 7965
  145.1591  139.2469  143.5401 LP  0  0  0  0  0  0  0  0  0  0  0  0  # atno 17321 bound_to 7965
  140.7538  143.6149  150.8569 LP  0  0  0  0  0  0  0  0  0  0  0  0  # atno 17342 bound_to 10162
  139.9797  143.5965  152.2947 LP  0  0  0  0  0  0  0  0  0  0  0  0  # atno 17343 bound_to 10162
  156.8943  130.9599  151.3584 LP  0  0  0  0  0  0  0  0  0  0  0  0  # atno 17370 bound_to 10713
  157.6105  130.8580  149.8945 LP  0  0  0  0  0  0  0  0  0  0  0  0  # atno 17371 bound_to 10713
  139.8802  134.9092  156.2985 LP  0  0  0  0  0  0  0  0  0  0  0  0  # atno 17394 bound_to 11000
  140.9821  133.7261  156.0687 LP  0  0  0  0  0  0  0  0  0  0  0  0  # atno 17395 bound_to 11000

$$$$
