AV-unprocessed.smi:1659|AV-procd|sdf|6650|dock1
  -GOLD-   22720 7353D 1   1.00000     0.00000
 Structure written by MMmdl.
 43 44  0  0  0  0  0  0  0  0  1 V2000
  151.9823  131.7235  158.2843 C   0  0  0  0  0  0  0  0  0  0  0  0
  151.7546  132.5159  157.0429 C   0  0  0  0  0  0  0  0  0  0  0  0
  151.7920  133.8553  156.7746 C   0  0  0  0  0  0  0  0  0  0  0  0
  151.4785  133.9131  155.3906 C   0  0  0  0  0  0  0  0  0  0  0  0
  151.4151  135.1559  154.7099 N   0  0  0  0  0  0  0  0  0  0  0  0
  151.7648  136.3657  155.1796 C   0  0  0  0  0  0  0  0  0  0  0  0
  152.2076  136.5881  156.3068 O   0  0  0  0  0  0  0  0  0  0  0  0
  151.5725  137.3209  154.2583 N   0  0  0  0  0  0  0  0  0  0  0  0
  151.8576  138.7383  154.4503 C   0  0  0  0  0  0  0  0  0  0  0  0
  151.2797  139.2560  155.7769 C   0  0  0  0  0  0  0  0  0  0  0  0
  151.3308  140.7898  155.8809 C   0  0  0  0  0  0  0  0  0  0  0  0
  151.0228  141.2451  157.2453 N   0  0  0  0  0  0  0  0  0  0  0  0
  150.0386  142.3337  157.3471 C   0  0  0  0  0  0  0  0  0  0  0  0
  150.6507  143.6361  157.8978 C   0  0  0  0  0  0  0  0  0  0  0  0
  150.7756  143.6690  159.4284 C   0  0  0  0  0  0  0  0  0  0  0  0
  151.7157  142.6036  160.0107 C   0  0  0  0  0  0  0  0  0  0  0  0
  151.2530  141.1646  159.7278 C   0  0  0  0  0  0  0  0  0  0  0  0
  151.6318  140.6879  158.3197 C   0  0  0  0  0  0  0  0  0  0  0  0
  152.4757  139.7966  158.2166 O   0  0  0  0  0  0  0  0  0  0  0  0
  151.2676  132.7173  154.8622 N   0  0  0  0  0  0  0  0  0  0  0  0
  151.4445  131.8156  155.9184 O   0  0  0  0  0  0  0  0  0  0  0  0
  151.9863  132.3685  159.1629 H   0  0  0  0  0  0  0  0  0  0  0  0
  152.9400  131.2048  158.2403 H   0  0  0  0  0  0  0  0  0  0  0  0
  151.1983  130.9777  158.4170 H   0  0  0  0  0  0  0  0  0  0  0  0
  152.0098  134.6606  157.4602 H   0  0  0  0  0  0  0  0  0  0  0  0
  151.0648  135.1198  153.7643 H   0  0  0  0  0  0  0  0  0  0  0  0
  151.2041  137.0489  153.3585 H   0  0  0  0  0  0  0  0  0  0  0  0
  152.9399  138.8688  154.4416 H   0  0  0  0  0  0  0  0  0  0  0  0
  151.4681  139.3170  153.6111 H   0  0  0  0  0  0  0  0  0  0  0  0
  150.2486  138.9165  155.8824 H   0  0  0  0  0  0  0  0  0  0  0  0
  151.8341  138.8180  156.6079 H   0  0  0  0  0  0  0  0  0  0  0  0
  152.3100  141.1489  155.5630 H   0  0  0  0  0  0  0  0  0  0  0  0
  150.6310  141.2310  155.1688 H   0  0  0  0  0  0  0  0  0  0  0  0
  149.6188  142.5552  156.3656 H   0  0  0  0  0  0  0  0  0  0  0  0
  149.1885  142.0177  157.9532 H   0  0  0  0  0  0  0  0  0  0  0  0
  151.6199  143.8246  157.4340 H   0  0  0  0  0  0  0  0  0  0  0  0
  150.0121  144.4679  157.5986 H   0  0  0  0  0  0  0  0  0  0  0  0
  151.1355  144.6535  159.7287 H   0  0  0  0  0  0  0  0  0  0  0  0
  149.7863  143.5645  159.8758 H   0  0  0  0  0  0  0  0  0  0  0  0
  152.7294  142.7576  159.6374 H   0  0  0  0  0  0  0  0  0  0  0  0
  151.7735  142.7458  161.0902 H   0  0  0  0  0  0  0  0  0  0  0  0
  151.7322  140.4975  160.4457 H   0  0  0  0  0  0  0  0  0  0  0  0
  150.1808  141.0531  159.8929 H   0  0  0  0  0  0  0  0  0  0  0  0
  1  2  1  0  0  0  0
  1 22  1  0  0  0  0
  1 23  1  0  0  0  0
  1 24  1  0  0  0  0
  2 21  1  0  0  0  0
  2  3  2  0  0  0  0
  3  4  1  0  0  0  0
  3 25  1  0  0  0  0
  4  5  1  0  0  0  0
  4 20  2  0  0  0  0
  5  6  1  0  0  0  0
  5 26  1  0  0  0  0
  6  7  2  0  0  0  0
  6  8  1  0  0  0  0
  8  9  1  0  0  0  0
  8 27  1  0  0  0  0
  9 10  1  0  0  0  0
  9 28  1  0  0  0  0
  9 29  1  0  0  0  0
 10 11  1  0  0  0  0
 10 30  1  0  0  0  0
 10 31  1  0  0  0  0
 11 12  1  0  0  0  0
 11 32  1  0  0  0  0
 11 33  1  0  0  0  0
 12 18  1  0  0  0  0
 12 13  1  0  0  0  0
 13 14  1  0  0  0  0
 13 34  1  0  0  0  0
 13 35  1  0  0  0  0
 14 15  1  0  0  0  0
 14 36  1  0  0  0  0
 14 37  1  0  0  0  0
 15 16  1  0  0  0  0
 15 38  1  0  0  0  0
 15 39  1  0  0  0  0
 16 17  1  0  0  0  0
 16 40  1  0  0  0  0
 16 41  1  0  0  0  0
 17 18  1  0  0  0  0
 17 42  1  0  0  0  0
 17 43  1  0  0  0  0
 18 19  2  0  0  0  0
 20 21  1  0  0  0  0
M  END
> <s_m_source_file>
AV-unprocessed.smi

> <i_m_source_file_index>
1659

> <i_lp_mmshare_version>
43012

> <i_f3d_flags>
0

> <s_epik_input>
W0NIM11jMVtjSF1jKG5vMSlbTkhdQyg9TylbTkhdW0NIMl1bQ0gyXVtDSDJdTjJbQ0gyXVtDSDJdW0NIMl1bQ0gyXVtDSDJdQzI9Tw==

> <s_epik_cmdline>
J2VwaWtfcHl0aG9uJywgJy1waCcsICc3LjAnLCAnLXRuJywgJzgnLCAnLW1hJywgJzIwMCcsICctbWV0YWxfYmluZGluZycsICctaW1hZScsICc8aW5maWxlLm1hZT4nLCAnLW9tYWUnLCAnPG91dGZpbGUubWFlPic=

> <r_lp_tautomer_probability>
1

> <r_epik_Ionization_Penalty>
2.8543e-05

> <r_epik_Ionization_Penalty_Charging>
0

> <r_epik_Ionization_Penalty_Neutral>
2.8543e-05

> <r_epik_State_Penalty>
-0

> <r_epik_Charging_Adjusted_Penalty>
0

> <i_epik_Tot_Q>
0

> <i_epik_Tot_abs_Q>
0

> <r_epik_Metal_State_Penalty>
0.00845548

> <b_epik_Metal_Only>
0

> <s_lp_Force_Field>
OPLS_2005

> <r_lp_Energy>
16.7735

> <b_lp_Chiralities_Consistent>
1

> <s_lp_Variant>
AV-unprocessed.smi:1659-1

> <Gold.Version>
5.8.1

> <Gold.Id.Protein>
6NUR|6NUR_protein|mol2

> <Gold.PLP.Fitness>
52.1404

> <Gold.PLP.PLP>
-40.7166

> <Gold.PLP.part.hbond>
-5.1792

> <Gold.PLP.part.metal>
0.0000

> <Gold.PLP.part.buried>
-4.6707

> <Gold.PLP.part.nonpolar>
-30.5057

> <Gold.PLP.part.repulsive>
0.2632

> <Gold.PLP.ligand.clash>
0.0000

> <Gold.PLP.ligand.torsion>
0.2667

> <Gold.PLP.Chemscore.Hbond>
3.9360

> <Gold.PLP.Chemscore.CHOScore>
0.0000

> <Gold.PLP.Chemscore.Metal>
0.0000

> <Gold.Chemscore.Hbonds>
donor molecule, donor type, donor heavy atom, donor atom, acceptor molecule, acceptor atom, score
      L1  H     5    26       P1  7949  0.04
      L1  H     8    27       P1  7949  0.70
      P1  H  7997  8009       L1    19  0.03

> <Gold.PLP.Chemscore.Internal.Correction>
0.1492

> <Gold.Rescore>
     Score         DG    S(hbond)    S(metal)    S(lipo)     H(rot)  DE(clash)    DE(int)     intcor
     17.10     -20.45       2.98        0.00      83.92       1.88       0.62       2.73       ----

> <Gold.Chemscore.Fitness>
17.0996

> <Gold.Chemscore.DG>
-20.4464

> <Gold.Chemscore.ZeroCoef>
-5.4800

> <Gold.Chemscore.Hbond>
2.9835

> <Gold.Chemscore.Metal>
0.0000

> <Gold.Chemscore.Lipo>
83.9163

> <Gold.Chemscore.Internal_Hbond>
0.0000

> <Gold.Chemscore.DEClash>
0.6202

> <Gold.Chemscore.DEInternal>
2.7266

> <Gold.Chemscore.Rot>
1.8816

> <Gold.Chemscore.Internal.Correction>
   9.000000E+99

> <Gold.Chemscore.Hbonds>
donor molecule, donor type, donor heavy atom, donor atom, acceptor molecule, acceptor atom, score
      L1  H     5    26       P1  7949  0.01
      L1  H     8    27       P1  7949  0.39
      P1  H  7997  8009       L1    19  0.09

> <Gold.Chemscore.Hbond.Weighted>
-9.9650

> <Gold.Chemscore.Metal.Weighted>
-0.0000

> <Gold.Chemscore.Lipo.Weighted>
-9.8182

> <Gold.Chemscore.Internal_Hbond.Weighted>
0.0000

> <Gold.Chemscore.DEClash.Weighted>
0.6202

> <Gold.Chemscore.DEInternal.Weighted>
2.7266

> <Gold.Chemscore.Rot.Weighted>
4.8169

> <Gold.Chemscore.Internal.Correction.Weighted>
   9.000000E+99

> <Gold.Protein.RotatedTorsions>
[ 6907 6896 6895 6894 ] final   84.36 input  -60.11 | X-H torsion
[ 7974 7965 7964 7962 ] final   40.84 input  175.53 | X-H torsion
[ 8008 7997 7996 7995 ] final  162.08 input   59.86 | X-H torsion
[ 10167 10162 10161 10158 ] final   96.69 input  -65.29 | X-H torsion
[ 10718 10713 10712 10709 ] final  132.30 input   66.30 | X-H torsion
[ 10763 10752 10751 10750 ] final  -24.22 input  -60.55 | X-H torsion
[ 11005 11000 10999 10996 ] final -101.17 input  -57.11 | X-H torsion

> <Gold.Protein.ActiveResidues>
 VAL166  LYS551  ARG553  GLY616  TRP617  ASP618  TYR619  PRO620  LYS621  CYS622 
 ASP623  PHE694  ASN695  SER759  ASP760  ASP761  ALA762  ILE779  LEU786  VAL792 
 PHE793  MET794  SER795  GLU796  ALA797  LYS798  CYS799  TRP800  GLU811  SER814 

> <Gold.Protein.RotatedAtoms>
  152.5350  134.2753  159.8986 H   0  0  0  0  0  0  0  0  0  0  0  0  # atno 6907 bound_to 6896
  151.2709  133.4249  159.2629 H   0  0  0  0  0  0  0  0  0  0  0  0  # atno 6908 bound_to 6896
  151.0368  134.9594  159.8197 H   0  0  0  0  0  0  0  0  0  0  0  0  # atno 6909 bound_to 6896
  146.0873  139.5486  142.9499 H   0  0  0  0  0  0  0  0  0  0  0  0  # atno 7974 bound_to 7965
  156.2057  140.1760  156.7805 H   0  0  0  0  0  0  0  0  0  0  0  0  # atno 8008 bound_to 7997
  154.5652  140.0692  156.8910 H   0  0  0  0  0  0  0  0  0  0  0  0  # atno 8009 bound_to 7997
  155.2774  140.3346  155.4263 H   0  0  0  0  0  0  0  0  0  0  0  0  # atno 8010 bound_to 7997
  139.7870  144.6866  150.9944 H   0  0  0  0  0  0  0  0  0  0  0  0  # atno 10167 bound_to 10162
  157.4884  131.1089  150.9589 H   0  0  0  0  0  0  0  0  0  0  0  0  # atno 10718 bound_to 10713
  153.6803  135.6967  153.5120 H   0  0  0  0  0  0  0  0  0  0  0  0  # atno 10763 bound_to 10752
  153.2490  135.4281  155.0777 H   0  0  0  0  0  0  0  0  0  0  0  0  # atno 10764 bound_to 10752
  154.8402  135.3526  154.6346 H   0  0  0  0  0  0  0  0  0  0  0  0  # atno 10765 bound_to 10752
  141.1241  133.8457  157.1198 H   0  0  0  0  0  0  0  0  0  0  0  0  # atno 11005 bound_to 11000
  145.6106  141.0340  143.1968 LP  0  0  0  0  0  0  0  0  0  0  0  0  # atno 17320 bound_to 7965
  144.7334  139.7656  143.7338 LP  0  0  0  0  0  0  0  0  0  0  0  0  # atno 17321 bound_to 7965
  140.7820  143.4421  151.0536 LP  0  0  0  0  0  0  0  0  0  0  0  0  # atno 17342 bound_to 10162
  139.8099  143.7965  152.3170 LP  0  0  0  0  0  0  0  0  0  0  0  0  # atno 17343 bound_to 10162
  157.0299  130.5707  149.5342 LP  0  0  0  0  0  0  0  0  0  0  0  0  # atno 17370 bound_to 10713
  156.0159  130.5253  150.8134 LP  0  0  0  0  0  0  0  0  0  0  0  0  # atno 17371 bound_to 10713
  140.0224  134.9939  157.0619 LP  0  0  0  0  0  0  0  0  0  0  0  0  # atno 17394 bound_to 11000
  140.4418  134.1673  155.7174 LP  0  0  0  0  0  0  0  0  0  0  0  0  # atno 17395 bound_to 11000

$$$$
