#       Name:                AV-unprocessed.smi:157
#       Creating user name   scv26
#       Creation time:       Thu Mar 26 19:01:40 2020


#       File generated by GOLD software.
#

@<TRIPOS>MOLECULE
AV-unprocessed.smi:157
    45    47     1
SMALL
NO_CHARGES


@<TRIPOS>ATOM
      1 ****        -4.9109   2.6823  -0.9319 O.3            1 S1                 0.0000
      2 ****        -4.0669   1.5511  -0.9540 C.3            1 S1                 0.0000
      3 ****        -2.5944   1.9867  -1.0020 C.3            1 S1                 0.0000
      4 ****        -1.7891   0.8280  -1.2118 O.3            1 S1                 0.0000
      5 ****        -0.6057   0.9957  -0.5071 C.3            1 S1                 0.0000
      6 ****         0.0114  -0.3407  -0.2551 N.pl3          1 S1                 0.0000
      7 ****        -0.6090  -1.5389  -0.2984 C.2            1 S1                 0.0000
      8 ****         0.1761  -2.5681  -0.0279 N.pl3          1 S1                 1.0000
      9 ****         1.4273  -2.0490   0.2296 C.2            1 S1                 0.0000
     10 ****         1.3062  -0.6656   0.0759 C.2            1 S1                 0.0000
     11 ****         2.2695   0.3445   0.2210 N.2            1 S1                 0.0000
     12 ****         3.5400   0.1067   0.2661 C.2            1 S1                 0.0000
     13 ****         4.2032  -1.1092   0.2732 N.pl3          1 S1                 0.0000
     14 ****         3.8059  -2.2300   1.1068 C.3            1 S1                 0.0000
     15 ****         2.5546  -2.9604   0.6020 C.3            1 S1                 0.0000
     16 ****         2.9280  -3.8224  -0.4532 O.3            1 S1                 0.0000
     17 ****        -1.0143   1.6592   0.7977 C.3            1 S1                 0.0000
     18 ****        -2.0846   2.6223   0.3119 C.3            1 S1                 0.0000
     19 ****        -1.5129   3.8894   0.0530 O.3            1 S1                 0.0000
     20 ****        -2.4340   2.6580  -1.8481 H              1 S1                 0.0000
     21 ****         0.1236   1.5644  -1.0866 H              1 S1                 0.0000
     22 ****         2.2037  -3.6067   1.4074 H              1 S1                 0.0000
     23 ****        -2.8724   2.7406   1.0569 H              1 S1                 0.0000
     24 ****        -5.8090   2.3879  -0.9189 H              1 S1                 0.0000
     25 ****        -4.2623   0.9283  -0.0804 H              1 S1                 0.0000
     26 ****        -4.3127   0.9587  -1.8356 H              1 S1                 0.0000
     27 ****        -1.6534  -1.6443  -0.5321 H              1 S1                 0.0000
     28 ****         4.2320   0.9488   0.3125 H              1 S1                 0.0000
     29 ****         5.1970  -1.1176   0.0926 H              1 S1                 0.0000
     30 ****         4.6418  -2.9224   1.2115 H              1 S1                 0.0000
     31 ****         3.6090  -1.8399   2.1066 H              1 S1                 0.0000
     32 ****         2.2025  -4.3940  -0.6518 H              1 S1                 0.0000
     33 ****        -1.4512   0.9107   1.4607 H              1 S1                 0.0000
     34 ****        -0.1645   2.1286   1.2953 H              1 S1                 0.0000
     35 ****        -2.1885   4.4612  -0.2791 H              1 S1                 0.0000
     36 ****        -0.0963  -3.5427  -0.0065 H              1 S1                 0.0000
     37 ****        -4.7504   3.2384  -1.7473 LP             1 S1                 0.0000
     38 ****        -4.7230   3.2270  -0.1146 LP             1 S1                 0.0000
     39 ****        -1.5918   0.7236  -2.1866 LP             1 S1                 0.0000
     40 ****        -2.2695   0.0161  -0.8802 LP             1 S1                 0.0000
     41 ****         1.9591   1.2924   0.2929 LP             1 S1                 0.0000
     42 ****         3.7195  -4.3678  -0.1773 LP             1 S1                 0.0000
     43 ****         3.1610  -3.2821  -1.2618 LP             1 S1                 0.0000
     44 ****        -0.7843   3.7983  -0.6259 LP             1 S1                 0.0000
     45 ****        -1.1357   4.2682   0.8981 LP             1 S1                 0.0000
@<TRIPOS>BOND
    1    1    2 1     
    2    1   24 1     
    3    2    3 1     
    4    2   25 1     
    5    2   26 1     
    6    3   20 1     
    7    3   18 1     
    8    3    4 1     
    9    4    5 1     
   10    5   21 1     
   11    5    6 1     
   12    5   17 1     
   13    6   10 1     
   14    6    7 1     
   15    7    8 2     
   16    7   27 1     
   17    8    9 1     
   18    8   36 1     
   19    9   15 1     
   20    9   10 2     
   21   10   11 1     
   22   11   12 2     
   23   12   13 1     
   24   12   28 1     
   25   13   14 1     
   26   13   29 1     
   27   14   15 1     
   28   14   30 1     
   29   14   31 1     
   30   15   22 1     
   31   15   16 1     
   32   16   32 1     
   33   17   18 1     
   34   17   33 1     
   35   17   34 1     
   36   18   23 1     
   37   18   19 1     
   38   19   35 1     
   39    1   37 1     
   40    1   38 1     
   41    4   39 1     
   42    4   40 1     
   43   11   41 1     
   44   16   42 1     
   45   16   43 1     
   46   19   44 1     
   47   19   45 1     
@<TRIPOS>SUBSTRUCTURE
      1 S1             1
@<TRIPOS>SET
LONE_PAIRS      STATIC     ATOMS    <user>   **** ""
9 37 38 39 40 41 42 43 44 45
DONOR_HYDROGENS      STATIC     ATOMS    <user>   **** ""
5 24 36 29 32 35
ATOM$BLUE        STATIC     ATOMS    COLORGROUP SYSTEM
9 37 38 39 40 41 42 43 44 45
ATOM$RED        STATIC     ATOMS    COLORGROUP SYSTEM
5 24 36 29 32 35
