AV-unprocessed.smi:1830|AV-procd|sdf|7453|dock1
  -GOLD-   22720 9143D 1   1.00000     0.00000
 Structure written by MMmdl.
 53 56  0  0  0  0  0  0  0  0  2 V2000
  150.2771  134.6886  155.8446 O   0  0  0  0  0  0  0  0  0  0  0  0
  149.7314  135.1714  154.8527 C   0  0  0  0  0  0  0  0  0  0  0  0
  149.8821  136.4438  154.4608 N   0  0  0  0  0  0  0  0  0  0  0  0
  150.7477  137.4273  155.1031 C   0  0  0  0  0  0  0  0  0  0  0  0
  150.8366  138.7216  154.2681 C   0  0  1  0  0  0  0  0  0  0  0  0
  149.5349  139.5569  154.3140 C   0  0  0  0  0  0  0  0  0  0  0  0
  149.4160  140.2559  155.5795 N   0  0  0  0  0  0  0  0  0  0  0  0
  148.2913  141.1506  155.7238 C   0  0  0  0  0  0  0  0  0  0  0  0
  148.6523  142.0226  156.9384 C   0  0  0  0  0  0  0  0  0  0  0  0
  150.1864  141.8927  157.0622 C   0  0  0  0  0  0  0  0  0  0  0  0
  150.5619  141.0907  155.8144 C   0  0  1  0  0  0  0  0  0  0  0  0
  151.8409  140.2473  155.8775 C   0  0  0  0  0  0  0  0  0  0  0  0
  151.9670  139.5235  154.6487 O   0  0  0  0  0  0  0  0  0  0  0  0
  148.9327  134.4947  154.0121 N   0  0  0  0  0  0  0  0  0  0  0  0
  148.6175  133.1083  154.0552 C   0  0  0  0  0  0  0  0  0  0  0  0
  149.4161  132.1908  154.7837 C   0  0  0  0  0  0  0  0  0  0  0  0
  149.0466  130.8333  154.8399 C   0  0  0  0  0  0  0  0  0  0  0  0
  147.8792  130.4168  154.1757 C   0  0  0  0  0  0  0  0  0  0  0  0
  147.1345  131.3180  153.5016 N   0  3  0  0  0  0  0  0  0  0  0  0
  147.4402  132.6363  153.4126 C   0  0  0  0  0  0  0  0  0  0  0  0
  146.6016  133.4837  152.6560 N   0  0  0  0  0  0  0  0  0  0  0  0
  146.6631  133.2605  151.2130 C   0  0  0  0  0  0  0  0  0  0  0  0
  145.2403  133.4502  150.6816 C   0  0  0  0  0  0  0  0  0  0  0  0
  144.3707  133.1270  151.8901 C   0  0  0  0  0  0  0  0  0  0  0  0
  145.2053  133.6689  153.0482 C   0  0  0  0  0  0  0  0  0  0  0  0
  149.3893  136.7495  153.6348 H   0  0  0  0  0  0  0  0  0  0  0  0
  150.3140  137.6545  156.0772 H   0  0  0  0  0  0  0  0  0  0  0  0
  151.7371  137.0150  155.3061 H   0  0  0  0  0  0  0  0  0  0  0  0
  151.0001  138.4269  153.2310 H   0  0  0  0  0  0  0  0  0  0  0  0
  149.5456  140.2809  153.4979 H   0  0  0  0  0  0  0  0  0  0  0  0
  148.6652  138.9192  154.1528 H   0  0  0  0  0  0  0  0  0  0  0  0
  148.1915  141.7764  154.8355 H   0  0  0  0  0  0  0  0  0  0  0  0
  147.3573  140.6048  155.8604 H   0  0  0  0  0  0  0  0  0  0  0  0
  148.3392  143.0560  156.7872 H   0  0  0  0  0  0  0  0  0  0  0  0
  148.1667  141.6536  157.8425 H   0  0  0  0  0  0  0  0  0  0  0  0
  150.6895  142.8593  157.0969 H   0  0  0  0  0  0  0  0  0  0  0  0
  150.4443  141.3421  157.9680 H   0  0  0  0  0  0  0  0  0  0  0  0
  150.6616  141.7948  154.9856 H   0  0  0  0  0  0  0  0  0  0  0  0
  152.7161  140.8833  156.0091 H   0  0  0  0  0  0  0  0  0  0  0  0
  151.8131  139.5615  156.7242 H   0  0  0  0  0  0  0  0  0  0  0  0
  148.6299  134.9898  153.1860 H   0  0  0  0  0  0  0  0  0  0  0  0
  150.2999  132.5138  155.3134 H   0  0  0  0  0  0  0  0  0  0  0  0
  149.6471  130.1238  155.3903 H   0  0  0  0  0  0  0  0  0  0  0  0
  147.5190  129.3983  154.1649 H   0  0  0  0  0  0  0  0  0  0  0  0
  147.3562  133.9536  150.7357 H   0  0  0  0  0  0  0  0  0  0  0  0
  147.0073  132.2463  151.0033 H   0  0  0  0  0  0  0  0  0  0  0  0
  145.0899  134.4902  150.3891 H   0  0  0  0  0  0  0  0  0  0  0  0
  145.0226  132.8223  149.8173 H   0  0  0  0  0  0  0  0  0  0  0  0
  143.3780  133.5744  151.8357 H   0  0  0  0  0  0  0  0  0  0  0  0
  144.2535  132.0467  151.9873 H   0  0  0  0  0  0  0  0  0  0  0  0
  144.9299  133.2063  153.9954 H   0  0  0  0  0  0  0  0  0  0  0  0
  145.0320  134.7396  153.1590 H   0  0  0  0  0  0  0  0  0  0  0  0
  146.2944  130.9862  153.0275 H   0  0  0  0  0  0  0  0  0  0  0  0
  1  2  2  0  0  0  0
  2  3  1  0  0  0  0
  2 14  1  0  0  0  0
  3  4  1  0  0  0  0
  3 26  1  0  0  0  0
  4  5  1  0  0  0  0
  4 27  1  0  0  0  0
  4 28  1  0  0  0  0
  5 13  1  0  0  0  0
  5  6  1  0  0  0  0
  5 29  1  0  0  0  0
  6  7  1  0  0  0  0
  6 30  1  0  0  0  0
  6 31  1  0  0  0  0
  7 11  1  0  0  0  0
  7  8  1  0  0  0  0
  8  9  1  0  0  0  0
  8 32  1  0  0  0  0
  8 33  1  0  0  0  0
  9 10  1  0  0  0  0
  9 34  1  0  0  0  0
  9 35  1  0  0  0  0
 10 11  1  0  0  0  0
 10 36  1  0  0  0  0
 10 37  1  0  0  0  0
 11 12  1  0  0  0  0
 11 38  1  0  0  0  0
 12 13  1  0  0  0  0
 12 39  1  0  0  0  0
 12 40  1  0  0  0  0
 14 15  1  0  0  0  0
 14 41  1  0  0  0  0
 15 20  1  0  0  0  0
 15 16  2  0  0  0  0
 16 17  1  0  0  0  0
 16 42  1  0  0  0  0
 17 18  2  0  0  0  0
 17 43  1  0  0  0  0
 18 19  1  0  0  0  0
 18 44  1  0  0  0  0
 19 20  2  0  0  0  0
 19 53  1  0  0  0  0
 20 21  1  0  0  0  0
 21 25  1  0  0  0  0
 21 22  1  0  0  0  0
 22 23  1  0  0  0  0
 22 45  1  0  0  0  0
 22 46  1  0  0  0  0
 23 24  1  0  0  0  0
 23 47  1  0  0  0  0
 23 48  1  0  0  0  0
 24 25  1  0  0  0  0
 24 49  1  0  0  0  0
 24 50  1  0  0  0  0
 25 51  1  0  0  0  0
 25 52  1  0  0  0  0
M  CHG  1  19   1
M  END
> <s_m_source_file>
AV-unprocessed.smi

> <i_m_source_file_index>
1830

> <i_lp_mmshare_version>
43012

> <i_f3d_flags>
0

> <s_epik_input>
W0NIMl0xW0NIMl1bQ0gyXVtDQEhdKE4xMilbQ0gyXU9bQ0BASF0oW0NIMl0yKVtDSDJdW05IXUMoPU8pW05IXWMzW2NIXVtjSF1bY0hdbmMzTjRbQ0gyXVtDSDJdW0NIMl1bQ0gyXTQ=

> <s_epik_cmdline>
J2VwaWtfcHl0aG9uJywgJy1waCcsICc3LjAnLCAnLXRuJywgJzgnLCAnLW1hJywgJzIwMCcsICctbWV0YWxfYmluZGluZycsICctaW1hZScsICc8aW5maWxlLm1hZT4nLCAnLW9tYWUnLCAnPG91dGZpbGUubWFlPic=

> <r_epik_Ionization_Penalty>
2.19264

> <r_epik_Ionization_Penalty_Charging>
1.12452

> <r_epik_Ionization_Penalty_Neutral>
1.06812

> <r_epik_State_Penalty>
2.334

> <r_epik_Charging_Adjusted_Penalty>
3.45852

> <i_epik_Tot_Q>
1

> <i_epik_Tot_abs_Q>
1

> <r_epik_Metal_State_Penalty>
2.41144

> <b_epik_Metal_Only>
0

> <s_lp_Force_Field>
OPLS_2005

> <r_lp_Energy>
84.2953

> <b_lp_Chiralities_Consistent>
1

> <s_lp_Variant>
AV-unprocessed.smi:1830-22

> <Gold.Version>
5.8.1

> <Gold.Id.Protein>
6NUR|6NUR_protein|mol2

> <Gold.PLP.Fitness>
49.1851

> <Gold.PLP.PLP>
-41.9426

> <Gold.PLP.part.hbond>
-3.8391

> <Gold.PLP.part.metal>
0.0000

> <Gold.PLP.part.buried>
-5.0387

> <Gold.PLP.part.nonpolar>
-32.9308

> <Gold.PLP.part.repulsive>
0.3414

> <Gold.PLP.ligand.clash>
0.0000

> <Gold.PLP.ligand.torsion>
0.3453

> <Gold.PLP.Chemscore.Hbond>
2.5864

> <Gold.PLP.Chemscore.CHOScore>
0.0000

> <Gold.PLP.Chemscore.Metal>
0.0000

> <Gold.Chemscore.Hbonds>
donor molecule, donor type, donor heavy atom, donor atom, acceptor molecule, acceptor atom, score
      L1  H     3    26       P1  7948  0.83
      L1  H    14    41       P1  7948  0.99
      P1  H  7989  7998       L1    13  0.79

> <Gold.PLP.Chemscore.Internal.Correction>
0.1738

> <Gold.Rescore>
     Score         DG    S(hbond)    S(metal)    S(lipo)     H(rot)  DE(clash)    DE(int)     intcor
     15.00     -17.04       1.28        0.00      92.71       1.40       0.38       1.66       ----

> <Gold.Chemscore.Fitness>
14.9969

> <Gold.Chemscore.DG>
-17.0362

> <Gold.Chemscore.ZeroCoef>
-5.4800

> <Gold.Chemscore.Hbond>
1.2824

> <Gold.Chemscore.Metal>
0.0000

> <Gold.Chemscore.Lipo>
92.7071

> <Gold.Chemscore.Internal_Hbond>
0.0000

> <Gold.Chemscore.DEClash>
0.3793

> <Gold.Chemscore.DEInternal>
1.6601

> <Gold.Chemscore.Rot>
1.3959

> <Gold.Chemscore.Internal.Correction>
   9.000000E+99

> <Gold.Chemscore.Hbonds>
donor molecule, donor type, donor heavy atom, donor atom, acceptor molecule, acceptor atom, score
      L1  H     3    26       P1  7948  0.77
      L1  H    14    41       P1  7948  0.56
      P1  H  7989  7998       L1    13  0.03

> <Gold.Chemscore.Hbond.Weighted>
-4.2831

> <Gold.Chemscore.Metal.Weighted>
-0.0000

> <Gold.Chemscore.Lipo.Weighted>
-10.8467

> <Gold.Chemscore.Internal_Hbond.Weighted>
0.0000

> <Gold.Chemscore.DEClash.Weighted>
0.3793

> <Gold.Chemscore.DEInternal.Weighted>
1.6601

> <Gold.Chemscore.Rot.Weighted>
3.5736

> <Gold.Chemscore.Internal.Correction.Weighted>
   9.000000E+99

> <Gold.Protein.RotatedTorsions>
[ 6907 6896 6895 6894 ] final  -20.46 input  -60.11 | X-H torsion
[ 7974 7965 7964 7962 ] final   23.56 input  175.53 | X-H torsion
[ 8008 7997 7996 7995 ] final  144.72 input   59.86 | X-H torsion
[ 10167 10162 10161 10158 ] final   64.66 input  -65.29 | X-H torsion
[ 10718 10713 10712 10709 ] final -116.77 input   66.30 | X-H torsion
[ 10763 10752 10751 10750 ] final   57.77 input  -60.55 | X-H torsion
[ 11005 11000 10999 10996 ] final  108.53 input  -57.11 | X-H torsion

> <Gold.Protein.ActiveResidues>
 VAL166  LYS551  ARG553  GLY616  TRP617  ASP618  TYR619  PRO620  LYS621  CYS622 
 ASP623  PHE694  ASN695  SER759  ASP760  ASP761  ALA762  ILE779  LEU786  VAL792 
 PHE793  MET794  SER795  GLU796  ALA797  LYS798  CYS799  TRP800  GLU811  SER814 

> <Gold.Protein.RotatedAtoms>
  151.2479  135.0612  159.9050 H   0  0  0  0  0  0  0  0  0  0  0  0  # atno 6907 bound_to 6896
  152.5384  134.0364  159.8058 H   0  0  0  0  0  0  0  0  0  0  0  0  # atno 6908 bound_to 6896
  151.0568  133.5529  159.2669 H   0  0  0  0  0  0  0  0  0  0  0  0  # atno 6909 bound_to 6896
  146.1978  139.7727  142.8784 H   0  0  0  0  0  0  0  0  0  0  0  0  # atno 7974 bound_to 7965
  156.2901  140.2228  156.5099 H   0  0  0  0  0  0  0  0  0  0  0  0  # atno 8008 bound_to 7997
  154.7618  140.0473  157.1001 H   0  0  0  0  0  0  0  0  0  0  0  0  # atno 8009 bound_to 7997
  154.9982  140.3098  155.4881 H   0  0  0  0  0  0  0  0  0  0  0  0  # atno 8010 bound_to 7997
  140.1198  144.4742  150.6927 H   0  0  0  0  0  0  0  0  0  0  0  0  # atno 10167 bound_to 10162
  156.0986  130.6153  150.9078 H   0  0  0  0  0  0  0  0  0  0  0  0  # atno 10718 bound_to 10713
  152.9856  135.5630  154.5444 H   0  0  0  0  0  0  0  0  0  0  0  0  # atno 10763 bound_to 10752
  154.4893  135.2792  155.1511 H   0  0  0  0  0  0  0  0  0  0  0  0  # atno 10764 bound_to 10752
  154.2988  135.6311  153.5469 H   0  0  0  0  0  0  0  0  0  0  0  0  # atno 10765 bound_to 10752
  139.8846  134.9433  156.5987 H   0  0  0  0  0  0  0  0  0  0  0  0  # atno 11005 bound_to 11000
  145.3584  141.0321  143.3299 LP  0  0  0  0  0  0  0  0  0  0  0  0  # atno 17320 bound_to 7965
  144.8618  139.5166  143.6808 LP  0  0  0  0  0  0  0  0  0  0  0  0  # atno 17321 bound_to 7965
  140.6879  143.2359  151.5212 LP  0  0  0  0  0  0  0  0  0  0  0  0  # atno 17342 bound_to 10162
  139.5575  144.2240  152.1636 LP  0  0  0  0  0  0  0  0  0  0  0  0  # atno 17343 bound_to 10162
  157.6152  131.0933  150.8723 LP  0  0  0  0  0  0  0  0  0  0  0  0  # atno 17370 bound_to 10713
  156.8855  130.5194  149.5288 LP  0  0  0  0  0  0  0  0  0  0  0  0  # atno 17371 bound_to 10713
  140.7900  133.8590  155.8638 LP  0  0  0  0  0  0  0  0  0  0  0  0  # atno 17394 bound_to 11000
  140.9685  134.1562  157.4596 LP  0  0  0  0  0  0  0  0  0  0  0  0  # atno 17395 bound_to 11000

$$$$
