AV-unprocessed.smi:1825|AV-procd|sdf|7414|dock8
  -GOLD-   22720 9 93D 1   1.00000     0.00000
 Structure written by MMmdl.
 33 34  0  0  0  0  0  0  0  0  2 V2000
  149.3546  135.8208  158.8495 O   0  0  0  0  0  0  0  0  0  0  0  0
  149.1071  136.9148  159.3622 C   0  0  0  0  0  0  0  0  0  0  0  0
  149.8995  137.9684  159.1141 N   0  0  0  0  0  0  0  0  0  0  0  0
  151.0865  137.9854  158.2590 C   0  0  0  0  0  0  0  0  0  0  0  0
  151.6489  139.4093  158.0139 C   0  0  0  0  0  0  0  0  0  0  0  0
  152.8278  139.2560  157.2429 O   0  0  0  0  0  0  0  0  0  0  0  0
  150.6441  140.2210  157.1602 C   0  0  0  0  0  0  0  0  0  0  0  0
  151.0825  141.6780  156.9268 C   0  0  0  0  0  0  0  0  0  0  0  0
  151.3640  142.3941  158.2544 C   0  0  0  0  0  0  0  0  0  0  0  0
  152.4136  141.6323  159.0742 C   0  0  0  0  0  0  0  0  0  0  0  0
  151.9881  140.1737  159.3199 C   0  0  0  0  0  0  0  0  0  0  0  0
  148.0691  137.1970  160.1821 N   0  5  0  0  0  0  0  0  0  0  0  0
  147.4671  136.2114  160.8675 C   0  0  0  0  0  0  0  0  0  0  0  0
  147.1382  135.0362  160.3189 N   0  0  0  0  0  0  0  0  0  0  0  0
  146.5291  134.1562  161.2156 C   0  0  0  0  0  0  0  0  0  0  0  0
  146.3991  134.6701  162.4785 C   0  0  0  0  0  0  0  0  0  0  0  0
  147.0402  136.2851  162.5796 S   0  0  0  0  0  0  0  0  0  0  0  0
  149.6484  138.8434  159.5504 H   0  0  0  0  0  0  0  0  0  0  0  0
  151.8465  137.3536  158.7204 H   0  0  0  0  0  0  0  0  0  0  0  0
  150.8580  137.5102  157.3037 H   0  0  0  0  0  0  0  0  0  0  0  0
  153.0651  138.3416  157.2418 H   0  0  0  0  0  0  0  0  0  0  0  0
  150.4797  139.7296  156.2001 H   0  0  0  0  0  0  0  0  0  0  0  0
  149.6750  140.2309  157.6611 H   0  0  0  0  0  0  0  0  0  0  0  0
  151.9749  141.7021  156.3001 H   0  0  0  0  0  0  0  0  0  0  0  0
  150.3079  142.2127  156.3764 H   0  0  0  0  0  0  0  0  0  0  0  0
  151.7068  143.4114  158.0639 H   0  0  0  0  0  0  0  0  0  0  0  0
  150.4407  142.4793  158.8290 H   0  0  0  0  0  0  0  0  0  0  0  0
  153.3718  141.6542  158.5541 H   0  0  0  0  0  0  0  0  0  0  0  0
  152.5727  142.1342  160.0290 H   0  0  0  0  0  0  0  0  0  0  0  0
  151.1142  140.1692  159.9726 H   0  0  0  0  0  0  0  0  0  0  0  0
  152.7803  139.6648  159.8701 H   0  0  0  0  0  0  0  0  0  0  0  0
  146.2214  133.1812  160.8685 H   0  0  0  0  0  0  0  0  0  0  0  0
  145.9695  134.2011  163.3506 H   0  0  0  0  0  0  0  0  0  0  0  0
  1  2  2  0  0  0  0
  2  3  1  0  0  0  0
  2 12  1  0  0  0  0
  3  4  1  0  0  0  0
  3 18  1  0  0  0  0
  4  5  1  0  0  0  0
  4 19  1  0  0  0  0
  4 20  1  0  0  0  0
  5 11  1  0  0  0  0
  5  6  1  0  0  0  0
  5  7  1  0  0  0  0
  6 21  1  0  0  0  0
  7  8  1  0  0  0  0
  7 22  1  0  0  0  0
  7 23  1  0  0  0  0
  8  9  1  0  0  0  0
  8 24  1  0  0  0  0
  8 25  1  0  0  0  0
  9 10  1  0  0  0  0
  9 26  1  0  0  0  0
  9 27  1  0  0  0  0
 10 11  1  0  0  0  0
 10 28  1  0  0  0  0
 10 29  1  0  0  0  0
 11 30  1  0  0  0  0
 11 31  1  0  0  0  0
 12 13  1  0  0  0  0
 13 17  1  0  0  0  0
 13 14  2  0  0  0  0
 14 15  1  0  0  0  0
 15 16  2  0  0  0  0
 15 32  1  0  0  0  0
 16 17  1  0  0  0  0
 16 33  1  0  0  0  0
M  CHG  1  12  -1
M  END
> <s_m_source_file>
AV-unprocessed.smi

> <i_m_source_file_index>
1825

> <i_lp_mmshare_version>
43012

> <i_f3d_flags>
0

> <s_epik_input>
czFbY0hdW2NIXW5jMVtOSF1DKD1PKVtOSF1bQ0gyXUMyKFtPSF0pW0NIMl1bQ0gyXVtDSDJdW0NIMl1bQ0gyXTI=

> <s_epik_cmdline>
J2VwaWtfcHl0aG9uJywgJy1waCcsICc3LjAnLCAnLXRuJywgJzgnLCAnLW1hJywgJzIwMCcsICctbWV0YWxfYmluZGluZycsICctaW1hZScsICc8aW5maWxlLm1hZT4nLCAnLW9tYWUnLCAnPG91dGZpbGUubWFlPic=

> <r_lp_tautomer_probability>
0.999

> <r_epik_Ionization_Penalty>
8.3436

> <r_epik_Ionization_Penalty_Charging>
6.70408

> <r_epik_Ionization_Penalty_Neutral>
1.63952

> <r_epik_State_Penalty>
6.70425

> <r_epik_Charging_Adjusted_Penalty>
13.4083

> <i_epik_Tot_Q>
-1

> <i_epik_Tot_abs_Q>
1

> <r_epik_Metal_State_Penalty>
2.62591

> <b_epik_Metal_Only>
1

> <s_lp_Force_Field>
OPLS_2005

> <r_lp_Energy>
9.48325

> <b_lp_Chiralities_Consistent>
1

> <s_lp_Variant>
AV-unprocessed.smi:1825-2

> <Gold.Version>
5.8.1

> <Gold.Id.Protein>
6NUR|6NUR_protein|mol2

> <Gold.PLP.Fitness>
43.8545

> <Gold.PLP.PLP>
-32.4141

> <Gold.PLP.part.hbond>
-4.0000

> <Gold.PLP.part.metal>
0.0000

> <Gold.PLP.part.buried>
-5.0012

> <Gold.PLP.part.nonpolar>
-25.8378

> <Gold.PLP.part.repulsive>
0.5373

> <Gold.PLP.ligand.clash>
0.0000

> <Gold.PLP.ligand.torsion>
0.5430

> <Gold.PLP.Chemscore.Hbond>
4.1680

> <Gold.PLP.Chemscore.CHOScore>
0.0000

> <Gold.PLP.Chemscore.Metal>
0.0000

> <Gold.Chemscore.Hbonds>
donor molecule, donor type, donor heavy atom, donor atom, acceptor molecule, acceptor atom, score
      P1  H  6896  6907       L1     1  1.00
      P1  H  6931  6943       L1    12  0.63
      P1  H  6934  6947       L1    12  1.01
      P1  H  7997  8009       L1     6  1.00

> <Gold.PLP.Chemscore.Internal.Correction>
0.0225

> <Gold.Rescore>
     Score         DG    S(hbond)    S(metal)    S(lipo)     H(rot)  DE(clash)    DE(int)     intcor
     14.65     -16.65       2.40        0.00      66.84       1.83       0.05       1.95       ----

> <Gold.Chemscore.Fitness>
14.6526

> <Gold.Chemscore.DG>
-16.6512

> <Gold.Chemscore.ZeroCoef>
-5.4800

> <Gold.Chemscore.Hbond>
2.4039

> <Gold.Chemscore.Metal>
0.0000

> <Gold.Chemscore.Lipo>
66.8390

> <Gold.Chemscore.Internal_Hbond>
0.0000

> <Gold.Chemscore.DEClash>
0.0515

> <Gold.Chemscore.DEInternal>
1.9471

> <Gold.Chemscore.Rot>
1.8274

> <Gold.Chemscore.Internal.Correction>
   9.000000E+99

> <Gold.Chemscore.Hbonds>
donor molecule, donor type, donor heavy atom, donor atom, acceptor molecule, acceptor atom, score
      P1  H  6896  6907       L1     1  0.98
      P1  H  6931  6943       L1    12  0.03
      P1  H  6934  6947       L1    12  0.27
      P1  H  7997  8009       L1     6  0.35

> <Gold.Chemscore.Hbond.Weighted>
-8.0292

> <Gold.Chemscore.Metal.Weighted>
-0.0000

> <Gold.Chemscore.Lipo.Weighted>
-7.8202

> <Gold.Chemscore.Internal_Hbond.Weighted>
0.0000

> <Gold.Chemscore.DEClash.Weighted>
0.0515

> <Gold.Chemscore.DEInternal.Weighted>
1.9471

> <Gold.Chemscore.Rot.Weighted>
4.6781

> <Gold.Chemscore.Internal.Correction.Weighted>
   9.000000E+99

> <Gold.Protein.RotatedTorsions>
[ 6907 6896 6895 6894 ] final  -70.26 input  -60.11 | X-H torsion
[ 7974 7965 7964 7962 ] final  138.47 input  175.53 | X-H torsion
[ 8008 7997 7996 7995 ] final  174.20 input   59.86 | X-H torsion
[ 10167 10162 10161 10158 ] final  -56.99 input  -65.29 | X-H torsion
[ 10718 10713 10712 10709 ] final   80.36 input   66.30 | X-H torsion
[ 10763 10752 10751 10750 ] final   76.70 input  -60.55 | X-H torsion
[ 11005 11000 10999 10996 ] final  -50.59 input  -57.11 | X-H torsion

> <Gold.Protein.ActiveResidues>
 VAL166  LYS551  ARG553  GLY616  TRP617  ASP618  TYR619  PRO620  LYS621  CYS622 
 ASP623  PHE694  ASN695  SER759  ASP760  ASP761  ALA762  ILE779  LEU786  VAL792 
 PHE793  MET794  SER795  GLU796  ALA797  LYS798  CYS799  TRP800  GLU811  SER814 

> <Gold.Protein.RotatedAtoms>
  150.7266  134.5478  159.5779 H   0  0  0  0  0  0  0  0  0  0  0  0  # atno 6907 bound_to 6896
  152.2973  134.7649  160.0374 H   0  0  0  0  0  0  0  0  0  0  0  0  # atno 6908 bound_to 6896
  151.8242  133.3363  159.3630 H   0  0  0  0  0  0  0  0  0  0  0  0  # atno 6909 bound_to 6896
  144.9370  139.4977  143.5590 H   0  0  0  0  0  0  0  0  0  0  0  0  # atno 7974 bound_to 7965
  156.0999  140.1440  156.9482 H   0  0  0  0  0  0  0  0  0  0  0  0  # atno 8008 bound_to 7997
  154.4695  140.0914  156.7154 H   0  0  0  0  0  0  0  0  0  0  0  0  # atno 8009 bound_to 7997
  155.4778  140.3444  155.4337 H   0  0  0  0  0  0  0  0  0  0  0  0  # atno 8010 bound_to 7997
  140.6284  143.2448  151.5303 H   0  0  0  0  0  0  0  0  0  0  0  0  # atno 10167 bound_to 10162
  157.6804  130.9956  150.2068 H   0  0  0  0  0  0  0  0  0  0  0  0  # atno 10718 bound_to 10713
  153.0744  135.4941  154.8374 H   0  0  0  0  0  0  0  0  0  0  0  0  # atno 10763 bound_to 10752
  154.7068  135.3012  154.9261 H   0  0  0  0  0  0  0  0  0  0  0  0  # atno 10764 bound_to 10752
  153.9967  135.6771  153.4810 H   0  0  0  0  0  0  0  0  0  0  0  0  # atno 10765 bound_to 10752
  141.0824  133.6650  156.3753 H   0  0  0  0  0  0  0  0  0  0  0  0  # atno 11005 bound_to 11000
  146.3270  139.8361  142.8899 LP  0  0  0  0  0  0  0  0  0  0  0  0  # atno 17320 bound_to 7965
  145.3051  141.0205  143.3586 LP  0  0  0  0  0  0  0  0  0  0  0  0  # atno 17321 bound_to 7965
  139.5501  144.2417  152.1515 LP  0  0  0  0  0  0  0  0  0  0  0  0  # atno 17342 bound_to 10162
  140.1654  144.4986  150.6609 LP  0  0  0  0  0  0  0  0  0  0  0  0  # atno 17343 bound_to 10162
  156.2747  130.3726  149.7995 LP  0  0  0  0  0  0  0  0  0  0  0  0  # atno 17370 bound_to 10713
  156.5702  130.8421  151.3354 LP  0  0  0  0  0  0  0  0  0  0  0  0  # atno 17371 bound_to 10713
  140.5438  134.6094  157.5388 LP  0  0  0  0  0  0  0  0  0  0  0  0  # atno 17394 bound_to 11000
  139.9639  134.7405  156.0179 LP  0  0  0  0  0  0  0  0  0  0  0  0  # atno 17395 bound_to 11000

$$$$
