AV-unprocessed.smi:3199|AV-procd|sdf|12232|dock6
  -GOLD-   2272018 63D 1   1.00000     0.00000
 Structure written by MMmdl.
 35 36  0  0  0  0  0  0  0  0  1 V2000
  146.5824  138.8885  152.3996 C   0  0  0  0  0  0  0  0  0  0  0  0
  147.5608  139.6416  153.2765 C   0  0  0  0  0  0  0  0  0  0  0  0
  147.3786  141.0132  153.5529 C   0  0  0  0  0  0  0  0  0  0  0  0
  148.3186  141.6619  154.3765 C   0  0  0  0  0  0  0  0  0  0  0  0
  149.4004  140.9179  154.8900 C   0  0  0  0  0  0  0  0  0  0  0  0
  150.4343  141.5673  155.7885 C   0  0  0  0  0  0  0  0  0  0  0  0
  150.6155  140.8014  157.1057 C   0  0  0  0  0  0  0  0  0  0  0  0
  151.3331  141.6141  158.0773 N   0  0  0  0  0  0  0  0  0  0  0  0
  152.5538  141.3271  158.5520 C   0  0  0  0  0  0  0  0  0  0  0  0
  153.1978  140.3378  158.2004 O   0  0  0  0  0  0  0  0  0  0  0  0
  153.1369  142.3177  159.5664 C   0  0  1  0  0  0  0  0  0  0  0  0
  153.1613  143.7831  159.0888 C   0  0  0  0  0  0  0  0  0  0  0  0
  152.2049  144.4900  160.0314 C   0  0  0  0  0  0  0  0  0  0  0  0
  152.2695  143.6119  161.2729 C   0  0  0  0  0  0  0  0  0  0  0  0
  152.3102  142.3039  160.7275 O   0  0  0  0  0  0  0  0  0  0  0  0
  149.4910  139.5508  154.5530 C   0  0  0  0  0  0  0  0  0  0  0  0
  148.5946  138.9205  153.7637 N   0  0  0  0  0  0  0  0  0  0  0  0
  145.7636  139.5322  152.0767 H   0  0  0  0  0  0  0  0  0  0  0  0
  146.1568  138.0450  152.9440 H   0  0  0  0  0  0  0  0  0  0  0  0
  147.0862  138.5066  151.5113 H   0  0  0  0  0  0  0  0  0  0  0  0
  146.5392  141.5577  153.1460 H   0  0  0  0  0  0  0  0  0  0  0  0
  148.2076  142.7105  154.6103 H   0  0  0  0  0  0  0  0  0  0  0  0
  151.3835  141.6231  155.2533 H   0  0  0  0  0  0  0  0  0  0  0  0
  150.1331  142.5961  155.9906 H   0  0  0  0  0  0  0  0  0  0  0  0
  149.6432  140.5268  157.5183 H   0  0  0  0  0  0  0  0  0  0  0  0
  151.1647  139.8755  156.9264 H   0  0  0  0  0  0  0  0  0  0  0  0
  150.8742  142.4499  158.4101 H   0  0  0  0  0  0  0  0  0  0  0  0
  154.1454  142.0128  159.8513 H   0  0  0  0  0  0  0  0  0  0  0  0
  154.1672  144.1888  159.2039 H   0  0  0  0  0  0  0  0  0  0  0  0
  152.8757  143.9214  158.0450 H   0  0  0  0  0  0  0  0  0  0  0  0
  152.4827  145.5262  160.2260 H   0  0  0  0  0  0  0  0  0  0  0  0
  151.1951  144.4763  159.6191 H   0  0  0  0  0  0  0  0  0  0  0  0
  153.1810  143.8028  161.8417 H   0  0  0  0  0  0  0  0  0  0  0  0
  151.4122  143.7471  161.9325 H   0  0  0  0  0  0  0  0  0  0  0  0
  150.3023  138.9446  154.9288 H   0  0  0  0  0  0  0  0  0  0  0  0
  1  2  1  0  0  0  0
  1 18  1  0  0  0  0
  1 19  1  0  0  0  0
  1 20  1  0  0  0  0
  2 17  1  0  0  0  0
  2  3  2  0  0  0  0
  3  4  1  0  0  0  0
  3 21  1  0  0  0  0
  4  5  2  0  0  0  0
  4 22  1  0  0  0  0
  5  6  1  0  0  0  0
  5 16  1  0  0  0  0
  6  7  1  0  0  0  0
  6 23  1  0  0  0  0
  6 24  1  0  0  0  0
  7  8  1  0  0  0  0
  7 25  1  0  0  0  0
  7 26  1  0  0  0  0
  8  9  1  0  0  0  0
  8 27  1  0  0  0  0
  9 10  2  0  0  0  0
  9 11  1  0  0  0  0
 11 15  1  0  0  0  0
 11 12  1  0  0  0  0
 11 28  1  0  0  0  0
 12 13  1  0  0  0  0
 12 29  1  0  0  0  0
 12 30  1  0  0  0  0
 13 14  1  0  0  0  0
 13 31  1  0  0  0  0
 13 32  1  0  0  0  0
 14 15  1  0  0  0  0
 14 33  1  0  0  0  0
 14 34  1  0  0  0  0
 16 17  2  0  0  0  0
 16 35  1  0  0  0  0
M  END
> <s_m_source_file>
AV-unprocessed.smi

> <i_m_source_file_index>
3199

> <i_lp_mmshare_version>
43012

> <i_f3d_flags>
0

> <s_epik_input>
W0NIM11jMVtjSF1bY0hdYyhbY0hdbjEpW0NIMl1bQ0gyXVtOSF1DKD1PKVtDQEBIXTJbQ0gyXVtDSDJdW0NIMl1PMg==

> <s_epik_cmdline>
J2VwaWtfcHl0aG9uJywgJy1waCcsICc3LjAnLCAnLXRuJywgJzgnLCAnLW1hJywgJzIwMCcsICctbWV0YWxfYmluZGluZycsICctaW1hZScsICc8aW5maWxlLm1hZT4nLCAnLW9tYWUnLCAnPG91dGZpbGUubWFlPic=

> <r_epik_Ionization_Penalty>
0.0519155

> <r_epik_Ionization_Penalty_Charging>
0

> <r_epik_Ionization_Penalty_Neutral>
0.0519155

> <r_epik_State_Penalty>
0.0445047

> <r_epik_Charging_Adjusted_Penalty>
0.0445047

> <i_epik_Tot_Q>
0

> <i_epik_Tot_abs_Q>
0

> <r_epik_Metal_State_Penalty>
0.0408967

> <b_epik_Metal_Only>
0

> <s_lp_Force_Field>
OPLS_2005

> <r_lp_Energy>
16.9644

> <b_lp_Chiralities_Consistent>
1

> <s_lp_Variant>
AV-unprocessed.smi:3199-2

> <Gold.Version>
5.8.1

> <Gold.Id.Protein>
6NUR|6NUR_protein|mol2

> <Gold.PLP.Fitness>
42.4429

> <Gold.PLP.PLP>
-39.8702

> <Gold.PLP.part.hbond>
-1.2575

> <Gold.PLP.part.metal>
0.0000

> <Gold.PLP.part.buried>
-3.1903

> <Gold.PLP.part.nonpolar>
-35.6380

> <Gold.PLP.part.repulsive>
0.6174

> <Gold.PLP.ligand.clash>
0.0000

> <Gold.PLP.ligand.torsion>
0.1618

> <Gold.PLP.Chemscore.Hbond>
0.9600

> <Gold.PLP.Chemscore.CHOScore>
0.0000

> <Gold.PLP.Chemscore.Metal>
0.0000

> <Gold.Chemscore.Hbonds>
donor molecule, donor type, donor heavy atom, donor atom, acceptor molecule, acceptor atom, score
      P1  H  7997  8008       L1    10  0.88

> <Gold.PLP.Chemscore.Internal.Correction>
0.0163

> <Gold.Rescore>
     Score         DG    S(hbond)    S(metal)    S(lipo)     H(rot)  DE(clash)    DE(int)     intcor
     16.73     -17.03       0.97        0.00     103.48       1.49       0.02       0.28       ----

> <Gold.Chemscore.Fitness>
16.7340

> <Gold.Chemscore.DG>
-17.0323

> <Gold.Chemscore.ZeroCoef>
-5.4800

> <Gold.Chemscore.Hbond>
0.9728

> <Gold.Chemscore.Metal>
0.0000

> <Gold.Chemscore.Lipo>
103.4796

> <Gold.Chemscore.Internal_Hbond>
0.0000

> <Gold.Chemscore.DEClash>
0.0226

> <Gold.Chemscore.DEInternal>
0.2756

> <Gold.Chemscore.Rot>
1.4859

> <Gold.Chemscore.Internal.Correction>
   9.000000E+99

> <Gold.Chemscore.Hbonds>
donor molecule, donor type, donor heavy atom, donor atom, acceptor molecule, acceptor atom, score
      P1  H  7997  8008       L1    10  0.87

> <Gold.Chemscore.Hbond.Weighted>
-3.2491

> <Gold.Chemscore.Metal.Weighted>
-0.0000

> <Gold.Chemscore.Lipo.Weighted>
-12.1071

> <Gold.Chemscore.Internal_Hbond.Weighted>
0.0000

> <Gold.Chemscore.DEClash.Weighted>
0.0226

> <Gold.Chemscore.DEInternal.Weighted>
0.2756

> <Gold.Chemscore.Rot.Weighted>
3.8039

> <Gold.Chemscore.Internal.Correction.Weighted>
   9.000000E+99

> <Gold.Protein.RotatedTorsions>
[ 6907 6896 6895 6894 ] final  -50.82 input  -60.11 | X-H torsion
[ 7974 7965 7964 7962 ] final  -23.17 input  175.53 | X-H torsion
[ 8008 7997 7996 7995 ] final  -85.40 input   59.86 | X-H torsion
[ 10167 10162 10161 10158 ] final   35.01 input  -65.29 | X-H torsion
[ 10718 10713 10712 10709 ] final  121.79 input   66.30 | X-H torsion
[ 10763 10752 10751 10750 ] final -150.30 input  -60.55 | X-H torsion
[ 11005 11000 10999 10996 ] final  177.69 input  -57.11 | X-H torsion

> <Gold.Protein.ActiveResidues>
 VAL166  LYS551  ARG553  GLY616  TRP617  ASP618  TYR619  PRO620  LYS621  CYS622 
 ASP623  PHE694  ASN695  SER759  ASP760  ASP761  ALA762  ILE779  LEU786  VAL792 
 PHE793  MET794  SER795  GLU796  ALA797  LYS798  CYS799  TRP800  GLU811  SER814 

> <Gold.Protein.RotatedAtoms>
  150.8670  134.8036  159.7125 H   0  0  0  0  0  0  0  0  0  0  0  0  # atno 6907 bound_to 6896
  152.4688  134.5007  159.9734 H   0  0  0  0  0  0  0  0  0  0  0  0  # atno 6908 bound_to 6896
  151.5102  133.3448  159.2919 H   0  0  0  0  0  0  0  0  0  0  0  0  # atno 6909 bound_to 6896
  146.1632  140.4580  142.8563 H   0  0  0  0  0  0  0  0  0  0  0  0  # atno 7974 bound_to 7965
  154.6403  140.0592  156.9838 H   0  0  0  0  0  0  0  0  0  0  0  0  # atno 8008 bound_to 7997
  155.1527  140.3275  155.4409 H   0  0  0  0  0  0  0  0  0  0  0  0  # atno 8009 bound_to 7997
  156.2528  140.1944  156.6638 H   0  0  0  0  0  0  0  0  0  0  0  0  # atno 8010 bound_to 7997
  140.4262  144.1389  150.6153 H   0  0  0  0  0  0  0  0  0  0  0  0  # atno 10167 bound_to 10162
  157.5791  131.1076  150.8222 H   0  0  0  0  0  0  0  0  0  0  0  0  # atno 10718 bound_to 10713
  154.8127  135.3288  154.7262 H   0  0  0  0  0  0  0  0  0  0  0  0  # atno 10763 bound_to 10752
  153.7908  135.6911  153.4876 H   0  0  0  0  0  0  0  0  0  0  0  0  # atno 10764 bound_to 10752
  153.1918  135.4548  155.0105 H   0  0  0  0  0  0  0  0  0  0  0  0  # atno 10765 bound_to 10752
  140.3868  134.6897  157.4484 H   0  0  0  0  0  0  0  0  0  0  0  0  # atno 11005 bound_to 11000
  144.8055  140.6292  143.6449 LP  0  0  0  0  0  0  0  0  0  0  0  0  # atno 17320 bound_to 7965
  145.4535  139.1521  143.3905 LP  0  0  0  0  0  0  0  0  0  0  0  0  # atno 17321 bound_to 7965
  140.4478  143.2499  151.9388 LP  0  0  0  0  0  0  0  0  0  0  0  0  # atno 17342 bound_to 10162
  139.4783  144.5592  151.8266 LP  0  0  0  0  0  0  0  0  0  0  0  0  # atno 17343 bound_to 10162
  156.8673  130.5134  149.5299 LP  0  0  0  0  0  0  0  0  0  0  0  0  # atno 17370 bound_to 10713
  156.0836  130.5840  150.9608 LP  0  0  0  0  0  0  0  0  0  0  0  0  # atno 17371 bound_to 10713
  140.0436  134.6231  155.8949 LP  0  0  0  0  0  0  0  0  0  0  0  0  # atno 17394 bound_to 11000
  141.1904  133.6568  156.5412 LP  0  0  0  0  0  0  0  0  0  0  0  0  # atno 17395 bound_to 11000

$$$$
