AV-unprocessed.smi:2026|AV-procd|sdf|8203|dock4
  -GOLD-   2272010463D 1   1.00000     0.00000
 Structure written by MMmdl.
 47 49  0  0  0  0  0  0  0  0  2 V2000
  152.1915  145.0993  160.4869 C   0  0  0  0  0  0  0  0  0  0  0  0
  151.9799  143.8813  159.6040 C   0  0  0  0  0  0  0  0  0  0  0  0
  151.1983  144.0226  158.4343 C   0  0  0  0  0  0  0  0  0  0  0  0
  151.0236  142.8900  157.6474 C   0  0  0  0  0  0  0  0  0  0  0  0
  150.3240  142.6998  156.4531 N   0  3  0  0  0  0  0  0  0  0  0  0
  150.4448  141.4019  156.0564 C   0  0  0  0  0  0  0  0  0  0  0  0
  151.2100  140.7618  156.9811 N   0  0  0  0  0  0  0  0  0  0  0  0
  151.6525  139.3646  157.0495 C   0  0  0  0  0  0  0  0  0  0  0  0
  150.4730  138.3831  157.2112 C   0  0  2  0  0  0  0  0  0  0  0  0
  149.9281  138.0941  155.9400 O   0  0  0  0  0  0  0  0  0  0  0  0
  149.3456  138.9096  158.1228 C   0  0  0  0  0  0  0  0  0  0  0  0
  148.5816  137.8271  158.7560 N   0  0  0  0  0  0  0  0  0  0  0  0
  147.2516  137.6620  158.6385 C   0  0  0  0  0  0  0  0  0  0  0  0
  146.4786  138.3734  157.9990 O   0  0  0  0  0  0  0  0  0  0  0  0
  146.8964  136.5850  159.3511 N   0  0  0  0  0  0  0  0  0  0  0  0
  148.0187  135.9502  160.0143 C   0  0  0  0  0  0  0  0  0  0  0  0
  147.8497  135.9975  161.5435 C   0  0  0  0  0  0  0  0  0  0  0  0
  148.2253  134.5166  159.4936 C   0  0  0  0  0  0  0  0  0  0  0  0
  149.1217  136.8837  159.5400 C   0  0  0  0  0  0  0  0  0  0  0  0
  150.3055  136.7675  159.8568 O   0  0  0  0  0  0  0  0  0  0  0  0
  151.5944  141.6499  157.9903 C   0  0  0  0  0  0  0  0  0  0  0  0
  152.3679  141.4929  159.1372 C   0  0  0  0  0  0  0  0  0  0  0  0
  152.5583  142.6323  159.9502 C   0  0  0  0  0  0  0  0  0  0  0  0
  153.3995  142.4909  161.2073 C   0  0  0  0  0  0  0  0  0  0  0  0
  151.6757  145.9746  160.0908 H   0  0  0  0  0  0  0  0  0  0  0  0
  153.2522  145.3416  160.5566 H   0  0  0  0  0  0  0  0  0  0  0  0
  151.8110  144.9150  161.4918 H   0  0  0  0  0  0  0  0  0  0  0  0
  150.7572  144.9709  158.1635 H   0  0  0  0  0  0  0  0  0  0  0  0
  150.0140  140.9618  155.1686 H   0  0  0  0  0  0  0  0  0  0  0  0
  152.2264  139.1567  156.1463 H   0  0  0  0  0  0  0  0  0  0  0  0
  152.3482  139.2716  157.8848 H   0  0  0  0  0  0  0  0  0  0  0  0
  150.8402  137.4396  157.6155 H   0  0  0  0  0  0  0  0  0  0  0  0
  150.0882  138.8303  155.3695 H   0  0  0  0  0  0  0  0  0  0  0  0
  149.7624  139.5799  158.8768 H   0  0  0  0  0  0  0  0  0  0  0  0
  148.6557  139.5208  157.5382 H   0  0  0  0  0  0  0  0  0  0  0  0
  145.9498  136.2422  159.4296 H   0  0  0  0  0  0  0  0  0  0  0  0
  148.7102  135.5596  162.0508 H   0  0  0  0  0  0  0  0  0  0  0  0
  146.9662  135.4406  161.8567 H   0  0  0  0  0  0  0  0  0  0  0  0
  147.7365  137.0196  161.9067 H   0  0  0  0  0  0  0  0  0  0  0  0
  149.0718  134.0357  159.9850 H   0  0  0  0  0  0  0  0  0  0  0  0
  148.4149  134.4999  158.4190 H   0  0  0  0  0  0  0  0  0  0  0  0
  147.3448  133.9013  159.6798 H   0  0  0  0  0  0  0  0  0  0  0  0
  152.8105  140.5430  159.3960 H   0  0  0  0  0  0  0  0  0  0  0  0
  153.8012  141.4823  161.3075 H   0  0  0  0  0  0  0  0  0  0  0  0
  152.8006  142.7011  162.0936 H   0  0  0  0  0  0  0  0  0  0  0  0
  154.2423  143.1821  161.1854 H   0  0  0  0  0  0  0  0  0  0  0  0
  149.8035  143.4021  155.9434 H   0  0  0  0  0  0  0  0  0  0  0  0
  1  2  1  0  0  0  0
  1 25  1  0  0  0  0
  1 26  1  0  0  0  0
  1 27  1  0  0  0  0
  2 23  1  0  0  0  0
  2  3  2  0  0  0  0
  3  4  1  0  0  0  0
  3 28  1  0  0  0  0
  4 21  2  0  0  0  0
  4  5  1  0  0  0  0
  5  6  2  0  0  0  0
  5 47  1  0  0  0  0
  6  7  1  0  0  0  0
  6 29  1  0  0  0  0
  7  8  1  0  0  0  0
  7 21  1  0  0  0  0
  8  9  1  0  0  0  0
  8 30  1  0  0  0  0
  8 31  1  0  0  0  0
  9 10  1  0  0  0  0
  9 11  1  0  0  0  0
  9 32  1  0  0  0  0
 10 33  1  0  0  0  0
 11 12  1  0  0  0  0
 11 34  1  0  0  0  0
 11 35  1  0  0  0  0
 12 19  1  0  0  0  0
 12 13  1  0  0  0  0
 13 14  2  0  0  0  0
 13 15  1  0  0  0  0
 15 16  1  0  0  0  0
 15 36  1  0  0  0  0
 16 17  1  0  0  0  0
 16 18  1  0  0  0  0
 16 19  1  0  0  0  0
 17 37  1  0  0  0  0
 17 38  1  0  0  0  0
 17 39  1  0  0  0  0
 18 40  1  0  0  0  0
 18 41  1  0  0  0  0
 18 42  1  0  0  0  0
 19 20  2  0  0  0  0
 21 22  1  0  0  0  0
 22 23  2  0  0  0  0
 22 43  1  0  0  0  0
 23 24  1  0  0  0  0
 24 44  1  0  0  0  0
 24 45  1  0  0  0  0
 24 46  1  0  0  0  0
M  CHG  1   5   1
M  END
> <s_m_source_file>
AV-unprocessed.smi

> <i_m_source_file_index>
2026

> <i_lp_mmshare_version>
43012

> <i_f3d_flags>
0

> <s_epik_input>
W0NIM11jKFtjSF0xKWMoW0NIM10pW2NIXWMoYzEyKW4oW2NIXW4yKVtDSDJdW0NASF0oW09IXSlbQ0gyXU4oQzM9TylDKD1PKVtOSF1DMyhbQ0gzXSlbQ0gzXQ==

> <s_epik_cmdline>
J2VwaWtfcHl0aG9uJywgJy1waCcsICc3LjAnLCAnLXRuJywgJzgnLCAnLW1hJywgJzIwMCcsICctbWV0YWxfYmluZGluZycsICctaW1hZScsICc8aW5maWxlLm1hZT4nLCAnLW9tYWUnLCAnPG91dGZpbGUubWFlPic=

> <r_lp_tautomer_probability>
1

> <r_epik_Ionization_Penalty>
1.08255

> <r_epik_Ionization_Penalty_Charging>
1.08249

> <r_epik_Ionization_Penalty_Neutral>
6.65731e-05

> <r_epik_State_Penalty>
1.13805

> <r_epik_Charging_Adjusted_Penalty>
2.22054

> <i_epik_Tot_Q>
1

> <i_epik_Tot_abs_Q>
1

> <r_epik_Metal_State_Penalty>
1.29676

> <b_epik_Metal_Only>
0

> <s_lp_Force_Field>
OPLS_2005

> <r_lp_Energy>
25.6396

> <b_lp_Chiralities_Consistent>
1

> <s_lp_Variant>
AV-unprocessed.smi:2026-3

> <Gold.Version>
5.8.1

> <Gold.Id.Protein>
6NUR|6NUR_protein|mol2

> <Gold.PLP.Fitness>
51.5512

> <Gold.PLP.PLP>
-43.6807

> <Gold.PLP.part.hbond>
-2.2561

> <Gold.PLP.part.metal>
0.0000

> <Gold.PLP.part.buried>
-6.9379

> <Gold.PLP.part.nonpolar>
-36.7006

> <Gold.PLP.part.repulsive>
0.1690

> <Gold.PLP.ligand.clash>
0.0000

> <Gold.PLP.ligand.torsion>
0.5542

> <Gold.PLP.Chemscore.Hbond>
2.9840

> <Gold.PLP.Chemscore.CHOScore>
0.0000

> <Gold.PLP.Chemscore.Metal>
0.0000

> <Gold.Chemscore.Hbonds>
donor molecule, donor type, donor heavy atom, donor atom, acceptor molecule, acceptor atom, score
      L1  H     5    47       P1  8028  2.00
      P1  H  6896  6908       L1    20  1.00

> <Gold.PLP.Chemscore.Internal.Correction>
0.0269

> <Gold.Rescore>
     Score         DG    S(hbond)    S(metal)    S(lipo)     H(rot)  DE(clash)    DE(int)     intcor
     17.89     -18.45       1.94        0.00     109.93       2.49       0.04       0.52       ----

> <Gold.Chemscore.Fitness>
17.8858

> <Gold.Chemscore.DG>
-18.4459

> <Gold.Chemscore.ZeroCoef>
-5.4800

> <Gold.Chemscore.Hbond>
1.9419

> <Gold.Chemscore.Metal>
0.0000

> <Gold.Chemscore.Lipo>
109.9300

> <Gold.Chemscore.Internal_Hbond>
0.0000

> <Gold.Chemscore.DEClash>
0.0411

> <Gold.Chemscore.DEInternal>
0.5190

> <Gold.Chemscore.Rot>
2.4929

> <Gold.Chemscore.Internal.Correction>
   9.000000E+99

> <Gold.Chemscore.Hbonds>
donor molecule, donor type, donor heavy atom, donor atom, acceptor molecule, acceptor atom, score
      L1  H     5    47       P1  8028  0.99
      P1  H  6896  6908       L1    20  0.84

> <Gold.Chemscore.Hbond.Weighted>
-6.4860

> <Gold.Chemscore.Metal.Weighted>
-0.0000

> <Gold.Chemscore.Lipo.Weighted>
-12.8618

> <Gold.Chemscore.Internal_Hbond.Weighted>
0.0000

> <Gold.Chemscore.DEClash.Weighted>
0.0411

> <Gold.Chemscore.DEInternal.Weighted>
0.5190

> <Gold.Chemscore.Rot.Weighted>
6.3819

> <Gold.Chemscore.Internal.Correction.Weighted>
   9.000000E+99

> <Gold.Protein.RotatedTorsions>
[ 6907 6896 6895 6894 ] final -162.44 input  -60.11 | X-H torsion
[ 7974 7965 7964 7962 ] final   77.58 input  175.53 | X-H torsion
[ 8008 7997 7996 7995 ] final   39.94 input   59.86 | X-H torsion
[ 10167 10162 10161 10158 ] final   40.17 input  -65.29 | X-H torsion
[ 10718 10713 10712 10709 ] final   95.57 input   66.30 | X-H torsion
[ 10763 10752 10751 10750 ] final  -90.11 input  -60.55 | X-H torsion
[ 11005 11000 10999 10996 ] final  -81.36 input  -57.11 | X-H torsion

> <Gold.Protein.ActiveResidues>
 VAL166  LYS551  ARG553  GLY616  TRP617  ASP618  TYR619  PRO620  LYS621  CYS622 
 ASP623  PHE694  ASN695  SER759  ASP760  ASP761  ALA762  ILE779  LEU786  VAL792 
 PHE793  MET794  SER795  GLU796  ALA797  LYS798  CYS799  TRP800  GLU811  SER814 

> <Gold.Protein.RotatedAtoms>
  151.3804  133.3823  159.2709 H   0  0  0  0  0  0  0  0  0  0  0  0  # atno 6907 bound_to 6896
  150.9582  134.8974  159.7724 H   0  0  0  0  0  0  0  0  0  0  0  0  # atno 6908 bound_to 6896
  152.5139  134.3762  159.9387 H   0  0  0  0  0  0  0  0  0  0  0  0  # atno 6909 bound_to 6896
  145.6882  139.2544  143.1775 H   0  0  0  0  0  0  0  0  0  0  0  0  # atno 7974 bound_to 7965
  155.2449  140.3348  155.4288 H   0  0  0  0  0  0  0  0  0  0  0  0  # atno 8008 bound_to 7997
  156.2240  140.1821  156.7453 H   0  0  0  0  0  0  0  0  0  0  0  0  # atno 8009 bound_to 7997
  154.5869  140.0644  156.9169 H   0  0  0  0  0  0  0  0  0  0  0  0  # atno 8010 bound_to 7997
  140.3768  144.2033  150.6131 H   0  0  0  0  0  0  0  0  0  0  0  0  # atno 10167 bound_to 10162
  157.6937  131.0550  150.4359 H   0  0  0  0  0  0  0  0  0  0  0  0  # atno 10718 bound_to 10713
  154.6623  135.5316  153.8034 H   0  0  0  0  0  0  0  0  0  0  0  0  # atno 10763 bound_to 10752
  153.0450  135.6509  154.0852 H   0  0  0  0  0  0  0  0  0  0  0  0  # atno 10764 bound_to 10752
  154.0760  135.2950  155.3279 H   0  0  0  0  0  0  0  0  0  0  0  0  # atno 10765 bound_to 10752
  141.1666  133.7193  156.8411 H   0  0  0  0  0  0  0  0  0  0  0  0  # atno 11005 bound_to 11000
  146.0905  140.7661  142.9597 LP  0  0  0  0  0  0  0  0  0  0  0  0  # atno 17320 bound_to 7965
  144.7005  140.3630  143.7160 LP  0  0  0  0  0  0  0  0  0  0  0  0  # atno 17321 bound_to 7965
  140.4978  143.2327  151.8723 LP  0  0  0  0  0  0  0  0  0  0  0  0  # atno 17342 bound_to 10162
  139.4799  144.5093  151.8954 LP  0  0  0  0  0  0  0  0  0  0  0  0  # atno 17343 bound_to 10162
  156.4722  130.4055  149.6511 LP  0  0  0  0  0  0  0  0  0  0  0  0  # atno 17370 bound_to 10713
  156.3588  130.7470  151.2440 LP  0  0  0  0  0  0  0  0  0  0  0  0  # atno 17371 bound_to 10713
  140.1983  134.8916  157.3139 LP  0  0  0  0  0  0  0  0  0  0  0  0  # atno 17394 bound_to 11000
  140.2215  134.4017  155.7563 LP  0  0  0  0  0  0  0  0  0  0  0  0  # atno 17395 bound_to 11000

$$$$
