AV-unprocessed.smi:261|AV-procd|sdf|1987|dock7
  -GOLD-   2262021163D 1   1.00000     0.00000
 Structure written by MMmdl.
 51 54  0  0  0  0  0  0  0  0  1 V2000
  150.9749  130.6270  156.0006 C   0  0  0  0  0  0  0  0  0  0  0  0
  151.0410  131.8292  156.7504 O   0  0  0  0  0  0  0  0  0  0  0  0
  150.8251  132.9937  155.9673 C   0  0  1  0  0  0  0  0  0  0  0  0
  149.4603  132.9487  155.2919 C   0  0  0  0  0  0  0  0  0  0  0  0
  149.1828  134.4247  154.9754 C   0  0  1  0  0  0  0  0  0  0  0  0
  147.6798  134.7138  154.8535 C   0  0  0  0  0  0  0  0  0  0  0  0
  147.2525  135.1887  153.6812 N   0  0  0  0  0  0  0  0  0  0  0  0
  146.9122  134.5003  155.7906 O   0  0  0  0  0  0  0  0  0  0  0  0
  149.7998  135.1528  156.0881 N   0  0  0  0  0  0  0  0  0  0  0  0
  150.2634  136.3847  155.7820 C   0  0  0  0  0  0  0  0  0  0  0  0
  150.4711  136.6626  154.4720 N   0  0  0  0  0  0  0  0  0  0  0  0
  150.9336  137.8633  154.1099 C   0  0  0  0  0  0  0  0  0  0  0  0
  151.2469  138.9063  154.8827 N   0  0  0  0  0  0  0  0  0  0  0  0
  151.0409  138.6255  156.2017 C   0  0  0  0  0  0  0  0  0  0  0  0
  150.5560  137.3995  156.7361 C   0  0  0  0  0  0  0  0  0  0  0  0
  150.4812  137.4805  158.1217 N   0  0  0  0  0  0  0  0  0  0  0  0
  150.8987  138.6875  158.3913 C   0  0  0  0  0  0  0  0  0  0  0  0
  151.2553  139.4427  157.2972 N   0  0  0  0  0  0  0  0  0  0  0  0
  151.7531  140.8068  157.3099 C   0  0  0  0  0  0  0  0  0  0  0  0
  152.3000  141.2229  158.6897 C   0  0  1  0  0  0  0  0  0  0  0  0
  153.5432  140.5858  158.9152 O   0  0  0  0  0  0  0  0  0  0  0  0
  152.4939  142.7464  158.8001 C   0  0  2  0  0  0  0  0  0  0  0  0
  152.8149  143.2475  160.2077 C   0  0  0  0  0  0  0  0  0  0  0  0
  152.3986  144.7069  160.1555 C   0  0  0  0  0  0  0  0  0  0  0  0
  151.4026  144.7643  158.9931 C   0  0  0  0  0  0  0  0  0  0  0  0
  151.2784  143.4263  158.5268 O   0  0  0  0  0  0  0  0  0  0  0  0
  150.7329  134.2795  156.7947 C   0  0  0  0  0  0  0  0  0  0  0  0
  151.5939  133.0929  155.1984 H   0  0  0  0  0  0  0  0  0  0  0  0
  149.6774  134.6857  154.0373 H   0  0  0  0  0  0  0  0  0  0  0  0
  151.1245  129.7753  156.6640 H   0  0  0  0  0  0  0  0  0  0  0  0
  151.7478  130.5906  155.2323 H   0  0  0  0  0  0  0  0  0  0  0  0
  150.0007  130.5133  155.5234 H   0  0  0  0  0  0  0  0  0  0  0  0
  149.4570  132.3184  154.4021 H   0  0  0  0  0  0  0  0  0  0  0  0
  148.7171  132.5525  155.9870 H   0  0  0  0  0  0  0  0  0  0  0  0
  146.2735  135.3953  153.5464 H   0  0  0  0  0  0  0  0  0  0  0  0
  147.9128  135.3387  152.9322 H   0  0  0  0  0  0  0  0  0  0  0  0
  151.0727  138.0091  153.0489 H   0  0  0  0  0  0  0  0  0  0  0  0
  150.9615  139.0626  159.4025 H   0  0  0  0  0  0  0  0  0  0  0  0
  152.5256  140.9053  156.5462 H   0  0  0  0  0  0  0  0  0  0  0  0
  150.9377  141.4667  157.0117 H   0  0  0  0  0  0  0  0  0  0  0  0
  151.6091  140.8901  159.4655 H   0  0  0  0  0  0  0  0  0  0  0  0
  154.0596  141.1302  159.4896 H   0  0  0  0  0  0  0  0  0  0  0  0
  153.2570  143.0895  158.0986 H   0  0  0  0  0  0  0  0  0  0  0  0
  152.2076  142.7188  160.9434 H   0  0  0  0  0  0  0  0  0  0  0  0
  153.8629  143.1151  160.4775 H   0  0  0  0  0  0  0  0  0  0  0  0
  151.9558  145.0325  161.0971 H   0  0  0  0  0  0  0  0  0  0  0  0
  153.2564  145.3473  159.9476 H   0  0  0  0  0  0  0  0  0  0  0  0
  150.4310  145.1537  159.2975 H   0  0  0  0  0  0  0  0  0  0  0  0
  151.7853  145.3953  158.1899 H   0  0  0  0  0  0  0  0  0  0  0  0
  150.3031  134.0690  157.7746 H   0  0  0  0  0  0  0  0  0  0  0  0
  151.7156  134.7233  156.9623 H   0  0  0  0  0  0  0  0  0  0  0  0
  1  2  1  0  0  0  0
  1 30  1  0  0  0  0
  1 31  1  0  0  0  0
  1 32  1  0  0  0  0
  2  3  1  0  0  0  0
  3 28  1  0  0  0  0
  3 27  1  0  0  0  0
  3  4  1  0  0  0  0
  4  5  1  0  0  0  0
  4 33  1  0  0  0  0
  4 34  1  0  0  0  0
  5 29  1  0  0  0  0
  5  6  1  0  0  0  0
  5  9  1  0  0  0  0
  6  7  1  0  0  0  0
  6  8  2  0  0  0  0
  7 35  1  0  0  0  0
  7 36  1  0  0  0  0
  9 10  1  0  0  0  0
  9 27  1  0  0  0  0
 10 15  1  0  0  0  0
 10 11  2  0  0  0  0
 11 12  1  0  0  0  0
 12 13  2  0  0  0  0
 12 37  1  0  0  0  0
 13 14  1  0  0  0  0
 14 18  1  0  0  0  0
 14 15  2  0  0  0  0
 15 16  1  0  0  0  0
 16 17  2  0  0  0  0
 17 18  1  0  0  0  0
 17 38  1  0  0  0  0
 18 19  1  0  0  0  0
 19 20  1  0  0  0  0
 19 39  1  0  0  0  0
 19 40  1  0  0  0  0
 20 21  1  0  0  0  0
 20 22  1  0  0  0  0
 20 41  1  0  0  0  0
 21 42  1  0  0  0  0
 22 26  1  0  0  0  0
 22 23  1  0  0  0  0
 22 43  1  0  0  0  0
 23 24  1  0  0  0  0
 23 44  1  0  0  0  0
 23 45  1  0  0  0  0
 24 25  1  0  0  0  0
 24 46  1  0  0  0  0
 24 47  1  0  0  0  0
 25 26  1  0  0  0  0
 25 48  1  0  0  0  0
 25 49  1  0  0  0  0
 27 50  1  0  0  0  0
 27 51  1  0  0  0  0
M  END
> <s_m_source_file>
AV-unprocessed.smi

> <i_m_source_file_index>
261

> <i_lp_mmshare_version>
43012

> <i_f3d_flags>
0

> <s_epik_input>
W0NIM11PW0NASF0xW0NIMl1bQ0BASF0oQyg9TylbTkgyXSlOKFtDSDJdMSljKG5bY0hdbjIpYyhjMjMpbltjSF1uM1tDSDJdW0NASF0oW09IXSlbQ0BASF00W0NIMl1bQ0gyXVtDSDJdTzQ=

> <s_epik_cmdline>
J2VwaWtfcHl0aG9uJywgJy1waCcsICc3LjAnLCAnLXRuJywgJzgnLCAnLW1hJywgJzIwMCcsICctbWV0YWxfYmluZGluZycsICctaW1hZScsICc8aW5maWxlLm1hZT4nLCAnLW9tYWUnLCAnPG91dGZpbGUubWFlPic=

> <r_lp_tautomer_probability>
1

> <r_epik_Ionization_Penalty>
0.000713824

> <r_epik_Ionization_Penalty_Charging>
0

> <r_epik_Ionization_Penalty_Neutral>
0.000713824

> <r_epik_State_Penalty>
0.000402132

> <r_epik_Charging_Adjusted_Penalty>
0.000402132

> <i_epik_Tot_Q>
0

> <i_epik_Tot_abs_Q>
0

> <r_epik_Metal_State_Penalty>
-0

> <b_epik_Metal_Only>
0

> <s_lp_Force_Field>
OPLS_2005

> <r_lp_Energy>
45.3763

> <b_lp_Chiralities_Consistent>
1

> <s_lp_Variant>
AV-unprocessed.smi:261-5

> <Gold.Version>
5.8.1

> <Gold.Id.Protein>
6NUR|6NUR_protein|mol2

> <Gold.PLP.Fitness>
42.0996

> <Gold.PLP.PLP>
-36.5069

> <Gold.PLP.part.hbond>
-1.8205

> <Gold.PLP.part.metal>
0.0000

> <Gold.PLP.part.buried>
-5.2926

> <Gold.PLP.part.nonpolar>
-30.0930

> <Gold.PLP.part.repulsive>
1.6095

> <Gold.PLP.ligand.clash>
0.0000

> <Gold.PLP.ligand.torsion>
0.7402

> <Gold.PLP.Chemscore.Hbond>
1.5512

> <Gold.PLP.Chemscore.CHOScore>
0.7531

> <Gold.PLP.Chemscore.Metal>
0.0000

> <Gold.Chemscore.Hbonds>
donor molecule, donor type, donor heavy atom, donor atom, acceptor molecule, acceptor atom, score
      L1  H     7    36       P1  7948  1.00
      P1  H  7989  7998       L1    13  0.02
      P1  H  7997  8009       L1    21  0.46
      L1  C    12    37       P1  7949  0.77

> <Gold.PLP.Chemscore.Internal.Correction>
0.1602

> <Gold.Rescore>
     Score         DG    S(hbond)    S(metal)    S(lipo)     H(rot)  DE(clash)    DE(int)     intcor
     10.67     -11.58       1.42        0.00      89.74       3.57       0.21       0.70       ----

> <Gold.Chemscore.Fitness>
10.6735

> <Gold.Chemscore.DG>
-11.5812

> <Gold.Chemscore.ZeroCoef>
-5.4800

> <Gold.Chemscore.Hbond>
1.4225

> <Gold.Chemscore.Metal>
0.0000

> <Gold.Chemscore.Lipo>
89.7396

> <Gold.Chemscore.Internal_Hbond>
0.0000

> <Gold.Chemscore.DEClash>
0.2071

> <Gold.Chemscore.DEInternal>
0.7005

> <Gold.Chemscore.Rot>
3.5740

> <Gold.Chemscore.Internal.Correction>
   9.000000E+99

> <Gold.Chemscore.Hbonds>
donor molecule, donor type, donor heavy atom, donor atom, acceptor molecule, acceptor atom, score
      L1  H     7    36       P1  7948  0.99
      P1  H  7989  7998       L1    13  0.05
      P1  H  7997  8009       L1    21  0.32

> <Gold.Chemscore.Hbond.Weighted>
-4.7511

> <Gold.Chemscore.Metal.Weighted>
-0.0000

> <Gold.Chemscore.Lipo.Weighted>
-10.4995

> <Gold.Chemscore.Internal_Hbond.Weighted>
0.0000

> <Gold.Chemscore.DEClash.Weighted>
0.2071

> <Gold.Chemscore.DEInternal.Weighted>
0.7005

> <Gold.Chemscore.Rot.Weighted>
9.1495

> <Gold.Chemscore.Internal.Correction.Weighted>
   9.000000E+99

> <Gold.Protein.RotatedTorsions>
[ 6907 6896 6895 6894 ] final  -69.88 input  -60.11 | X-H torsion
[ 7974 7965 7964 7962 ] final  -38.71 input  175.53 | X-H torsion
[ 8008 7997 7996 7995 ] final  145.43 input   59.86 | X-H torsion
[ 10167 10162 10161 10158 ] final  -21.84 input  -65.29 | X-H torsion
[ 10718 10713 10712 10709 ] final   -1.10 input   66.30 | X-H torsion
[ 10763 10752 10751 10750 ] final   16.73 input  -60.55 | X-H torsion
[ 11005 11000 10999 10996 ] final  170.50 input  -57.11 | X-H torsion

> <Gold.Protein.ActiveResidues>
 VAL166  LYS551  ARG553  GLY616  TRP617  ASP618  TYR619  PRO620  LYS621  CYS622 
 ASP623  PHE694  ASN695  SER759  ASP760  ASP761  ALA762  ILE779  LEU786  VAL792 
 PHE793  MET794  SER795  GLU796  ALA797  LYS798  CYS799  TRP800  GLU811  SER814 

> <Gold.Protein.RotatedAtoms>
  150.7284  134.5533  159.5805 H   0  0  0  0  0  0  0  0  0  0  0  0  # atno 6907 bound_to 6896
  152.3014  134.7603  160.0366 H   0  0  0  0  0  0  0  0  0  0  0  0  # atno 6908 bound_to 6896
  151.8182  133.3355  159.3613 H   0  0  0  0  0  0  0  0  0  0  0  0  # atno 6909 bound_to 6896
  146.0462  140.6542  142.9063 H   0  0  0  0  0  0  0  0  0  0  0  0  # atno 7974 bound_to 7965
  156.2883  140.2209  156.5214 H   0  0  0  0  0  0  0  0  0  0  0  0  # atno 8008 bound_to 7997
  154.7525  140.0479  157.0927 H   0  0  0  0  0  0  0  0  0  0  0  0  # atno 8009 bound_to 7997
  155.0092  140.3111  155.4839 H   0  0  0  0  0  0  0  0  0  0  0  0  # atno 8010 bound_to 7997
  140.7284  143.4590  151.0407 H   0  0  0  0  0  0  0  0  0  0  0  0  # atno 10167 bound_to 10162
  156.8106  130.5423  149.5709 H   0  0  0  0  0  0  0  0  0  0  0  0  # atno 10718 bound_to 10713
  153.1403  135.6758  153.9037 H   0  0  0  0  0  0  0  0  0  0  0  0  # atno 10763 bound_to 10752
  153.8496  135.3095  155.3433 H   0  0  0  0  0  0  0  0  0  0  0  0  # atno 10764 bound_to 10752
  154.7782  135.4903  153.9872 H   0  0  0  0  0  0  0  0  0  0  0  0  # atno 10765 bound_to 10752
  140.3090  134.7532  157.3976 H   0  0  0  0  0  0  0  0  0  0  0  0  # atno 11005 bound_to 11000
  144.7099  140.3999  143.7089 LP  0  0  0  0  0  0  0  0  0  0  0  0  # atno 17320 bound_to 7965
  145.6801  139.1616  143.2705 LP  0  0  0  0  0  0  0  0  0  0  0  0  # atno 17321 bound_to 7965
  139.8273  143.7739  152.3179 LP  0  0  0  0  0  0  0  0  0  0  0  0  # atno 17342 bound_to 10162
  139.7842  144.7433  151.0045 LP  0  0  0  0  0  0  0  0  0  0  0  0  # atno 17343 bound_to 10162
  156.1047  130.5995  150.9951 LP  0  0  0  0  0  0  0  0  0  0  0  0  # atno 17370 bound_to 10713
  157.6508  131.0897  150.8055 LP  0  0  0  0  0  0  0  0  0  0  0  0  # atno 17371 bound_to 10713
  140.1041  134.5432  155.8325 LP  0  0  0  0  0  0  0  0  0  0  0  0  # atno 17394 bound_to 11000
  141.2112  133.6704  156.6566 LP  0  0  0  0  0  0  0  0  0  0  0  0  # atno 17395 bound_to 11000

$$$$
