#       Name:                AV-unprocessed.smi:1793
#       Creating user name   scv26
#       Creation time:       Fri Mar 27 08:47:25 2020


#       File generated by GOLD software.
#

@<TRIPOS>MOLECULE
AV-unprocessed.smi:1793
    52    54     1
SMALL
NO_CHARGES


@<TRIPOS>ATOM
      1 ****        -3.0715  -1.5595   1.4723 C.3            1 S1                 0.0000
      2 ****        -2.8977  -0.5548   0.3241 C.3            1 S1                 0.0000
      3 ****        -1.4707  -0.3798   0.0585 N.am           1 S1                 0.0000
      4 ****        -0.8006   0.7809   0.0915 C.2            1 S1                 0.0000
      5 ****        -1.3180   1.8659   0.3549 O.2            1 S1                 0.0000
      6 ****         0.5009   0.5950  -0.1842 N.am           1 S1                 0.0000
      7 ****         1.5437   1.5634  -0.1641 C.ar           1 S1                 0.0000
      8 ****         1.3122   2.8949  -0.5959 C.ar           1 S1                 0.0000
      9 ****         2.3751   3.8166  -0.6351 C.ar           1 S1                 0.0000
     10 ****         3.6593   3.3894  -0.2579 C.ar           1 S1                 0.0000
     11 ****         3.8501   2.1137   0.1366 N.pl3          1 S1                 1.0000
     12 ****         2.8657   1.1830   0.2111 C.ar           1 S1                 0.0000
     13 ****         3.2199  -0.1128   0.6535 N.3            1 S1                 0.0000
     14 ****         4.6188  -0.4626   0.8716 C.3            1 S1                 0.0000
     15 ****         4.5836  -1.7726   1.6540 C.3            1 S1                 0.0000
     16 ****         3.3446  -1.6005   2.5272 C.3            1 S1                 0.0000
     17 ****         2.3900  -0.7872   1.6470 C.3            1 S1                 0.0000
     18 ****        -3.6218  -1.0136  -0.9567 C.3            1 S1                 0.0000
     19 ****        -3.5074  -0.0527  -2.1404 C.3            1 S1                 0.0000
     20 ****        -4.7128  -0.4080  -2.9943 C.3            1 S1                 0.0000
     21 ****        -5.6511  -1.1371  -2.0275 C.3            1 S1                 0.0000
     22 ****        -5.0254  -1.0570  -0.7533 O.3            1 S1                 0.0000
     23 ****        -4.1245  -1.6932   1.7216 H              1 S1                 0.0000
     24 ****        -2.5635  -1.2165   2.3744 H              1 S1                 0.0000
     25 ****        -2.6650  -2.5372   1.2113 H              1 S1                 0.0000
     26 ****        -3.3396   0.3904   0.6441 H              1 S1                 0.0000
     27 ****        -0.9542  -1.2167  -0.1688 H              1 S1                 0.0000
     28 ****         0.7976  -0.3633  -0.2973 H              1 S1                 0.0000
     29 ****         0.3355   3.2197  -0.9217 H              1 S1                 0.0000
     30 ****         2.2085   4.8324  -0.9629 H              1 S1                 0.0000
     31 ****         4.5351   4.0220  -0.2638 H              1 S1                 0.0000
     32 ****         5.1562  -0.5687  -0.0711 H              1 S1                 0.0000
     33 ****         5.1144   0.3055   1.4667 H              1 S1                 0.0000
     34 ****         4.4447  -2.6124   0.9717 H              1 S1                 0.0000
     35 ****         5.4926  -1.9490   2.2299 H              1 S1                 0.0000
     36 ****         2.9166  -2.5491   2.8522 H              1 S1                 0.0000
     37 ****         3.6016  -1.0257   3.4179 H              1 S1                 0.0000
     38 ****         1.8041  -0.0854   2.2418 H              1 S1                 0.0000
     39 ****         1.7007  -1.4555   1.1307 H              1 S1                 0.0000
     40 ****        -3.2784  -2.0064  -1.2544 H              1 S1                 0.0000
     41 ****        -3.5947   0.9788  -1.7960 H              1 S1                 0.0000
     42 ****        -2.5636  -0.1500  -2.6777 H              1 S1                 0.0000
     43 ****        -5.1740   0.4828  -3.4218 H              1 S1                 0.0000
     44 ****        -4.4299  -1.0673  -3.8157 H              1 S1                 0.0000
     45 ****        -6.6453  -0.6911  -1.9963 H              1 S1                 0.0000
     46 ****        -5.7573  -2.1846  -2.3124 H              1 S1                 0.0000
     47 ****         4.7944   1.8340   0.4026 H              1 S1                 0.0000
     48 ****        -2.2952   1.9170   0.5611 LP             1 S1                 0.0000
     49 ****        -0.7612   2.6966   0.3629 LP             1 S1                 0.0000
     50 ****         2.9770  -0.4840  -0.2427 LP             1 S1                 0.0000
     51 ****        -5.3254  -0.2292  -0.2791 LP             1 S1                 0.0000
     52 ****        -5.2645  -1.8594  -0.2066 LP             1 S1                 0.0000
@<TRIPOS>BOND
    1    1    2 1     
    2    1   23 1     
    3    1   24 1     
    4    1   25 1     
    5    2    3 1     
    6    2   18 1     
    7    2   26 1     
    8    3    4 am    
    9    3   27 1     
   10    4    5 2     
   11    4    6 am    
   12    6    7 1     
   13    6   28 1     
   14    7   12 ar    
   15    7    8 ar    
   16    8    9 ar    
   17    8   29 1     
   18    9   10 ar    
   19    9   30 1     
   20   10   11 ar    
   21   10   31 1     
   22   11   12 ar    
   23   11   47 1     
   24   12   13 1     
   25   13   17 1     
   26   13   14 1     
   27   14   15 1     
   28   14   32 1     
   29   14   33 1     
   30   15   16 1     
   31   15   34 1     
   32   15   35 1     
   33   16   17 1     
   34   16   36 1     
   35   16   37 1     
   36   17   38 1     
   37   17   39 1     
   38   18   22 1     
   39   18   19 1     
   40   18   40 1     
   41   19   20 1     
   42   19   41 1     
   43   19   42 1     
   44   20   21 1     
   45   20   43 1     
   46   20   44 1     
   47   21   22 1     
   48   21   45 1     
   49   21   46 1     
   50    5   48 1     
   51    5   49 1     
   52   13   50 1     
   53   22   51 1     
   54   22   52 1     
@<TRIPOS>SUBSTRUCTURE
      1 S1             1
@<TRIPOS>SET
LONE_PAIRS      STATIC     ATOMS    <user>   **** ""
5 48 49 50 51 52
DONOR_HYDROGENS      STATIC     ATOMS    <user>   **** ""
3 27 28 47
ATOM$BLUE        STATIC     ATOMS    COLORGROUP SYSTEM
5 48 49 50 51 52
ATOM$RED        STATIC     ATOMS    COLORGROUP SYSTEM
3 27 28 47
