AV-unprocessed.smi:3191|AV-procd|sdf|12196|dock7
  -GOLD-   2272018 33D 1   1.00000     0.00000
 Structure written by MMmdl.
 36 37  0  0  0  0  0  0  0  0  2 V2000
  152.5340  138.8066  155.6891 C   0  0  0  0  0  0  0  0  0  0  0  0
  151.2858  138.9024  154.9271 N   0  0  0  0  0  0  0  0  0  0  0  0
  150.9532  138.0018  153.9935 C   0  0  0  0  0  0  0  0  0  0  0  0
  149.7764  138.3818  153.4903 N   0  3  0  0  0  0  0  0  0  0  0  0
  149.3532  139.5293  154.1024 C   0  0  0  0  0  0  0  0  0  0  0  0
  150.3109  139.8701  155.0255 C   0  0  0  0  0  0  0  0  0  0  0  0
  150.3762  141.0152  155.9838 C   0  0  0  0  0  0  0  0  0  0  0  0
  150.2548  140.5386  157.4412 C   0  0  0  0  0  0  0  0  0  0  0  0
  150.6937  141.5674  158.3761 N   0  0  0  0  0  0  0  0  0  0  0  0
  151.6443  141.3988  159.3084 C   0  0  0  0  0  0  0  0  0  0  0  0
  152.2377  140.3308  159.4665 O   0  0  0  0  0  0  0  0  0  0  0  0
  151.9083  142.6236  160.1286 C   0  0  1  0  0  0  0  0  0  0  0  0
  153.3295  143.1444  160.1922 C   0  0  0  0  0  0  0  0  0  0  0  0
  152.2795  143.9405  159.4498 C   0  0  0  0  0  0  0  0  0  0  0  0
  152.3852  144.0907  157.9369 C   0  0  0  0  0  0  0  0  0  0  0  0
  151.7471  145.2274  160.0556 C   0  0  0  0  0  0  0  0  0  0  0  0
  151.3155  142.7105  161.0382 H   0  0  0  0  0  0  0  0  0  0  0  0
  153.0683  137.8931  155.4252 H   0  0  0  0  0  0  0  0  0  0  0  0
  152.3066  138.7946  156.7550 H   0  0  0  0  0  0  0  0  0  0  0  0
  153.1594  139.6696  155.4588 H   0  0  0  0  0  0  0  0  0  0  0  0
  151.5225  137.1373  153.7011 H   0  0  0  0  0  0  0  0  0  0  0  0
  148.4204  140.0094  153.8446 H   0  0  0  0  0  0  0  0  0  0  0  0
  151.3096  141.5576  155.8297 H   0  0  0  0  0  0  0  0  0  0  0  0
  149.5717  141.7141  155.7515 H   0  0  0  0  0  0  0  0  0  0  0  0
  149.2175  140.2900  157.6671 H   0  0  0  0  0  0  0  0  0  0  0  0
  150.8323  139.6267  157.6013 H   0  0  0  0  0  0  0  0  0  0  0  0
  150.2476  142.4708  158.3087 H   0  0  0  0  0  0  0  0  0  0  0  0
  153.6720  143.5183  161.1551 H   0  0  0  0  0  0  0  0  0  0  0  0
  154.0961  142.6451  159.6021 H   0  0  0  0  0  0  0  0  0  0  0  0
  152.8856  145.0252  157.6813 H   0  0  0  0  0  0  0  0  0  0  0  0
  151.3918  144.0971  157.4876 H   0  0  0  0  0  0  0  0  0  0  0  0
  152.9629  143.2820  157.4908 H   0  0  0  0  0  0  0  0  0  0  0  0
  152.4163  146.0590  159.8335 H   0  0  0  0  0  0  0  0  0  0  0  0
  151.6634  145.1404  161.1394 H   0  0  0  0  0  0  0  0  0  0  0  0
  150.7599  145.4561  159.6527 H   0  0  0  0  0  0  0  0  0  0  0  0
  149.2732  137.8900  152.7622 H   0  0  0  0  0  0  0  0  0  0  0  0
  1  2  1  0  0  0  0
  1 18  1  0  0  0  0
  1 19  1  0  0  0  0
  1 20  1  0  0  0  0
  2  6  1  0  0  0  0
  2  3  1  0  0  0  0
  3  4  2  0  0  0  0
  3 21  1  0  0  0  0
  4  5  1  0  0  0  0
  4 36  1  0  0  0  0
  5  6  2  0  0  0  0
  5 22  1  0  0  0  0
  6  7  1  0  0  0  0
  7  8  1  0  0  0  0
  7 23  1  0  0  0  0
  7 24  1  0  0  0  0
  8  9  1  0  0  0  0
  8 25  1  0  0  0  0
  8 26  1  0  0  0  0
  9 10  1  0  0  0  0
  9 27  1  0  0  0  0
 10 11  2  0  0  0  0
 10 12  1  0  0  0  0
 12 17  1  0  0  0  0
 12 14  1  0  0  0  0
 12 13  1  0  0  0  0
 13 14  1  0  0  0  0
 13 28  1  0  0  0  0
 13 29  1  0  0  0  0
 14 15  1  0  0  0  0
 14 16  1  0  0  0  0
 15 30  1  0  0  0  0
 15 31  1  0  0  0  0
 15 32  1  0  0  0  0
 16 33  1  0  0  0  0
 16 34  1  0  0  0  0
 16 35  1  0  0  0  0
M  CHG  1   4   1
M  END
> <s_m_source_file>
AV-unprocessed.smi

> <i_m_source_file_index>
3191

> <i_lp_mmshare_version>
43012

> <i_f3d_flags>
0

> <s_epik_input>
W0NIM11uMVtjSF1uW2NIXWMxW0NIMl1bQ0gyXVtOSF1DKD1PKVtDQEBIXShbQ0gyXTIpQzIoW0NIM10pW0NIM10=

> <s_epik_cmdline>
J2VwaWtfcHl0aG9uJywgJy1waCcsICc3LjAnLCAnLXRuJywgJzgnLCAnLW1hJywgJzIwMCcsICctbWV0YWxfYmluZGluZycsICctaW1hZScsICc8aW5maWxlLm1hZT4nLCAnLW9tYWUnLCAnPG91dGZpbGUubWFlPic=

> <r_lp_tautomer_probability>
1

> <r_epik_Ionization_Penalty>
0.153817

> <r_epik_Ionization_Penalty_Charging>
0

> <r_epik_Ionization_Penalty_Neutral>
0.153817

> <r_epik_State_Penalty>
0.14311

> <r_epik_Charging_Adjusted_Penalty>
0.14311

> <i_epik_Tot_Q>
1

> <i_epik_Tot_abs_Q>
1

> <r_epik_Metal_State_Penalty>
0.464688

> <b_epik_Metal_Only>
0

> <s_lp_Force_Field>
OPLS_2005

> <r_lp_Energy>
13.4151

> <b_lp_Chiralities_Consistent>
1

> <s_lp_Variant>
AV-unprocessed.smi:3191-1

> <Gold.Version>
5.8.1

> <Gold.Id.Protein>
6NUR|6NUR_protein|mol2

> <Gold.PLP.Fitness>
47.3647

> <Gold.PLP.PLP>
-39.0023

> <Gold.PLP.part.hbond>
-2.0000

> <Gold.PLP.part.metal>
0.0000

> <Gold.PLP.part.buried>
-2.3381

> <Gold.PLP.part.nonpolar>
-34.6542

> <Gold.PLP.part.repulsive>
0.2062

> <Gold.PLP.ligand.clash>
0.0000

> <Gold.PLP.ligand.torsion>
0.1734

> <Gold.PLP.Chemscore.Hbond>
1.9840

> <Gold.PLP.Chemscore.CHOScore>
0.8895

> <Gold.PLP.Chemscore.Metal>
0.0000

> <Gold.Chemscore.Hbonds>
donor molecule, donor type, donor heavy atom, donor atom, acceptor molecule, acceptor atom, score
      L1  H     4    36       P1  7948  1.89
      L1  C     3    21       P1  7949  0.85

> <Gold.PLP.Chemscore.Internal.Correction>
0.0888

> <Gold.Rescore>
     Score         DG    S(hbond)    S(metal)    S(lipo)     H(rot)  DE(clash)    DE(int)     intcor
     14.82     -14.99       0.96        0.00      92.16       1.76       0.02       0.15       ----

> <Gold.Chemscore.Fitness>
14.8173

> <Gold.Chemscore.DG>
-14.9894

> <Gold.Chemscore.ZeroCoef>
-5.4800

> <Gold.Chemscore.Hbond>
0.9648

> <Gold.Chemscore.Metal>
0.0000

> <Gold.Chemscore.Lipo>
92.1576

> <Gold.Chemscore.Internal_Hbond>
0.0000

> <Gold.Chemscore.DEClash>
0.0232

> <Gold.Chemscore.DEInternal>
0.1489

> <Gold.Chemscore.Rot>
1.7561

> <Gold.Chemscore.Internal.Correction>
   9.000000E+99

> <Gold.Chemscore.Hbonds>
donor molecule, donor type, donor heavy atom, donor atom, acceptor molecule, acceptor atom, score
      L1  H     4    36       P1  7948  0.86

> <Gold.Chemscore.Hbond.Weighted>
-3.2225

> <Gold.Chemscore.Metal.Weighted>
-0.0000

> <Gold.Chemscore.Lipo.Weighted>
-10.7824

> <Gold.Chemscore.Internal_Hbond.Weighted>
0.0000

> <Gold.Chemscore.DEClash.Weighted>
0.0232

> <Gold.Chemscore.DEInternal.Weighted>
0.1489

> <Gold.Chemscore.Rot.Weighted>
4.4956

> <Gold.Chemscore.Internal.Correction.Weighted>
   9.000000E+99

> <Gold.Protein.RotatedTorsions>
[ 6907 6896 6895 6894 ] final -173.56 input  -60.11 | X-H torsion
[ 7974 7965 7964 7962 ] final   54.17 input  175.53 | X-H torsion
[ 8008 7997 7996 7995 ] final  -47.04 input   59.86 | X-H torsion
[ 10167 10162 10161 10158 ] final  176.61 input  -65.29 | X-H torsion
[ 10718 10713 10712 10709 ] final   59.74 input   66.30 | X-H torsion
[ 10763 10752 10751 10750 ] final   62.00 input  -60.55 | X-H torsion
[ 11005 11000 10999 10996 ] final -110.13 input  -57.11 | X-H torsion

> <Gold.Protein.ActiveResidues>
 VAL166  LYS551  ARG553  GLY616  TRP617  ASP618  TYR619  PRO620  LYS621  CYS622 
 ASP623  PHE694  ASN695  SER759  ASP760  ASP761  ALA762  ILE779  LEU786  VAL792 
 PHE793  MET794  SER795  GLU796  ALA797  LYS798  CYS799  TRP800  GLU811  SER814 

> <Gold.Protein.RotatedAtoms>
  151.5581  133.3407  159.2965 H   0  0  0  0  0  0  0  0  0  0  0  0  # atno 6907 bound_to 6896
  150.8439  134.7743  159.6966 H   0  0  0  0  0  0  0  0  0  0  0  0  # atno 6908 bound_to 6896
  152.4501  134.5420  159.9893 H   0  0  0  0  0  0  0  0  0  0  0  0  # atno 6909 bound_to 6896
  145.9636  139.4082  143.0233 H   0  0  0  0  0  0  0  0  0  0  0  0  # atno 7974 bound_to 7965
  154.4013  140.1356  156.4110 H   0  0  0  0  0  0  0  0  0  0  0  0  # atno 8008 bound_to 7997
  155.7733  140.3483  155.5238 H   0  0  0  0  0  0  0  0  0  0  0  0  # atno 8009 bound_to 7997
  155.8745  140.0977  157.1518 H   0  0  0  0  0  0  0  0  0  0  0  0  # atno 8010 bound_to 7997
  139.5221  144.2895  152.0476 H   0  0  0  0  0  0  0  0  0  0  0  0  # atno 10167 bound_to 10162
  157.5699  130.8899  149.9249 H   0  0  0  0  0  0  0  0  0  0  0  0  # atno 10718 bound_to 10713
  152.9968  135.5480  154.6124 H   0  0  0  0  0  0  0  0  0  0  0  0  # atno 10763 bound_to 10752
  154.5442  135.2822  155.1070 H   0  0  0  0  0  0  0  0  0  0  0  0  # atno 10764 bound_to 10752
  154.2336  135.6429  153.5236 H   0  0  0  0  0  0  0  0  0  0  0  0  # atno 10765 bound_to 10752
  141.0809  133.9222  157.2291 H   0  0  0  0  0  0  0  0  0  0  0  0  # atno 11005 bound_to 11000
  145.8005  140.9773  143.1001 LP  0  0  0  0  0  0  0  0  0  0  0  0  # atno 17320 bound_to 7965
  144.6820  139.9796  143.7483 LP  0  0  0  0  0  0  0  0  0  0  0  0  # atno 17321 bound_to 7965
  140.2347  144.4332  150.6285 LP  0  0  0  0  0  0  0  0  0  0  0  0  # atno 17342 bound_to 10162
  140.6331  143.2190  151.6452 LP  0  0  0  0  0  0  0  0  0  0  0  0  # atno 17343 bound_to 10162
  156.0745  130.3681  150.0707 LP  0  0  0  0  0  0  0  0  0  0  0  0  # atno 17370 bound_to 10713
  156.8861  130.9573  151.3594 LP  0  0  0  0  0  0  0  0  0  0  0  0  # atno 17371 bound_to 10713
  139.9623  135.0151  156.9293 LP  0  0  0  0  0  0  0  0  0  0  0  0  # atno 17394 bound_to 11000
  140.5471  134.0664  155.7358 LP  0  0  0  0  0  0  0  0  0  0  0  0  # atno 17395 bound_to 11000

$$$$
