AV-unprocessed.smi:2531|AV-procd|sdf|9965|dock7
  -GOLD-   2272014 03D 1   1.00000     0.00000
 Structure written by MMmdl.
 47 49  0  0  0  0  0  0  0  0  2 V2000
  154.4572  141.5124  160.2323 O   0  0  0  0  0  0  0  0  0  0  0  0
  153.3942  141.2364  159.6747 C   0  0  0  0  0  0  0  0  0  0  0  0
  152.1726  142.1674  159.7995 C   0  0  0  0  0  0  0  0  0  0  0  0
  151.6922  142.6838  158.4284 C   0  0  0  0  0  0  0  0  0  0  0  0
  152.2578  144.0973  158.3025 C   0  0  0  0  0  0  0  0  0  0  0  0
  152.1982  144.6389  159.7276 C   0  0  0  0  0  0  0  0  0  0  0  0
  152.4941  143.4329  160.6274 C   0  0  0  0  0  0  0  0  0  0  0  0
  153.2228  140.0384  158.9771 N   0  0  0  0  0  0  0  0  0  0  0  0
  152.0066  139.2485  159.0975 C   0  0  0  0  0  0  0  0  0  0  0  0
  152.8980  138.0282  158.8298 C   0  0  0  0  0  0  0  0  0  0  0  0
  152.8560  137.4953  157.0564 S   0  0  0  0  0  0  0  0  0  0  0  0
  153.2652  138.6353  156.2215 O   0  0  0  0  0  0  0  0  0  0  0  0
  153.5306  136.1971  156.9042 O   0  0  0  0  0  0  0  0  0  0  0  0
  151.1704  137.2289  156.7915 N   0  0  0  0  0  0  0  0  0  0  0  0
  150.7060  135.8646  156.5255 C   0  0  0  0  0  0  0  0  0  0  0  0
  150.2901  135.6811  155.0549 C   0  0  0  0  0  0  0  0  0  0  0  0
  149.9075  134.2539  154.7066 C   0  0  0  0  0  0  0  0  0  0  0  0
  150.4053  133.1476  155.4285 C   0  0  0  0  0  0  0  0  0  0  0  0
  150.0384  131.8448  155.0318 C   0  0  0  0  0  0  0  0  0  0  0  0
  149.1822  131.6757  153.9238 C   0  0  0  0  0  0  0  0  0  0  0  0
  148.7142  132.8153  153.2389 C   0  0  0  0  0  0  0  0  0  0  0  0
  149.0890  134.0468  153.6492 N   0  3  0  0  0  0  0  0  0  0  0  0
  154.1056  138.9025  159.1943 C   0  0  0  0  0  0  0  0  0  0  0  0
  151.3534  141.6149  160.2617 H   0  0  0  0  0  0  0  0  0  0  0  0
  151.9900  142.0500  157.5915 H   0  0  0  0  0  0  0  0  0  0  0  0
  150.6022  142.7258  158.4205 H   0  0  0  0  0  0  0  0  0  0  0  0
  153.2944  144.0547  157.9652 H   0  0  0  0  0  0  0  0  0  0  0  0
  151.7004  144.7116  157.5950 H   0  0  0  0  0  0  0  0  0  0  0  0
  152.8920  145.4639  159.8908 H   0  0  0  0  0  0  0  0  0  0  0  0
  151.1925  145.0085  159.9323 H   0  0  0  0  0  0  0  0  0  0  0  0
  151.8987  143.4737  161.5401 H   0  0  0  0  0  0  0  0  0  0  0  0
  153.5411  143.4572  160.9352 H   0  0  0  0  0  0  0  0  0  0  0  0
  151.5823  139.2551  160.1035 H   0  0  0  0  0  0  0  0  0  0  0  0
  151.2635  139.4589  158.3275 H   0  0  0  0  0  0  0  0  0  0  0  0
  152.7116  137.1929  159.5052 H   0  0  0  0  0  0  0  0  0  0  0  0
  150.6116  137.6698  157.5225 H   0  0  0  0  0  0  0  0  0  0  0  0
  151.4829  135.1481  156.7961 H   0  0  0  0  0  0  0  0  0  0  0  0
  149.8550  135.6598  157.1754 H   0  0  0  0  0  0  0  0  0  0  0  0
  149.4421  136.3307  154.8349 H   0  0  0  0  0  0  0  0  0  0  0  0
  151.0974  136.0071  154.3972 H   0  0  0  0  0  0  0  0  0  0  0  0
  151.0685  133.2929  156.2688 H   0  0  0  0  0  0  0  0  0  0  0  0
  150.4127  130.9852  155.5685 H   0  0  0  0  0  0  0  0  0  0  0  0
  148.8914  130.6859  153.6033 H   0  0  0  0  0  0  0  0  0  0  0  0
  148.0595  132.7799  152.3804 H   0  0  0  0  0  0  0  0  0  0  0  0
  154.9469  138.8508  158.5029 H   0  0  0  0  0  0  0  0  0  0  0  0
  154.4152  138.7855  160.2347 H   0  0  0  0  0  0  0  0  0  0  0  0
  148.7449  134.8580  153.1352 H   0  0  0  0  0  0  0  0  0  0  0  0
  1  2  2  0  0  0  0
  2  3  1  0  0  0  0
  2  8  1  0  0  0  0
  3  7  1  0  0  0  0
  3  4  1  0  0  0  0
  3 24  1  0  0  0  0
  4  5  1  0  0  0  0
  4 25  1  0  0  0  0
  4 26  1  0  0  0  0
  5  6  1  0  0  0  0
  5 27  1  0  0  0  0
  5 28  1  0  0  0  0
  6  7  1  0  0  0  0
  6 29  1  0  0  0  0
  6 30  1  0  0  0  0
  7 31  1  0  0  0  0
  7 32  1  0  0  0  0
  8 23  1  0  0  0  0
  8  9  1  0  0  0  0
  9 10  1  0  0  0  0
  9 33  1  0  0  0  0
  9 34  1  0  0  0  0
 10 11  1  0  0  0  0
 10 23  1  0  0  0  0
 10 35  1  0  0  0  0
 11 12  2  0  0  0  0
 11 13  2  0  0  0  0
 11 14  1  0  0  0  0
 14 15  1  0  0  0  0
 14 36  1  0  0  0  0
 15 16  1  0  0  0  0
 15 37  1  0  0  0  0
 15 38  1  0  0  0  0
 16 17  1  0  0  0  0
 16 39  1  0  0  0  0
 16 40  1  0  0  0  0
 17 22  1  0  0  0  0
 17 18  2  0  0  0  0
 18 19  1  0  0  0  0
 18 41  1  0  0  0  0
 19 20  2  0  0  0  0
 19 42  1  0  0  0  0
 20 21  1  0  0  0  0
 20 43  1  0  0  0  0
 21 22  2  0  0  0  0
 21 44  1  0  0  0  0
 22 47  1  0  0  0  0
 23 45  1  0  0  0  0
 23 46  1  0  0  0  0
M  CHG  1  22   1
M  END
> <s_m_source_file>
AV-unprocessed.smi

> <i_m_source_file_index>
2531

> <i_lp_mmshare_version>
43012

> <i_f3d_flags>
0

> <s_epik_input>
W0NIMl0xW0NIMl1bQ0gyXVtDSDJdW0NIXTFDKD1PKU4yW0NIMl1bQ0hdKFtDSDJdMilTKD1PKSg9TylbTkhdW0NIMl1bQ0gyXWMzW2NIXVtjSF1bY0hdW2NIXW4z

> <s_epik_cmdline>
J2VwaWtfcHl0aG9uJywgJy1waCcsICc3LjAnLCAnLXRuJywgJzgnLCAnLW1hJywgJzIwMCcsICctbWV0YWxfYmluZGluZycsICctaW1hZScsICc8aW5maWxlLm1hZT4nLCAnLW9tYWUnLCAnPG91dGZpbGUubWFlPic=

> <r_epik_Ionization_Penalty>
2.00952

> <r_epik_Ionization_Penalty_Charging>
2.00945

> <r_epik_Ionization_Penalty_Neutral>
6.7549e-05

> <r_epik_State_Penalty>
2.13885

> <r_epik_Charging_Adjusted_Penalty>
4.1483

> <i_epik_Tot_Q>
1

> <i_epik_Tot_abs_Q>
1

> <r_epik_Metal_State_Penalty>
2.25125

> <b_epik_Metal_Only>
0

> <s_lp_Force_Field>
OPLS_2005

> <r_lp_Energy>
39.4399

> <b_lp_Chiralities_Consistent>
1

> <s_lp_Variant>
AV-unprocessed.smi:2531-2

> <Gold.Version>
5.8.1

> <Gold.Id.Protein>
6NUR|6NUR_protein|mol2

> <Gold.PLP.Fitness>
55.7333

> <Gold.PLP.PLP>
-45.5795

> <Gold.PLP.part.hbond>
-3.0000

> <Gold.PLP.part.metal>
0.0000

> <Gold.PLP.part.buried>
-5.2958

> <Gold.PLP.part.nonpolar>
-37.5186

> <Gold.PLP.part.repulsive>
0.0006

> <Gold.PLP.ligand.clash>
0.0000

> <Gold.PLP.ligand.torsion>
1.7529

> <Gold.PLP.Chemscore.Hbond>
3.9920

> <Gold.PLP.Chemscore.CHOScore>
0.0000

> <Gold.PLP.Chemscore.Metal>
0.0000

> <Gold.Chemscore.Hbonds>
donor molecule, donor type, donor heavy atom, donor atom, acceptor molecule, acceptor atom, score
      L1  H    22    47       P1  7948  2.00
      P1  H  7997  8008       L1    12  0.99
      P1  H 10752 10763       L1    13  1.00

> <Gold.PLP.Chemscore.Internal.Correction>
1.6836

> <Gold.Rescore>
     Score         DG    S(hbond)    S(metal)    S(lipo)     H(rot)  DE(clash)    DE(int)     intcor
     20.35     -22.19       2.73        0.00     108.14       1.97       0.02       1.82       ----

> <Gold.Chemscore.Fitness>
20.3458

> <Gold.Chemscore.DG>
-22.1890

> <Gold.Chemscore.ZeroCoef>
-5.4800

> <Gold.Chemscore.Hbond>
2.7281

> <Gold.Chemscore.Metal>
0.0000

> <Gold.Chemscore.Lipo>
108.1440

> <Gold.Chemscore.Internal_Hbond>
0.0000

> <Gold.Chemscore.DEClash>
0.0222

> <Gold.Chemscore.DEInternal>
1.8210

> <Gold.Chemscore.Rot>
1.9749

> <Gold.Chemscore.Internal.Correction>
   9.000000E+99

> <Gold.Chemscore.Hbonds>
donor molecule, donor type, donor heavy atom, donor atom, acceptor molecule, acceptor atom, score
      L1  H    22    47       P1  7948  0.33
      P1  H  7997  8008       L1    12  0.93
      P1  H 10752 10763       L1    13  0.98

> <Gold.Chemscore.Hbond.Weighted>
-9.1118

> <Gold.Chemscore.Metal.Weighted>
-0.0000

> <Gold.Chemscore.Lipo.Weighted>
-12.6528

> <Gold.Chemscore.Internal_Hbond.Weighted>
0.0000

> <Gold.Chemscore.DEClash.Weighted>
0.0222

> <Gold.Chemscore.DEInternal.Weighted>
1.8210

> <Gold.Chemscore.Rot.Weighted>
5.0556

> <Gold.Chemscore.Internal.Correction.Weighted>
   9.000000E+99

> <Gold.Protein.RotatedTorsions>
[ 6907 6896 6895 6894 ] final  -17.34 input  -60.11 | X-H torsion
[ 7974 7965 7964 7962 ] final  -61.48 input  175.53 | X-H torsion
[ 8008 7997 7996 7995 ] final  -44.51 input   59.86 | X-H torsion
[ 10167 10162 10161 10158 ] final  148.00 input  -65.29 | X-H torsion
[ 10718 10713 10712 10709 ] final -102.92 input   66.30 | X-H torsion
[ 10763 10752 10751 10750 ] final  137.49 input  -60.55 | X-H torsion
[ 11005 11000 10999 10996 ] final  -72.59 input  -57.11 | X-H torsion

> <Gold.Protein.ActiveResidues>
 VAL166  LYS551  ARG553  GLY616  TRP617  ASP618  TYR619  PRO620  LYS621  CYS622 
 ASP623  PHE694  ASN695  SER759  ASP760  ASP761  ALA762  ILE779  LEU786  VAL792 
 PHE793  MET794  SER795  GLU796  ALA797  LYS798  CYS799  TRP800  GLU811  SER814 

> <Gold.Protein.RotatedAtoms>
  151.2948  135.0752  159.9216 H   0  0  0  0  0  0  0  0  0  0  0  0  # atno 6907 bound_to 6896
  152.5309  133.9895  159.7854 H   0  0  0  0  0  0  0  0  0  0  0  0  # atno 6908 bound_to 6896
  151.0171  133.5860  159.2706 H   0  0  0  0  0  0  0  0  0  0  0  0  # atno 6909 bound_to 6896
  145.8030  140.8644  143.0221 H   0  0  0  0  0  0  0  0  0  0  0  0  # atno 7974 bound_to 7965
  154.3997  140.1420  156.3696 H   0  0  0  0  0  0  0  0  0  0  0  0  # atno 8008 bound_to 7997
  155.8105  140.3473  155.5434 H   0  0  0  0  0  0  0  0  0  0  0  0  # atno 8009 bound_to 7997
  155.8391  140.0924  157.1736 H   0  0  0  0  0  0  0  0  0  0  0  0  # atno 8010 bound_to 7997
  139.4881  144.5713  151.7050 H   0  0  0  0  0  0  0  0  0  0  0  0  # atno 10167 bound_to 10162
  156.0246  130.5443  150.7178 H   0  0  0  0  0  0  0  0  0  0  0  0  # atno 10718 bound_to 10713
  153.8739  135.3052  155.3443 H   0  0  0  0  0  0  0  0  0  0  0  0  # atno 10763 bound_to 10752
  154.7793  135.4844  153.9813 H   0  0  0  0  0  0  0  0  0  0  0  0  # atno 10764 bound_to 10752
  153.1390  135.6820  153.9153 H   0  0  0  0  0  0  0  0  0  0  0  0  # atno 10765 bound_to 10752
  141.1611  133.6852  156.7083 H   0  0  0  0  0  0  0  0  0  0  0  0  # atno 11005 bound_to 11000
  144.6766  140.0286  143.7483 LP  0  0  0  0  0  0  0  0  0  0  0  0  # atno 17320 bound_to 7965
  145.9858  139.2976  143.1014 LP  0  0  0  0  0  0  0  0  0  0  0  0  # atno 17321 bound_to 7965
  140.5301  144.0744  150.6050 LP  0  0  0  0  0  0  0  0  0  0  0  0  # atno 17342 bound_to 10162
  140.3731  143.2843  152.0255 LP  0  0  0  0  0  0  0  0  0  0  0  0  # atno 17343 bound_to 10162
  157.4801  131.0901  151.0546 LP  0  0  0  0  0  0  0  0  0  0  0  0  # atno 17370 bound_to 10713
  157.0982  130.5970  149.5454 LP  0  0  0  0  0  0  0  0  0  0  0  0  # atno 17371 bound_to 10713
  140.2907  134.8243  157.4014 LP  0  0  0  0  0  0  0  0  0  0  0  0  # atno 17394 bound_to 11000
  140.1350  134.5046  155.8076 LP  0  0  0  0  0  0  0  0  0  0  0  0  # atno 17395 bound_to 11000

$$$$
