#       Name:                AV-unprocessed.smi:633
#       Creating user name   scv26
#       Creation time:       Fri Mar 27 00:05:34 2020


#       File generated by GOLD software.
#

@<TRIPOS>MOLECULE
AV-unprocessed.smi:633
    59    62     1
SMALL
NO_CHARGES


@<TRIPOS>ATOM
      1 ****        -6.4716   3.3533   1.7113 C.3            1 S1                 0.0000
      2 ****        -5.8910   2.0815   1.0844 C.3            1 S1                 0.0000
      3 ****        -4.3545   2.1319   0.9883 C.3            1 S1                 0.0000
      4 ****        -3.8487   0.9547   0.2857 N.3            1 S1                 0.0000
      5 ****        -2.4595   0.7075   0.3218 C.ar           1 S1                 0.0000
      6 ****        -1.9512  -0.5410  -0.1058 C.ar           1 S1                 0.0000
      7 ****        -0.5626  -0.7702  -0.0713 C.ar           1 S1                 0.0000
      8 ****         0.2921   0.2602   0.3869 C.ar           1 S1                 0.0000
      9 ****         1.7089   0.1636   0.4781 N.am           1 S1                 0.0000
     10 ****         2.5318  -0.7829  -0.0068 C.2            1 S1                 0.0000
     11 ****         2.1840  -1.7704  -0.6528 O.2            1 S1                 0.0000
     12 ****         3.8091  -0.5126   0.2987 N.am           1 S1                 0.0000
     13 ****         4.9605  -1.3374  -0.0547 C.3            1 S1                 0.0000
     14 ****         5.2860  -2.3627   1.0187 C.3            1 S1                 0.0000
     15 ****         6.0322  -3.6351   0.6925 C.3            1 S1                 0.0000
     16 ****         4.5713  -3.6921   1.0772 C.3            1 S1                 0.0000
     17 ****         6.1808  -0.4907  -0.3667 C.3            1 S1                 0.0000
     18 ****         6.3556   0.1523  -1.7215 C.3            1 S1                 0.0000
     19 ****         7.2629  -0.9817  -1.2993 C.3            1 S1                 0.0000
     20 ****        -0.3097   1.4638   0.8060 C.ar           1 S1                 0.0000
     21 ****        -1.6405   1.6867   0.7772 N.ar           1 S1                 0.0000
     22 ****        -4.4883   0.7375  -1.0090 C.3            1 S1                 0.0000
     23 ****        -6.0216   0.7331  -0.8594 C.3            1 S1                 0.0000
     24 ****        -6.7316   0.6357  -2.2139 C.3            1 S1                 0.0000
     25 ****        -6.4359   1.9398  -0.2246 O.3            1 S1                 0.0000
     26 ****        -6.0921   3.5007   2.7226 H              1 S1                 0.0000
     27 ****        -7.5589   3.2974   1.7693 H              1 S1                 0.0000
     28 ****        -6.2140   4.2354   1.1244 H              1 S1                 0.0000
     29 ****        -6.1936   1.2269   1.6925 H              1 S1                 0.0000
     30 ****        -4.0396   3.0311   0.4567 H              1 S1                 0.0000
     31 ****        -3.9296   2.1802   1.9919 H              1 S1                 0.0000
     32 ****        -2.6088  -1.3280  -0.4439 H              1 S1                 0.0000
     33 ****        -0.1952  -1.7329  -0.3876 H              1 S1                 0.0000
     34 ****         2.1587   0.9327   0.9530 H              1 S1                 0.0000
     35 ****         4.0011   0.3247   0.8288 H              1 S1                 0.0000
     36 ****         4.7223  -1.8871  -0.9677 H              1 S1                 0.0000
     37 ****         5.5255  -1.9158   1.9822 H              1 S1                 0.0000
     38 ****         6.2799  -3.8314  -0.3486 H              1 S1                 0.0000
     39 ****         6.7588  -3.9911   1.4198 H              1 S1                 0.0000
     40 ****         4.3228  -4.0846   2.0611 H              1 S1                 0.0000
     41 ****         3.8554  -3.9205   0.2902 H              1 S1                 0.0000
     42 ****         6.5258   0.0993   0.4806 H              1 S1                 0.0000
     43 ****         5.6069  -0.0594  -2.4824 H              1 S1                 0.0000
     44 ****         6.7798   1.1538  -1.7505 H              1 S1                 0.0000
     45 ****         8.2923  -0.7359  -1.0472 H              1 S1                 0.0000
     46 ****         7.1197  -1.9434  -1.7879 H              1 S1                 0.0000
     47 ****         0.2951   2.2796   1.1749 H              1 S1                 0.0000
     48 ****        -4.1790   1.5331  -1.6883 H              1 S1                 0.0000
     49 ****        -4.1720  -0.2026  -1.4592 H              1 S1                 0.0000
     50 ****        -6.3276  -0.1166  -0.2465 H              1 S1                 0.0000
     51 ****        -6.4567  -0.2809  -2.7365 H              1 S1                 0.0000
     52 ****        -6.4731   1.4781  -2.8560 H              1 S1                 0.0000
     53 ****        -7.8143   0.6340  -2.0865 H              1 S1                 0.0000
     54 ****        -4.1586   0.2084   0.8747 LP             1 S1                 0.0000
     55 ****         1.2164  -1.9193  -0.8565 LP             1 S1                 0.0000
     56 ****         2.8690  -2.4243  -0.9743 LP             1 S1                 0.0000
     57 ****        -2.0162   2.5602   1.0868 LP             1 S1                 0.0000
     58 ****        -6.1373   2.7145  -0.7820 LP             1 S1                 0.0000
     59 ****        -7.4337   1.9415  -0.1587 LP             1 S1                 0.0000
@<TRIPOS>BOND
    1    1    2 1     
    2    1   26 1     
    3    1   27 1     
    4    1   28 1     
    5    2   25 1     
    6    2    3 1     
    7    2   29 1     
    8    3    4 1     
    9    3   30 1     
   10    3   31 1     
   11    4    5 1     
   12    4   22 1     
   13    5   21 ar    
   14    5    6 ar    
   15    6    7 ar    
   16    6   32 1     
   17    7    8 ar    
   18    7   33 1     
   19    8    9 1     
   20    8   20 ar    
   21    9   10 am    
   22    9   34 1     
   23   10   11 2     
   24   10   12 am    
   25   12   13 1     
   26   12   35 1     
   27   13   14 1     
   28   13   17 1     
   29   13   36 1     
   30   14   16 1     
   31   14   15 1     
   32   14   37 1     
   33   15   16 1     
   34   15   38 1     
   35   15   39 1     
   36   16   40 1     
   37   16   41 1     
   38   17   19 1     
   39   17   18 1     
   40   17   42 1     
   41   18   19 1     
   42   18   43 1     
   43   18   44 1     
   44   19   45 1     
   45   19   46 1     
   46   20   21 ar    
   47   20   47 1     
   48   22   23 1     
   49   22   48 1     
   50   22   49 1     
   51   23   24 1     
   52   23   25 1     
   53   23   50 1     
   54   24   51 1     
   55   24   52 1     
   56   24   53 1     
   57    4   54 1     
   58   11   55 1     
   59   11   56 1     
   60   21   57 1     
   61   25   58 1     
   62   25   59 1     
@<TRIPOS>SUBSTRUCTURE
      1 S1             1
@<TRIPOS>SET
LONE_PAIRS      STATIC     ATOMS    <user>   **** ""
6 54 55 56 57 58 59
DONOR_HYDROGENS      STATIC     ATOMS    <user>   **** ""
2 34 35
ATOM$BLUE        STATIC     ATOMS    COLORGROUP SYSTEM
6 54 55 56 57 58 59
ATOM$RED        STATIC     ATOMS    COLORGROUP SYSTEM
2 34 35
