AV-unprocessed.smi:1022|AV-procd|sdf|4459|dock2
  -GOLD-   22720 2433D 1   1.00000     0.00000
 Structure written by MMmdl.
 33 34  0  0  0  0  0  0  0  0  1 V2000
  144.6362  144.4687  154.0686 C   0  0  0  0  0  0  0  0  0  0  0  0
  145.4345  143.4940  154.7167 O   0  0  0  0  0  0  0  0  0  0  0  0
  146.1993  142.7227  153.8043 C   0  0  0  0  0  0  0  0  0  0  0  0
  146.9905  141.6544  154.5746 C   0  0  1  0  0  0  0  0  0  0  0  0
  147.6647  140.6567  153.6189 C   0  0  0  0  0  0  0  0  0  0  0  0
  147.9922  142.3026  155.4179 N   0  0  0  0  0  0  0  0  0  0  0  0
  148.7598  141.6826  156.3258 C   0  0  0  0  0  0  0  0  0  0  0  0
  148.7128  140.4710  156.5411 O   0  0  0  0  0  0  0  0  0  0  0  0
  149.5694  142.5535  156.9536 N   0  0  0  0  0  0  0  0  0  0  0  0
  150.5356  142.2885  157.9601 C   0  0  0  0  0  0  0  0  0  0  0  0
  150.8668  141.0558  158.3683 N   0  0  0  0  0  0  0  0  0  0  0  0
  151.8407  141.0816  159.3568 N   0  0  0  0  0  0  0  0  0  0  0  0
  152.2148  142.3283  159.6691 C   0  0  0  0  0  0  0  0  0  0  0  0
  153.2505  142.6129  160.7052 C   0  0  0  0  0  0  0  0  0  0  0  0
  153.9974  141.4868  161.3831 C   0  0  0  0  0  0  0  0  0  0  0  0
  153.0096  142.3113  162.1684 C   0  0  0  0  0  0  0  0  0  0  0  0
  151.3945  143.5936  158.7597 S   0  0  0  0  0  0  0  0  0  0  0  0
  144.0717  145.0325  154.8112 H   0  0  0  0  0  0  0  0  0  0  0  0
  143.9237  144.0054  153.3848 H   0  0  0  0  0  0  0  0  0  0  0  0
  145.2521  145.1737  153.5085 H   0  0  0  0  0  0  0  0  0  0  0  0
  145.5304  142.2438  153.0871 H   0  0  0  0  0  0  0  0  0  0  0  0
  146.8771  143.3646  153.2388 H   0  0  0  0  0  0  0  0  0  0  0  0
  146.2888  141.1061  155.2061 H   0  0  0  0  0  0  0  0  0  0  0  0
  146.9271  140.1592  152.9888 H   0  0  0  0  0  0  0  0  0  0  0  0
  148.2005  139.8812  154.1672 H   0  0  0  0  0  0  0  0  0  0  0  0
  148.3795  141.1556  152.9638 H   0  0  0  0  0  0  0  0  0  0  0  0
  148.0937  143.3013  155.3111 H   0  0  0  0  0  0  0  0  0  0  0  0
  149.4871  143.5205  156.6765 H   0  0  0  0  0  0  0  0  0  0  0  0
  153.8045  143.5162  160.4569 H   0  0  0  0  0  0  0  0  0  0  0  0
  153.7123  140.4669  161.1312 H   0  0  0  0  0  0  0  0  0  0  0  0
  155.0553  141.6387  161.5881 H   0  0  0  0  0  0  0  0  0  0  0  0
  153.4085  143.0147  162.8965 H   0  0  0  0  0  0  0  0  0  0  0  0
  152.0748  141.8303  162.4493 H   0  0  0  0  0  0  0  0  0  0  0  0
  1  2  1  0  0  0  0
  1 18  1  0  0  0  0
  1 19  1  0  0  0  0
  1 20  1  0  0  0  0
  2  3  1  0  0  0  0
  3  4  1  0  0  0  0
  3 21  1  0  0  0  0
  3 22  1  0  0  0  0
  4  5  1  0  0  0  0
  4  6  1  0  0  0  0
  4 23  1  0  0  0  0
  5 24  1  0  0  0  0
  5 25  1  0  0  0  0
  5 26  1  0  0  0  0
  6  7  1  0  0  0  0
  6 27  1  0  0  0  0
  7  8  2  0  0  0  0
  7  9  1  0  0  0  0
  9 10  1  0  0  0  0
  9 28  1  0  0  0  0
 10 17  1  0  0  0  0
 10 11  2  0  0  0  0
 11 12  1  0  0  0  0
 12 13  2  0  0  0  0
 13 14  1  0  0  0  0
 13 17  1  0  0  0  0
 14 16  1  0  0  0  0
 14 15  1  0  0  0  0
 14 29  1  0  0  0  0
 15 16  1  0  0  0  0
 15 30  1  0  0  0  0
 15 31  1  0  0  0  0
 16 32  1  0  0  0  0
 16 33  1  0  0  0  0
M  END
> <s_m_source_file>
AV-unprocessed.smi

> <i_m_source_file_index>
1022

> <i_lp_mmshare_version>
43012

> <i_f3d_flags>
0

> <s_epik_input>
W0NIM11PW0NIMl1bQ0BIXShbQ0gzXSlbTkhdQyg9TylbTkhdYzFubmMoczEpW0NIXTJbQ0gyXVtDSDJdMg==

> <s_epik_cmdline>
J2VwaWtfcHl0aG9uJywgJy1waCcsICc3LjAnLCAnLXRuJywgJzgnLCAnLW1hJywgJzIwMCcsICctbWV0YWxfYmluZGluZycsICctaW1hZScsICc8aW5maWxlLm1hZT4nLCAnLW9tYWUnLCAnPG91dGZpbGUubWFlPic=

> <r_lp_tautomer_probability>
1

> <r_epik_Ionization_Penalty>
0.00129266

> <r_epik_Ionization_Penalty_Charging>
0

> <r_epik_Ionization_Penalty_Neutral>
0.00129266

> <r_epik_State_Penalty>
-0

> <r_epik_Charging_Adjusted_Penalty>
0

> <i_epik_Tot_Q>
0

> <i_epik_Tot_abs_Q>
0

> <r_epik_Metal_State_Penalty>
0.30857

> <b_epik_Metal_Only>
0

> <s_lp_Force_Field>
OPLS_2005

> <r_lp_Energy>
1.4297

> <b_lp_Chiralities_Consistent>
1

> <s_lp_Variant>
AV-unprocessed.smi:1022-2

> <Gold.Version>
5.8.1

> <Gold.Id.Protein>
6NUR|6NUR_protein|mol2

> <Gold.PLP.Fitness>
40.6351

> <Gold.PLP.PLP>
-34.7690

> <Gold.PLP.part.hbond>
-2.0000

> <Gold.PLP.part.metal>
0.0000

> <Gold.PLP.part.buried>
-4.5331

> <Gold.PLP.part.nonpolar>
-28.7406

> <Gold.PLP.part.repulsive>
0.3531

> <Gold.PLP.ligand.clash>
0.0000

> <Gold.PLP.ligand.torsion>
0.1399

> <Gold.PLP.Chemscore.Hbond>
2.0000

> <Gold.PLP.Chemscore.CHOScore>
0.0000

> <Gold.PLP.Chemscore.Metal>
0.0000

> <Gold.Chemscore.Hbonds>
donor molecule, donor type, donor heavy atom, donor atom, acceptor molecule, acceptor atom, score
      L1  H     6    27       P1  8028  1.00
      L1  H     9    28       P1  8028  1.00

> <Gold.PLP.Chemscore.Internal.Correction>
0.1459

> <Gold.Rescore>
     Score         DG    S(hbond)    S(metal)    S(lipo)     H(rot)  DE(clash)    DE(int)     intcor
     15.53     -16.97       1.90        0.00      81.91       1.73       0.03       1.41       ----

> <Gold.Chemscore.Fitness>
15.5283

> <Gold.Chemscore.DG>
-16.9749

> <Gold.Chemscore.ZeroCoef>
-5.4800

> <Gold.Chemscore.Hbond>
1.8996

> <Gold.Chemscore.Metal>
0.0000

> <Gold.Chemscore.Lipo>
81.9115

> <Gold.Chemscore.Internal_Hbond>
0.0000

> <Gold.Chemscore.DEClash>
0.0348

> <Gold.Chemscore.DEInternal>
1.4118

> <Gold.Chemscore.Rot>
1.7318

> <Gold.Chemscore.Internal.Correction>
   9.000000E+99

> <Gold.Chemscore.Hbonds>
donor molecule, donor type, donor heavy atom, donor atom, acceptor molecule, acceptor atom, score
      L1  H     6    27       P1  8028  0.79
      L1  H     9    28       P1  8028  0.96

> <Gold.Chemscore.Hbond.Weighted>
-6.3448

> <Gold.Chemscore.Metal.Weighted>
-0.0000

> <Gold.Chemscore.Lipo.Weighted>
-9.5836

> <Gold.Chemscore.Internal_Hbond.Weighted>
0.0000

> <Gold.Chemscore.DEClash.Weighted>
0.0348

> <Gold.Chemscore.DEInternal.Weighted>
1.4118

> <Gold.Chemscore.Rot.Weighted>
4.4335

> <Gold.Chemscore.Internal.Correction.Weighted>
   9.000000E+99

> <Gold.Protein.RotatedTorsions>
[ 6907 6896 6895 6894 ] final  -56.74 input  -60.11 | X-H torsion
[ 7974 7965 7964 7962 ] final  -56.78 input  175.53 | X-H torsion
[ 8008 7997 7996 7995 ] final   58.24 input   59.86 | X-H torsion
[ 10167 10162 10161 10158 ] final  124.88 input  -65.29 | X-H torsion
[ 10718 10713 10712 10709 ] final  119.98 input   66.30 | X-H torsion
[ 10763 10752 10751 10750 ] final   16.98 input  -60.55 | X-H torsion
[ 11005 11000 10999 10996 ] final  -54.27 input  -57.11 | X-H torsion

> <Gold.Protein.ActiveResidues>
 VAL166  LYS551  ARG553  GLY616  TRP617  ASP618  TYR619  PRO620  LYS621  CYS622 
 ASP623  PHE694  ASN695  SER759  ASP760  ASP761  ALA762  ILE779  LEU786  VAL792 
 PHE793  MET794  SER795  GLU796  ALA797  LYS798  CYS799  TRP800  GLU811  SER814 

> <Gold.Protein.RotatedAtoms>
  150.8143  134.7316  159.6715 H   0  0  0  0  0  0  0  0  0  0  0  0  # atno 6907 bound_to 6896
  152.4262  134.5861  159.9971 H   0  0  0  0  0  0  0  0  0  0  0  0  # atno 6908 bound_to 6896
  151.6062  133.3314  159.3094 H   0  0  0  0  0  0  0  0  0  0  0  0  # atno 6909 bound_to 6896
  145.8588  140.8300  142.9948 H   0  0  0  0  0  0  0  0  0  0  0  0  # atno 7974 bound_to 7965
  155.5468  140.3485  155.4459 H   0  0  0  0  0  0  0  0  0  0  0  0  # atno 8008 bound_to 7997
  156.0612  140.1340  156.9965 H   0  0  0  0  0  0  0  0  0  0  0  0  # atno 8009 bound_to 7997
  154.4480  140.0985  156.6504 H   0  0  0  0  0  0  0  0  0  0  0  0  # atno 8010 bound_to 7997
  139.5717  144.6942  151.3761 H   0  0  0  0  0  0  0  0  0  0  0  0  # atno 10167 bound_to 10162
  157.5923  131.1062  150.7971 H   0  0  0  0  0  0  0  0  0  0  0  0  # atno 10718 bound_to 10713
  153.1380  135.6754  153.9071 H   0  0  0  0  0  0  0  0  0  0  0  0  # atno 10763 bound_to 10752
  153.8537  135.3090  155.3435 H   0  0  0  0  0  0  0  0  0  0  0  0  # atno 10764 bound_to 10752
  154.7764  135.4912  153.9836 H   0  0  0  0  0  0  0  0  0  0  0  0  # atno 10765 bound_to 10752
  141.1017  133.6617  156.4295 H   0  0  0  0  0  0  0  0  0  0  0  0  # atno 11005 bound_to 11000
  144.6727  140.1063  143.7458 LP  0  0  0  0  0  0  0  0  0  0  0  0  # atno 17320 bound_to 7965
  145.9273  139.2583  143.1346 LP  0  0  0  0  0  0  0  0  0  0  0  0  # atno 17321 bound_to 7965
  140.7001  143.7653  150.7389 LP  0  0  0  0  0  0  0  0  0  0  0  0  # atno 17342 bound_to 10162
  140.1161  143.4655  152.2341 LP  0  0  0  0  0  0  0  0  0  0  0  0  # atno 17343 bound_to 10162
  156.8390  130.5041  149.5323 LP  0  0  0  0  0  0  0  0  0  0  0  0  # atno 17370 bound_to 10713
  156.0980  130.5947  150.9846 LP  0  0  0  0  0  0  0  0  0  0  0  0  # atno 17371 bound_to 10713
  140.5004  134.6490  157.5246 LP  0  0  0  0  0  0  0  0  0  0  0  0  # atno 17394 bound_to 11000
  139.9871  134.7044  155.9754 LP  0  0  0  0  0  0  0  0  0  0  0  0  # atno 17395 bound_to 11000

$$$$
