AV-unprocessed.smi:221|AV-procd|sdf|1686|dock3
  -GOLD-   2262020123D 1   1.00000     0.00000
 Structure written by MMmdl.
 50 53  0  0  0  0  0  0  0  0  1 V2000
  147.1236  132.3433  151.2852 N   0  0  0  0  0  0  0  0  0  0  0  0
  145.8410  132.5136  150.9568 C   0  0  0  0  0  0  0  0  0  0  0  0
  145.2794  131.8026  150.1253 O   0  0  0  0  0  0  0  0  0  0  0  0
  145.0837  133.6336  151.6849 C   0  0  2  0  0  0  0  0  0  0  0  0
  144.5398  134.6847  150.7085 C   0  0  0  0  0  0  0  0  0  0  0  0
  144.3848  135.9223  151.5852 C   0  0  1  0  0  0  0  0  0  0  0  0
  143.2347  135.8514  152.2573 F   0  0  0  0  0  0  0  0  0  0  0  0
  145.5569  135.8113  152.5633 C   0  0  0  0  0  0  0  0  0  0  0  0
  145.9506  134.4047  152.5788 N   0  0  0  0  0  0  0  0  0  0  0  0
  146.1635  133.8709  153.8018 C   0  0  0  0  0  0  0  0  0  0  0  0
  146.4325  132.5438  153.8603 N   0  0  0  0  0  0  0  0  0  0  0  0
  146.6465  131.9580  155.0425 C   0  0  0  0  0  0  0  0  0  0  0  0
  146.6385  132.5053  156.2605 N   0  0  0  0  0  0  0  0  0  0  0  0
  146.3684  133.8411  156.2012 C   0  0  0  0  0  0  0  0  0  0  0  0
  146.1227  134.6000  155.0232 C   0  0  0  0  0  0  0  0  0  0  0  0
  145.8897  135.9295  155.3539 N   0  0  0  0  0  0  0  0  0  0  0  0
  145.9884  135.9545  156.6549 C   0  0  0  0  0  0  0  0  0  0  0  0
  146.2660  134.7421  157.2454 N   0  0  0  0  0  0  0  0  0  0  0  0
  146.4235  134.4783  158.6643 C   0  0  0  0  0  0  0  0  0  0  0  0
  147.9003  134.4278  159.1302 C   0  0  2  0  0  0  0  0  0  0  0  0
  148.3951  132.9848  159.4113 C   0  0  0  0  0  0  0  0  0  0  0  0
  149.6085  132.7069  158.7431 O   0  0  0  0  0  0  0  0  0  0  0  0
  148.1002  135.3999  160.3224 C   0  0  2  0  0  0  0  0  0  0  0  0
  147.2691  135.1250  161.5625 C   0  0  0  0  0  0  0  0  0  0  0  0
  147.4360  136.4318  162.3310 C   0  0  0  0  0  0  0  0  0  0  0  0
  147.5265  137.4520  161.3405 O   0  0  0  0  0  0  0  0  0  0  0  0
  147.7953  136.8791  160.0630 C   0  0  0  0  0  0  0  0  0  0  0  0
  144.2525  133.2040  152.2474 H   0  0  0  0  0  0  0  0  0  0  0  0
  144.3791  136.8558  151.0222 H   0  0  0  0  0  0  0  0  0  0  0  0
  147.6648  131.6221  150.8308 H   0  0  0  0  0  0  0  0  0  0  0  0
  147.5493  132.9369  151.9821 H   0  0  0  0  0  0  0  0  0  0  0  0
  145.2609  134.8900  149.9152 H   0  0  0  0  0  0  0  0  0  0  0  0
  143.6032  134.3820  150.2388 H   0  0  0  0  0  0  0  0  0  0  0  0
  146.4069  136.3842  152.1918 H   0  0  0  0  0  0  0  0  0  0  0  0
  145.3037  136.2119  153.5465 H   0  0  0  0  0  0  0  0  0  0  0  0
  146.8535  130.8985  155.0077 H   0  0  0  0  0  0  0  0  0  0  0  0
  145.8525  136.8631  157.2237 H   0  0  0  0  0  0  0  0  0  0  0  0
  145.8829  135.2558  159.2051 H   0  0  0  0  0  0  0  0  0  0  0  0
  145.9232  133.5375  158.8966 H   0  0  0  0  0  0  0  0  0  0  0  0
  148.5104  134.8292  158.3192 H   0  0  0  0  0  0  0  0  0  0  0  0
  148.5812  132.8239  160.4713 H   0  0  0  0  0  0  0  0  0  0  0  0
  147.6456  132.2519  159.1117 H   0  0  0  0  0  0  0  0  0  0  0  0
  149.4100  132.2639  157.9322 H   0  0  0  0  0  0  0  0  0  0  0  0
  149.1431  135.3323  160.6382 H   0  0  0  0  0  0  0  0  0  0  0  0
  146.2174  134.9736  161.3237 H   0  0  0  0  0  0  0  0  0  0  0  0
  147.6169  134.2583  162.1255 H   0  0  0  0  0  0  0  0  0  0  0  0
  146.6151  136.6182  163.0236 H   0  0  0  0  0  0  0  0  0  0  0  0
  148.3650  136.4198  162.9027 H   0  0  0  0  0  0  0  0  0  0  0  0
  148.6222  137.3899  159.5692 H   0  0  0  0  0  0  0  0  0  0  0  0
  146.9056  137.0089  159.4478 H   0  0  0  0  0  0  0  0  0  0  0  0
  1  2  1  0  0  0  0
  1 30  1  0  0  0  0
  1 31  1  0  0  0  0
  2  3  2  0  0  0  0
  2  4  1  0  0  0  0
  4 28  1  0  0  0  0
  4  9  1  0  0  0  0
  4  5  1  0  0  0  0
  5  6  1  0  0  0  0
  5 32  1  0  0  0  0
  5 33  1  0  0  0  0
  6 29  1  0  0  0  0
  6  7  1  0  0  0  0
  6  8  1  0  0  0  0
  8  9  1  0  0  0  0
  8 34  1  0  0  0  0
  8 35  1  0  0  0  0
  9 10  1  0  0  0  0
 10 15  1  0  0  0  0
 10 11  2  0  0  0  0
 11 12  1  0  0  0  0
 12 13  2  0  0  0  0
 12 36  1  0  0  0  0
 13 14  1  0  0  0  0
 14 18  1  0  0  0  0
 14 15  2  0  0  0  0
 15 16  1  0  0  0  0
 16 17  2  0  0  0  0
 17 18  1  0  0  0  0
 17 37  1  0  0  0  0
 18 19  1  0  0  0  0
 19 20  1  0  0  0  0
 19 38  1  0  0  0  0
 19 39  1  0  0  0  0
 20 21  1  0  0  0  0
 20 23  1  0  0  0  0
 20 40  1  0  0  0  0
 21 22  1  0  0  0  0
 21 41  1  0  0  0  0
 21 42  1  0  0  0  0
 22 43  1  0  0  0  0
 23 27  1  0  0  0  0
 23 24  1  0  0  0  0
 23 44  1  0  0  0  0
 24 25  1  0  0  0  0
 24 45  1  0  0  0  0
 24 46  1  0  0  0  0
 25 26  1  0  0  0  0
 25 47  1  0  0  0  0
 25 48  1  0  0  0  0
 26 27  1  0  0  0  0
 27 49  1  0  0  0  0
 27 50  1  0  0  0  0
M  END
> <s_m_source_file>
AV-unprocessed.smi

> <i_m_source_file_index>
221

> <i_lp_mmshare_version>
43012

> <i_f3d_flags>
0

> <s_epik_input>
W05IMl1DKD1PKVtDQEBIXTFbQ0gyXVtDQEBIXShGKVtDSDJdTjFjKG5bY0hdbjIpYyhjMjMpbltjSF1uM1tDSDJdW0NASF0oW0NIMl1bT0hdKVtDQEBIXTRbQ0gyXVtDSDJdT1tDSDJdNA==

> <s_epik_cmdline>
J2VwaWtfcHl0aG9uJywgJy1waCcsICc3LjAnLCAnLXRuJywgJzgnLCAnLW1hJywgJzIwMCcsICctbWV0YWxfYmluZGluZycsICctaW1hZScsICc8aW5maWxlLm1hZT4nLCAnLW9tYWUnLCAnPG91dGZpbGUubWFlPic=

> <r_lp_tautomer_probability>
1

> <r_epik_Ionization_Penalty>
0.000818822

> <r_epik_Ionization_Penalty_Charging>
0

> <r_epik_Ionization_Penalty_Neutral>
0.000818822

> <r_epik_State_Penalty>
0.000440551

> <r_epik_Charging_Adjusted_Penalty>
0.000440551

> <i_epik_Tot_Q>
0

> <i_epik_Tot_abs_Q>
0

> <r_epik_Metal_State_Penalty>
-0

> <b_epik_Metal_Only>
0

> <s_lp_Force_Field>
OPLS_2005

> <r_lp_Energy>
52.3399

> <b_lp_Chiralities_Consistent>
1

> <s_lp_Variant>
AV-unprocessed.smi:221-1

> <Gold.Version>
5.8.1

> <Gold.Id.Protein>
6NUR|6NUR_protein|mol2

> <Gold.PLP.Fitness>
39.1835

> <Gold.PLP.PLP>
-31.1319

> <Gold.PLP.part.hbond>
-4.0000

> <Gold.PLP.part.metal>
0.0000

> <Gold.PLP.part.buried>
-6.4050

> <Gold.PLP.part.nonpolar>
-21.4506

> <Gold.PLP.part.repulsive>
0.4517

> <Gold.PLP.ligand.clash>
0.0000

> <Gold.PLP.ligand.torsion>
1.9251

> <Gold.PLP.Chemscore.Hbond>
3.8560

> <Gold.PLP.Chemscore.CHOScore>
0.0000

> <Gold.PLP.Chemscore.Metal>
0.0000

> <Gold.Chemscore.Hbonds>
donor molecule, donor type, donor heavy atom, donor atom, acceptor molecule, acceptor atom, score
      L1  H     1    30       P1 10747  1.00
      P1  H  6896  6908       L1    22  1.00
      P1  H  6931  6943       L1    26  0.76
      P1  H  6934  6947       L1    26  0.85

> <Gold.PLP.Chemscore.Internal.Correction>
0.3337

> <Gold.Rescore>
     Score         DG    S(hbond)    S(metal)    S(lipo)     H(rot)  DE(clash)    DE(int)     intcor
      6.95     -13.22       3.29        0.00      53.71       3.72       0.06       6.20       ----

> <Gold.Chemscore.Fitness>
6.9528

> <Gold.Chemscore.DG>
-13.2208

> <Gold.Chemscore.ZeroCoef>
-5.4800

> <Gold.Chemscore.Hbond>
3.2876

> <Gold.Chemscore.Metal>
0.0000

> <Gold.Chemscore.Lipo>
53.7099

> <Gold.Chemscore.Internal_Hbond>
0.0000

> <Gold.Chemscore.DEClash>
0.0638

> <Gold.Chemscore.DEInternal>
6.2042

> <Gold.Chemscore.Rot>
3.7202

> <Gold.Chemscore.Internal.Correction>
   9.000000E+99

> <Gold.Chemscore.Hbonds>
donor molecule, donor type, donor heavy atom, donor atom, acceptor molecule, acceptor atom, score
      L1  H     1    30       P1 10747  0.98
      P1  H  6896  6908       L1    22  0.86
      P1  H  6931  6943       L1    26  0.11
      P1  H  6934  6947       L1    26  0.29

> <Gold.Chemscore.Hbond.Weighted>
-10.9804

> <Gold.Chemscore.Metal.Weighted>
-0.0000

> <Gold.Chemscore.Lipo.Weighted>
-6.2841

> <Gold.Chemscore.Internal_Hbond.Weighted>
0.0000

> <Gold.Chemscore.DEClash.Weighted>
0.0638

> <Gold.Chemscore.DEInternal.Weighted>
6.2042

> <Gold.Chemscore.Rot.Weighted>
9.5237

> <Gold.Chemscore.Internal.Correction.Weighted>
   9.000000E+99

> <Gold.Protein.RotatedTorsions>
[ 6907 6896 6895 6894 ] final  109.89 input  -60.11 | X-H torsion
[ 7974 7965 7964 7962 ] final   88.65 input  175.53 | X-H torsion
[ 8008 7997 7996 7995 ] final  138.60 input   59.86 | X-H torsion
[ 10167 10162 10161 10158 ] final   88.41 input  -65.29 | X-H torsion
[ 10718 10713 10712 10709 ] final  172.17 input   66.30 | X-H torsion
[ 10763 10752 10751 10750 ] final  152.41 input  -60.55 | X-H torsion
[ 11005 11000 10999 10996 ] final   23.86 input  -57.11 | X-H torsion

> <Gold.Protein.ActiveResidues>
 VAL166  LYS551  ARG553  GLY616  TRP617  ASP618  TYR619  PRO620  LYS621  CYS622 
 ASP623  PHE694  ASN695  SER759  ASP760  ASP761  ALA762  ILE779  LEU786  VAL792 
 PHE793  MET794  SER795  GLU796  ALA797  LYS798  CYS799  TRP800  GLU811  SER814 

> <Gold.Protein.RotatedAtoms>
  152.5046  133.8878  159.7378 H   0  0  0  0  0  0  0  0  0  0  0  0  # atno 6907 bound_to 6896
  150.9325  133.6742  159.2814 H   0  0  0  0  0  0  0  0  0  0  0  0  # atno 6908 bound_to 6896
  151.4081  135.0986  159.9629 H   0  0  0  0  0  0  0  0  0  0  0  0  # atno 6909 bound_to 6896
  145.5429  139.2290  143.2556 H   0  0  0  0  0  0  0  0  0  0  0  0  # atno 7974 bound_to 7965
  156.2996  140.2389  156.4100 H   0  0  0  0  0  0  0  0  0  0  0  0  # atno 8008 bound_to 7997
  154.8450  140.0426  157.1586 H   0  0  0  0  0  0  0  0  0  0  0  0  # atno 8009 bound_to 7997
  154.9061  140.2984  155.5295 H   0  0  0  0  0  0  0  0  0  0  0  0  # atno 8010 bound_to 7997
  139.8676  144.6510  150.8986 H   0  0  0  0  0  0  0  0  0  0  0  0  # atno 10167 bound_to 10162
  156.9828  131.0124  151.2877 H   0  0  0  0  0  0  0  0  0  0  0  0  # atno 10718 bound_to 10713
  154.1195  135.2833  155.3212 H   0  0  0  0  0  0  0  0  0  0  0  0  # atno 10763 bound_to 10752
  154.6433  135.5395  153.7818 H   0  0  0  0  0  0  0  0  0  0  0  0  # atno 10764 bound_to 10752
  153.0318  135.6492  154.1350 H   0  0  0  0  0  0  0  0  0  0  0  0  # atno 10765 bound_to 10752
  140.3650  134.2084  155.7670 H   0  0  0  0  0  0  0  0  0  0  0  0  # atno 11005 bound_to 11000
  146.1969  140.6249  142.9120 LP  0  0  0  0  0  0  0  0  0  0  0  0  # atno 17320 bound_to 7965
  144.7568  140.5326  143.6763 LP  0  0  0  0  0  0  0  0  0  0  0  0  # atno 17321 bound_to 7965
  140.7766  143.3691  151.1683 LP  0  0  0  0  0  0  0  0  0  0  0  0  # atno 17342 bound_to 10162
  139.7314  143.9066  152.3021 LP  0  0  0  0  0  0  0  0  0  0  0  0  # atno 17343 bound_to 10162
  157.5514  130.8185  149.8150 LP  0  0  0  0  0  0  0  0  0  0  0  0  # atno 17370 bound_to 10713
  156.0237  130.3786  150.1884 LP  0  0  0  0  0  0  0  0  0  0  0  0  # atno 17371 bound_to 10713
  141.1972  133.8064  157.0637 LP  0  0  0  0  0  0  0  0  0  0  0  0  # atno 17394 bound_to 11000
  140.0596  134.9762  157.1282 LP  0  0  0  0  0  0  0  0  0  0  0  0  # atno 17395 bound_to 11000

$$$$
