AV-unprocessed.smi:110|AV-procd|sdf|1074|dock3
  -GOLD-   2262018163D 1   1.00000     0.00000
 Structure written by MMmdl.
 46 50  0  0  0  0  0  0  0  0  1 V2000
  146.9429  136.0367  153.7307 O   0  0  0  0  0  0  0  0  0  0  0  0
  147.7521  136.8944  154.5065 C   0  0  0  0  0  0  0  0  0  0  0  0
  148.1710  138.1188  153.6771 C   0  0  2  0  0  0  0  0  0  0  0  0
  149.2203  138.7841  154.3771 O   0  0  0  0  0  0  0  0  0  0  0  0
  149.0336  140.1572  154.3053 C   0  0  2  0  0  0  0  0  0  0  0  0
  149.7148  140.7972  155.4694 N   0  0  0  0  0  0  0  0  0  0  0  0
  149.4473  142.0045  156.0757 C   0  0  0  0  0  0  0  0  0  0  0  0
  150.2245  142.3038  157.0812 N   0  0  0  0  0  0  0  0  0  0  0  0
  151.0961  141.2238  157.1772 C   0  0  0  0  0  0  0  0  0  0  0  0
  152.1792  140.8853  158.0398 C   0  0  0  0  0  0  0  0  0  0  0  0
  152.6252  141.6907  159.0383 N   0  0  0  0  0  0  0  0  0  0  0  0
  153.1324  141.0844  160.2791 C   0  0  0  0  0  0  0  0  0  0  0  0
  153.0597  142.1461  161.3907 C   0  0  0  0  0  0  0  0  0  0  0  0
  152.6113  143.3389  160.6131 C   0  0  0  0  0  0  0  0  0  0  0  0
  152.4346  144.6474  161.0952 C   0  0  0  0  0  0  0  0  0  0  0  0
  152.0144  145.6406  160.1855 C   0  0  0  0  0  0  0  0  0  0  0  0
  151.7873  145.3147  158.8286 C   0  0  0  0  0  0  0  0  0  0  0  0
  151.9713  143.9927  158.3669 C   0  0  0  0  0  0  0  0  0  0  0  0
  152.3784  142.9989  159.2833 C   0  0  0  0  0  0  0  0  0  0  0  0
  152.8036  139.6998  157.8149 N   0  0  0  0  0  0  0  0  0  0  0  0
  152.4014  138.8976  156.8253 C   0  0  0  0  0  0  0  0  0  0  0  0
  151.4118  139.0842  155.9506 N   0  0  0  0  0  0  0  0  0  0  0  0
  150.7781  140.2720  156.1673 C   0  0  0  0  0  0  0  0  0  0  0  0
  147.5197  140.3746  154.3126 C   0  0  2  0  0  0  0  0  0  0  0  0
  146.9665  140.3889  155.6164 O   0  0  0  0  0  0  0  0  0  0  0  0
  147.0386  139.1600  153.5292 C   0  0  1  0  0  0  0  0  0  0  0  0
  146.8900  139.5018  152.1645 O   0  0  0  0  0  0  0  0  0  0  0  0
  148.5319  137.8056  152.6953 H   0  0  0  0  0  0  0  0  0  0  0  0
  149.5244  140.5561  153.4162 H   0  0  0  0  0  0  0  0  0  0  0  0
  147.2785  141.3220  153.8283 H   0  0  0  0  0  0  0  0  0  0  0  0
  146.0758  138.7950  153.8898 H   0  0  0  0  0  0  0  0  0  0  0  0
  147.3573  135.9097  152.8909 H   0  0  0  0  0  0  0  0  0  0  0  0
  147.1595  137.2056  155.3670 H   0  0  0  0  0  0  0  0  0  0  0  0
  148.6209  136.3564  154.8876 H   0  0  0  0  0  0  0  0  0  0  0  0
  148.6551  142.6616  155.7474 H   0  0  0  0  0  0  0  0  0  0  0  0
  152.5558  140.1983  160.5483 H   0  0  0  0  0  0  0  0  0  0  0  0
  154.1675  140.7771  160.1277 H   0  0  0  0  0  0  0  0  0  0  0  0
  152.3224  141.8909  162.1524 H   0  0  0  0  0  0  0  0  0  0  0  0
  154.0270  142.3190  161.8634 H   0  0  0  0  0  0  0  0  0  0  0  0
  152.6190  144.8874  162.1320 H   0  0  0  0  0  0  0  0  0  0  0  0
  151.8719  146.6556  160.5260 H   0  0  0  0  0  0  0  0  0  0  0  0
  151.4749  146.0842  158.1382 H   0  0  0  0  0  0  0  0  0  0  0  0
  151.8098  143.7622  157.3246 H   0  0  0  0  0  0  0  0  0  0  0  0
  152.9530  137.9754  156.7184 H   0  0  0  0  0  0  0  0  0  0  0  0
  147.4637  140.9944  156.1447 H   0  0  0  0  0  0  0  0  0  0  0  0
  147.7456  139.6789  151.8040 H   0  0  0  0  0  0  0  0  0  0  0  0
  1  2  1  0  0  0  0
  1 32  1  0  0  0  0
  2  3  1  0  0  0  0
  2 33  1  0  0  0  0
  2 34  1  0  0  0  0
  3 28  1  0  0  0  0
  3 26  1  0  0  0  0
  3  4  1  0  0  0  0
  4  5  1  0  0  0  0
  5 29  1  0  0  0  0
  5  6  1  0  0  0  0
  5 24  1  0  0  0  0
  6 23  1  0  0  0  0
  6  7  1  0  0  0  0
  7  8  2  0  0  0  0
  7 35  1  0  0  0  0
  8  9  1  0  0  0  0
  9 23  2  0  0  0  0
  9 10  1  0  0  0  0
 10 11  1  0  0  0  0
 10 20  2  0  0  0  0
 11 19  1  0  0  0  0
 11 12  1  0  0  0  0
 12 13  1  0  0  0  0
 12 36  1  0  0  0  0
 12 37  1  0  0  0  0
 13 14  1  0  0  0  0
 13 38  1  0  0  0  0
 13 39  1  0  0  0  0
 14 19  2  0  0  0  0
 14 15  1  0  0  0  0
 15 16  2  0  0  0  0
 15 40  1  0  0  0  0
 16 17  1  0  0  0  0
 16 41  1  0  0  0  0
 17 18  2  0  0  0  0
 17 42  1  0  0  0  0
 18 19  1  0  0  0  0
 18 43  1  0  0  0  0
 20 21  1  0  0  0  0
 21 22  2  0  0  0  0
 21 44  1  0  0  0  0
 22 23  1  0  0  0  0
 24 30  1  0  0  0  0
 24 25  1  0  0  0  0
 24 26  1  0  0  0  0
 25 45  1  0  0  0  0
 26 31  1  0  0  0  0
 26 27  1  0  0  0  0
 27 46  1  0  0  0  0
M  END
> <s_m_source_file>
AV-unprocessed.smi

> <i_m_source_file_index>
110

> <i_lp_mmshare_version>
43012

> <i_f3d_flags>
0

> <s_epik_input>
W09IXVtDSDJdW0NASF0xT1tDQEhdKFtDQEhdKFtPSF0pW0NAQEhdMVtPSF0pbihbY0hdbjIpYyhjMjMpbltjSF1uYzNOKFtDSDJdW0NIMl00KWMoYzQ1KVtjSF1bY0hdW2NIXVtjSF01

> <s_epik_cmdline>
J2VwaWtfcHl0aG9uJywgJy1waCcsICc3LjAnLCAnLXRuJywgJzgnLCAnLW1hJywgJzIwMCcsICctbWV0YWxfYmluZGluZycsICctaW1hZScsICc8aW5maWxlLm1hZT4nLCAnLW9tYWUnLCAnPG91dGZpbGUubWFlPic=

> <r_lp_tautomer_probability>
1

> <r_epik_Ionization_Penalty>
0.00068475

> <r_epik_Ionization_Penalty_Charging>
0

> <r_epik_Ionization_Penalty_Neutral>
0.00068475

> <r_epik_State_Penalty>
0.000417442

> <r_epik_Charging_Adjusted_Penalty>
0.000417442

> <i_epik_Tot_Q>
0

> <i_epik_Tot_abs_Q>
0

> <r_epik_Metal_State_Penalty>
-0

> <b_epik_Metal_Only>
0

> <s_epik_Chemistry_Notes>
This compound contains an acetal/aminal-like group ( X-CH(R)-Y where X, Y are N, S, or O) that may be acid/base labile, releasing an aldehyde.

> <s_lp_Force_Field>
OPLS_2005

> <r_lp_Energy>
59.3181

> <b_lp_Chiralities_Consistent>
1

> <s_lp_Variant>
AV-unprocessed.smi:110-12

> <Gold.Version>
5.8.1

> <Gold.Id.Protein>
6NUR|6NUR_protein|mol2

> <Gold.PLP.Fitness>
54.8756

> <Gold.PLP.PLP>
-46.3773

> <Gold.PLP.part.hbond>
-3.0744

> <Gold.PLP.part.metal>
0.0000

> <Gold.PLP.part.buried>
0.3834

> <Gold.PLP.part.nonpolar>
-44.6687

> <Gold.PLP.part.repulsive>
0.5226

> <Gold.PLP.ligand.clash>
0.1759

> <Gold.PLP.ligand.torsion>
1.0725

> <Gold.PLP.Chemscore.Hbond>
2.7392

> <Gold.PLP.Chemscore.CHOScore>
0.8296

> <Gold.PLP.Chemscore.Metal>
0.0000

> <Gold.Chemscore.Hbonds>
donor molecule, donor type, donor heavy atom, donor atom, acceptor molecule, acceptor atom, score
      L1  H     1    32       P1  7948  0.91
      L1  H    27    46       P1  7957  1.00
      P1  H  7997  8009       L1    20  0.80
      L1  C     7    35       P1  8028  0.86

> <Gold.PLP.Chemscore.Internal.Correction>
0.1127

> <Gold.Rescore>
     Score         DG    S(hbond)    S(metal)    S(lipo)     H(rot)  DE(clash)    DE(int)     intcor
      9.10     -16.86       1.93        0.00     116.29       3.38       2.62       5.15       ----

> <Gold.Chemscore.Fitness>
9.0989

> <Gold.Chemscore.DG>
-16.8649

> <Gold.Chemscore.ZeroCoef>
-5.4800

> <Gold.Chemscore.Hbond>
1.9285

> <Gold.Chemscore.Metal>
0.0000

> <Gold.Chemscore.Lipo>
116.2904

> <Gold.Chemscore.Internal_Hbond>
0.0000

> <Gold.Chemscore.DEClash>
2.6189

> <Gold.Chemscore.DEInternal>
5.1470

> <Gold.Chemscore.Rot>
3.3837

> <Gold.Chemscore.Internal.Correction>
   9.000000E+99

> <Gold.Chemscore.Hbonds>
donor molecule, donor type, donor heavy atom, donor atom, acceptor molecule, acceptor atom, score
      L1  H     1    32       P1  7948  0.89
      L1  H    27    46       P1  7957  0.98
      P1  H  7997  8009       L1    20  0.08

> <Gold.Chemscore.Hbond.Weighted>
-6.4411

> <Gold.Chemscore.Metal.Weighted>
-0.0000

> <Gold.Chemscore.Lipo.Weighted>
-13.6060

> <Gold.Chemscore.Internal_Hbond.Weighted>
0.0000

> <Gold.Chemscore.DEClash.Weighted>
2.6189

> <Gold.Chemscore.DEInternal.Weighted>
5.1470

> <Gold.Chemscore.Rot.Weighted>
8.6622

> <Gold.Chemscore.Internal.Correction.Weighted>
   9.000000E+99

> <Gold.Protein.RotatedTorsions>
[ 6907 6896 6895 6894 ] final  -10.04 input  -60.11 | X-H torsion
[ 7974 7965 7964 7962 ] final -133.00 input  175.53 | X-H torsion
[ 8008 7997 7996 7995 ] final  148.64 input   59.86 | X-H torsion
[ 10167 10162 10161 10158 ] final   96.27 input  -65.29 | X-H torsion
[ 10718 10713 10712 10709 ] final -133.59 input   66.30 | X-H torsion
[ 10763 10752 10751 10750 ] final -143.39 input  -60.55 | X-H torsion
[ 11005 11000 10999 10996 ] final  -52.34 input  -57.11 | X-H torsion

> <Gold.Protein.ActiveResidues>
 VAL166  LYS551  ARG553  GLY616  TRP617  ASP618  TYR619  PRO620  LYS621  CYS622 
 ASP623  PHE694  ASN695  SER759  ASP760  ASP761  ALA762  ILE779  LEU786  VAL792 
 PHE793  MET794  SER795  GLU796  ALA797  LYS798  CYS799  TRP800  GLU811  SER814 

> <Gold.Protein.RotatedAtoms>
  151.4082  135.0981  159.9576 H   0  0  0  0  0  0  0  0  0  0  0  0  # atno 6907 bound_to 6896
  152.5028  133.8823  159.7363 H   0  0  0  0  0  0  0  0  0  0  0  0  # atno 6908 bound_to 6896
  150.9312  133.6708  159.2838 H   0  0  0  0  0  0  0  0  0  0  0  0  # atno 6909 bound_to 6896
  144.9233  140.7041  143.4951 H   0  0  0  0  0  0  0  0  0  0  0  0  # atno 7974 bound_to 7965
  156.2784  140.2123  156.5731 H   0  0  0  0  0  0  0  0  0  0  0  0  # atno 8008 bound_to 7997
  154.7120  140.0511  157.0582 H   0  0  0  0  0  0  0  0  0  0  0  0  # atno 8009 bound_to 7997
  155.0593  140.3165  155.4669 H   0  0  0  0  0  0  0  0  0  0  0  0  # atno 8010 bound_to 7997
  139.7910  144.6852  150.9892 H   0  0  0  0  0  0  0  0  0  0  0  0  # atno 10167 bound_to 10162
  156.2465  130.7127  151.1010 H   0  0  0  0  0  0  0  0  0  0  0  0  # atno 10718 bound_to 10713
  154.8472  135.3469  154.6179 H   0  0  0  0  0  0  0  0  0  0  0  0  # atno 10763 bound_to 10752
  153.6788  135.6981  153.5129 H   0  0  0  0  0  0  0  0  0  0  0  0  # atno 10764 bound_to 10752
  153.2684  135.4300  155.0920 H   0  0  0  0  0  0  0  0  0  0  0  0  # atno 10765 bound_to 10752
  141.0919  133.6631  156.4010 H   0  0  0  0  0  0  0  0  0  0  0  0  # atno 11005 bound_to 11000
  145.3260  139.1774  143.4562 LP  0  0  0  0  0  0  0  0  0  0  0  0  # atno 17320 bound_to 7965
  146.3215  140.3283  142.8638 LP  0  0  0  0  0  0  0  0  0  0  0  0  # atno 17321 bound_to 7965
  140.7820  143.4381  151.0593 LP  0  0  0  0  0  0  0  0  0  0  0  0  # atno 17342 bound_to 10162
  139.8057  143.8021  152.3167 LP  0  0  0  0  0  0  0  0  0  0  0  0  # atno 17343 bound_to 10162
  157.7197  131.0689  150.6185 LP  0  0  0  0  0  0  0  0  0  0  0  0  # atno 17370 bound_to 10713
  156.6262  130.4419  149.5803 LP  0  0  0  0  0  0  0  0  0  0  0  0  # atno 17371 bound_to 10713
  140.5232  134.6284  157.5325 LP  0  0  0  0  0  0  0  0  0  0  0  0  # atno 17394 bound_to 11000
  139.9747  134.7235  155.9973 LP  0  0  0  0  0  0  0  0  0  0  0  0  # atno 17395 bound_to 11000

$$$$
