AV-unprocessed.smi:2900|AV-procd|sdf|11147|dock2
  -GOLD-   2272016 23D 1   1.00000     0.00000
 Structure written by MMmdl.
 35 36  0  0  0  0  0  0  0  0  1 V2000
  150.5051  139.6818  154.3584 O   0  0  0  0  0  0  0  0  0  0  0  0
  149.4320  140.2190  154.6315 C   0  0  0  0  0  0  0  0  0  0  0  0
  148.1456  139.7397  154.1321 C   0  0  0  0  0  0  0  0  0  0  0  0
  146.9860  140.3501  154.4567 C   0  0  0  0  0  0  0  0  0  0  0  0
  147.0093  141.5171  155.3227 C   0  0  0  0  0  0  0  0  0  0  0  0
  145.7699  142.2673  155.7445 C   0  0  0  0  0  0  0  0  0  0  0  0
  144.8279  141.4310  156.1812 F   0  0  0  0  0  0  0  0  0  0  0  0
  146.0632  143.1230  156.7241 F   0  0  0  0  0  0  0  0  0  0  0  0
  145.2793  142.9566  154.7141 F   0  0  0  0  0  0  0  0  0  0  0  0
  148.1463  141.9488  155.7651 N   0  0  0  0  0  0  0  0  0  0  0  0
  149.3331  141.3181  155.4351 N   0  0  0  0  0  0  0  0  0  0  0  0
  150.5216  141.9301  156.0417 C   0  0  0  0  0  0  0  0  0  0  0  0
  151.0480  141.1131  157.2429 C   0  0  2  0  0  0  0  0  0  0  0  0
  149.9616  140.3891  157.7875 O   0  0  0  0  0  0  0  0  0  0  0  0
  151.5958  142.0226  158.3557 C   0  0  0  0  0  0  0  0  0  0  0  0
  152.6269  141.3319  159.0491 O   0  0  0  0  0  0  0  0  0  0  0  0
  153.0185  141.8079  160.2821 C   0  0  0  0  0  0  0  0  0  0  0  0
  153.9670  141.0420  160.9913 C   0  0  0  0  0  0  0  0  0  0  0  0
  154.4251  141.4535  162.2578 C   0  0  0  0  0  0  0  0  0  0  0  0
  153.9363  142.6422  162.8304 C   0  0  0  0  0  0  0  0  0  0  0  0
  152.9897  143.4165  162.1343 C   0  0  0  0  0  0  0  0  0  0  0  0
  152.5312  143.0044  160.8677 C   0  0  0  0  0  0  0  0  0  0  0  0
  148.1235  138.8730  153.4878 H   0  0  0  0  0  0  0  0  0  0  0  0
  146.0467  139.9771  154.0764 H   0  0  0  0  0  0  0  0  0  0  0  0
  151.2968  142.0083  155.2772 H   0  0  0  0  0  0  0  0  0  0  0  0
  150.3201  142.9611  156.3397 H   0  0  0  0  0  0  0  0  0  0  0  0
  151.8295  140.4235  156.9209 H   0  0  0  0  0  0  0  0  0  0  0  0
  150.1758  140.1472  158.6753 H   0  0  0  0  0  0  0  0  0  0  0  0
  152.0288  142.9193  157.9096 H   0  0  0  0  0  0  0  0  0  0  0  0
  150.7969  142.3378  159.0298 H   0  0  0  0  0  0  0  0  0  0  0  0
  154.3482  140.1287  160.5588 H   0  0  0  0  0  0  0  0  0  0  0  0
  155.1516  140.8566  162.7889 H   0  0  0  0  0  0  0  0  0  0  0  0
  154.2868  142.9598  163.8014 H   0  0  0  0  0  0  0  0  0  0  0  0
  152.6141  144.3295  162.5720 H   0  0  0  0  0  0  0  0  0  0  0  0
  151.8057  143.6255  160.3651 H   0  0  0  0  0  0  0  0  0  0  0  0
  1  2  2  0  0  0  0
  2 11  1  0  0  0  0
  2  3  1  0  0  0  0
  3  4  2  0  0  0  0
  3 23  1  0  0  0  0
  4  5  1  0  0  0  0
  4 24  1  0  0  0  0
  5  6  1  0  0  0  0
  5 10  2  0  0  0  0
  6  7  1  0  0  0  0
  6  8  1  0  0  0  0
  6  9  1  0  0  0  0
 10 11  1  0  0  0  0
 11 12  1  0  0  0  0
 12 13  1  0  0  0  0
 12 25  1  0  0  0  0
 12 26  1  0  0  0  0
 13 14  1  0  0  0  0
 13 15  1  0  0  0  0
 13 27  1  0  0  0  0
 14 28  1  0  0  0  0
 15 16  1  0  0  0  0
 15 29  1  0  0  0  0
 15 30  1  0  0  0  0
 16 17  1  0  0  0  0
 17 22  1  0  0  0  0
 17 18  2  0  0  0  0
 18 19  1  0  0  0  0
 18 31  1  0  0  0  0
 19 20  2  0  0  0  0
 19 32  1  0  0  0  0
 20 21  1  0  0  0  0
 20 33  1  0  0  0  0
 21 22  2  0  0  0  0
 21 34  1  0  0  0  0
 22 35  1  0  0  0  0
M  END
> <s_m_source_file>
AV-unprocessed.smi

> <i_m_source_file_index>
2900

> <i_lp_mmshare_version>
43012

> <i_f3d_flags>
0

> <s_epik_input>
Tz1jMVtjSF1bY0hdYyhDKEYpKEYpRilubjFbQ0gyXVtDQEhdKFtPSF0pW0NIMl1PYzJbY0hdW2NIXVtjSF1bY0hdW2NIXTI=

> <s_epik_cmdline>
J2VwaWtfcHl0aG9uJywgJy1waCcsICc3LjAnLCAnLXRuJywgJzgnLCAnLW1hJywgJzIwMCcsICctbWV0YWxfYmluZGluZycsICctaW1hZScsICc8aW5maWxlLm1hZT4nLCAnLW9tYWUnLCAnPG91dGZpbGUubWFlPic=

> <r_lp_tautomer_probability>
1

> <r_epik_Ionization_Penalty>
1.22578e-07

> <r_epik_Ionization_Penalty_Charging>
5.40425e-09

> <r_epik_Ionization_Penalty_Neutral>
1.17174e-07

> <r_epik_State_Penalty>
-0

> <r_epik_Charging_Adjusted_Penalty>
5.40425e-09

> <i_epik_Tot_Q>
0

> <i_epik_Tot_abs_Q>
0

> <r_epik_Metal_State_Penalty>
-0

> <b_epik_Metal_Only>
0

> <s_lp_Force_Field>
OPLS_2005

> <r_lp_Energy>
34.5506

> <b_lp_Chiralities_Consistent>
1

> <s_lp_Variant>
AV-unprocessed.smi:2900-1

> <Gold.Version>
5.8.1

> <Gold.Id.Protein>
6NUR|6NUR_protein|mol2

> <Gold.PLP.Fitness>
43.8156

> <Gold.PLP.PLP>
-43.8358

> <Gold.PLP.part.hbond>
-1.0000

> <Gold.PLP.part.metal>
0.0000

> <Gold.PLP.part.buried>
-2.5773

> <Gold.PLP.part.nonpolar>
-39.2807

> <Gold.PLP.part.repulsive>
1.4467

> <Gold.PLP.ligand.clash>
0.0000

> <Gold.PLP.ligand.torsion>
1.5463

> <Gold.PLP.Chemscore.Hbond>
1.0000

> <Gold.PLP.Chemscore.CHOScore>
0.0000

> <Gold.PLP.Chemscore.Metal>
0.0000

> <Gold.Chemscore.Hbonds>
donor molecule, donor type, donor heavy atom, donor atom, acceptor molecule, acceptor atom, score
      P1  H  7989  7998       L1     1  1.00

> <Gold.PLP.Chemscore.Internal.Correction>
0.0723

> <Gold.Rescore>
     Score         DG    S(hbond)    S(metal)    S(lipo)     H(rot)  DE(clash)    DE(int)     intcor
     12.10     -13.84       0.98        0.00     101.04       2.63       0.45       1.29       ----

> <Gold.Chemscore.Fitness>
12.0968

> <Gold.Chemscore.DG>
-13.8377

> <Gold.Chemscore.ZeroCoef>
-5.4800

> <Gold.Chemscore.Hbond>
0.9813

> <Gold.Chemscore.Metal>
0.0000

> <Gold.Chemscore.Lipo>
101.0439

> <Gold.Chemscore.Internal_Hbond>
0.0000

> <Gold.Chemscore.DEClash>
0.4528

> <Gold.Chemscore.DEInternal>
1.2881

> <Gold.Chemscore.Rot>
2.6336

> <Gold.Chemscore.Internal.Correction>
   9.000000E+99

> <Gold.Chemscore.Hbonds>
donor molecule, donor type, donor heavy atom, donor atom, acceptor molecule, acceptor atom, score
      P1  H  7989  7998       L1     1  0.78

> <Gold.Chemscore.Hbond.Weighted>
-3.2776

> <Gold.Chemscore.Metal.Weighted>
-0.0000

> <Gold.Chemscore.Lipo.Weighted>
-11.8221

> <Gold.Chemscore.Internal_Hbond.Weighted>
0.0000

> <Gold.Chemscore.DEClash.Weighted>
0.4528

> <Gold.Chemscore.DEInternal.Weighted>
1.2881

> <Gold.Chemscore.Rot.Weighted>
6.7420

> <Gold.Chemscore.Internal.Correction.Weighted>
   9.000000E+99

> <Gold.Protein.RotatedTorsions>
[ 6907 6896 6895 6894 ] final -143.38 input  -60.11 | X-H torsion
[ 7974 7965 7964 7962 ] final   79.87 input  175.53 | X-H torsion
[ 8008 7997 7996 7995 ] final -156.52 input   59.86 | X-H torsion
[ 10167 10162 10161 10158 ] final  -96.15 input  -65.29 | X-H torsion
[ 10718 10713 10712 10709 ] final   91.17 input   66.30 | X-H torsion
[ 10763 10752 10751 10750 ] final  -49.92 input  -60.55 | X-H torsion
[ 11005 11000 10999 10996 ] final  -64.35 input  -57.11 | X-H torsion

> <Gold.Protein.ActiveResidues>
 VAL166  LYS551  ARG553  GLY616  TRP617  ASP618  TYR619  PRO620  LYS621  CYS622 
 ASP623  PHE694  ASN695  SER759  ASP760  ASP761  ALA762  ILE779  LEU786  VAL792 
 PHE793  MET794  SER795  GLU796  ALA797  LYS798  CYS799  TRP800  GLU811  SER814 

> <Gold.Protein.RotatedAtoms>
  151.0996  133.5253  159.2610 H   0  0  0  0  0  0  0  0  0  0  0  0  # atno 6907 bound_to 6896
  151.2089  135.0472  159.8913 H   0  0  0  0  0  0  0  0  0  0  0  0  # atno 6908 bound_to 6896
  152.5442  134.0815  159.8291 H   0  0  0  0  0  0  0  0  0  0  0  0  # atno 6909 bound_to 6896
  145.6587  139.2466  143.1935 H   0  0  0  0  0  0  0  0  0  0  0  0  # atno 7974 bound_to 7965
  155.7184  140.0787  157.2341 H   0  0  0  0  0  0  0  0  0  0  0  0  # atno 8008 bound_to 7997
  154.4048  140.1617  156.2428 H   0  0  0  0  0  0  0  0  0  0  0  0  # atno 8009 bound_to 7997
  155.9219  140.3397  155.6182 H   0  0  0  0  0  0  0  0  0  0  0  0  # atno 8010 bound_to 7997
  140.2968  143.3187  152.0289 H   0  0  0  0  0  0  0  0  0  0  0  0  # atno 10167 bound_to 10162
  157.6960  131.0397  150.3689 H   0  0  0  0  0  0  0  0  0  0  0  0  # atno 10718 bound_to 10713
  154.1019  135.6562  153.4870 H   0  0  0  0  0  0  0  0  0  0  0  0  # atno 10763 bound_to 10752
  153.0286  135.5227  154.7278 H   0  0  0  0  0  0  0  0  0  0  0  0  # atno 10764 bound_to 10752
  154.6432  135.2991  155.0047 H   0  0  0  0  0  0  0  0  0  0  0  0  # atno 10765 bound_to 10752
  141.1422  133.6664  156.5819 H   0  0  0  0  0  0  0  0  0  0  0  0  # atno 11005 bound_to 11000
  146.1144  140.7388  142.9488 LP  0  0  0  0  0  0  0  0  0  0  0  0  # atno 17320 bound_to 7965
  144.7097  140.3990  143.7090 LP  0  0  0  0  0  0  0  0  0  0  0  0  # atno 17321 bound_to 7965
  139.4924  144.6485  151.6727 LP  0  0  0  0  0  0  0  0  0  0  0  0  # atno 17342 bound_to 10162
  140.5685  144.0148  150.6205 LP  0  0  0  0  0  0  0  0  0  0  0  0  # atno 17343 bound_to 10162
  156.4116  130.3935  149.6887 LP  0  0  0  0  0  0  0  0  0  0  0  0  # atno 17370 bound_to 10713
  156.4169  130.7750  151.2765 LP  0  0  0  0  0  0  0  0  0  0  0  0  # atno 17371 bound_to 10713
  140.3831  134.7506  157.4674 LP  0  0  0  0  0  0  0  0  0  0  0  0  # atno 17394 bound_to 11000
  140.0623  134.5979  155.8735 LP  0  0  0  0  0  0  0  0  0  0  0  0  # atno 17395 bound_to 11000

$$$$
