#       Name:                AV-unprocessed.smi:805
#       Creating user name   scv26
#       Creation time:       Fri Mar 27 01:23:23 2020


#       File generated by GOLD software.
#

@<TRIPOS>MOLECULE
AV-unprocessed.smi:805
    45    46     1
SMALL
NO_CHARGES


@<TRIPOS>ATOM
      1 ****        -5.6254   1.9654  -0.1137 C.3            1 S1                 0.0000
      2 ****        -4.0996   2.0292  -0.0202 C.3            1 S1                 0.0000
      3 ****        -3.5777   0.7229  -0.1940 O.3            1 S1                 0.0000
      4 ****        -2.1601   0.6814  -0.1495 C.3            1 S1                 0.0000
      5 ****        -1.4679   1.1464  -1.4340 C.3            1 S1                 0.0000
      6 ****        -0.5071  -0.0349  -1.2609 C.3            1 S1                 0.0000
      7 ****         0.6935   0.3705  -0.5280 N.am           1 S1                 0.0000
      8 ****         1.8143  -0.3584  -0.4426 C.2            1 S1                 0.0000
      9 ****         1.9519  -1.4557  -0.9828 O.2            1 S1                 0.0000
     10 ****         2.7485   0.2719   0.2893 N.am           1 S1                 0.0000
     11 ****         4.0406  -0.1884   0.6604 C.ar           1 S1                 0.0000
     12 ****         4.4203  -1.5520   0.6967 C.ar           1 S1                 0.0000
     13 ****         5.7265  -1.8827   1.1060 C.ar           1 S1                 0.0000
     14 ****         6.6020  -0.8409   1.4689 C.ar           1 S1                 0.0000
     15 ****         6.2496   0.4618   1.4512 N.ar           1 S1                 0.0000
     16 ****         4.9951   0.7712   1.0594 C.ar           1 S1                 0.0000
     17 ****        -1.5856  -0.7361  -0.3845 C.3            1 S1                 0.0000
     18 ****        -1.1303  -1.4882   0.8719 C.3            1 S1                 0.0000
     19 ****        -2.4893  -1.7018  -1.1636 C.3            1 S1                 0.0000
     20 ****        -6.0662   2.9532   0.0205 H              1 S1                 0.0000
     21 ****        -6.0370   1.3074   0.6521 H              1 S1                 0.0000
     22 ****        -5.9414   1.5872  -1.0862 H              1 S1                 0.0000
     23 ****        -3.7100   2.7008  -0.7862 H              1 S1                 0.0000
     24 ****        -3.8012   2.4263   0.9511 H              1 S1                 0.0000
     25 ****        -1.7446   1.1514   0.7448 H              1 S1                 0.0000
     26 ****        -2.1003   1.0516  -2.3182 H              1 S1                 0.0000
     27 ****        -1.0125   2.1356  -1.3740 H              1 S1                 0.0000
     28 ****        -0.2992  -0.5486  -2.2013 H              1 S1                 0.0000
     29 ****         0.6644   1.2631  -0.0576 H              1 S1                 0.0000
     30 ****         2.5215   1.2092   0.5879 H              1 S1                 0.0000
     31 ****         3.7380  -2.3461   0.4366 H              1 S1                 0.0000
     32 ****         6.0483  -2.9129   1.1453 H              1 S1                 0.0000
     33 ****         7.6099  -1.0605   1.7885 H              1 S1                 0.0000
     34 ****         4.7468   1.8227   1.0620 H              1 S1                 0.0000
     35 ****        -0.5012  -2.3422   0.6187 H              1 S1                 0.0000
     36 ****        -1.9798  -1.8628   1.4438 H              1 S1                 0.0000
     37 ****        -0.5576  -0.8504   1.5454 H              1 S1                 0.0000
     38 ****        -1.9509  -2.6054  -1.4509 H              1 S1                 0.0000
     39 ****        -2.8721  -1.2529  -2.0806 H              1 S1                 0.0000
     40 ****        -3.3534  -2.0087  -0.5731 H              1 S1                 0.0000
     41 ****        -3.8789   0.3750  -1.0818 LP             1 S1                 0.0000
     42 ****        -3.9366   0.1372   0.5328 LP             1 S1                 0.0000
     43 ****         1.2037  -1.8463  -1.5191 LP             1 S1                 0.0000
     44 ****         2.8119  -1.9566  -0.8854 LP             1 S1                 0.0000
     45 ****         6.8970   1.1751   1.7197 LP             1 S1                 0.0000
@<TRIPOS>BOND
    1    1    2 1     
    2    1   20 1     
    3    1   21 1     
    4    1   22 1     
    5    2    3 1     
    6    2   23 1     
    7    2   24 1     
    8    3    4 1     
    9    4   17 1     
   10    4    5 1     
   11    4   25 1     
   12    5    6 1     
   13    5   26 1     
   14    5   27 1     
   15    6    7 1     
   16    6   17 1     
   17    6   28 1     
   18    7    8 am    
   19    7   29 1     
   20    8    9 2     
   21    8   10 am    
   22   10   11 1     
   23   10   30 1     
   24   11   16 ar    
   25   11   12 ar    
   26   12   13 ar    
   27   12   31 1     
   28   13   14 ar    
   29   13   32 1     
   30   14   15 ar    
   31   14   33 1     
   32   15   16 ar    
   33   16   34 1     
   34   17   18 1     
   35   17   19 1     
   36   18   35 1     
   37   18   36 1     
   38   18   37 1     
   39   19   38 1     
   40   19   39 1     
   41   19   40 1     
   42    3   41 1     
   43    3   42 1     
   44    9   43 1     
   45    9   44 1     
   46   15   45 1     
@<TRIPOS>SUBSTRUCTURE
      1 S1             1
@<TRIPOS>SET
LONE_PAIRS      STATIC     ATOMS    <user>   **** ""
5 41 42 43 44 45
DONOR_HYDROGENS      STATIC     ATOMS    <user>   **** ""
2 29 30
ATOM$BLUE        STATIC     ATOMS    COLORGROUP SYSTEM
5 41 42 43 44 45
ATOM$RED        STATIC     ATOMS    COLORGROUP SYSTEM
2 29 30
