AV-unprocessed.smi:2237|AV-procd|sdf|9049|dock10
  -GOLD-   2272012253D 1   1.00000     0.00000
 Structure written by MMmdl.
 55 57  0  0  0  0  0  0  0  0  3 V2000
  151.9863  144.3527  160.6566 C   0  0  0  0  0  0  0  0  0  0  0  0
  152.3990  142.9899  160.1411 C   0  0  0  0  0  0  0  0  0  0  0  0
  153.5000  142.3076  160.6949 C   0  0  0  0  0  0  0  0  0  0  0  0
  153.8330  141.0477  160.1664 C   0  0  0  0  0  0  0  0  0  0  0  0
  153.0564  140.5249  159.1145 C   0  0  0  0  0  0  0  0  0  0  0  0
  151.9671  141.2741  158.6161 C   0  0  0  0  0  0  0  0  0  0  0  0
  151.2469  140.6586  157.5579 N   0  0  0  0  0  0  0  0  0  0  0  0
  150.1765  141.1324  156.8960 C   0  0  0  0  0  0  0  0  0  0  0  0
  149.6345  142.2192  157.0990 O   0  0  0  0  0  0  0  0  0  0  0  0
  149.7586  140.2645  155.9626 N   0  0  0  0  0  0  0  0  0  0  0  0
  148.6160  140.4702  155.0772 C   0  0  2  0  0  0  0  0  0  0  0  0
  147.3359  140.6472  155.9124 C   0  0  0  0  0  0  0  0  0  0  0  0
  146.0990  140.7516  155.0018 C   0  0  0  0  0  0  0  0  0  0  0  0
  145.9495  139.5483  154.1342 N   0  3  2  0  0  0  0  0  0  0  0  0
  145.5243  138.2804  154.8244 C   0  0  2  0  0  0  0  0  0  0  0  0
  145.1961  137.1444  153.8255 C   0  0  0  0  0  0  0  0  0  0  0  0
  143.9012  137.4223  153.0388 C   0  0  0  0  0  0  0  0  0  0  0  0
  142.7505  137.6184  153.9554 N   0  3  2  0  0  0  0  0  0  0  0  0
  141.4743  137.7976  153.2296 C   0  0  0  0  0  0  0  0  0  0  0  0
  142.9972  138.6990  154.9418 C   0  0  0  0  0  0  0  0  0  0  0  0
  144.2852  138.4303  155.7420 C   0  0  0  0  0  0  0  0  0  0  0  0
  147.1596  139.4100  153.2723 C   0  0  0  0  0  0  0  0  0  0  0  0
  148.4573  139.2899  154.0978 C   0  0  0  0  0  0  0  0  0  0  0  0
  151.6544  142.4890  159.1319 N   0  0  0  0  0  0  0  0  0  0  0  0
  152.5539  144.6278  161.5459 H   0  0  0  0  0  0  0  0  0  0  0  0
  150.9268  144.3581  160.9151 H   0  0  0  0  0  0  0  0  0  0  0  0
  152.1576  145.1123  159.8933 H   0  0  0  0  0  0  0  0  0  0  0  0
  154.0765  142.7359  161.5017 H   0  0  0  0  0  0  0  0  0  0  0  0
  154.6699  140.4903  160.5600 H   0  0  0  0  0  0  0  0  0  0  0  0
  153.2994  139.5582  158.6977 H   0  0  0  0  0  0  0  0  0  0  0  0
  151.5860  139.7514  157.2747 H   0  0  0  0  0  0  0  0  0  0  0  0
  150.2622  139.3949  155.8649 H   0  0  0  0  0  0  0  0  0  0  0  0
  148.7722  141.3849  154.5017 H   0  0  0  0  0  0  0  0  0  0  0  0
  147.2184  139.8142  156.6066 H   0  0  0  0  0  0  0  0  0  0  0  0
  147.4164  141.5463  156.5245 H   0  0  0  0  0  0  0  0  0  0  0  0
  145.1996  140.9596  155.5776 H   0  0  0  0  0  0  0  0  0  0  0  0
  146.2122  141.6223  154.3540 H   0  0  0  0  0  0  0  0  0  0  0  0
  146.3481  137.9506  155.4567 H   0  0  0  0  0  0  0  0  0  0  0  0
  146.0165  136.9432  153.1398 H   0  0  0  0  0  0  0  0  0  0  0  0
  145.0686  136.2147  154.3824 H   0  0  0  0  0  0  0  0  0  0  0  0
  144.0229  138.3027  152.4061 H   0  0  0  0  0  0  0  0  0  0  0  0
  143.6936  136.5826  152.3744 H   0  0  0  0  0  0  0  0  0  0  0  0
  141.4906  138.7052  152.6246 H   0  0  0  0  0  0  0  0  0  0  0  0
  140.6397  137.8678  153.9282 H   0  0  0  0  0  0  0  0  0  0  0  0
  141.2840  136.9501  152.5702 H   0  0  0  0  0  0  0  0  0  0  0  0
  143.0589  139.6594  154.4279 H   0  0  0  0  0  0  0  0  0  0  0  0
  142.1513  138.7618  155.6274 H   0  0  0  0  0  0  0  0  0  0  0  0
  144.1524  137.5004  156.2973 H   0  0  0  0  0  0  0  0  0  0  0  0
  144.4308  139.1833  156.5150 H   0  0  0  0  0  0  0  0  0  0  0  0
  147.0753  138.5770  152.5783 H   0  0  0  0  0  0  0  0  0  0  0  0
  147.2262  140.2970  152.6405 H   0  0  0  0  0  0  0  0  0  0  0  0
  149.3115  139.2531  153.4205 H   0  0  0  0  0  0  0  0  0  0  0  0
  148.4703  138.3456  154.6426 H   0  0  0  0  0  0  0  0  0  0  0  0
  145.1904  139.7712  153.5063 H   0  0  0  0  0  0  0  0  0  0  0  0
  142.6564  136.7631  154.4852 H   0  0  0  0  0  0  0  0  0  0  0  0
  1  2  1  0  0  0  0
  1 25  1  0  0  0  0
  1 26  1  0  0  0  0
  1 27  1  0  0  0  0
  2 24  1  0  0  0  0
  2  3  2  0  0  0  0
  3  4  1  0  0  0  0
  3 28  1  0  0  0  0
  4  5  2  0  0  0  0
  4 29  1  0  0  0  0
  5  6  1  0  0  0  0
  5 30  1  0  0  0  0
  6  7  1  0  0  0  0
  6 24  2  0  0  0  0
  7  8  1  0  0  0  0
  7 31  1  0  0  0  0
  8  9  2  0  0  0  0
  8 10  1  0  0  0  0
 10 11  1  0  0  0  0
 10 32  1  0  0  0  0
 11 23  1  0  0  0  0
 11 12  1  0  0  0  0
 11 33  1  0  0  0  0
 12 13  1  0  0  0  0
 12 34  1  0  0  0  0
 12 35  1  0  0  0  0
 13 14  1  0  0  0  0
 13 36  1  0  0  0  0
 13 37  1  0  0  0  0
 14 15  1  0  0  0  0
 14 22  1  0  0  0  0
 14 54  1  0  0  0  0
 15 21  1  0  0  0  0
 15 16  1  0  0  0  0
 15 38  1  0  0  0  0
 16 17  1  0  0  0  0
 16 39  1  0  0  0  0
 16 40  1  0  0  0  0
 17 18  1  0  0  0  0
 17 41  1  0  0  0  0
 17 42  1  0  0  0  0
 18 19  1  0  0  0  0
 18 20  1  0  0  0  0
 18 55  1  0  0  0  0
 19 43  1  0  0  0  0
 19 44  1  0  0  0  0
 19 45  1  0  0  0  0
 20 21  1  0  0  0  0
 20 46  1  0  0  0  0
 20 47  1  0  0  0  0
 21 48  1  0  0  0  0
 21 49  1  0  0  0  0
 22 23  1  0  0  0  0
 22 50  1  0  0  0  0
 22 51  1  0  0  0  0
 23 52  1  0  0  0  0
 23 53  1  0  0  0  0
M  CHG  1  14   1
M  CHG  1  18   1
M  END
> <s_m_source_file>
AV-unprocessed.smi

> <i_m_source_file_index>
2237

> <i_lp_mmshare_version>
43012

> <i_f3d_flags>
0

> <s_epik_input>
W0NIM11jMVtjSF1bY0hdW2NIXWMobjEpW05IXUMoPU8pW05IXVtDSF0yW0NIMl1bQ0gyXU4oW0NIMl1bQ0gyXTIpW0NIXTNbQ0gyXVtDSDJdTihbQ0gzXSlbQ0gyXVtDSDJdMw==

> <s_epik_cmdline>
J2VwaWtfcHl0aG9uJywgJy1waCcsICc3LjAnLCAnLXRuJywgJzgnLCAnLW1hJywgJzIwMCcsICctbWV0YWxfYmluZGluZycsICctaW1hZScsICc8aW5maWxlLm1hZT4nLCAnLW9tYWUnLCAnPG91dGZpbGUubWFlPic=

> <r_epik_Ionization_Penalty>
0.180851

> <r_epik_Ionization_Penalty_Charging>
0.180787

> <r_epik_Ionization_Penalty_Neutral>
6.38624e-05

> <r_epik_State_Penalty>
0.153592

> <r_epik_Charging_Adjusted_Penalty>
0.334379

> <i_epik_Tot_Q>
2

> <i_epik_Tot_abs_Q>
2

> <r_epik_Metal_State_Penalty>
0.153595

> <b_epik_Metal_Only>
0

> <s_lp_Force_Field>
OPLS_2005

> <r_lp_Energy>
48.731

> <b_lp_Chiralities_Consistent>
1

> <s_lp_Variant>
AV-unprocessed.smi:2237-4

> <Gold.Version>
5.8.1

> <Gold.Id.Protein>
6NUR|6NUR_protein|mol2

> <Gold.PLP.Fitness>
38.2731

> <Gold.PLP.PLP>
-32.3213

> <Gold.PLP.part.hbond>
-1.0899

> <Gold.PLP.part.metal>
0.0000

> <Gold.PLP.part.buried>
-3.4182

> <Gold.PLP.part.nonpolar>
-28.6282

> <Gold.PLP.part.repulsive>
1.1569

> <Gold.PLP.ligand.clash>
0.0000

> <Gold.PLP.ligand.torsion>
0.0468

> <Gold.PLP.Chemscore.Hbond>
2.0000

> <Gold.PLP.Chemscore.CHOScore>
0.0000

> <Gold.PLP.Chemscore.Metal>
0.0000

> <Gold.Chemscore.Hbonds>
donor molecule, donor type, donor heavy atom, donor atom, acceptor molecule, acceptor atom, score
      L1  H    14    54       P1 10175  2.00

> <Gold.PLP.Chemscore.Internal.Correction>
0.0453

> <Gold.Rescore>
     Score         DG    S(hbond)    S(metal)    S(lipo)     H(rot)  DE(clash)    DE(int)     intcor
     14.32     -15.72       0.99        0.00      86.04       1.23       0.03       1.37       ----

> <Gold.Chemscore.Fitness>
14.3209

> <Gold.Chemscore.DG>
-15.7180

> <Gold.Chemscore.ZeroCoef>
-5.4800

> <Gold.Chemscore.Hbond>
0.9937

> <Gold.Chemscore.Metal>
0.0000

> <Gold.Chemscore.Lipo>
86.0375

> <Gold.Chemscore.Internal_Hbond>
0.0000

> <Gold.Chemscore.DEClash>
0.0317

> <Gold.Chemscore.DEInternal>
1.3654

> <Gold.Chemscore.Rot>
1.2295

> <Gold.Chemscore.Internal.Correction>
   9.000000E+99

> <Gold.Chemscore.Hbonds>
donor molecule, donor type, donor heavy atom, donor atom, acceptor molecule, acceptor atom, score
      L1  H    14    54       P1 10175  0.99

> <Gold.Chemscore.Hbond.Weighted>
-3.3191

> <Gold.Chemscore.Metal.Weighted>
-0.0000

> <Gold.Chemscore.Lipo.Weighted>
-10.0664

> <Gold.Chemscore.Internal_Hbond.Weighted>
0.0000

> <Gold.Chemscore.DEClash.Weighted>
0.0317

> <Gold.Chemscore.DEInternal.Weighted>
1.3654

> <Gold.Chemscore.Rot.Weighted>
3.1474

> <Gold.Chemscore.Internal.Correction.Weighted>
   9.000000E+99

> <Gold.Protein.RotatedTorsions>
[ 6907 6896 6895 6894 ] final -122.79 input  -60.11 | X-H torsion
[ 7974 7965 7964 7962 ] final  128.84 input  175.53 | X-H torsion
[ 8008 7997 7996 7995 ] final  -69.46 input   59.86 | X-H torsion
[ 10167 10162 10161 10158 ] final  110.39 input  -65.29 | X-H torsion
[ 10718 10713 10712 10709 ] final   32.08 input   66.30 | X-H torsion
[ 10763 10752 10751 10750 ] final  153.24 input  -60.55 | X-H torsion
[ 11005 11000 10999 10996 ] final -101.63 input  -57.11 | X-H torsion

> <Gold.Protein.ActiveResidues>
 VAL166  LYS551  ARG553  GLY616  TRP617  ASP618  TYR619  PRO620  LYS621  CYS622 
 ASP623  PHE694  ASN695  SER759  ASP760  ASP761  ALA762  ILE779  LEU786  VAL792 
 PHE793  MET794  SER795  GLU796  ALA797  LYS798  CYS799  TRP800  GLU811  SER814 

> <Gold.Protein.RotatedAtoms>
  150.8609  133.7645  159.2992 H   0  0  0  0  0  0  0  0  0  0  0  0  # atno 6907 bound_to 6896
  151.5288  135.1066  159.9907 H   0  0  0  0  0  0  0  0  0  0  0  0  # atno 6908 bound_to 6896
  152.4625  133.7809  159.6906 H   0  0  0  0  0  0  0  0  0  0  0  0  # atno 6909 bound_to 6896
  145.0352  139.4011  143.5130 H   0  0  0  0  0  0  0  0  0  0  0  0  # atno 7974 bound_to 7965
  154.4941  140.0853  156.7657 H   0  0  0  0  0  0  0  0  0  0  0  0  # atno 8008 bound_to 7997
  155.4160  140.3443  155.4249 H   0  0  0  0  0  0  0  0  0  0  0  0  # atno 8009 bound_to 7997
  156.1369  140.1518  156.8968 H   0  0  0  0  0  0  0  0  0  0  0  0  # atno 8010 bound_to 7997
  139.6692  144.7126  151.1719 H   0  0  0  0  0  0  0  0  0  0  0  0  # atno 10167 bound_to 10162
  157.2807  130.7253  149.6555 H   0  0  0  0  0  0  0  0  0  0  0  0  # atno 10718 bound_to 10713
  154.1330  135.2825  155.3180 H   0  0  0  0  0  0  0  0  0  0  0  0  # atno 10763 bound_to 10752
  154.6342  135.5425  153.7718 H   0  0  0  0  0  0  0  0  0  0  0  0  # atno 10764 bound_to 10752
  153.0275  135.6470  154.1480 H   0  0  0  0  0  0  0  0  0  0  0  0  # atno 10765 bound_to 10752
  141.1223  133.8493  157.1257 H   0  0  0  0  0  0  0  0  0  0  0  0  # atno 11005 bound_to 11000
  146.3503  139.9923  142.8684 LP  0  0  0  0  0  0  0  0  0  0  0  0  # atno 17320 bound_to 7965
  145.1719  140.9725  143.4317 LP  0  0  0  0  0  0  0  0  0  0  0  0  # atno 17321 bound_to 7965
  140.7611  143.5871  150.8835 LP  0  0  0  0  0  0  0  0  0  0  0  0  # atno 17342 bound_to 10162
  139.9535  143.6245  152.3022 LP  0  0  0  0  0  0  0  0  0  0  0  0  # atno 17343 bound_to 10162
  155.9664  130.4339  150.5026 LP  0  0  0  0  0  0  0  0  0  0  0  0  # atno 17370 bound_to 10713
  157.2969  131.0637  151.2095 LP  0  0  0  0  0  0  0  0  0  0  0  0  # atno 17371 bound_to 10713
  140.0190  134.9954  157.0553 LP  0  0  0  0  0  0  0  0  0  0  0  0  # atno 17394 bound_to 11000
  140.4471  134.1620  155.7178 LP  0  0  0  0  0  0  0  0  0  0  0  0  # atno 17395 bound_to 11000

$$$$
