AV-unprocessed.smi:3232|AV-procd|sdf|12340|dock4
  -GOLD-   2272018203D 1   1.00000     0.00000
 Structure written by MMmdl.
 40 41  0  0  0  0  0  0  0  0  2 V2000
  141.9892  134.9423  153.2231 C   0  0  0  0  0  0  0  0  0  0  0  0
  143.4335  134.8068  152.7193 C   0  0  0  0  0  0  0  0  0  0  0  0
  143.7903  133.3996  152.3967 N   0  3  1  0  0  0  0  0  0  0  0  0
  143.1087  132.8584  151.1974 C   0  0  0  0  0  0  0  0  0  0  0  0
  144.0123  131.7500  150.6709 C   0  0  0  0  0  0  0  0  0  0  0  0
  145.3986  132.3094  150.9472 C   0  0  0  0  0  0  0  0  0  0  0  0
  145.2410  133.0505  152.2865 C   0  0  1  0  0  0  0  0  0  0  0  0
  146.2474  134.2142  152.4761 C   0  0  0  0  0  0  0  0  0  0  0  0
  147.6140  133.7177  152.6021 N   0  0  0  0  0  0  0  0  0  0  0  0
  147.9891  132.6281  153.2925 C   0  0  0  0  0  0  0  0  0  0  0  0
  147.1873  131.8687  153.8374 O   0  0  0  0  0  0  0  0  0  0  0  0
  149.5028  132.3854  153.4012 C   0  0  2  0  0  0  0  0  0  0  0  0
  149.8533  130.9485  153.8380 C   0  0  0  0  0  0  0  0  0  0  0  0
  150.1042  133.3842  154.2769 N   0  0  0  0  0  0  0  0  0  0  0  0
  150.0308  134.7163  154.2369 C   0  0  0  0  0  0  0  0  0  0  0  0
  150.6591  135.3207  155.2352 N   0  0  0  0  0  0  0  0  0  0  0  0
  151.1300  134.2269  155.9042 C   0  0  0  0  0  0  0  0  0  0  0  0
  150.8153  133.0425  155.3806 N   0  0  0  0  0  0  0  0  0  0  0  0
  141.7824  135.9701  153.5224 H   0  0  0  0  0  0  0  0  0  0  0  0
  141.8112  134.3045  154.0894 H   0  0  0  0  0  0  0  0  0  0  0  0
  141.2636  134.6773  152.4536 H   0  0  0  0  0  0  0  0  0  0  0  0
  143.5842  135.4442  151.8470 H   0  0  0  0  0  0  0  0  0  0  0  0
  144.0886  135.1755  153.5080 H   0  0  0  0  0  0  0  0  0  0  0  0
  142.1063  132.4982  151.4302 H   0  0  0  0  0  0  0  0  0  0  0  0
  143.0189  133.6397  150.4406 H   0  0  0  0  0  0  0  0  0  0  0  0
  143.8571  130.8328  151.2406 H   0  0  0  0  0  0  0  0  0  0  0  0
  143.8447  131.5294  149.6162 H   0  0  0  0  0  0  0  0  0  0  0  0
  146.1673  131.5360  150.9784 H   0  0  0  0  0  0  0  0  0  0  0  0
  145.6638  133.0105  150.1546 H   0  0  0  0  0  0  0  0  0  0  0  0
  145.4185  132.3270  153.0836 H   0  0  0  0  0  0  0  0  0  0  0  0
  146.1728  134.9332  151.6590 H   0  0  0  0  0  0  0  0  0  0  0  0
  146.0299  134.7592  153.3944 H   0  0  0  0  0  0  0  0  0  0  0  0
  148.3400  134.2762  152.1769 H   0  0  0  0  0  0  0  0  0  0  0  0
  149.9248  132.5337  152.4059 H   0  0  0  0  0  0  0  0  0  0  0  0
  149.4441  130.2150  153.1426 H   0  0  0  0  0  0  0  0  0  0  0  0
  149.4656  130.7155  154.8306 H   0  0  0  0  0  0  0  0  0  0  0  0
  150.9338  130.8041  153.8648 H   0  0  0  0  0  0  0  0  0  0  0  0
  149.4986  135.2555  153.4668 H   0  0  0  0  0  0  0  0  0  0  0  0
  151.7139  134.3056  156.8095 H   0  0  0  0  0  0  0  0  0  0  0  0
  143.4544  132.8471  153.1728 H   0  0  0  0  0  0  0  0  0  0  0  0
  1  2  1  0  0  0  0
  1 19  1  0  0  0  0
  1 20  1  0  0  0  0
  1 21  1  0  0  0  0
  2  3  1  0  0  0  0
  2 22  1  0  0  0  0
  2 23  1  0  0  0  0
  3  7  1  0  0  0  0
  3  4  1  0  0  0  0
  3 40  1  0  0  0  0
  4  5  1  0  0  0  0
  4 24  1  0  0  0  0
  4 25  1  0  0  0  0
  5  6  1  0  0  0  0
  5 26  1  0  0  0  0
  5 27  1  0  0  0  0
  6  7  1  0  0  0  0
  6 28  1  0  0  0  0
  6 29  1  0  0  0  0
  7  8  1  0  0  0  0
  7 30  1  0  0  0  0
  8  9  1  0  0  0  0
  8 31  1  0  0  0  0
  8 32  1  0  0  0  0
  9 10  1  0  0  0  0
  9 33  1  0  0  0  0
 10 11  2  0  0  0  0
 10 12  1  0  0  0  0
 12 13  1  0  0  0  0
 12 14  1  0  0  0  0
 12 34  1  0  0  0  0
 13 35  1  0  0  0  0
 13 36  1  0  0  0  0
 13 37  1  0  0  0  0
 14 18  1  0  0  0  0
 14 15  1  0  0  0  0
 15 16  2  0  0  0  0
 15 38  1  0  0  0  0
 16 17  1  0  0  0  0
 17 18  2  0  0  0  0
 17 39  1  0  0  0  0
M  CHG  1   3   1
M  END
> <s_m_source_file>
AV-unprocessed.smi

> <i_m_source_file_index>
3232

> <i_lp_mmshare_version>
43012

> <i_f3d_flags>
0

> <s_epik_input>
W0NIM11bQ0gyXU4xW0NIMl1bQ0gyXVtDSDJdW0NASF0xW0NIMl1bTkhdQyg9TylbQ0BIXShbQ0gzXSluMltjSF1uW2NIXW4y

> <s_epik_cmdline>
J2VwaWtfcHl0aG9uJywgJy1waCcsICc3LjAnLCAnLXRuJywgJzgnLCAnLW1hJywgJzIwMCcsICctbWV0YWxfYmluZGluZycsICctaW1hZScsICc8aW5maWxlLm1hZT4nLCAnLW9tYWUnLCAnPG91dGZpbGUubWFlPic=

> <r_lp_tautomer_probability>
1

> <r_epik_Ionization_Penalty>
0.00177695

> <r_epik_Ionization_Penalty_Charging>
0.00176881

> <r_epik_Ionization_Penalty_Neutral>
8.13528e-06

> <r_epik_State_Penalty>
0.00119827

> <r_epik_Charging_Adjusted_Penalty>
0.00296709

> <i_epik_Tot_Q>
1

> <i_epik_Tot_abs_Q>
1

> <r_epik_Metal_State_Penalty>
-0

> <b_epik_Metal_Only>
0

> <s_lp_Force_Field>
OPLS_2005

> <r_lp_Energy>
36.2264

> <b_lp_Chiralities_Consistent>
1

> <s_lp_Variant>
AV-unprocessed.smi:3232-2

> <Gold.Version>
5.8.1

> <Gold.Id.Protein>
6NUR|6NUR_protein|mol2

> <Gold.PLP.Fitness>
43.1998

> <Gold.PLP.PLP>
-32.3612

> <Gold.PLP.part.hbond>
-2.0000

> <Gold.PLP.part.metal>
0.0000

> <Gold.PLP.part.buried>
-4.8961

> <Gold.PLP.part.nonpolar>
-25.4302

> <Gold.PLP.part.repulsive>
0.1421

> <Gold.PLP.ligand.clash>
0.0000

> <Gold.PLP.ligand.torsion>
0.6533

> <Gold.PLP.Chemscore.Hbond>
3.0000

> <Gold.PLP.Chemscore.CHOScore>
1.0000

> <Gold.PLP.Chemscore.Metal>
0.0000

> <Gold.Chemscore.Hbonds>
donor molecule, donor type, donor heavy atom, donor atom, acceptor molecule, acceptor atom, score
      L1  H     3    40       P1 10957  1.72
      L1  H     9    33       P1  7948  0.45
      P1  H 10752 10765       L1    16  0.02
      L1  C    15    38       P1  7948  0.47

> <Gold.PLP.Chemscore.Internal.Correction>
0.1451

> <Gold.Rescore>
     Score         DG    S(hbond)    S(metal)    S(lipo)     H(rot)  DE(clash)    DE(int)     intcor
      9.60     -11.47       1.97        0.00      49.49       2.49       0.04       1.83       ----

> <Gold.Chemscore.Fitness>
9.5969

> <Gold.Chemscore.DG>
-11.4693

> <Gold.Chemscore.ZeroCoef>
-5.4800

> <Gold.Chemscore.Hbond>
1.9666

> <Gold.Chemscore.Metal>
0.0000

> <Gold.Chemscore.Lipo>
49.4930

> <Gold.Chemscore.Internal_Hbond>
0.0000

> <Gold.Chemscore.DEClash>
0.0380

> <Gold.Chemscore.DEInternal>
1.8344

> <Gold.Chemscore.Rot>
2.4882

> <Gold.Chemscore.Internal.Correction>
   9.000000E+99

> <Gold.Chemscore.Hbonds>
donor molecule, donor type, donor heavy atom, donor atom, acceptor molecule, acceptor atom, score
      L1  H     3    40       P1 10957  0.42
      L1  H     9    33       P1  7948  0.02

> <Gold.Chemscore.Hbond.Weighted>
-6.5684

> <Gold.Chemscore.Metal.Weighted>
-0.0000

> <Gold.Chemscore.Lipo.Weighted>
-5.7907

> <Gold.Chemscore.Internal_Hbond.Weighted>
0.0000

> <Gold.Chemscore.DEClash.Weighted>
0.0380

> <Gold.Chemscore.DEInternal.Weighted>
1.8344

> <Gold.Chemscore.Rot.Weighted>
6.3697

> <Gold.Chemscore.Internal.Correction.Weighted>
   9.000000E+99

> <Gold.Protein.RotatedTorsions>
[ 6907 6896 6895 6894 ] final -169.14 input  -60.11 | X-H torsion
[ 7974 7965 7964 7962 ] final   70.24 input  175.53 | X-H torsion
[ 8008 7997 7996 7995 ] final  -39.54 input   59.86 | X-H torsion
[ 10167 10162 10161 10158 ] final -142.03 input  -65.29 | X-H torsion
[ 10718 10713 10712 10709 ] final -147.28 input   66.30 | X-H torsion
[ 10763 10752 10751 10750 ] final  175.75 input  -60.55 | X-H torsion
[ 11005 11000 10999 10996 ] final   87.93 input  -57.11 | X-H torsion

> <Gold.Protein.ActiveResidues>
 VAL166  LYS551  ARG553  GLY616  TRP617  ASP618  TYR619  PRO620  LYS621  CYS622 
 ASP623  PHE694  ASN695  SER759  ASP760  ASP761  ALA762  ILE779  LEU786  VAL792 
 PHE793  MET794  SER795  GLU796  ALA797  LYS798  CYS799  TRP800  GLU811  SER814 

> <Gold.Protein.RotatedAtoms>
  151.4869  133.3533  159.2846 H   0  0  0  0  0  0  0  0  0  0  0  0  # atno 6907 bound_to 6896
  150.8860  134.8260  159.7270 H   0  0  0  0  0  0  0  0  0  0  0  0  # atno 6908 bound_to 6896
  152.4793  134.4773  159.9706 H   0  0  0  0  0  0  0  0  0  0  0  0  # atno 6909 bound_to 6896
  145.7806  139.2886  143.1268 H   0  0  0  0  0  0  0  0  0  0  0  0  # atno 7974 bound_to 7965
  154.4022  140.1549  156.2880 H   0  0  0  0  0  0  0  0  0  0  0  0  # atno 8008 bound_to 7997
  155.8811  140.3444  155.5866 H   0  0  0  0  0  0  0  0  0  0  0  0  # atno 8009 bound_to 7997
  155.7666  140.0825  157.2119 H   0  0  0  0  0  0  0  0  0  0  0  0  # atno 8010 bound_to 7997
  139.8128  143.7680  152.2664 H   0  0  0  0  0  0  0  0  0  0  0  0  # atno 10167 bound_to 10162
  156.4056  130.7956  151.2169 H   0  0  0  0  0  0  0  0  0  0  0  0  # atno 10718 bound_to 10713
  154.4718  135.2771  155.1637 H   0  0  0  0  0  0  0  0  0  0  0  0  # atno 10763 bound_to 10752
  154.3383  135.6175  153.5587 H   0  0  0  0  0  0  0  0  0  0  0  0  # atno 10764 bound_to 10752
  152.9865  135.5782  154.5101 H   0  0  0  0  0  0  0  0  0  0  0  0  # atno 10765 bound_to 10752
  139.8908  134.8454  156.2929 H   0  0  0  0  0  0  0  0  0  0  0  0  # atno 11005 bound_to 11000
  146.0078  140.8463  142.9986 LP  0  0  0  0  0  0  0  0  0  0  0  0  # atno 17320 bound_to 7965
  144.6797  140.2445  143.7339 LP  0  0  0  0  0  0  0  0  0  0  0  0  # atno 17321 bound_to 7965
  139.7834  144.7436  151.0056 LP  0  0  0  0  0  0  0  0  0  0  0  0  # atno 17342 bound_to 10162
  140.7817  143.4518  151.0402 LP  0  0  0  0  0  0  0  0  0  0  0  0  # atno 17343 bound_to 10162
  157.7505  131.0273  150.4001 LP  0  0  0  0  0  0  0  0  0  0  0  0  # atno 17370 bound_to 10713
  156.4289  130.3968  149.6774 LP  0  0  0  0  0  0  0  0  0  0  0  0  # atno 17371 bound_to 10713
  140.9964  133.7177  156.0893 LP  0  0  0  0  0  0  0  0  0  0  0  0  # atno 17394 bound_to 11000
  140.7556  134.3996  157.5534 LP  0  0  0  0  0  0  0  0  0  0  0  0  # atno 17395 bound_to 11000

$$$$
