AV-unprocessed.smi:1644|AV-procd|sdf|6590|dock3
  -GOLD-   22720 7283D 1   1.00000     0.00000
 Structure written by MMmdl.
 50 52  0  0  0  0  0  0  0  0  2 V2000
  145.2162  135.0194  162.3858 C   0  0  0  0  0  0  0  0  0  0  0  0
  146.6707  134.6208  162.1146 C   0  0  0  0  0  0  0  0  0  0  0  0
  146.9289  134.3239  160.6232 C   0  0  0  0  0  0  0  0  0  0  0  0
  146.9958  135.5563  159.6924 C   0  0  2  0  0  0  0  0  0  0  0  0
  147.1723  135.2111  158.2958 N   0  0  0  0  0  0  0  0  0  0  0  0
  148.2693  135.7675  157.7654 C   0  0  0  0  0  0  0  0  0  0  0  0
  148.6311  135.6474  156.5957 O   0  0  0  0  0  0  0  0  0  0  0  0
  148.8923  136.4773  158.7246 N   0  0  0  0  0  0  0  0  0  0  0  0
  150.1309  137.2337  158.5187 C   0  0  0  0  0  0  0  0  0  0  0  0
  149.8596  138.6091  157.8765 C   0  0  1  0  0  0  0  0  0  0  0  0
  149.0461  139.3693  158.7488 O   0  0  0  0  0  0  0  0  0  0  0  0
  151.1642  139.3917  157.6317 C   0  0  0  0  0  0  0  0  0  0  0  0
  150.9263  140.8111  157.3423 N   0  0  0  0  0  0  0  0  0  0  0  0
  150.3865  141.4048  156.2438 C   0  0  0  0  0  0  0  0  0  0  0  0
  150.3881  142.7493  156.4630 N   0  3  0  0  0  0  0  0  0  0  0  0
  150.9378  143.0163  157.7193 C   0  0  0  0  0  0  0  0  0  0  0  0
  151.1540  144.2174  158.3845 C   0  0  0  0  0  0  0  0  0  0  0  0
  151.7425  144.1474  159.6679 C   0  0  0  0  0  0  0  0  0  0  0  0
  151.9931  145.4419  160.4226 C   0  0  0  0  0  0  0  0  0  0  0  0
  152.0943  142.8984  160.2432 C   0  0  0  0  0  0  0  0  0  0  0  0
  152.7297  142.8347  161.6218 C   0  0  0  0  0  0  0  0  0  0  0  0
  151.8645  141.6880  159.5515 C   0  0  0  0  0  0  0  0  0  0  0  0
  151.2845  141.7760  158.2885 C   0  0  0  0  0  0  0  0  0  0  0  0
  148.2285  136.4206  159.8860 C   0  0  0  0  0  0  0  0  0  0  0  0
  148.5301  136.9662  160.9471 O   0  0  0  0  0  0  0  0  0  0  0  0
  145.0603  135.2230  163.4453 H   0  0  0  0  0  0  0  0  0  0  0  0
  144.5287  134.2247  162.0949 H   0  0  0  0  0  0  0  0  0  0  0  0
  144.9451  135.9181  161.8310 H   0  0  0  0  0  0  0  0  0  0  0  0
  147.3238  135.4235  162.4577 H   0  0  0  0  0  0  0  0  0  0  0  0
  146.9150  133.7454  162.7170 H   0  0  0  0  0  0  0  0  0  0  0  0
  147.8678  133.7759  160.5341 H   0  0  0  0  0  0  0  0  0  0  0  0
  146.1579  133.6457  160.2549 H   0  0  0  0  0  0  0  0  0  0  0  0
  146.1023  136.1715  159.8054 H   0  0  0  0  0  0  0  0  0  0  0  0
  146.5229  134.6284  157.7874 H   0  0  0  0  0  0  0  0  0  0  0  0
  150.6966  137.3377  159.4468 H   0  0  0  0  0  0  0  0  0  0  0  0
  150.7731  136.6438  157.8622 H   0  0  0  0  0  0  0  0  0  0  0  0
  149.3344  138.4860  156.9286 H   0  0  0  0  0  0  0  0  0  0  0  0
  149.2492  140.2846  158.6285 H   0  0  0  0  0  0  0  0  0  0  0  0
  151.8153  139.3343  158.5054 H   0  0  0  0  0  0  0  0  0  0  0  0
  151.7252  138.9659  156.7988 H   0  0  0  0  0  0  0  0  0  0  0  0
  150.0266  140.9007  155.3584 H   0  0  0  0  0  0  0  0  0  0  0  0
  150.8851  145.1642  157.9395 H   0  0  0  0  0  0  0  0  0  0  0  0
  151.4571  145.4422  161.3720 H   0  0  0  0  0  0  0  0  0  0  0  0
  151.6584  146.3086  159.8518 H   0  0  0  0  0  0  0  0  0  0  0  0
  153.0569  145.5666  160.6250 H   0  0  0  0  0  0  0  0  0  0  0  0
  152.9441  141.8066  161.9153 H   0  0  0  0  0  0  0  0  0  0  0  0
  152.0632  143.2627  162.3707 H   0  0  0  0  0  0  0  0  0  0  0  0
  153.6695  143.3872  161.6365 H   0  0  0  0  0  0  0  0  0  0  0  0
  152.1323  140.7366  159.9876 H   0  0  0  0  0  0  0  0  0  0  0  0
  150.0408  143.4315  155.8012 H   0  0  0  0  0  0  0  0  0  0  0  0
  1  2  1  0  0  0  0
  1 26  1  0  0  0  0
  1 27  1  0  0  0  0
  1 28  1  0  0  0  0
  2  3  1  0  0  0  0
  2 29  1  0  0  0  0
  2 30  1  0  0  0  0
  3  4  1  0  0  0  0
  3 31  1  0  0  0  0
  3 32  1  0  0  0  0
  4 24  1  0  0  0  0
  4  5  1  0  0  0  0
  4 33  1  0  0  0  0
  5  6  1  0  0  0  0
  5 34  1  0  0  0  0
  6  7  2  0  0  0  0
  6  8  1  0  0  0  0
  8  9  1  0  0  0  0
  8 24  1  0  0  0  0
  9 10  1  0  0  0  0
  9 35  1  0  0  0  0
  9 36  1  0  0  0  0
 10 11  1  0  0  0  0
 10 12  1  0  0  0  0
 10 37  1  0  0  0  0
 11 38  1  0  0  0  0
 12 13  1  0  0  0  0
 12 39  1  0  0  0  0
 12 40  1  0  0  0  0
 13 23  1  0  0  0  0
 13 14  1  0  0  0  0
 14 15  2  0  0  0  0
 14 41  1  0  0  0  0
 15 16  1  0  0  0  0
 15 50  1  0  0  0  0
 16 23  2  0  0  0  0
 16 17  1  0  0  0  0
 17 18  2  0  0  0  0
 17 42  1  0  0  0  0
 18 19  1  0  0  0  0
 18 20  1  0  0  0  0
 19 43  1  0  0  0  0
 19 44  1  0  0  0  0
 19 45  1  0  0  0  0
 20 21  1  0  0  0  0
 20 22  2  0  0  0  0
 21 46  1  0  0  0  0
 21 47  1  0  0  0  0
 21 48  1  0  0  0  0
 22 23  1  0  0  0  0
 22 49  1  0  0  0  0
 24 25  2  0  0  0  0
M  CHG  1  15   1
M  END
> <s_m_source_file>
AV-unprocessed.smi

> <i_m_source_file_index>
1644

> <i_lp_mmshare_version>
43012

> <i_f3d_flags>
0

> <s_epik_input>
W0NIM11bQ0gyXVtDSDJdW0NAQEhdMVtOSF1DKD1PKU4oQzE9TylbQ0gyXVtDQEhdKFtPSF0pW0NIMl1uKFtjSF1uMiljKGMyMylbY0hdYyhbQ0gzXSljKFtjSF0zKVtDSDNd

> <s_epik_cmdline>
J2VwaWtfcHl0aG9uJywgJy1waCcsICc3LjAnLCAnLXRuJywgJzgnLCAnLW1hJywgJzIwMCcsICctbWV0YWxfYmluZGluZycsICctaW1hZScsICc8aW5maWxlLm1hZT4nLCAnLW9tYWUnLCAnPG91dGZpbGUubWFlPic=

> <r_lp_tautomer_probability>
1

> <r_epik_Ionization_Penalty>
1.06742

> <r_epik_Ionization_Penalty_Charging>
1.06736

> <r_epik_Ionization_Penalty_Neutral>
5.56132e-05

> <r_epik_State_Penalty>
1.12163

> <r_epik_Charging_Adjusted_Penalty>
2.18899

> <i_epik_Tot_Q>
1

> <i_epik_Tot_abs_Q>
1

> <r_epik_Metal_State_Penalty>
1.26636

> <b_epik_Metal_Only>
0

> <s_lp_Force_Field>
OPLS_2005

> <r_lp_Energy>
29.5634

> <b_lp_Chiralities_Consistent>
1

> <s_lp_Variant>
AV-unprocessed.smi:1644-7

> <Gold.Version>
5.8.1

> <Gold.Id.Protein>
6NUR|6NUR_protein|mol2

> <Gold.PLP.Fitness>
56.1621

> <Gold.PLP.PLP>
-48.8685

> <Gold.PLP.part.hbond>
-3.6219

> <Gold.PLP.part.metal>
0.0000

> <Gold.PLP.part.buried>
-4.9903

> <Gold.PLP.part.nonpolar>
-42.1310

> <Gold.PLP.part.repulsive>
0.1098

> <Gold.PLP.ligand.clash>
0.0000

> <Gold.PLP.ligand.torsion>
0.5912

> <Gold.PLP.Chemscore.Hbond>
2.7920

> <Gold.PLP.Chemscore.CHOScore>
0.0000

> <Gold.PLP.Chemscore.Metal>
0.0000

> <Gold.Chemscore.Hbonds>
donor molecule, donor type, donor heavy atom, donor atom, acceptor molecule, acceptor atom, score
      L1  H    15    50       P1  8028  1.70
      P1  H  6931  6943       L1    25  1.00

> <Gold.PLP.Chemscore.Internal.Correction>
0.1001

> <Gold.Rescore>
     Score         DG    S(hbond)    S(metal)    S(lipo)     H(rot)  DE(clash)    DE(int)     intcor
     17.08     -18.87       1.95        0.00     119.97       2.80       1.16       0.63       ----

> <Gold.Chemscore.Fitness>
17.0807

> <Gold.Chemscore.DG>
-18.8748

> <Gold.Chemscore.ZeroCoef>
-5.4800

> <Gold.Chemscore.Hbond>
1.9511

> <Gold.Chemscore.Metal>
0.0000

> <Gold.Chemscore.Lipo>
119.9678

> <Gold.Chemscore.Internal_Hbond>
0.0000

> <Gold.Chemscore.DEClash>
1.1649

> <Gold.Chemscore.DEInternal>
0.6292

> <Gold.Chemscore.Rot>
2.7961

> <Gold.Chemscore.Internal.Correction>
   9.000000E+99

> <Gold.Chemscore.Hbonds>
donor molecule, donor type, donor heavy atom, donor atom, acceptor molecule, acceptor atom, score
      L1  H    15    50       P1  8028  0.83
      P1  H  6931  6943       L1    25  0.95
      P1  H  6934  6947       L1    25  0.01

> <Gold.Chemscore.Hbond.Weighted>
-6.5166

> <Gold.Chemscore.Metal.Weighted>
-0.0000

> <Gold.Chemscore.Lipo.Weighted>
-14.0362

> <Gold.Chemscore.Internal_Hbond.Weighted>
0.0000

> <Gold.Chemscore.DEClash.Weighted>
1.1649

> <Gold.Chemscore.DEInternal.Weighted>
0.6292

> <Gold.Chemscore.Rot.Weighted>
7.1580

> <Gold.Chemscore.Internal.Correction.Weighted>
   9.000000E+99

> <Gold.Protein.RotatedTorsions>
[ 6907 6896 6895 6894 ] final  102.06 input  -60.11 | X-H torsion
[ 7974 7965 7964 7962 ] final   39.37 input  175.53 | X-H torsion
[ 8008 7997 7996 7995 ] final    1.03 input   59.86 | X-H torsion
[ 10167 10162 10161 10158 ] final -159.61 input  -65.29 | X-H torsion
[ 10718 10713 10712 10709 ] final  -95.16 input   66.30 | X-H torsion
[ 10763 10752 10751 10750 ] final   26.25 input  -60.55 | X-H torsion
[ 11005 11000 10999 10996 ] final -150.22 input  -57.11 | X-H torsion

> <Gold.Protein.ActiveResidues>
 VAL166  LYS551  ARG553  GLY616  TRP617  ASP618  TYR619  PRO620  LYS621  CYS622 
 ASP623  PHE694  ASN695  SER759  ASP760  ASP761  ALA762  ILE779  LEU786  VAL792 
 PHE793  MET794  SER795  GLU796  ALA797  LYS798  CYS799  TRP800  GLU811  SER814 

> <Gold.Protein.RotatedAtoms>
  152.5334  134.0032  159.7904 H   0  0  0  0  0  0  0  0  0  0  0  0  # atno 6907 bound_to 6896
  151.0247  133.5836  159.2674 H   0  0  0  0  0  0  0  0  0  0  0  0  # atno 6908 bound_to 6896
  151.2863  135.0735  159.9241 H   0  0  0  0  0  0  0  0  0  0  0  0  # atno 6909 bound_to 6896
  146.0990  139.5660  142.9427 H   0  0  0  0  0  0  0  0  0  0  0  0  # atno 7974 bound_to 7965
  154.6750  140.2620  155.6967 H   0  0  0  0  0  0  0  0  0  0  0  0  # atno 8008 bound_to 7997
  156.2674  140.2821  156.1195 H   0  0  0  0  0  0  0  0  0  0  0  0  # atno 8009 bound_to 7997
  155.1113  140.0375  157.2715 H   0  0  0  0  0  0  0  0  0  0  0  0  # atno 8010 bound_to 7997
  139.6602  143.9927  152.2220 H   0  0  0  0  0  0  0  0  0  0  0  0  # atno 10167 bound_to 10162
  156.0039  130.5098  150.6036 H   0  0  0  0  0  0  0  0  0  0  0  0  # atno 10718 bound_to 10713
  153.0635  135.6564  154.0407 H   0  0  0  0  0  0  0  0  0  0  0  0  # atno 10763 bound_to 10752
  154.0069  135.2932  155.3398 H   0  0  0  0  0  0  0  0  0  0  0  0  # atno 10764 bound_to 10752
  154.6984  135.5254  153.8560 H   0  0  0  0  0  0  0  0  0  0  0  0  # atno 10765 bound_to 10752
  140.7425  134.3498  157.5144 H   0  0  0  0  0  0  0  0  0  0  0  0  # atno 11005 bound_to 11000
  145.5892  141.0372  143.2079 LP  0  0  0  0  0  0  0  0  0  0  0  0  # atno 17320 bound_to 7965
  144.7417  139.7430  143.7308 LP  0  0  0  0  0  0  0  0  0  0  0  0  # atno 17321 bound_to 7965
  139.9664  144.6523  150.8031 LP  0  0  0  0  0  0  0  0  0  0  0  0  # atno 17342 bound_to 10162
  140.7576  143.3091  151.2890 LP  0  0  0  0  0  0  0  0  0  0  0  0  # atno 17343 bound_to 10162
  157.3880  131.0791  151.1419 LP  0  0  0  0  0  0  0  0  0  0  0  0  # atno 17370 bound_to 10713
  157.2119  130.6442  149.5777 LP  0  0  0  0  0  0  0  0  0  0  0  0  # atno 17371 bound_to 10713
  139.8803  134.9090  156.2980 LP  0  0  0  0  0  0  0  0  0  0  0  0  # atno 17394 bound_to 11000
  140.9824  133.7259  156.0691 LP  0  0  0  0  0  0  0  0  0  0  0  0  # atno 17395 bound_to 11000

$$$$
