AV-unprocessed.smi:1262|AV-procd|sdf|5309|dock4
  -GOLD-   22720 4433D 1   1.00000     0.00000
 Structure written by MMmdl.
 34 35  0  0  0  0  0  0  0  0  1 V2000
  153.7815  141.4450  160.5487 C   0  0  0  0  0  0  0  0  0  0  0  0
  152.8512  142.1340  159.5945 C   0  0  0  0  0  0  0  0  0  0  0  0
  152.1207  141.5611  158.5131 C   0  0  0  0  0  0  0  0  0  0  0  0
  151.4500  142.6372  157.9991 C   0  0  0  0  0  0  0  0  0  0  0  0
  150.5928  142.6875  156.9450 N   0  0  0  0  0  0  0  0  0  0  0  0
  150.2257  141.6980  156.1119 C   0  0  0  0  0  0  0  0  0  0  0  0
  150.6225  140.5337  156.1663 O   0  0  0  0  0  0  0  0  0  0  0  0
  149.3565  142.1390  155.1913 N   0  0  0  0  0  0  0  0  0  0  0  0
  148.7702  141.3234  154.1341 C   0  0  0  0  0  0  0  0  0  0  0  0
  147.2508  141.4684  154.0944 C   0  0  0  0  0  0  0  0  0  0  0  0
  146.6190  142.8421  153.8213 C   0  0  0  0  0  0  0  0  0  0  0  0
  145.4905  142.4631  154.7841 C   0  0  0  0  0  0  0  0  0  0  0  0
  146.4529  141.4477  155.4064 C   0  0  0  0  0  0  0  0  0  0  0  0
  151.7727  143.7555  158.7353 N   0  0  0  0  0  0  0  0  0  0  0  0
  151.3201  145.1238  158.5780 C   0  0  0  0  0  0  0  0  0  0  0  0
  152.6398  143.4392  159.7213 N   0  0  0  0  0  0  0  0  0  0  0  0
  153.9019  140.3927  160.2907 H   0  0  0  0  0  0  0  0  0  0  0  0
  153.4031  141.4949  161.5698 H   0  0  0  0  0  0  0  0  0  0  0  0
  154.7701  141.9043  160.5352 H   0  0  0  0  0  0  0  0  0  0  0  0
  152.1066  140.5319  158.1873 H   0  0  0  0  0  0  0  0  0  0  0  0
  150.1788  143.5914  156.7708 H   0  0  0  0  0  0  0  0  0  0  0  0
  149.0841  143.1106  155.2187 H   0  0  0  0  0  0  0  0  0  0  0  0
  149.2084  141.5884  153.1706 H   0  0  0  0  0  0  0  0  0  0  0  0
  149.0477  140.2854  154.3185 H   0  0  0  0  0  0  0  0  0  0  0  0
  146.8083  140.7385  153.4128 H   0  0  0  0  0  0  0  0  0  0  0  0
  147.2271  143.6699  154.1902 H   0  0  0  0  0  0  0  0  0  0  0  0
  146.3063  143.0021  152.7890 H   0  0  0  0  0  0  0  0  0  0  0  0
  145.1724  143.2624  155.4541 H   0  0  0  0  0  0  0  0  0  0  0  0
  144.6446  141.9921  154.2808 H   0  0  0  0  0  0  0  0  0  0  0  0
  146.0050  140.4843  155.6522 H   0  0  0  0  0  0  0  0  0  0  0  0
  147.0102  141.8589  156.2498 H   0  0  0  0  0  0  0  0  0  0  0  0
  150.2312  145.1568  158.6222 H   0  0  0  0  0  0  0  0  0  0  0  0
  151.6508  145.5091  157.6133 H   0  0  0  0  0  0  0  0  0  0  0  0
  151.7245  145.7565  159.3692 H   0  0  0  0  0  0  0  0  0  0  0  0
  1  2  1  0  0  0  0
  1 17  1  0  0  0  0
  1 18  1  0  0  0  0
  1 19  1  0  0  0  0
  2 16  2  0  0  0  0
  2  3  1  0  0  0  0
  3  4  2  0  0  0  0
  3 20  1  0  0  0  0
  4  5  1  0  0  0  0
  4 14  1  0  0  0  0
  5  6  1  0  0  0  0
  5 21  1  0  0  0  0
  6  7  2  0  0  0  0
  6  8  1  0  0  0  0
  8  9  1  0  0  0  0
  8 22  1  0  0  0  0
  9 10  1  0  0  0  0
  9 23  1  0  0  0  0
  9 24  1  0  0  0  0
 10 13  1  0  0  0  0
 10 11  1  0  0  0  0
 10 25  1  0  0  0  0
 11 12  1  0  0  0  0
 11 26  1  0  0  0  0
 11 27  1  0  0  0  0
 12 13  1  0  0  0  0
 12 28  1  0  0  0  0
 12 29  1  0  0  0  0
 13 30  1  0  0  0  0
 13 31  1  0  0  0  0
 14 15  1  0  0  0  0
 14 16  1  0  0  0  0
 15 32  1  0  0  0  0
 15 33  1  0  0  0  0
 15 34  1  0  0  0  0
M  END
> <s_m_source_file>
AV-unprocessed.smi

> <i_m_source_file_index>
1262

> <i_lp_mmshare_version>
43012

> <i_f3d_flags>
0

> <s_epik_input>
W0NIM11jMVtjSF1jKG4objEpW0NIM10pW05IXUMoPU8pW05IXVtDSDJdW0NIXTJbQ0gyXVtDSDJdW0NIMl0y

> <s_epik_cmdline>
J2VwaWtfcHl0aG9uJywgJy1waCcsICc3LjAnLCAnLXRuJywgJzgnLCAnLW1hJywgJzIwMCcsICctbWV0YWxfYmluZGluZycsICctaW1hZScsICc8aW5maWxlLm1hZT4nLCAnLW9tYWUnLCAnPG91dGZpbGUubWFlPic=

> <r_lp_tautomer_probability>
1

> <r_epik_Ionization_Penalty>
9.92667e-05

> <r_epik_Ionization_Penalty_Charging>
0

> <r_epik_Ionization_Penalty_Neutral>
9.92667e-05

> <r_epik_State_Penalty>
-0

> <r_epik_Charging_Adjusted_Penalty>
0

> <i_epik_Tot_Q>
0

> <i_epik_Tot_abs_Q>
0

> <r_epik_Metal_State_Penalty>
-0

> <b_epik_Metal_Only>
0

> <s_lp_Force_Field>
OPLS_2005

> <r_lp_Energy>
13.5599

> <b_lp_Chiralities_Consistent>
1

> <s_lp_Variant>
AV-unprocessed.smi:1262-1

> <Gold.Version>
5.8.1

> <Gold.Id.Protein>
6NUR|6NUR_protein|mol2

> <Gold.PLP.Fitness>
43.9753

> <Gold.PLP.PLP>
-38.2024

> <Gold.PLP.part.hbond>
-2.0000

> <Gold.PLP.part.metal>
0.0000

> <Gold.PLP.part.buried>
-6.1497

> <Gold.PLP.part.nonpolar>
-30.3206

> <Gold.PLP.part.repulsive>
0.2547

> <Gold.PLP.ligand.clash>
0.0000

> <Gold.PLP.ligand.torsion>
0.1061

> <Gold.PLP.Chemscore.Hbond>
1.9760

> <Gold.PLP.Chemscore.CHOScore>
0.0000

> <Gold.PLP.Chemscore.Metal>
0.0000

> <Gold.Chemscore.Hbonds>
donor molecule, donor type, donor heavy atom, donor atom, acceptor molecule, acceptor atom, score
      L1  H     5    21       P1  8028  0.97
      L1  H     8    22       P1  8028  1.00

> <Gold.PLP.Chemscore.Internal.Correction>
0.0572

> <Gold.Rescore>
     Score         DG    S(hbond)    S(metal)    S(lipo)     H(rot)  DE(clash)    DE(int)     intcor
     16.13     -17.42       1.97        0.00      72.20       1.21       0.08       1.21       ----

> <Gold.Chemscore.Fitness>
16.1328

> <Gold.Chemscore.DG>
-17.4233

> <Gold.Chemscore.ZeroCoef>
-5.4800

> <Gold.Chemscore.Hbond>
1.9745

> <Gold.Chemscore.Metal>
0.0000

> <Gold.Chemscore.Lipo>
72.1964

> <Gold.Chemscore.Internal_Hbond>
0.0000

> <Gold.Chemscore.DEClash>
0.0839

> <Gold.Chemscore.DEInternal>
1.2066

> <Gold.Chemscore.Rot>
1.2103

> <Gold.Chemscore.Internal.Correction>
   9.000000E+99

> <Gold.Chemscore.Hbonds>
donor molecule, donor type, donor heavy atom, donor atom, acceptor molecule, acceptor atom, score
      L1  H     5    21       P1  8028  0.86
      L1  H     8    22       P1  8028  1.00

> <Gold.Chemscore.Hbond.Weighted>
-6.5947

> <Gold.Chemscore.Metal.Weighted>
-0.0000

> <Gold.Chemscore.Lipo.Weighted>
-8.4470

> <Gold.Chemscore.Internal_Hbond.Weighted>
0.0000

> <Gold.Chemscore.DEClash.Weighted>
0.0839

> <Gold.Chemscore.DEInternal.Weighted>
1.2066

> <Gold.Chemscore.Rot.Weighted>
3.0984

> <Gold.Chemscore.Internal.Correction.Weighted>
   9.000000E+99

> <Gold.Protein.RotatedTorsions>
[ 6907 6896 6895 6894 ] final  -56.80 input  -60.11 | X-H torsion
[ 7974 7965 7964 7962 ] final    1.32 input  175.53 | X-H torsion
[ 8008 7997 7996 7995 ] final  -47.90 input   59.86 | X-H torsion
[ 10167 10162 10161 10158 ] final   82.07 input  -65.29 | X-H torsion
[ 10718 10713 10712 10709 ] final   61.53 input   66.30 | X-H torsion
[ 10763 10752 10751 10750 ] final  -95.84 input  -60.55 | X-H torsion
[ 11005 11000 10999 10996 ] final  -52.40 input  -57.11 | X-H torsion

> <Gold.Protein.ActiveResidues>
 VAL166  LYS551  ARG553  GLY616  TRP617  ASP618  TYR619  PRO620  LYS621  CYS622 
 ASP623  PHE694  ASN695  SER759  ASP760  ASP761  ALA762  ILE779  LEU786  VAL792 
 PHE793  MET794  SER795  GLU796  ALA797  LYS798  CYS799  TRP800  GLU811  SER814 

> <Gold.Protein.RotatedAtoms>
  150.8138  134.7308  159.6711 H   0  0  0  0  0  0  0  0  0  0  0  0  # atno 6907 bound_to 6896
  152.4257  134.5869  159.9973 H   0  0  0  0  0  0  0  0  0  0  0  0  # atno 6908 bound_to 6896
  151.6072  133.3313  159.3096 H   0  0  0  0  0  0  0  0  0  0  0  0  # atno 6909 bound_to 6896
  146.2439  140.1005  142.8348 H   0  0  0  0  0  0  0  0  0  0  0  0  # atno 7974 bound_to 7965
  154.4022  140.1335  156.4250 H   0  0  0  0  0  0  0  0  0  0  0  0  # atno 8008 bound_to 7997
  155.7606  140.3486  155.5176 H   0  0  0  0  0  0  0  0  0  0  0  0  # atno 8009 bound_to 7997
  155.8863  140.0995  157.1440 H   0  0  0  0  0  0  0  0  0  0  0  0  # atno 8010 bound_to 7997
  139.9327  144.6142  150.8329 H   0  0  0  0  0  0  0  0  0  0  0  0  # atno 10167 bound_to 10162
  157.5835  130.9000  149.9473 H   0  0  0  0  0  0  0  0  0  0  0  0  # atno 10718 bound_to 10713
  154.7185  135.5105  153.8775 H   0  0  0  0  0  0  0  0  0  0  0  0  # atno 10763 bound_to 10752
  153.0842  135.6640  153.9992 H   0  0  0  0  0  0  0  0  0  0  0  0  # atno 10764 bound_to 10752
  153.9820  135.3028  155.3399 H   0  0  0  0  0  0  0  0  0  0  0  0  # atno 10765 bound_to 10752
  141.0922  133.6630  156.4018 H   0  0  0  0  0  0  0  0  0  0  0  0  # atno 11005 bound_to 11000
  145.0573  140.9062  143.4960 LP  0  0  0  0  0  0  0  0  0  0  0  0  # atno 17320 bound_to 7965
  145.1114  139.2755  143.5635 LP  0  0  0  0  0  0  0  0  0  0  0  0  # atno 17321 bound_to 7965
  140.7633  143.3219  151.2602 LP  0  0  0  0  0  0  0  0  0  0  0  0  # atno 17342 bound_to 10162
  139.6769  143.9922  152.2786 LP  0  0  0  0  0  0  0  0  0  0  0  0  # atno 17343 bound_to 10162
  156.0882  130.3666  150.0446 LP  0  0  0  0  0  0  0  0  0  0  0  0  # atno 17370 bound_to 10713
  156.8582  130.9482  151.3620 LP  0  0  0  0  0  0  0  0  0  0  0  0  # atno 17371 bound_to 10713
  140.5225  134.6290  157.5323 LP  0  0  0  0  0  0  0  0  0  0  0  0  # atno 17394 bound_to 11000
  139.9750  134.7230  155.9967 LP  0  0  0  0  0  0  0  0  0  0  0  0  # atno 17395 bound_to 11000

$$$$
