AV-unprocessed.smi:3042|AV-procd|sdf|11599|dock10
  -GOLD-   2272016573D 1   1.00000     0.00000
 Structure written by MMmdl.
 33 34  0  0  0  0  0  0  0  0  2 V2000
  148.3580  138.9387  152.9464 N   0  3  0  0  0  0  0  0  0  0  0  0
  148.5968  139.2609  154.3653 C   0  0  0  0  0  0  0  0  0  0  0  0
  149.1984  140.6782  154.5492 C   0  0  2  0  0  0  0  0  0  0  0  0
  150.0899  140.6756  155.7906 C   0  0  0  0  0  0  0  0  0  0  0  0
  149.8688  141.5753  156.8570 C   0  0  0  0  0  0  0  0  0  0  0  0
  150.7161  141.5214  157.9799 C   0  0  0  0  0  0  0  0  0  0  0  0
  151.7559  140.5709  157.9907 C   0  0  0  0  0  0  0  0  0  0  0  0
  151.9785  139.7058  156.9780 N   0  0  0  0  0  0  0  0  0  0  0  0
  151.1628  139.7644  155.9042 C   0  0  0  0  0  0  0  0  0  0  0  0
  148.1976  141.7644  154.6049 N   0  0  0  0  0  0  0  0  0  0  0  0
  147.5504  141.9807  153.3052 C   0  0  0  0  0  0  0  0  0  0  0  0
  146.5065  143.1094  153.3460 C   0  0  0  0  0  0  0  0  0  0  0  0
  145.5291  142.8160  154.3358 O   0  0  0  0  0  0  0  0  0  0  0  0
  146.1000  142.6575  155.6279 C   0  0  0  0  0  0  0  0  0  0  0  0
  147.1467  141.5297  155.5995 C   0  0  0  0  0  0  0  0  0  0  0  0
  148.9093  139.5517  152.3631 H   0  0  0  0  0  0  0  0  0  0  0  0
  147.3780  139.0642  152.7359 H   0  0  0  0  0  0  0  0  0  0  0  0
  147.6325  139.1672  154.8623 H   0  0  0  0  0  0  0  0  0  0  0  0
  149.2537  138.5027  154.7929 H   0  0  0  0  0  0  0  0  0  0  0  0
  149.8448  140.8652  153.6899 H   0  0  0  0  0  0  0  0  0  0  0  0
  149.0634  142.2940  156.8163 H   0  0  0  0  0  0  0  0  0  0  0  0
  150.5741  142.1938  158.8132 H   0  0  0  0  0  0  0  0  0  0  0  0
  152.4250  140.5028  158.8355 H   0  0  0  0  0  0  0  0  0  0  0  0
  151.3700  139.0577  155.1141 H   0  0  0  0  0  0  0  0  0  0  0  0
  148.2882  142.2324  152.5438 H   0  0  0  0  0  0  0  0  0  0  0  0
  147.0681  141.0591  152.9758 H   0  0  0  0  0  0  0  0  0  0  0  0
  146.9803  144.0686  153.5610 H   0  0  0  0  0  0  0  0  0  0  0  0
  146.0144  143.2044  152.3780 H   0  0  0  0  0  0  0  0  0  0  0  0
  146.5523  143.5964  155.9520 H   0  0  0  0  0  0  0  0  0  0  0  0
  145.3088  142.4219  156.3396 H   0  0  0  0  0  0  0  0  0  0  0  0
  146.6503  140.5794  155.3973 H   0  0  0  0  0  0  0  0  0  0  0  0
  147.5726  141.4602  156.5988 H   0  0  0  0  0  0  0  0  0  0  0  0
  148.6196  137.9795  152.7689 H   0  0  0  0  0  0  0  0  0  0  0  0
  1  2  1  0  0  0  0
  1 16  1  0  0  0  0
  1 17  1  0  0  0  0
  1 33  1  0  0  0  0
  2  3  1  0  0  0  0
  2 18  1  0  0  0  0
  2 19  1  0  0  0  0
  3  4  1  0  0  0  0
  3 10  1  0  0  0  0
  3 20  1  0  0  0  0
  4  9  1  0  0  0  0
  4  5  2  0  0  0  0
  5  6  1  0  0  0  0
  5 21  1  0  0  0  0
  6  7  2  0  0  0  0
  6 22  1  0  0  0  0
  7  8  1  0  0  0  0
  7 23  1  0  0  0  0
  8  9  2  0  0  0  0
  9 24  1  0  0  0  0
 10 15  1  0  0  0  0
 10 11  1  0  0  0  0
 11 12  1  0  0  0  0
 11 25  1  0  0  0  0
 11 26  1  0  0  0  0
 12 13  1  0  0  0  0
 12 27  1  0  0  0  0
 12 28  1  0  0  0  0
 13 14  1  0  0  0  0
 14 15  1  0  0  0  0
 14 29  1  0  0  0  0
 14 30  1  0  0  0  0
 15 31  1  0  0  0  0
 15 32  1  0  0  0  0
M  CHG  1   1   1
M  END
> <s_m_source_file>
AV-unprocessed.smi

> <i_m_source_file_index>
3042

> <i_lp_mmshare_version>
43012

> <i_f3d_flags>
0

> <s_epik_input>
W0NIMl0xW0NIMl1PW0NIMl1bQ0gyXU4xW0NASF0oW0NIMl1bTkgyXSljMltjSF1bY0hdW2NIXW5bY0hdMg==

> <s_epik_cmdline>
J2VwaWtfcHl0aG9uJywgJy1waCcsICc3LjAnLCAnLXRuJywgJzgnLCAnLW1hJywgJzIwMCcsICctbWV0YWxfYmluZGluZycsICctaW1hZScsICc8aW5maWxlLm1hZT4nLCAnLW9tYWUnLCAnPG91dGZpbGUubWFlPic=

> <r_epik_Ionization_Penalty>
0.0112597

> <r_epik_Ionization_Penalty_Charging>
0.00794922

> <r_epik_Ionization_Penalty_Neutral>
0.00331052

> <r_epik_State_Penalty>
0.00596555

> <r_epik_Charging_Adjusted_Penalty>
0.0139148

> <i_epik_Tot_Q>
1

> <i_epik_Tot_abs_Q>
1

> <r_epik_Metal_State_Penalty>
0.00603286

> <b_epik_Metal_Only>
0

> <s_lp_Force_Field>
OPLS_2005

> <r_lp_Energy>
28.2789

> <b_lp_Chiralities_Consistent>
1

> <s_lp_Variant>
AV-unprocessed.smi:3042-1

> <Gold.Version>
5.8.1

> <Gold.Id.Protein>
6NUR|6NUR_protein|mol2

> <Gold.PLP.Fitness>
38.9566

> <Gold.PLP.PLP>
-27.8747

> <Gold.PLP.part.hbond>
-2.8499

> <Gold.PLP.part.metal>
0.0000

> <Gold.PLP.part.buried>
-5.3526

> <Gold.PLP.part.nonpolar>
-20.1857

> <Gold.PLP.part.repulsive>
0.3935

> <Gold.PLP.ligand.clash>
0.0402

> <Gold.PLP.ligand.torsion>
0.4746

> <Gold.PLP.Chemscore.Hbond>
4.0000

> <Gold.PLP.Chemscore.CHOScore>
0.0000

> <Gold.PLP.Chemscore.Metal>
0.0000

> <Gold.Chemscore.Hbonds>
donor molecule, donor type, donor heavy atom, donor atom, acceptor molecule, acceptor atom, score
      L1  H     1    16       P1  7957  0.84
      L1  H     1    33       P1  7948  2.00

> <Gold.PLP.Chemscore.Internal.Correction>
0.0712

> <Gold.Rescore>
     Score         DG    S(hbond)    S(metal)    S(lipo)     H(rot)  DE(clash)    DE(int)     intcor
     16.04     -17.51       2.58        0.00      61.57       1.48       0.02       1.45       ----

> <Gold.Chemscore.Fitness>
16.0410

> <Gold.Chemscore.DG>
-17.5087

> <Gold.Chemscore.ZeroCoef>
-5.4800

> <Gold.Chemscore.Hbond>
2.5827

> <Gold.Chemscore.Metal>
0.0000

> <Gold.Chemscore.Lipo>
61.5651

> <Gold.Chemscore.Internal_Hbond>
0.0000

> <Gold.Chemscore.DEClash>
0.0158

> <Gold.Chemscore.DEInternal>
1.4519

> <Gold.Chemscore.Rot>
1.4846

> <Gold.Chemscore.Internal.Correction>
   9.000000E+99

> <Gold.Chemscore.Hbonds>
donor molecule, donor type, donor heavy atom, donor atom, acceptor molecule, acceptor atom, score
      L1  H     1    16       P1  7957  0.82
      L1  H     1    33       P1  7948  0.98

> <Gold.Chemscore.Hbond.Weighted>
-8.6261

> <Gold.Chemscore.Metal.Weighted>
-0.0000

> <Gold.Chemscore.Lipo.Weighted>
-7.2031

> <Gold.Chemscore.Internal_Hbond.Weighted>
0.0000

> <Gold.Chemscore.DEClash.Weighted>
0.0158

> <Gold.Chemscore.DEInternal.Weighted>
1.4519

> <Gold.Chemscore.Rot.Weighted>
3.8005

> <Gold.Chemscore.Internal.Correction.Weighted>
   9.000000E+99

> <Gold.Protein.RotatedTorsions>
[ 6907 6896 6895 6894 ] final  170.02 input  -60.11 | X-H torsion
[ 7974 7965 7964 7962 ] final  120.69 input  175.53 | X-H torsion
[ 8008 7997 7996 7995 ] final -152.32 input   59.86 | X-H torsion
[ 10167 10162 10161 10158 ] final -173.31 input  -65.29 | X-H torsion
[ 10718 10713 10712 10709 ] final   55.26 input   66.30 | X-H torsion
[ 10763 10752 10751 10750 ] final   11.55 input  -60.55 | X-H torsion
[ 11005 11000 10999 10996 ] final  -71.50 input  -57.11 | X-H torsion

> <Gold.Protein.ActiveResidues>
 VAL166  LYS551  ARG553  GLY616  TRP617  ASP618  TYR619  PRO620  LYS621  CYS622 
 ASP623  PHE694  ASN695  SER759  ASP760  ASP761  ALA762  ILE779  LEU786  VAL792 
 PHE793  MET794  SER795  GLU796  ALA797  LYS798  CYS799  TRP800  GLU811  SER814 

> <Gold.Protein.RotatedAtoms>
  151.8227  133.3397  159.3588 H   0  0  0  0  0  0  0  0  0  0  0  0  # atno 6907 bound_to 6896
  150.7289  134.5558  159.5827 H   0  0  0  0  0  0  0  0  0  0  0  0  # atno 6908 bound_to 6896
  152.2994  134.7630  160.0412 H   0  0  0  0  0  0  0  0  0  0  0  0  # atno 6909 bound_to 6896
  145.1282  139.3344  143.4679 H   0  0  0  0  0  0  0  0  0  0  0  0  # atno 7974 bound_to 7965
  155.6532  140.0714  157.2579 H   0  0  0  0  0  0  0  0  0  0  0  0  # atno 8008 bound_to 7997
  154.4158  140.1729  156.1747 H   0  0  0  0  0  0  0  0  0  0  0  0  # atno 8009 bound_to 7997
  155.9759  140.3358  155.6621 H   0  0  0  0  0  0  0  0  0  0  0  0  # atno 8010 bound_to 7997
  139.5695  144.1675  152.1363 H   0  0  0  0  0  0  0  0  0  0  0  0  # atno 10167 bound_to 10162
  157.5329  130.8643  149.8713 H   0  0  0  0  0  0  0  0  0  0  0  0  # atno 10718 bound_to 10713
  153.1914  135.6843  153.8347 H   0  0  0  0  0  0  0  0  0  0  0  0  # atno 10763 bound_to 10752
  153.7645  135.3205  155.3343 H   0  0  0  0  0  0  0  0  0  0  0  0  # atno 10764 bound_to 10752
  154.8119  135.4711  154.0639 H   0  0  0  0  0  0  0  0  0  0  0  0  # atno 10765 bound_to 10752
  141.1593  133.6819  156.6916 H   0  0  0  0  0  0  0  0  0  0  0  0  # atno 11005 bound_to 11000
  146.3516  140.1270  142.8598 LP  0  0  0  0  0  0  0  0  0  0  0  0  # atno 17320 bound_to 7965
  145.0664  140.9125  143.4908 LP  0  0  0  0  0  0  0  0  0  0  0  0  # atno 17321 bound_to 7965
  140.1205  144.5378  150.6866 LP  0  0  0  0  0  0  0  0  0  0  0  0  # atno 17342 bound_to 10162
  140.6979  143.2416  151.4947 LP  0  0  0  0  0  0  0  0  0  0  0  0  # atno 17343 bound_to 10162
  156.0436  130.3733  150.1372 LP  0  0  0  0  0  0  0  0  0  0  0  0  # atno 17370 bound_to 10713
  156.9556  130.9788  151.3489 LP  0  0  0  0  0  0  0  0  0  0  0  0  # atno 17371 bound_to 10713
  140.3026  134.8151  157.4110 LP  0  0  0  0  0  0  0  0  0  0  0  0  # atno 17394 bound_to 11000
  140.1248  134.5172  155.8153 LP  0  0  0  0  0  0  0  0  0  0  0  0  # atno 17395 bound_to 11000

$$$$
