AV-unprocessed.smi:3166|AV-procd|sdf|12093|dock8
  -GOLD-   2272017523D 1   1.00000     0.00000
 Structure written by MMmdl.
 41 42  0  0  0  0  0  0  0  0  2 V2000
  151.9456  144.5362  157.8124 C   0  0  0  0  0  0  0  0  0  0  0  0
  151.2545  143.1802  158.0131 C   0  0  2  0  0  0  0  0  0  0  0  0
  152.2153  142.1503  158.6572 C   0  0  0  0  0  0  0  0  0  0  0  0
  152.6194  142.5370  159.9967 N   0  0  0  0  0  0  0  0  0  0  0  0
  153.5478  141.9308  160.8167 C   0  0  0  0  0  0  0  0  0  0  0  0
  153.5961  142.6496  161.9767 C   0  0  0  0  0  0  0  0  0  0  0  0
  152.6496  143.6912  161.7686 C   0  0  0  0  0  0  0  0  0  0  0  0
  152.0668  143.6206  160.5827 N   0  0  0  0  0  0  0  0  0  0  0  0
  150.7324  142.7042  156.7126 N   0  3  0  0  0  0  0  0  0  0  0  0
  149.8135  141.5466  156.7803 C   0  0  0  0  0  0  0  0  0  0  0  0
  149.7316  140.7833  155.4365 C   0  0  0  0  0  0  0  0  0  0  0  0
  151.0592  140.4859  155.0470 O   0  0  0  0  0  0  0  0  0  0  0  0
  148.9417  139.4544  155.5296 C   0  0  0  0  0  0  0  0  0  0  0  0
  147.4327  139.6833  155.7261 C   0  0  0  0  0  0  0  0  0  0  0  0
  146.8560  140.5684  154.6103 C   0  0  0  0  0  0  0  0  0  0  0  0
  147.6165  141.8988  154.4976 C   0  0  0  0  0  0  0  0  0  0  0  0
  149.1288  141.6684  154.3201 C   0  0  0  0  0  0  0  0  0  0  0  0
  152.3008  144.9387  158.7618 H   0  0  0  0  0  0  0  0  0  0  0  0
  151.2595  145.2678  157.3843 H   0  0  0  0  0  0  0  0  0  0  0  0
  152.8034  144.4518  157.1440 H   0  0  0  0  0  0  0  0  0  0  0  0
  150.4005  143.3553  158.6701 H   0  0  0  0  0  0  0  0  0  0  0  0
  151.7713  141.1541  158.6964 H   0  0  0  0  0  0  0  0  0  0  0  0
  153.1221  142.0417  158.0604 H   0  0  0  0  0  0  0  0  0  0  0  0
  154.0914  141.0491  160.5100 H   0  0  0  0  0  0  0  0  0  0  0  0
  154.2137  142.4603  162.8423 H   0  0  0  0  0  0  0  0  0  0  0  0
  152.3708  144.4910  162.4390 H   0  0  0  0  0  0  0  0  0  0  0  0
  150.2160  143.4625  156.2898 H   0  0  0  0  0  0  0  0  0  0  0  0
  150.1500  140.8764  157.5679 H   0  0  0  0  0  0  0  0  0  0  0  0
  148.8227  141.8985  157.0714 H   0  0  0  0  0  0  0  0  0  0  0  0
  151.4262  139.8765  155.6701 H   0  0  0  0  0  0  0  0  0  0  0  0
  149.0844  138.8840  154.6101 H   0  0  0  0  0  0  0  0  0  0  0  0
  149.3280  138.8232  156.3303 H   0  0  0  0  0  0  0  0  0  0  0  0
  146.9139  138.7245  155.7393 H   0  0  0  0  0  0  0  0  0  0  0  0
  147.2452  140.1428  156.6968 H   0  0  0  0  0  0  0  0  0  0  0  0
  146.9123  140.0366  153.6596 H   0  0  0  0  0  0  0  0  0  0  0  0
  145.7980  140.7582  154.7945 H   0  0  0  0  0  0  0  0  0  0  0  0
  147.2312  142.4712  153.6534 H   0  0  0  0  0  0  0  0  0  0  0  0
  147.4297  142.5061  155.3835 H   0  0  0  0  0  0  0  0  0  0  0  0
  149.6454  142.6282  154.2743 H   0  0  0  0  0  0  0  0  0  0  0  0
  149.2912  141.1939  153.3508 H   0  0  0  0  0  0  0  0  0  0  0  0
  151.5097  142.4735  156.1108 H   0  0  0  0  0  0  0  0  0  0  0  0
  1  2  1  0  0  0  0
  1 18  1  0  0  0  0
  1 19  1  0  0  0  0
  1 20  1  0  0  0  0
  2  3  1  0  0  0  0
  2  9  1  0  0  0  0
  2 21  1  0  0  0  0
  3  4  1  0  0  0  0
  3 22  1  0  0  0  0
  3 23  1  0  0  0  0
  4  8  1  0  0  0  0
  4  5  1  0  0  0  0
  5  6  2  0  0  0  0
  5 24  1  0  0  0  0
  6  7  1  0  0  0  0
  6 25  1  0  0  0  0
  7  8  2  0  0  0  0
  7 26  1  0  0  0  0
  9 10  1  0  0  0  0
  9 27  1  0  0  0  0
  9 41  1  0  0  0  0
 10 11  1  0  0  0  0
 10 28  1  0  0  0  0
 10 29  1  0  0  0  0
 11 17  1  0  0  0  0
 11 12  1  0  0  0  0
 11 13  1  0  0  0  0
 12 30  1  0  0  0  0
 13 14  1  0  0  0  0
 13 31  1  0  0  0  0
 13 32  1  0  0  0  0
 14 15  1  0  0  0  0
 14 33  1  0  0  0  0
 14 34  1  0  0  0  0
 15 16  1  0  0  0  0
 15 35  1  0  0  0  0
 15 36  1  0  0  0  0
 16 17  1  0  0  0  0
 16 37  1  0  0  0  0
 16 38  1  0  0  0  0
 17 39  1  0  0  0  0
 17 40  1  0  0  0  0
M  CHG  1   9   1
M  END
> <s_m_source_file>
AV-unprocessed.smi

> <i_m_source_file_index>
3166

> <i_lp_mmshare_version>
43012

> <i_f3d_flags>
0

> <s_epik_input>
bjFbY0hdW2NIXVtjSF1uMVtDSDJdW0NAQEhdKFtDSDNdKVtOSF1bQ0gyXUMyKFtPSF0pW0NIMl1bQ0gyXVtDSDJdW0NIMl1bQ0gyXTI=

> <s_epik_cmdline>
J2VwaWtfcHl0aG9uJywgJy1waCcsICc3LjAnLCAnLXRuJywgJzgnLCAnLW1hJywgJzIwMCcsICctbWV0YWxfYmluZGluZycsICctaW1hZScsICc8aW5maWxlLm1hZT4nLCAnLW9tYWUnLCAnPG91dGZpbGUubWFlPic=

> <r_lp_tautomer_probability>
1

> <r_epik_Ionization_Penalty>
0.0111521

> <r_epik_Ionization_Penalty_Charging>
0.0111472

> <r_epik_Ionization_Penalty_Neutral>
4.96355e-06

> <r_epik_State_Penalty>
0.00856328

> <r_epik_Charging_Adjusted_Penalty>
0.0197104

> <i_epik_Tot_Q>
1

> <i_epik_Tot_abs_Q>
1

> <r_epik_Metal_State_Penalty>
0.00856387

> <b_epik_Metal_Only>
0

> <s_lp_Force_Field>
OPLS_2005

> <r_lp_Energy>
18.587

> <b_lp_Chiralities_Consistent>
1

> <s_lp_Variant>
AV-unprocessed.smi:3166-1

> <Gold.Version>
5.8.1

> <Gold.Id.Protein>
6NUR|6NUR_protein|mol2

> <Gold.PLP.Fitness>
48.5271

> <Gold.PLP.PLP>
-39.9825

> <Gold.PLP.part.hbond>
-2.0000

> <Gold.PLP.part.metal>
0.0000

> <Gold.PLP.part.buried>
-2.6627

> <Gold.PLP.part.nonpolar>
-34.2551

> <Gold.PLP.part.repulsive>
0.1293

> <Gold.PLP.ligand.clash>
0.0000

> <Gold.PLP.ligand.torsion>
0.2438

> <Gold.PLP.Chemscore.Hbond>
3.0000

> <Gold.PLP.Chemscore.CHOScore>
0.0000

> <Gold.PLP.Chemscore.Metal>
0.0000

> <Gold.Chemscore.Hbonds>
donor molecule, donor type, donor heavy atom, donor atom, acceptor molecule, acceptor atom, score
      L1  H     9    27       P1  8028  2.00
      P1  H  7989  7998       L1    12  1.00

> <Gold.PLP.Chemscore.Internal.Correction>
0.0322

> <Gold.Rescore>
     Score         DG    S(hbond)    S(metal)    S(lipo)     H(rot)  DE(clash)    DE(int)     intcor
     16.18     -17.89       1.97        0.00      98.04       2.20       0.19       1.52       ----

> <Gold.Chemscore.Fitness>
16.1805

> <Gold.Chemscore.DG>
-17.8944

> <Gold.Chemscore.ZeroCoef>
-5.4800

> <Gold.Chemscore.Hbond>
1.9682

> <Gold.Chemscore.Metal>
0.0000

> <Gold.Chemscore.Lipo>
98.0369

> <Gold.Chemscore.Internal_Hbond>
0.0000

> <Gold.Chemscore.DEClash>
0.1937

> <Gold.Chemscore.DEInternal>
1.5201

> <Gold.Chemscore.Rot>
2.1991

> <Gold.Chemscore.Internal.Correction>
   9.000000E+99

> <Gold.Chemscore.Hbonds>
donor molecule, donor type, donor heavy atom, donor atom, acceptor molecule, acceptor atom, score
      L1  H     9    27       P1  8028  0.99
      P1  H  7989  7998       L1    12  0.94

> <Gold.Chemscore.Hbond.Weighted>
-6.5739

> <Gold.Chemscore.Metal.Weighted>
-0.0000

> <Gold.Chemscore.Lipo.Weighted>
-11.4703

> <Gold.Chemscore.Internal_Hbond.Weighted>
0.0000

> <Gold.Chemscore.DEClash.Weighted>
0.1937

> <Gold.Chemscore.DEInternal.Weighted>
1.5201

> <Gold.Chemscore.Rot.Weighted>
5.6298

> <Gold.Chemscore.Internal.Correction.Weighted>
   9.000000E+99

> <Gold.Protein.RotatedTorsions>
[ 6907 6896 6895 6894 ] final   -5.44 input  -60.11 | X-H torsion
[ 7974 7965 7964 7962 ] final -112.11 input  175.53 | X-H torsion
[ 8008 7997 7996 7995 ] final  -92.86 input   59.86 | X-H torsion
[ 10167 10162 10161 10158 ] final -147.97 input  -65.29 | X-H torsion
[ 10718 10713 10712 10709 ] final -122.51 input   66.30 | X-H torsion
[ 10763 10752 10751 10750 ] final   48.95 input  -60.55 | X-H torsion
[ 11005 11000 10999 10996 ] final  -85.14 input  -57.11 | X-H torsion

> <Gold.Protein.ActiveResidues>
 VAL166  LYS551  ARG553  GLY616  TRP617  ASP618  TYR619  PRO620  LYS621  CYS622 
 ASP623  PHE694  ASN695  SER759  ASP760  ASP761  ALA762  ILE779  LEU786  VAL792 
 PHE793  MET794  SER795  GLU796  ALA797  LYS798  CYS799  TRP800  GLU811  SER814 

> <Gold.Protein.RotatedAtoms>
  151.4815  135.1052  159.9778 H   0  0  0  0  0  0  0  0  0  0  0  0  # atno 6907 bound_to 6896
  152.4777  133.8175  159.7046 H   0  0  0  0  0  0  0  0  0  0  0  0  # atno 6908 bound_to 6896
  150.8827  133.7289  159.2954 H   0  0  0  0  0  0  0  0  0  0  0  0  # atno 6909 bound_to 6896
  145.1480  140.8814  143.3663 H   0  0  0  0  0  0  0  0  0  0  0  0  # atno 7974 bound_to 7965
  154.7284  140.0504  157.0704 H   0  0  0  0  0  0  0  0  0  0  0  0  # atno 8008 bound_to 7997
  155.0334  140.3160  155.4731 H   0  0  0  0  0  0  0  0  0  0  0  0  # atno 8009 bound_to 7997
  156.2835  140.2146  156.5455 H   0  0  0  0  0  0  0  0  0  0  0  0  # atno 8010 bound_to 7997
  139.7574  143.8428  152.2600 H   0  0  0  0  0  0  0  0  0  0  0  0  # atno 10167 bound_to 10162
  156.1424  130.6476  150.9792 H   0  0  0  0  0  0  0  0  0  0  0  0  # atno 10718 bound_to 10713
  152.9789  135.5927  154.4009 H   0  0  0  0  0  0  0  0  0  0  0  0  # atno 10763 bound_to 10752
  154.3654  135.2767  155.2298 H   0  0  0  0  0  0  0  0  0  0  0  0  # atno 10764 bound_to 10752
  154.4277  135.6044  153.6104 H   0  0  0  0  0  0  0  0  0  0  0  0  # atno 10765 bound_to 10752
  141.1644  133.7383  156.8970 H   0  0  0  0  0  0  0  0  0  0  0  0  # atno 11005 bound_to 11000
  145.0461  139.3220  143.5952 LP  0  0  0  0  0  0  0  0  0  0  0  0  # atno 17320 bound_to 7965
  146.3498  139.9852  142.8691 LP  0  0  0  0  0  0  0  0  0  0  0  0  # atno 17321 bound_to 7965
  139.8424  144.7204  150.9315 LP  0  0  0  0  0  0  0  0  0  0  0  0  # atno 17342 bound_to 10162
  140.7804  143.3972  151.1210 LP  0  0  0  0  0  0  0  0  0  0  0  0  # atno 17343 bound_to 10162
  157.6587  131.0884  150.7887 LP  0  0  0  0  0  0  0  0  0  0  0  0  # atno 17370 bound_to 10713
  156.7961  130.4906  149.5377 LP  0  0  0  0  0  0  0  0  0  0  0  0  # atno 17371 bound_to 10713
  140.1609  134.9166  157.2713 LP  0  0  0  0  0  0  0  0  0  0  0  0  # atno 17394 bound_to 11000
  140.2613  134.3568  155.7405 LP  0  0  0  0  0  0  0  0  0  0  0  0  # atno 17395 bound_to 11000

$$$$
