AV-unprocessed.smi:193|AV-procd|sdf|1499|dock4
  -GOLD-   2262019323D 1   1.00000     0.00000
 Structure written by MMmdl.
 62 66  0  0  0  0  0  0  0  0  2 V2000
  144.8626  132.1506  150.0776 C   0  0  0  0  0  0  0  0  0  0  0  0
  145.9607  131.7227  151.0650 C   0  0  1  0  0  0  0  0  0  0  0  0
  145.8312  132.5449  152.3641 C   0  0  0  0  0  0  0  0  0  0  0  0
  147.0647  132.6306  153.1492 N   0  0  0  0  0  0  0  0  0  0  0  0
  147.2063  133.6708  154.0130 C   0  0  0  0  0  0  0  0  0  0  0  0
  146.1409  134.4848  154.2396 N   0  0  0  0  0  0  0  0  0  0  0  0
  146.2411  135.5131  155.0869 C   0  0  0  0  0  0  0  0  0  0  0  0
  147.2976  135.9056  155.7998 N   0  0  0  0  0  0  0  0  0  0  0  0
  148.3743  135.1009  155.5721 C   0  0  0  0  0  0  0  0  0  0  0  0
  148.4167  133.9728  154.7036 C   0  0  0  0  0  0  0  0  0  0  0  0
  149.6905  133.4147  154.7227 N   0  0  0  0  0  0  0  0  0  0  0  0
  150.3565  134.1609  155.5611 C   0  0  0  0  0  0  0  0  0  0  0  0
  149.6411  135.1944  156.1211 N   0  0  0  0  0  0  0  0  0  0  0  0
  150.1320  136.1777  157.0747 C   0  0  0  0  0  0  0  0  0  0  0  0
  151.3130  137.0307  156.5490 C   0  0  0  0  0  0  0  0  0  0  0  0
  152.5136  136.3581  156.8895 O   0  0  0  0  0  0  0  0  0  0  0  0
  151.2415  137.1551  155.0137 C   0  0  0  0  0  0  0  0  0  0  0  0
  152.2949  138.1304  154.4594 C   0  0  0  0  0  0  0  0  0  0  0  0
  152.1587  139.3996  155.0867 O   0  0  0  0  0  0  0  0  0  0  0  0
  152.3950  139.3486  156.4885 C   0  0  0  0  0  0  0  0  0  0  0  0
  151.3523  138.4446  157.1699 C   0  0  0  0  0  0  0  0  0  0  0  0
  148.0163  131.5238  153.2401 C   0  0  0  0  0  0  0  0  0  0  0  0
  147.3483  130.1438  153.3032 C   0  0  0  0  0  0  0  0  0  0  0  0
  147.0642  129.6153  151.9481 N   0  3  1  0  0  0  0  0  0  0  0  0
  147.0062  128.1358  151.9409 C   0  0  2  0  0  0  0  0  0  0  0  0
  147.9639  127.4893  152.9152 C   0  0  0  0  0  0  0  0  0  0  0  0
  148.2680  127.4737  151.4323 C   0  0  1  0  0  0  0  0  0  0  0  0
  148.1949  126.1798  150.6510 C   0  0  0  0  0  0  0  0  0  0  0  0
  145.8531  130.2044  151.3261 C   0  0  0  0  0  0  0  0  0  0  0  0
  143.8682  131.9654  150.4853 H   0  0  0  0  0  0  0  0  0  0  0  0
  144.9427  131.6079  149.1352 H   0  0  0  0  0  0  0  0  0  0  0  0
  144.9335  133.2135  149.8445 H   0  0  0  0  0  0  0  0  0  0  0  0
  146.9165  131.9439  150.5873 H   0  0  0  0  0  0  0  0  0  0  0  0
  145.5420  133.5626  152.0961 H   0  0  0  0  0  0  0  0  0  0  0  0
  145.0257  132.1530  152.9864 H   0  0  0  0  0  0  0  0  0  0  0  0
  145.3467  136.1061  155.2119 H   0  0  0  0  0  0  0  0  0  0  0  0
  151.3950  133.9777  155.7967 H   0  0  0  0  0  0  0  0  0  0  0  0
  149.2979  136.8202  157.3612 H   0  0  0  0  0  0  0  0  0  0  0  0
  150.4285  135.6483  157.9812 H   0  0  0  0  0  0  0  0  0  0  0  0
  152.5808  136.3242  157.8314 H   0  0  0  0  0  0  0  0  0  0  0  0
  151.3519  136.1770  154.5435 H   0  0  0  0  0  0  0  0  0  0  0  0
  150.2539  137.5201  154.7280 H   0  0  0  0  0  0  0  0  0  0  0  0
  153.3052  137.7453  154.6047 H   0  0  0  0  0  0  0  0  0  0  0  0
  152.1570  138.2544  153.3851 H   0  0  0  0  0  0  0  0  0  0  0  0
  153.4092  138.9974  156.6845 H   0  0  0  0  0  0  0  0  0  0  0  0
  152.3292  140.3594  156.8913 H   0  0  0  0  0  0  0  0  0  0  0  0
  150.3712  138.9092  157.0646 H   0  0  0  0  0  0  0  0  0  0  0  0
  151.5550  138.3956  158.2403 H   0  0  0  0  0  0  0  0  0  0  0  0
  148.7276  131.5781  152.4152 H   0  0  0  0  0  0  0  0  0  0  0  0
  148.6012  131.6297  154.1540 H   0  0  0  0  0  0  0  0  0  0  0  0
  148.0559  129.4696  153.7877 H   0  0  0  0  0  0  0  0  0  0  0  0
  146.4557  130.1450  153.9310 H   0  0  0  0  0  0  0  0  0  0  0  0
  146.0299  127.6922  151.7512 H   0  0  0  0  0  0  0  0  0  0  0  0
  148.5737  128.1347  153.5448 H   0  0  0  0  0  0  0  0  0  0  0  0
  147.6528  126.5537  153.3760 H   0  0  0  0  0  0  0  0  0  0  0  0
  149.0709  128.1329  151.1060 H   0  0  0  0  0  0  0  0  0  0  0  0
  147.3906  125.5453  151.0250 H   0  0  0  0  0  0  0  0  0  0  0  0
  149.1355  125.6357  150.7378 H   0  0  0  0  0  0  0  0  0  0  0  0
  148.0099  126.3898  149.5974 H   0  0  0  0  0  0  0  0  0  0  0  0
  144.9748  129.9781  151.9332 H   0  0  0  0  0  0  0  0  0  0  0  0
  145.6982  129.7003  150.3711 H   0  0  0  0  0  0  0  0  0  0  0  0
  147.8499  129.8667  151.3653 H   0  0  0  0  0  0  0  0  0  0  0  0
  1  2  1  0  0  0  0
  1 30  1  0  0  0  0
  1 31  1  0  0  0  0
  1 32  1  0  0  0  0
  2 29  1  0  0  0  0
  2  3  1  0  0  0  0
  2 33  1  0  0  0  0
  3  4  1  0  0  0  0
  3 34  1  0  0  0  0
  3 35  1  0  0  0  0
  4  5  1  0  0  0  0
  4 22  1  0  0  0  0
  5 10  1  0  0  0  0
  5  6  2  0  0  0  0
  6  7  1  0  0  0  0
  7  8  2  0  0  0  0
  7 36  1  0  0  0  0
  8  9  1  0  0  0  0
  9 13  1  0  0  0  0
  9 10  2  0  0  0  0
 10 11  1  0  0  0  0
 11 12  2  0  0  0  0
 12 13  1  0  0  0  0
 12 37  1  0  0  0  0
 13 14  1  0  0  0  0
 14 15  1  0  0  0  0
 14 38  1  0  0  0  0
 14 39  1  0  0  0  0
 15 21  1  0  0  0  0
 15 16  1  0  0  0  0
 15 17  1  0  0  0  0
 16 40  1  0  0  0  0
 17 18  1  0  0  0  0
 17 41  1  0  0  0  0
 17 42  1  0  0  0  0
 18 19  1  0  0  0  0
 18 43  1  0  0  0  0
 18 44  1  0  0  0  0
 19 20  1  0  0  0  0
 20 21  1  0  0  0  0
 20 45  1  0  0  0  0
 20 46  1  0  0  0  0
 21 47  1  0  0  0  0
 21 48  1  0  0  0  0
 22 23  1  0  0  0  0
 22 49  1  0  0  0  0
 22 50  1  0  0  0  0
 23 24  1  0  0  0  0
 23 51  1  0  0  0  0
 23 52  1  0  0  0  0
 24 25  1  0  0  0  0
 24 29  1  0  0  0  0
 24 62  1  0  0  0  0
 25 27  1  0  0  0  0
 25 26  1  0  0  0  0
 25 53  1  0  0  0  0
 26 27  1  0  0  0  0
 26 54  1  0  0  0  0
 26 55  1  0  0  0  0
 27 28  1  0  0  0  0
 27 56  1  0  0  0  0
 28 57  1  0  0  0  0
 28 58  1  0  0  0  0
 28 59  1  0  0  0  0
 29 60  1  0  0  0  0
 29 61  1  0  0  0  0
M  CHG  1  24   1
M  END
> <s_m_source_file>
AV-unprocessed.smi

> <i_m_source_file_index>
193

> <i_lp_mmshare_version>
43012

> <i_f3d_flags>
0

> <s_epik_input>
W0NIM11bQ0BASF0xW0NIMl1bQ0BIXTFOKFtDSDJdMilbQ0gyXVtDSDJdTihbQ0gyXVtDQEhdMltDSDNdKWMobltjSF1uMyljKGMzNCluW2NIXW40W0NIMl1DNShbT0hdKVtDSDJdW0NIMl1PW0NIMl1bQ0gyXTU=

> <s_epik_cmdline>
J2VwaWtfcHl0aG9uJywgJy1waCcsICc3LjAnLCAnLXRuJywgJzgnLCAnLW1hJywgJzIwMCcsICctbWV0YWxfYmluZGluZycsICctaW1hZScsICc8aW5maWxlLm1hZT4nLCAnLW9tYWUnLCAnPG91dGZpbGUubWFlPic=

> <r_lp_tautomer_probability>
1

> <r_epik_Ionization_Penalty>
0.0540825

> <r_epik_Ionization_Penalty_Charging>
0.0538476

> <r_epik_Ionization_Penalty_Neutral>
0.000234891

> <r_epik_State_Penalty>
0.0200719

> <r_epik_Charging_Adjusted_Penalty>
0.0739194

> <i_epik_Tot_Q>
1

> <i_epik_Tot_abs_Q>
1

> <r_epik_Metal_State_Penalty>
0.0199414

> <b_epik_Metal_Only>
0

> <s_lp_Force_Field>
OPLS_2005

> <r_lp_Energy>
52.398

> <b_lp_Chiralities_Consistent>
1

> <s_lp_Variant>
AV-unprocessed.smi:193-4

> <Gold.Version>
5.8.1

> <Gold.Id.Protein>
6NUR|6NUR_protein|mol2

> <Gold.PLP.Fitness>
53.7158

> <Gold.PLP.PLP>
-46.4767

> <Gold.PLP.part.hbond>
-3.0000

> <Gold.PLP.part.metal>
0.0000

> <Gold.PLP.part.buried>
-7.5548

> <Gold.PLP.part.nonpolar>
-36.3604

> <Gold.PLP.part.repulsive>
0.3007

> <Gold.PLP.ligand.clash>
0.0000

> <Gold.PLP.ligand.torsion>
1.5324

> <Gold.PLP.Chemscore.Hbond>
2.9920

> <Gold.PLP.Chemscore.CHOScore>
0.0000

> <Gold.PLP.Chemscore.Metal>
0.0000

> <Gold.Chemscore.Hbonds>
donor molecule, donor type, donor heavy atom, donor atom, acceptor molecule, acceptor atom, score
      L1  H    24    62       P1 10747  1.00
      P1  H  7989  7998       L1    19  0.48
      P1  H 10752 10765       L1    16  0.89

> <Gold.PLP.Chemscore.Internal.Correction>
1.3281

> <Gold.Rescore>
     Score         DG    S(hbond)    S(metal)    S(lipo)     H(rot)  DE(clash)    DE(int)     intcor
     19.36     -23.24       2.59        0.00     120.12       1.93       1.07       2.81       ----

> <Gold.Chemscore.Fitness>
19.3603

> <Gold.Chemscore.DG>
-23.2406

> <Gold.Chemscore.ZeroCoef>
-5.4800

> <Gold.Chemscore.Hbond>
2.5884

> <Gold.Chemscore.Metal>
0.0000

> <Gold.Chemscore.Lipo>
120.1173

> <Gold.Chemscore.Internal_Hbond>
0.0000

> <Gold.Chemscore.DEClash>
1.0734

> <Gold.Chemscore.DEInternal>
2.8069

> <Gold.Chemscore.Rot>
1.9290

> <Gold.Chemscore.Internal.Correction>
   9.000000E+99

> <Gold.Chemscore.Hbonds>
donor molecule, donor type, donor heavy atom, donor atom, acceptor molecule, acceptor atom, score
      L1  H    24    62       P1 10747  0.98
      P1  H  7989  7998       L1    19  0.28
      P1  H 10752 10765       L1    16  0.68

> <Gold.Chemscore.Hbond.Weighted>
-8.6451

> <Gold.Chemscore.Metal.Weighted>
-0.0000

> <Gold.Chemscore.Lipo.Weighted>
-14.0537

> <Gold.Chemscore.Internal_Hbond.Weighted>
0.0000

> <Gold.Chemscore.DEClash.Weighted>
1.0734

> <Gold.Chemscore.DEInternal.Weighted>
2.8069

> <Gold.Chemscore.Rot.Weighted>
4.9383

> <Gold.Chemscore.Internal.Correction.Weighted>
   9.000000E+99

> <Gold.Protein.RotatedTorsions>
[ 6907 6896 6895 6894 ] final   -8.96 input  -60.11 | X-H torsion
[ 7974 7965 7964 7962 ] final -115.47 input  175.53 | X-H torsion
[ 8008 7997 7996 7995 ] final   13.43 input   59.86 | X-H torsion
[ 10167 10162 10161 10158 ] final  -14.89 input  -65.29 | X-H torsion
[ 10718 10713 10712 10709 ] final -121.19 input   66.30 | X-H torsion
[ 10763 10752 10751 10750 ] final -134.67 input  -60.55 | X-H torsion
[ 11005 11000 10999 10996 ] final  145.43 input  -57.11 | X-H torsion

> <Gold.Protein.ActiveResidues>
 VAL166  LYS551  ARG553  GLY616  TRP617  ASP618  TYR619  PRO620  LYS621  CYS622 
 ASP623  PHE694  ASN695  SER759  ASP760  ASP761  ALA762  ILE779  LEU786  VAL792 
 PHE793  MET794  SER795  GLU796  ALA797  LYS798  CYS799  TRP800  GLU811  SER814 

> <Gold.Protein.RotatedAtoms>
  151.4253  135.1003  159.9625 H   0  0  0  0  0  0  0  0  0  0  0  0  # atno 6907 bound_to 6896
  152.4974  133.8668  159.7289 H   0  0  0  0  0  0  0  0  0  0  0  0  # atno 6908 bound_to 6896
  150.9194  133.6841  159.2863 H   0  0  0  0  0  0  0  0  0  0  0  0  # atno 6909 bound_to 6896
  145.1080  140.8593  143.3887 H   0  0  0  0  0  0  0  0  0  0  0  0  # atno 7974 bound_to 7965
  154.8343  140.2904  155.5701 H   0  0  0  0  0  0  0  0  0  0  0  0  # atno 8008 bound_to 7997
  156.3007  140.2526  156.3205 H   0  0  0  0  0  0  0  0  0  0  0  0  # atno 8009 bound_to 7997
  154.9196  140.0386  157.1980 H   0  0  0  0  0  0  0  0  0  0  0  0  # atno 8010 bound_to 7997
  140.7209  143.5275  150.9560 H   0  0  0  0  0  0  0  0  0  0  0  0  # atno 10167 bound_to 10162
  156.1317  130.6401  150.9632 H   0  0  0  0  0  0  0  0  0  0  0  0  # atno 10718 bound_to 10713
  154.8715  135.3727  154.4773 H   0  0  0  0  0  0  0  0  0  0  0  0  # atno 10763 bound_to 10752
  153.5429  135.7026  153.5633 H   0  0  0  0  0  0  0  0  0  0  0  0  # atno 10764 bound_to 10752
  153.3786  135.4002  155.1805 H   0  0  0  0  0  0  0  0  0  0  0  0  # atno 10765 bound_to 10752
  140.0712  134.9151  157.1348 H   0  0  0  0  0  0  0  0  0  0  0  0  # atno 11005 bound_to 11000
  145.0880  139.2911  143.5750 LP  0  0  0  0  0  0  0  0  0  0  0  0  # atno 17320 bound_to 7965
  146.3527  140.0407  142.8643 LP  0  0  0  0  0  0  0  0  0  0  0  0  # atno 17321 bound_to 7965
  139.8994  143.6855  152.3133 LP  0  0  0  0  0  0  0  0  0  0  0  0  # atno 17342 bound_to 10162
  139.7199  144.7604  151.0973 LP  0  0  0  0  0  0  0  0  0  0  0  0  # atno 17343 bound_to 10162
  157.6495  131.0899  150.8082 LP  0  0  0  0  0  0  0  0  0  0  0  0  # atno 17370 bound_to 10713
  156.8166  130.4970  149.5348 LP  0  0  0  0  0  0  0  0  0  0  0  0  # atno 17371 bound_to 10713
  140.3625  134.2479  155.7185 LP  0  0  0  0  0  0  0  0  0  0  0  0  # atno 17394 bound_to 11000
  141.2012  133.7968  157.0450 LP  0  0  0  0  0  0  0  0  0  0  0  0  # atno 17395 bound_to 11000

$$$$
