AV-unprocessed.smi:1199|AV-procd|sdf|5019|dock8
  -GOLD-   22720 4 43D 1   1.00000     0.00000
 Structure written by MMmdl.
 41 42  0  0  0  0  0  0  0  0  1 V2000
  146.0383  135.7795  155.5409 C   0  0  0  0  0  0  0  0  0  0  0  0
  146.9431  136.5865  154.5976 C   0  0  1  0  0  0  0  0  0  0  0  0
  148.4246  136.5197  155.0306 C   0  0  0  0  0  0  0  0  0  0  0  0
  149.2880  137.5813  154.5057 N   0  0  0  0  0  0  0  0  0  0  0  0
  150.6789  137.4550  154.9393 C   0  0  0  0  0  0  0  0  0  0  0  0
  151.5582  138.6036  154.4161 C   0  0  0  0  0  0  0  0  0  0  0  0
  151.0086  139.8524  154.8212 O   0  0  0  0  0  0  0  0  0  0  0  0
  149.6733  140.0349  154.3626 C   0  0  0  0  0  0  0  0  0  0  0  0
  148.7883  138.8956  154.8969 C   0  0  0  0  0  0  0  0  0  0  0  0
  146.8043  136.0557  153.2436 N   0  0  0  0  0  0  0  0  0  0  0  0
  145.6457  135.8683  152.5938 C   0  0  0  0  0  0  0  0  0  0  0  0
  144.5417  136.0311  153.1138 O   0  0  0  0  0  0  0  0  0  0  0  0
  145.7565  135.4393  151.1262 C   0  0  0  0  0  0  0  0  0  0  0  0
  145.4214  134.0189  150.9573 N   0  0  0  0  0  0  0  0  0  0  0  0
  144.4098  133.7917  150.0349 N   0  0  0  0  0  0  0  0  0  0  0  0
  143.9845  132.5921  149.8257 C   0  0  0  0  0  0  0  0  0  0  0  0
  142.9766  132.4152  148.9100 O   0  0  0  0  0  0  0  0  0  0  0  0
  144.5500  131.4641  150.5319 C   0  0  0  0  0  0  0  0  0  0  0  0
  145.5386  131.6940  151.4237 C   0  0  0  0  0  0  0  0  0  0  0  0
  146.0408  133.0431  151.6905 C   0  0  0  0  0  0  0  0  0  0  0  0
  146.9331  133.2798  152.5043 O   0  0  0  0  0  0  0  0  0  0  0  0
  142.3370  133.0819  149.1084 H   0  0  0  0  0  0  0  0  0  0  0  0
  146.0939  136.1626  156.5603 H   0  0  0  0  0  0  0  0  0  0  0  0
  146.3236  134.7274  155.5643 H   0  0  0  0  0  0  0  0  0  0  0  0
  144.9951  135.8364  155.2284 H   0  0  0  0  0  0  0  0  0  0  0  0
  146.6170  137.6274  154.6412 H   0  0  0  0  0  0  0  0  0  0  0  0
  148.4479  136.5884  156.1190 H   0  0  0  0  0  0  0  0  0  0  0  0
  148.8437  135.5396  154.7962 H   0  0  0  0  0  0  0  0  0  0  0  0
  150.7277  137.4274  156.0290 H   0  0  0  0  0  0  0  0  0  0  0  0
  151.1019  136.5188  154.5799 H   0  0  0  0  0  0  0  0  0  0  0  0
  152.5712  138.5135  154.8091 H   0  0  0  0  0  0  0  0  0  0  0  0
  151.6324  138.5674  153.3281 H   0  0  0  0  0  0  0  0  0  0  0  0
  149.3045  140.9988  154.7135 H   0  0  0  0  0  0  0  0  0  0  0  0
  149.6544  140.0610  153.2719 H   0  0  0  0  0  0  0  0  0  0  0  0
  147.7704  139.0295  154.5288 H   0  0  0  0  0  0  0  0  0  0  0  0
  148.7372  138.9623  155.9848 H   0  0  0  0  0  0  0  0  0  0  0  0
  147.6603  135.8822  152.7371 H   0  0  0  0  0  0  0  0  0  0  0  0
  145.0920  136.0463  150.5076 H   0  0  0  0  0  0  0  0  0  0  0  0
  146.7643  135.6596  150.7706 H   0  0  0  0  0  0  0  0  0  0  0  0
  144.1845  130.4654  150.3437 H   0  0  0  0  0  0  0  0  0  0  0  0
  145.9692  130.8604  151.9587 H   0  0  0  0  0  0  0  0  0  0  0  0
  1  2  1  0  0  0  0
  1 23  1  0  0  0  0
  1 24  1  0  0  0  0
  1 25  1  0  0  0  0
  2  3  1  0  0  0  0
  2 10  1  0  0  0  0
  2 26  1  0  0  0  0
  3  4  1  0  0  0  0
  3 27  1  0  0  0  0
  3 28  1  0  0  0  0
  4  9  1  0  0  0  0
  4  5  1  0  0  0  0
  5  6  1  0  0  0  0
  5 29  1  0  0  0  0
  5 30  1  0  0  0  0
  6  7  1  0  0  0  0
  6 31  1  0  0  0  0
  6 32  1  0  0  0  0
  7  8  1  0  0  0  0
  8  9  1  0  0  0  0
  8 33  1  0  0  0  0
  8 34  1  0  0  0  0
  9 35  1  0  0  0  0
  9 36  1  0  0  0  0
 10 11  1  0  0  0  0
 10 37  1  0  0  0  0
 11 12  2  0  0  0  0
 11 13  1  0  0  0  0
 13 38  1  0  0  0  0
 13 39  1  0  0  0  0
 13 14  1  0  0  0  0
 14 15  1  0  0  0  0
 14 20  1  0  0  0  0
 15 16  2  0  0  0  0
 16 17  1  0  0  0  0
 16 18  1  0  0  0  0
 17 22  1  0  0  0  0
 18 40  1  0  0  0  0
 18 19  2  0  0  0  0
 19 41  1  0  0  0  0
 19 20  1  0  0  0  0
 20 21  2  0  0  0  0
M  END
> <s_m_source_file>
AV-unprocessed.smi

> <i_m_source_file_index>
1199

> <i_lp_mmshare_version>
43012

> <i_f3d_flags>
0

> <s_epik_input>
W0NIMl0xW0NIMl1PW0NIMl1bQ0gyXU4xW0NIMl1bQ0BASF0oW0NIM10pW05IXUMoPU8pW0NIMl1uMltuSF1jKD1PKVtjSF1bY0hdYzI9Tw==

> <s_epik_cmdline>
J2VwaWtfcHl0aG9uJywgJy1waCcsICc3LjAnLCAnLXRuJywgJzgnLCAnLW1hJywgJzIwMCcsICctbWV0YWxfYmluZGluZycsICctaW1hZScsICc8aW5maWxlLm1hZT4nLCAnLW9tYWUnLCAnPG91dGZpbGUubWFlPic=

> <r_epik_Ionization_Penalty>
2.36432

> <r_epik_Ionization_Penalty_Charging>
3.67277e-08

> <r_epik_Ionization_Penalty_Neutral>
2.36432

> <r_epik_State_Penalty>
1.96081

> <r_epik_Charging_Adjusted_Penalty>
1.96081

> <i_epik_Tot_Q>
0

> <i_epik_Tot_abs_Q>
0

> <r_epik_Metal_State_Penalty>
1.96081

> <b_epik_Metal_Only>
0

> <s_lp_Force_Field>
OPLS_2005

> <r_lp_Energy>
38.3542

> <b_lp_Chiralities_Consistent>
1

> <s_lp_Variant>
AV-unprocessed.smi:1199-6

> <Gold.Version>
5.8.1

> <Gold.Id.Protein>
6NUR|6NUR_protein|mol2

> <Gold.PLP.Fitness>
41.3502

> <Gold.PLP.PLP>
-32.0015

> <Gold.PLP.part.hbond>
-4.8013

> <Gold.PLP.part.metal>
0.0000

> <Gold.PLP.part.buried>
-7.2735

> <Gold.PLP.part.nonpolar>
-21.5352

> <Gold.PLP.part.repulsive>
1.3337

> <Gold.PLP.ligand.clash>
0.0000

> <Gold.PLP.ligand.torsion>
0.4332

> <Gold.PLP.Chemscore.Hbond>
3.4013

> <Gold.PLP.Chemscore.CHOScore>
0.0000

> <Gold.PLP.Chemscore.Metal>
0.0000

> <Gold.Chemscore.Hbonds>
donor molecule, donor type, donor heavy atom, donor atom, acceptor molecule, acceptor atom, score
      L1  H    10    37       P1  7948  1.00
      L1  H    17    22       P1 10186  1.00
      P1  H  7989  7998       L1     7  0.52
      P1  H 10785 10796       L1    17  0.30

> <Gold.PLP.Chemscore.Internal.Correction>
0.0114

> <Gold.Rescore>
     Score         DG    S(hbond)    S(metal)    S(lipo)     H(rot)  DE(clash)    DE(int)     intcor
      7.18     -11.52       2.20        0.00      53.16       2.94       0.10       4.24       ----

> <Gold.Chemscore.Fitness>
7.1808

> <Gold.Chemscore.DG>
-11.5184

> <Gold.Chemscore.ZeroCoef>
-5.4800

> <Gold.Chemscore.Hbond>
2.2019

> <Gold.Chemscore.Metal>
0.0000

> <Gold.Chemscore.Lipo>
53.1625

> <Gold.Chemscore.Internal_Hbond>
0.0000

> <Gold.Chemscore.DEClash>
0.1008

> <Gold.Chemscore.DEInternal>
4.2369

> <Gold.Chemscore.Rot>
2.9437

> <Gold.Chemscore.Internal.Correction>
   9.000000E+99

> <Gold.Chemscore.Hbonds>
donor molecule, donor type, donor heavy atom, donor atom, acceptor molecule, acceptor atom, score
      L1  H    10    37       P1  7948  0.97
      L1  H    17    22       P1 10186  1.00
      P1  H  7989  7998       L1     7  0.01
      P1  H 10785 10796       L1    17  0.05

> <Gold.Chemscore.Hbond.Weighted>
-7.3543

> <Gold.Chemscore.Metal.Weighted>
-0.0000

> <Gold.Chemscore.Lipo.Weighted>
-6.2200

> <Gold.Chemscore.Internal_Hbond.Weighted>
0.0000

> <Gold.Chemscore.DEClash.Weighted>
0.1008

> <Gold.Chemscore.DEInternal.Weighted>
4.2369

> <Gold.Chemscore.Rot.Weighted>
7.5359

> <Gold.Chemscore.Internal.Correction.Weighted>
   9.000000E+99

> <Gold.Protein.RotatedTorsions>
[ 6907 6896 6895 6894 ] final -109.58 input  -60.11 | X-H torsion
[ 7974 7965 7964 7962 ] final  133.39 input  175.53 | X-H torsion
[ 8008 7997 7996 7995 ] final -155.92 input   59.86 | X-H torsion
[ 10167 10162 10161 10158 ] final  -86.70 input  -65.29 | X-H torsion
[ 10718 10713 10712 10709 ] final  -34.01 input   66.30 | X-H torsion
[ 10763 10752 10751 10750 ] final  158.77 input  -60.55 | X-H torsion
[ 11005 11000 10999 10996 ] final  172.36 input  -57.11 | X-H torsion

> <Gold.Protein.ActiveResidues>
 VAL166  LYS551  ARG553  GLY616  TRP617  ASP618  TYR619  PRO620  LYS621  CYS622 
 ASP623  PHE694  ASN695  SER759  ASP760  ASP761  ALA762  ILE779  LEU786  VAL792 
 PHE793  MET794  SER795  GLU796  ALA797  LYS798  CYS799  TRP800  GLU811  SER814 

> <Gold.Protein.RotatedAtoms>
  150.7571  133.9508  159.3484 H   0  0  0  0  0  0  0  0  0  0  0  0  # atno 6907 bound_to 6896
  151.7425  135.0849  160.0327 H   0  0  0  0  0  0  0  0  0  0  0  0  # atno 6908 bound_to 6896
  152.3519  133.6152  159.5987 H   0  0  0  0  0  0  0  0  0  0  0  0  # atno 6909 bound_to 6896
  144.9870  139.4445  143.5358 H   0  0  0  0  0  0  0  0  0  0  0  0  # atno 7974 bound_to 7965
  155.7092  140.0776  157.2378 H   0  0  0  0  0  0  0  0  0  0  0  0  # atno 8008 bound_to 7997
  154.4061  140.1633  156.2330 H   0  0  0  0  0  0  0  0  0  0  0  0  # atno 8009 bound_to 7997
  155.9298  140.3392  155.6243 H   0  0  0  0  0  0  0  0  0  0  0  0  # atno 8010 bound_to 7997
  140.3916  143.2702  151.9257 H   0  0  0  0  0  0  0  0  0  0  0  0  # atno 10167 bound_to 10162
  156.3557  130.4315  149.7666 H   0  0  0  0  0  0  0  0  0  0  0  0  # atno 10718 bound_to 10713
  154.2213  135.2782  155.2923 H   0  0  0  0  0  0  0  0  0  0  0  0  # atno 10763 bound_to 10752
  154.5699  135.5621  153.7088 H   0  0  0  0  0  0  0  0  0  0  0  0  # atno 10764 bound_to 10752
  153.0041  135.6318  154.2354 H   0  0  0  0  0  0  0  0  0  0  0  0  # atno 10765 bound_to 10752
  140.3289  134.7374  157.4119 H   0  0  0  0  0  0  0  0  0  0  0  0  # atno 11005 bound_to 11000
  146.3422  139.9179  142.8771 LP  0  0  0  0  0  0  0  0  0  0  0  0  # atno 17320 bound_to 7965
  145.2339  140.9983  143.3975 LP  0  0  0  0  0  0  0  0  0  0  0  0  # atno 17321 bound_to 7965
  139.4789  144.5722  151.8070 LP  0  0  0  0  0  0  0  0  0  0  0  0  # atno 17342 bound_to 10162
  140.4834  144.1416  150.5936 LP  0  0  0  0  0  0  0  0  0  0  0  0  # atno 17343 bound_to 10162
  156.4850  130.8058  151.3071 LP  0  0  0  0  0  0  0  0  0  0  0  0  # atno 17370 bound_to 10713
  157.7467  130.9994  150.2887 LP  0  0  0  0  0  0  0  0  0  0  0  0  # atno 17371 bound_to 10713
  140.0878  134.5643  155.8475 LP  0  0  0  0  0  0  0  0  0  0  0  0  # atno 17394 bound_to 11000
  141.2068  133.6659  156.6267 LP  0  0  0  0  0  0  0  0  0  0  0  0  # atno 17395 bound_to 11000

$$$$
