AV-unprocessed.smi:283|AV-procd|sdf|2153|dock10
  -GOLD-   2262021493D 1   1.00000     0.00000
 Structure written by MMmdl.
 48 51  0  0  0  0  0  0  0  0  1 V2000
  151.3893  140.5823  156.2655 C   0  0  0  0  0  0  0  0  0  0  0  0
  150.4238  141.4405  157.0935 C   0  0  2  0  0  0  0  0  0  0  0  0
  149.4656  142.1038  156.2102 N   0  0  0  0  0  0  0  0  0  0  0  0
  148.5747  141.3932  155.4825 C   0  0  0  0  0  0  0  0  0  0  0  0
  148.4722  141.5577  154.1377 N   0  0  0  0  0  0  0  0  0  0  0  0
  147.5849  140.8412  153.4425 C   0  0  0  0  0  0  0  0  0  0  0  0
  146.7174  139.9303  153.8879 N   0  0  0  0  0  0  0  0  0  0  0  0
  146.8088  139.7651  155.2394 C   0  0  0  0  0  0  0  0  0  0  0  0
  147.7065  140.4564  156.1006 C   0  0  0  0  0  0  0  0  0  0  0  0
  147.5189  140.0376  157.4110 N   0  0  0  0  0  0  0  0  0  0  0  0
  146.5624  139.1528  157.3254 C   0  0  0  0  0  0  0  0  0  0  0  0
  146.0734  138.9283  156.0574 N   0  0  0  0  0  0  0  0  0  0  0  0
  144.9821  137.9776  155.6639 C   0  0  2  0  0  0  0  0  0  0  0  0
  145.3853  137.2466  154.5428 O   0  0  0  0  0  0  0  0  0  0  0  0
  144.4712  137.4383  153.4644 C   0  0  1  0  0  0  0  0  0  0  0  0
  144.4152  136.1551  152.6207 C   0  0  0  0  0  0  0  0  0  0  0  0
  143.7047  136.3763  151.4211 O   0  0  0  0  0  0  0  0  0  0  0  0
  143.1629  137.8130  154.1661 C   0  0  2  0  0  0  0  0  0  0  0  0
  142.2408  138.4873  153.3310 O   0  0  0  0  0  0  0  0  0  0  0  0
  143.6534  138.6783  155.3187 C   0  0  2  0  0  0  0  0  0  0  0  0
  143.8064  140.0418  154.9530 O   0  0  0  0  0  0  0  0  0  0  0  0
  151.2006  142.3871  158.0121 C   0  0  0  0  0  0  0  0  0  0  0  0
  151.1136  143.7849  157.8153 C   0  0  0  0  0  0  0  0  0  0  0  0
  151.8166  144.6728  158.6512 C   0  0  0  0  0  0  0  0  0  0  0  0
  152.6217  144.1716  159.6897 C   0  0  0  0  0  0  0  0  0  0  0  0
  152.7251  142.7824  159.8875 C   0  0  0  0  0  0  0  0  0  0  0  0
  152.0226  141.8886  159.0543 C   0  0  0  0  0  0  0  0  0  0  0  0
  152.1962  140.1917  159.3377 Cl  0  0  0  0  0  0  0  0  0  0  0  0
  144.8905  137.2965  156.5109 H   0  0  0  0  0  0  0  0  0  0  0  0
  144.8296  138.2743  152.8621 H   0  0  0  0  0  0  0  0  0  0  0  0
  142.6899  136.9148  154.5658 H   0  0  0  0  0  0  0  0  0  0  0  0
  142.9812  138.6287  156.1759 H   0  0  0  0  0  0  0  0  0  0  0  0
  152.0576  140.0111  156.9109 H   0  0  0  0  0  0  0  0  0  0  0  0
  152.0057  141.1977  155.6092 H   0  0  0  0  0  0  0  0  0  0  0  0
  150.8470  139.8699  155.6430 H   0  0  0  0  0  0  0  0  0  0  0  0
  149.8363  140.7590  157.7079 H   0  0  0  0  0  0  0  0  0  0  0  0
  149.4536  143.1125  156.2554 H   0  0  0  0  0  0  0  0  0  0  0  0
  147.5672  141.0237  152.3783 H   0  0  0  0  0  0  0  0  0  0  0  0
  146.1817  138.6361  158.1944 H   0  0  0  0  0  0  0  0  0  0  0  0
  145.4252  135.8382  152.3598 H   0  0  0  0  0  0  0  0  0  0  0  0
  143.9553  135.3381  153.1771 H   0  0  0  0  0  0  0  0  0  0  0  0
  144.0410  137.1596  151.0128 H   0  0  0  0  0  0  0  0  0  0  0  0
  142.7262  139.0655  152.7622 H   0  0  0  0  0  0  0  0  0  0  0  0
  143.6714  140.1187  154.0208 H   0  0  0  0  0  0  0  0  0  0  0  0
  150.5026  144.1860  157.0202 H   0  0  0  0  0  0  0  0  0  0  0  0
  151.7376  145.7385  158.4948 H   0  0  0  0  0  0  0  0  0  0  0  0
  153.1616  144.8513  160.3323 H   0  0  0  0  0  0  0  0  0  0  0  0
  153.3481  142.4007  160.6830 H   0  0  0  0  0  0  0  0  0  0  0  0
  1  2  1  0  0  0  0
  1 33  1  0  0  0  0
  1 34  1  0  0  0  0
  1 35  1  0  0  0  0
  2  3  1  0  0  0  0
  2 22  1  0  0  0  0
  2 36  1  0  0  0  0
  3  4  1  0  0  0  0
  3 37  1  0  0  0  0
  4  9  1  0  0  0  0
  4  5  2  0  0  0  0
  5  6  1  0  0  0  0
  6  7  2  0  0  0  0
  6 38  1  0  0  0  0
  7  8  1  0  0  0  0
  8 12  1  0  0  0  0
  8  9  2  0  0  0  0
  9 10  1  0  0  0  0
 10 11  2  0  0  0  0
 11 12  1  0  0  0  0
 11 39  1  0  0  0  0
 12 13  1  0  0  0  0
 13 29  1  0  0  0  0
 13 20  1  0  0  0  0
 13 14  1  0  0  0  0
 14 15  1  0  0  0  0
 15 30  1  0  0  0  0
 15 16  1  0  0  0  0
 15 18  1  0  0  0  0
 16 17  1  0  0  0  0
 16 40  1  0  0  0  0
 16 41  1  0  0  0  0
 17 42  1  0  0  0  0
 18 31  1  0  0  0  0
 18 19  1  0  0  0  0
 18 20  1  0  0  0  0
 19 43  1  0  0  0  0
 20 32  1  0  0  0  0
 20 21  1  0  0  0  0
 21 44  1  0  0  0  0
 22 27  1  0  0  0  0
 22 23  2  0  0  0  0
 23 24  1  0  0  0  0
 23 45  1  0  0  0  0
 24 25  2  0  0  0  0
 24 46  1  0  0  0  0
 25 26  1  0  0  0  0
 25 47  1  0  0  0  0
 26 27  2  0  0  0  0
 26 48  1  0  0  0  0
 27 28  1  0  0  0  0
M  END
> <s_m_source_file>
AV-unprocessed.smi

> <i_m_source_file_index>
283

> <i_lp_mmshare_version>
43012

> <i_f3d_flags>
0

> <s_epik_input>
Q2xjMVtjSF1bY0hdW2NIXVtjSF1jMVtDQEhdKFtDSDNdKVtOSF1jKG5bY0hdbjIpYyhjMjMpbltjSF1uM1tDQEBIXTRPW0NASF0oW0NIMl1bT0hdKVtDQEBIXShbT0hdKVtDQEhdNFtPSF0=

> <s_epik_cmdline>
J2VwaWtfcHl0aG9uJywgJy1waCcsICc3LjAnLCAnLXRuJywgJzgnLCAnLW1hJywgJzIwMCcsICctbWV0YWxfYmluZGluZycsICctaW1hZScsICc8aW5maWxlLm1hZT4nLCAnLW9tYWUnLCAnPG91dGZpbGUubWFlPic=

> <r_lp_tautomer_probability>
1

> <r_epik_Ionization_Penalty>
0.000266407

> <r_epik_Ionization_Penalty_Charging>
0

> <r_epik_Ionization_Penalty_Neutral>
0.000266407

> <r_epik_State_Penalty>
-0

> <r_epik_Charging_Adjusted_Penalty>
0

> <i_epik_Tot_Q>
0

> <i_epik_Tot_abs_Q>
0

> <r_epik_Metal_State_Penalty>
-0

> <b_epik_Metal_Only>
0

> <s_epik_Chemistry_Notes>
This compound contains an acetal/aminal-like group ( X-CH(R)-Y where X, Y are N, S, or O) that may be acid/base labile, releasing an aldehyde.

> <s_lp_Force_Field>
OPLS_2005

> <r_lp_Energy>
51.2739

> <b_lp_Chiralities_Consistent>
1

> <s_lp_Variant>
AV-unprocessed.smi:283-29

> <Gold.Version>
5.8.1

> <Gold.Id.Protein>
6NUR|6NUR_protein|mol2

> <Gold.PLP.Fitness>
52.4115

> <Gold.PLP.PLP>
-39.5786

> <Gold.PLP.part.hbond>
-4.7544

> <Gold.PLP.part.metal>
0.0000

> <Gold.PLP.part.buried>
-3.8568

> <Gold.PLP.part.nonpolar>
-31.6471

> <Gold.PLP.part.repulsive>
0.4837

> <Gold.PLP.ligand.clash>
0.0000

> <Gold.PLP.ligand.torsion>
1.0671

> <Gold.PLP.Chemscore.Hbond>
4.2832

> <Gold.PLP.Chemscore.CHOScore>
0.6780

> <Gold.PLP.Chemscore.Metal>
0.0000

> <Gold.Chemscore.Hbonds>
donor molecule, donor type, donor heavy atom, donor atom, acceptor molecule, acceptor atom, score
      L1  H     3    37       P1  8028  1.00
      L1  H    17    42       P1 10171  1.00
      L1  H    19    43       P1 10175  1.00
      L1  H    21    44       P1 10175  1.00
      P1  H  8011  8017       L1     5  0.06
      L1  C     6    38       P1  7957  0.65

> <Gold.PLP.Chemscore.Internal.Correction>
0.0836

> <Gold.Rescore>
     Score         DG    S(hbond)    S(metal)    S(lipo)     H(rot)  DE(clash)    DE(int)     intcor
     17.55     -20.52       4.05        0.00     102.55       4.10       0.31       2.66       ----

> <Gold.Chemscore.Fitness>
17.5525

> <Gold.Chemscore.DG>
-20.5205

> <Gold.Chemscore.ZeroCoef>
-5.4800

> <Gold.Chemscore.Hbond>
4.0509

> <Gold.Chemscore.Metal>
0.0000

> <Gold.Chemscore.Lipo>
102.5511

> <Gold.Chemscore.Internal_Hbond>
0.0000

> <Gold.Chemscore.DEClash>
0.3092

> <Gold.Chemscore.DEInternal>
2.6587

> <Gold.Chemscore.Rot>
4.0968

> <Gold.Chemscore.Internal.Correction>
   9.000000E+99

> <Gold.Chemscore.Hbonds>
donor molecule, donor type, donor heavy atom, donor atom, acceptor molecule, acceptor atom, score
      L1  H     3    37       P1  8028  0.96
      L1  H    17    42       P1 10171  0.94
      L1  H    19    43       P1 10175  0.97
      L1  H    21    44       P1 10175  0.96
      P1  H  8011  8017       L1     5  0.02

> <Gold.Chemscore.Hbond.Weighted>
-13.5299

> <Gold.Chemscore.Metal.Weighted>
-0.0000

> <Gold.Chemscore.Lipo.Weighted>
-11.9985

> <Gold.Chemscore.Internal_Hbond.Weighted>
0.0000

> <Gold.Chemscore.DEClash.Weighted>
0.3092

> <Gold.Chemscore.DEInternal.Weighted>
2.6587

> <Gold.Chemscore.Rot.Weighted>
10.4879

> <Gold.Chemscore.Internal.Correction.Weighted>
   9.000000E+99

> <Gold.Protein.RotatedTorsions>
[ 6907 6896 6895 6894 ] final   17.66 input  -60.11 | X-H torsion
[ 7974 7965 7964 7962 ] final   59.10 input  175.53 | X-H torsion
[ 8008 7997 7996 7995 ] final   -2.10 input   59.86 | X-H torsion
[ 10167 10162 10161 10158 ] final  -88.56 input  -65.29 | X-H torsion
[ 10718 10713 10712 10709 ] final   19.14 input   66.30 | X-H torsion
[ 10763 10752 10751 10750 ] final   96.02 input  -60.55 | X-H torsion
[ 11005 11000 10999 10996 ] final   60.90 input  -57.11 | X-H torsion

> <Gold.Protein.ActiveResidues>
 VAL166  LYS551  ARG553  GLY616  TRP617  ASP618  TYR619  PRO620  LYS621  CYS622 
 ASP623  PHE694  ASN695  SER759  ASP760  ASP761  ALA762  ILE779  LEU786  VAL792 
 PHE793  MET794  SER795  GLU796  ALA797  LYS798  CYS799  TRP800  GLU811  SER814 

> <Gold.Protein.RotatedAtoms>
  151.8531  135.0551  160.0460 H   0  0  0  0  0  0  0  0  0  0  0  0  # atno 6907 bound_to 6896
  152.2721  133.5388  159.5454 H   0  0  0  0  0  0  0  0  0  0  0  0  # atno 6908 bound_to 6896
  150.7156  134.0599  159.3870 H   0  0  0  0  0  0  0  0  0  0  0  0  # atno 6909 bound_to 6896
  145.9108  139.3653  143.0536 H   0  0  0  0  0  0  0  0  0  0  0  0  # atno 7974 bound_to 7965
  154.6395  140.2543  155.7339 H   0  0  0  0  0  0  0  0  0  0  0  0  # atno 8008 bound_to 7997
  156.2521  140.2890  156.0703 H   0  0  0  0  0  0  0  0  0  0  0  0  # atno 8009 bound_to 7997
  155.1618  140.0384  157.2834 H   0  0  0  0  0  0  0  0  0  0  0  0  # atno 8010 bound_to 7997
  140.3735  143.2783  151.9472 H   0  0  0  0  0  0  0  0  0  0  0  0  # atno 10167 bound_to 10162
  157.1062  130.6489  149.5885 H   0  0  0  0  0  0  0  0  0  0  0  0  # atno 10718 bound_to 10713
  153.2600  135.4233  155.0884 H   0  0  0  0  0  0  0  0  0  0  0  0  # atno 10763 bound_to 10752
  154.8416  135.3446  154.6391 H   0  0  0  0  0  0  0  0  0  0  0  0  # atno 10764 bound_to 10752
  153.6811  135.7039  153.5175 H   0  0  0  0  0  0  0  0  0  0  0  0  # atno 10765 bound_to 10752
  140.0199  134.6168  155.9655 H   0  0  0  0  0  0  0  0  0  0  0  0  # atno 11005 bound_to 11000
  145.8673  140.9440  143.0669 LP  0  0  0  0  0  0  0  0  0  0  0  0  # atno 17320 bound_to 7965
  144.6743  140.0609  143.7476 LP  0  0  0  0  0  0  0  0  0  0  0  0  # atno 17321 bound_to 7965
  139.4801  144.5885  151.7812 LP  0  0  0  0  0  0  0  0  0  0  0  0  # atno 17342 bound_to 10162
  140.5010  144.1169  150.5971 LP  0  0  0  0  0  0  0  0  0  0  0  0  # atno 17343 bound_to 10162
  155.9861  130.4895  150.7065 LP  0  0  0  0  0  0  0  0  0  0  0  0  # atno 17370 bound_to 10713
  157.4598  131.0882  151.0757 LP  0  0  0  0  0  0  0  0  0  0  0  0  # atno 17371 bound_to 10713
  141.1767  133.6541  156.4857 LP  0  0  0  0  0  0  0  0  0  0  0  0  # atno 17394 bound_to 11000
  140.4405  134.7019  157.4989 LP  0  0  0  0  0  0  0  0  0  0  0  0  # atno 17395 bound_to 11000

$$$$
