AV-unprocessed.smi:3097|AV-procd|sdf|11799|dock7
  -GOLD-   2272017173D 1   1.00000     0.00000
 Structure written by MMmdl.
 35 35  0  0  0  0  0  0  0  0  2 V2000
  140.2504  136.9475  153.8301 C   0  0  0  0  0  0  0  0  0  0  0  0
  141.5829  136.1922  153.7989 C   0  0  0  0  0  0  0  0  0  0  0  0
  142.7438  137.0741  153.3237 C   0  0  0  0  0  0  0  0  0  0  0  0
  143.9712  136.2873  153.1534 N   0  0  0  0  0  0  0  0  0  0  0  0
  145.1481  136.7500  152.6888 C   0  0  0  0  0  0  0  0  0  0  0  0
  145.2624  138.0404  152.3189 N   0  3  0  0  0  0  0  0  0  0  0  0
  146.4786  138.6768  151.7994 C   0  0  0  0  0  0  0  0  0  0  0  0
  146.2128  135.9280  152.5948 N   0  0  0  0  0  0  0  0  0  0  0  0
  146.2547  134.5097  152.9839 C   0  0  0  0  0  0  0  0  0  0  0  0
  146.8177  133.6258  151.8590 C   0  0  0  0  0  0  0  0  0  0  0  0
  145.7722  133.0481  151.0349 N   0  0  0  0  0  0  0  0  0  0  0  0
  145.9002  132.1825  149.9687 C   0  0  0  0  0  0  0  0  0  0  0  0
  144.6421  131.9125  149.5119 C   0  0  0  0  0  0  0  0  0  0  0  0
  143.8002  132.6752  150.3686 C   0  0  0  0  0  0  0  0  0  0  0  0
  144.4793  133.3503  151.2822 N   0  0  0  0  0  0  0  0  0  0  0  0
  139.4437  136.2985  154.1712 H   0  0  0  0  0  0  0  0  0  0  0  0
  139.9837  137.3167  152.8395 H   0  0  0  0  0  0  0  0  0  0  0  0
  140.2982  137.8021  154.5057 H   0  0  0  0  0  0  0  0  0  0  0  0
  141.7989  135.8067  154.7955 H   0  0  0  0  0  0  0  0  0  0  0  0
  141.4899  135.3235  153.1459 H   0  0  0  0  0  0  0  0  0  0  0  0
  142.4920  137.5481  152.3745 H   0  0  0  0  0  0  0  0  0  0  0  0
  142.9324  137.8699  154.0451 H   0  0  0  0  0  0  0  0  0  0  0  0
  143.9226  135.3188  153.4377 H   0  0  0  0  0  0  0  0  0  0  0  0
  146.2895  139.7282  151.5829 H   0  0  0  0  0  0  0  0  0  0  0  0
  146.8020  138.1875  150.8804 H   0  0  0  0  0  0  0  0  0  0  0  0
  147.2843  138.6144  152.5314 H   0  0  0  0  0  0  0  0  0  0  0  0
  147.0807  136.3200  152.2585 H   0  0  0  0  0  0  0  0  0  0  0  0
  146.8128  134.3777  153.9110 H   0  0  0  0  0  0  0  0  0  0  0  0
  145.2307  134.2020  153.1964 H   0  0  0  0  0  0  0  0  0  0  0  0
  147.4796  134.2103  151.2188 H   0  0  0  0  0  0  0  0  0  0  0  0
  147.4210  132.8177  152.2748 H   0  0  0  0  0  0  0  0  0  0  0  0
  146.8643  131.8324  149.6297 H   0  0  0  0  0  0  0  0  0  0  0  0
  144.3654  131.2712  148.6881 H   0  0  0  0  0  0  0  0  0  0  0  0
  142.7232  132.7540  150.3571 H   0  0  0  0  0  0  0  0  0  0  0  0
  144.4477  138.6319  152.4004 H   0  0  0  0  0  0  0  0  0  0  0  0
  1  2  1  0  0  0  0
  1 16  1  0  0  0  0
  1 17  1  0  0  0  0
  1 18  1  0  0  0  0
  2  3  1  0  0  0  0
  2 19  1  0  0  0  0
  2 20  1  0  0  0  0
  3  4  1  0  0  0  0
  3 21  1  0  0  0  0
  3 22  1  0  0  0  0
  4  5  1  0  0  0  0
  4 23  1  0  0  0  0
  5  6  2  0  0  0  0
  5  8  1  0  0  0  0
  6  7  1  0  0  0  0
  6 35  1  0  0  0  0
  7 24  1  0  0  0  0
  7 25  1  0  0  0  0
  7 26  1  0  0  0  0
  8  9  1  0  0  0  0
  8 27  1  0  0  0  0
  9 10  1  0  0  0  0
  9 28  1  0  0  0  0
  9 29  1  0  0  0  0
 10 11  1  0  0  0  0
 10 30  1  0  0  0  0
 10 31  1  0  0  0  0
 11 15  1  0  0  0  0
 11 12  1  0  0  0  0
 12 13  2  0  0  0  0
 12 32  1  0  0  0  0
 13 14  1  0  0  0  0
 13 33  1  0  0  0  0
 14 15  2  0  0  0  0
 14 34  1  0  0  0  0
M  CHG  1   6   1
M  END
> <s_m_source_file>
AV-unprocessed.smi

> <i_m_source_file_index>
3097

> <i_lp_mmshare_version>
43012

> <i_f3d_flags>
0

> <s_epik_input>
W0NIM11bQ0gyXVtDSDJdW05IXS9DKD1OXFtDSDNdKVtOSF1bQ0gyXVtDSDJdbjFbY0hdW2NIXVtjSF1uMQ==

> <s_epik_cmdline>
J2VwaWtfcHl0aG9uJywgJy1waCcsICc3LjAnLCAnLXRuJywgJzgnLCAnLW1hJywgJzIwMCcsICctbWV0YWxfYmluZGluZycsICctaW1hZScsICc8aW5maWxlLm1hZT4nLCAnLW9tYWUnLCAnPG91dGZpbGUubWFlPic=

> <r_lp_tautomer_probability>
1

> <r_epik_Ionization_Penalty>
4.40305e-05

> <r_epik_Ionization_Penalty_Charging>
1.64417e-07

> <r_epik_Ionization_Penalty_Neutral>
4.38661e-05

> <r_epik_State_Penalty>
-0

> <r_epik_Charging_Adjusted_Penalty>
1.64417e-07

> <i_epik_Tot_Q>
1

> <i_epik_Tot_abs_Q>
1

> <r_epik_Metal_State_Penalty>
-0

> <b_epik_Metal_Only>
0

> <s_epik_Chemistry_Notes>
This compound has an imine and may undergo hydrolysis.

> <s_lp_Force_Field>
OPLS_2005

> <r_lp_Energy>
5.03608

> <b_lp_Chiralities_Consistent>
1

> <s_lp_Variant>
AV-unprocessed.smi:3097-2

> <Gold.Version>
5.8.1

> <Gold.Id.Protein>
6NUR|6NUR_protein|mol2

> <Gold.PLP.Fitness>
48.7474

> <Gold.PLP.PLP>
-31.3215

> <Gold.PLP.part.hbond>
-3.0000

> <Gold.PLP.part.metal>
0.0000

> <Gold.PLP.part.buried>
-3.7945

> <Gold.PLP.part.nonpolar>
-25.3661

> <Gold.PLP.part.repulsive>
0.1594

> <Gold.PLP.ligand.clash>
0.0000

> <Gold.PLP.ligand.torsion>
0.2930

> <Gold.PLP.Chemscore.Hbond>
4.0000

> <Gold.PLP.Chemscore.CHOScore>
2.0000

> <Gold.PLP.Chemscore.Metal>
0.0000

> <Gold.Chemscore.Hbonds>
donor molecule, donor type, donor heavy atom, donor atom, acceptor molecule, acceptor atom, score
      L1  H     6    35       P1 10175  1.98
      L1  H     8    27       P1  7948  2.00
      L1  C    12    32       P1 10747  1.00
      L1  C    14    34       P1 10186  1.00

> <Gold.PLP.Chemscore.Internal.Correction>
0.0120

> <Gold.Rescore>
     Score         DG    S(hbond)    S(metal)    S(lipo)     H(rot)  DE(clash)    DE(int)     intcor
     14.84     -15.36       1.99        0.00      68.39       1.86       0.03       0.49       ----

> <Gold.Chemscore.Fitness>
14.8395

> <Gold.Chemscore.DG>
-15.3607

> <Gold.Chemscore.ZeroCoef>
-5.4800

> <Gold.Chemscore.Hbond>
1.9852

> <Gold.Chemscore.Metal>
0.0000

> <Gold.Chemscore.Lipo>
68.3933

> <Gold.Chemscore.Internal_Hbond>
0.0000

> <Gold.Chemscore.DEClash>
0.0283

> <Gold.Chemscore.DEInternal>
0.4929

> <Gold.Chemscore.Rot>
1.8561

> <Gold.Chemscore.Internal.Correction>
   9.000000E+99

> <Gold.Chemscore.Hbonds>
donor molecule, donor type, donor heavy atom, donor atom, acceptor molecule, acceptor atom, score
      L1  H     6    35       P1 10175  0.92
      L1  H     8    27       P1  7948  0.97

> <Gold.Chemscore.Hbond.Weighted>
-6.6304

> <Gold.Chemscore.Metal.Weighted>
-0.0000

> <Gold.Chemscore.Lipo.Weighted>
-8.0020

> <Gold.Chemscore.Internal_Hbond.Weighted>
0.0000

> <Gold.Chemscore.DEClash.Weighted>
0.0283

> <Gold.Chemscore.DEInternal.Weighted>
0.4929

> <Gold.Chemscore.Rot.Weighted>
4.7517

> <Gold.Chemscore.Internal.Correction.Weighted>
   9.000000E+99

> <Gold.Protein.RotatedTorsions>
[ 6907 6896 6895 6894 ] final -113.94 input  -60.11 | X-H torsion
[ 7974 7965 7964 7962 ] final  153.45 input  175.53 | X-H torsion
[ 8008 7997 7996 7995 ] final   -5.72 input   59.86 | X-H torsion
[ 10167 10162 10161 10158 ] final   20.90 input  -65.29 | X-H torsion
[ 10718 10713 10712 10709 ] final  -78.80 input   66.30 | X-H torsion
[ 10763 10752 10751 10750 ] final  -30.06 input  -60.55 | X-H torsion
[ 11005 11000 10999 10996 ] final   55.98 input  -57.11 | X-H torsion

> <Gold.Protein.ActiveResidues>
 VAL166  LYS551  ARG553  GLY616  TRP617  ASP618  TYR619  PRO620  LYS621  CYS622 
 ASP623  PHE694  ASN695  SER759  ASP760  ASP761  ALA762  ILE779  LEU786  VAL792 
 PHE793  MET794  SER795  GLU796  ALA797  LYS798  CYS799  TRP800  GLU811  SER814 

> <Gold.Protein.RotatedAtoms>
  150.7866  133.8872  159.3302 H   0  0  0  0  0  0  0  0  0  0  0  0  # atno 6907 bound_to 6896
  151.6721  135.0972  160.0209 H   0  0  0  0  0  0  0  0  0  0  0  0  # atno 6908 bound_to 6896
  152.3931  133.6668  159.6289 H   0  0  0  0  0  0  0  0  0  0  0  0  # atno 6909 bound_to 6896
  144.8154  139.6802  143.6123 H   0  0  0  0  0  0  0  0  0  0  0  0  # atno 7974 bound_to 7965
  154.6011  140.2451  155.7792 H   0  0  0  0  0  0  0  0  0  0  0  0  # atno 8008 bound_to 7997
  156.2311  140.2966  156.0143 H   0  0  0  0  0  0  0  0  0  0  0  0  # atno 8009 bound_to 7997
  155.2210  140.0400  157.2938 H   0  0  0  0  0  0  0  0  0  0  0  0  # atno 8010 bound_to 7997
  140.5468  143.9579  150.6553 H   0  0  0  0  0  0  0  0  0  0  0  0  # atno 10167 bound_to 10162
  156.0108  130.4528  150.3551 H   0  0  0  0  0  0  0  0  0  0  0  0  # atno 10718 bound_to 10713
  153.7749  135.6909  153.4899 H   0  0  0  0  0  0  0  0  0  0  0  0  # atno 10763 bound_to 10752
  153.1850  135.4492  155.0075 H   0  0  0  0  0  0  0  0  0  0  0  0  # atno 10764 bound_to 10752
  154.8104  135.3375  154.7255 H   0  0  0  0  0  0  0  0  0  0  0  0  # atno 10765 bound_to 10752
  140.0564  134.5664  155.9202 H   0  0  0  0  0  0  0  0  0  0  0  0  # atno 11005 bound_to 11000
  146.2456  139.6092  142.9461 LP  0  0  0  0  0  0  0  0  0  0  0  0  # atno 17320 bound_to 7965
  145.5227  141.0431  143.2426 LP  0  0  0  0  0  0  0  0  0  0  0  0  # atno 17321 bound_to 7965
  140.2995  143.3270  152.0985 LP  0  0  0  0  0  0  0  0  0  0  0  0  # atno 17342 bound_to 10162
  139.5011  144.6706  151.6252 LP  0  0  0  0  0  0  0  0  0  0  0  0  # atno 17343 bound_to 10162
  157.1642  131.0352  151.2826 LP  0  0  0  0  0  0  0  0  0  0  0  0  # atno 17370 bound_to 10713
  157.4285  130.7477  149.6971 LP  0  0  0  0  0  0  0  0  0  0  0  0  # atno 17371 bound_to 10713
  141.1954  133.6587  156.5641 LP  0  0  0  0  0  0  0  0  0  0  0  0  # atno 17394 bound_to 11000
  140.3837  134.7501  157.4677 LP  0  0  0  0  0  0  0  0  0  0  0  0  # atno 17395 bound_to 11000

$$$$
