AV-unprocessed.smi:213|AV-procd|sdf|1648|dock8
  -GOLD-   2262020 23D 1   1.00000     0.00000
 Structure written by MMmdl.
 58 61  0  0  0  0  0  0  0  0  1 V2000
  145.5070  136.7591  154.4366 C   0  0  0  0  0  0  0  0  0  0  0  0
  146.0422  137.1114  153.0339 C   0  0  1  0  0  0  0  0  0  0  0  0
  144.9203  137.1832  151.9693 C   0  0  0  0  0  0  0  0  0  0  0  0
  144.4325  135.8958  151.4716 N   0  0  0  0  0  0  0  0  0  0  0  0
  143.6546  135.2041  152.4937 C   0  0  0  0  0  0  0  0  0  0  0  0
  143.1048  133.8603  151.9878 C   0  0  0  0  0  0  0  0  0  0  0  0
  144.1844  133.0455  151.5443 O   0  0  0  0  0  0  0  0  0  0  0  0
  144.9434  133.6610  150.5091 C   0  0  0  0  0  0  0  0  0  0  0  0
  145.4935  135.0133  150.9960 C   0  0  0  0  0  0  0  0  0  0  0  0
  146.7929  138.3693  153.0895 N   0  0  0  0  0  0  0  0  0  0  0  0
  146.6137  139.3950  152.0639 C   0  0  0  0  0  0  0  0  0  0  0  0
  147.8107  138.5373  153.9769 C   0  0  0  0  0  0  0  0  0  0  0  0
  148.2977  137.4285  154.5955 N   0  0  0  0  0  0  0  0  0  0  0  0
  149.3033  137.5219  155.4694 C   0  0  0  0  0  0  0  0  0  0  0  0
  149.9598  138.6103  155.8712 N   0  0  0  0  0  0  0  0  0  0  0  0
  149.4712  139.7314  155.2692 C   0  0  0  0  0  0  0  0  0  0  0  0
  148.4088  139.7883  154.3202 C   0  0  0  0  0  0  0  0  0  0  0  0
  148.1898  141.1125  153.9531 N   0  0  0  0  0  0  0  0  0  0  0  0
  149.0738  141.7917  154.6291 C   0  0  0  0  0  0  0  0  0  0  0  0
  149.8851  141.0400  155.4453 N   0  0  0  0  0  0  0  0  0  0  0  0
  150.9436  141.5369  156.3062 C   0  0  0  0  0  0  0  0  0  0  0  0
  150.4064  142.4312  157.4402 C   0  0  1  0  0  0  0  0  0  0  0  0
  149.8966  141.6437  158.4996 O   0  0  0  0  0  0  0  0  0  0  0  0
  151.4587  143.4326  157.9589 C   0  0  1  0  0  0  0  0  0  0  0  0
  150.9633  144.5008  158.9370 C   0  0  0  0  0  0  0  0  0  0  0  0
  152.2562  144.8950  159.6158 C   0  0  0  0  0  0  0  0  0  0  0  0
  152.9743  143.5516  159.7279 C   0  0  0  0  0  0  0  0  0  0  0  0
  152.5498  142.7823  158.6053 O   0  0  0  0  0  0  0  0  0  0  0  0
  145.0160  135.7882  154.4567 H   0  0  0  0  0  0  0  0  0  0  0  0
  144.7813  137.4913  154.7910 H   0  0  0  0  0  0  0  0  0  0  0  0
  146.3198  136.7220  155.1626 H   0  0  0  0  0  0  0  0  0  0  0  0
  146.7349  136.3141  152.7669 H   0  0  0  0  0  0  0  0  0  0  0  0
  144.0886  137.7836  152.3408 H   0  0  0  0  0  0  0  0  0  0  0  0
  145.3102  137.7355  151.1129 H   0  0  0  0  0  0  0  0  0  0  0  0
  144.2737  135.0309  153.3755 H   0  0  0  0  0  0  0  0  0  0  0  0
  142.8231  135.8327  152.8146 H   0  0  0  0  0  0  0  0  0  0  0  0
  142.5708  133.3436  152.7853 H   0  0  0  0  0  0  0  0  0  0  0  0
  142.3955  134.0145  151.1729 H   0  0  0  0  0  0  0  0  0  0  0  0
  145.7618  132.9995  150.2244 H   0  0  0  0  0  0  0  0  0  0  0  0
  144.3187  133.7966  149.6248 H   0  0  0  0  0  0  0  0  0  0  0  0
  146.0229  135.4786  150.1660 H   0  0  0  0  0  0  0  0  0  0  0  0
  146.2235  134.8475  151.7895 H   0  0  0  0  0  0  0  0  0  0  0  0
  147.5735  139.7967  151.7369 H   0  0  0  0  0  0  0  0  0  0  0  0
  146.0098  140.2155  152.4522 H   0  0  0  0  0  0  0  0  0  0  0  0
  146.1126  138.9914  151.1841 H   0  0  0  0  0  0  0  0  0  0  0  0
  149.6294  136.5910  155.9091 H   0  0  0  0  0  0  0  0  0  0  0  0
  149.1553  142.8662  154.5531 H   0  0  0  0  0  0  0  0  0  0  0  0
  151.4931  140.6869  156.7125 H   0  0  0  0  0  0  0  0  0  0  0  0
  151.6475  142.0959  155.6887 H   0  0  0  0  0  0  0  0  0  0  0  0
  149.5650  143.0079  157.0542 H   0  0  0  0  0  0  0  0  0  0  0  0
  150.4550  141.7559  159.2535 H   0  0  0  0  0  0  0  0  0  0  0  0
  151.8902  143.9473  157.0985 H   0  0  0  0  0  0  0  0  0  0  0  0
  150.4679  145.3357  158.4405 H   0  0  0  0  0  0  0  0  0  0  0  0
  150.2767  144.0858  159.6756 H   0  0  0  0  0  0  0  0  0  0  0  0
  152.8233  145.5728  158.9760 H   0  0  0  0  0  0  0  0  0  0  0  0
  152.1056  145.3803  160.5805 H   0  0  0  0  0  0  0  0  0  0  0  0
  154.0589  143.6602  159.7506 H   0  0  0  0  0  0  0  0  0  0  0  0
  152.6676  143.0322  160.6365 H   0  0  0  0  0  0  0  0  0  0  0  0
  1  2  1  0  0  0  0
  1 29  1  0  0  0  0
  1 30  1  0  0  0  0
  1 31  1  0  0  0  0
  2  3  1  0  0  0  0
  2 10  1  0  0  0  0
  2 32  1  0  0  0  0
  3  4  1  0  0  0  0
  3 33  1  0  0  0  0
  3 34  1  0  0  0  0
  4  9  1  0  0  0  0
  4  5  1  0  0  0  0
  5  6  1  0  0  0  0
  5 35  1  0  0  0  0
  5 36  1  0  0  0  0
  6  7  1  0  0  0  0
  6 37  1  0  0  0  0
  6 38  1  0  0  0  0
  7  8  1  0  0  0  0
  8  9  1  0  0  0  0
  8 39  1  0  0  0  0
  8 40  1  0  0  0  0
  9 41  1  0  0  0  0
  9 42  1  0  0  0  0
 10 11  1  0  0  0  0
 10 12  1  0  0  0  0
 11 43  1  0  0  0  0
 11 44  1  0  0  0  0
 11 45  1  0  0  0  0
 12 17  1  0  0  0  0
 12 13  2  0  0  0  0
 13 14  1  0  0  0  0
 14 15  2  0  0  0  0
 14 46  1  0  0  0  0
 15 16  1  0  0  0  0
 16 20  1  0  0  0  0
 16 17  2  0  0  0  0
 17 18  1  0  0  0  0
 18 19  2  0  0  0  0
 19 20  1  0  0  0  0
 19 47  1  0  0  0  0
 20 21  1  0  0  0  0
 21 22  1  0  0  0  0
 21 48  1  0  0  0  0
 21 49  1  0  0  0  0
 22 23  1  0  0  0  0
 22 24  1  0  0  0  0
 22 50  1  0  0  0  0
 23 51  1  0  0  0  0
 24 28  1  0  0  0  0
 24 25  1  0  0  0  0
 24 52  1  0  0  0  0
 25 26  1  0  0  0  0
 25 53  1  0  0  0  0
 25 54  1  0  0  0  0
 26 27  1  0  0  0  0
 26 55  1  0  0  0  0
 26 56  1  0  0  0  0
 27 28  1  0  0  0  0
 27 57  1  0  0  0  0
 27 58  1  0  0  0  0
M  END
> <s_m_source_file>
AV-unprocessed.smi

> <i_m_source_file_index>
213

> <i_lp_mmshare_version>
43012

> <i_f3d_flags>
0

> <s_epik_input>
W0NIMl0xW0NIMl1PW0NIMl1bQ0gyXU4xW0NIMl1bQ0BASF0oW0NIM10pTihbQ0gzXSljKG5bY0hdbjIpYyhjMjMpbltjSF1uM1tDSDJdW0NASF0oW09IXSlbQ0BASF00W0NIMl1bQ0gyXVtDSDJdTzQ=

> <s_epik_cmdline>
J2VwaWtfcHl0aG9uJywgJy1waCcsICc3LjAnLCAnLXRuJywgJzgnLCAnLW1hJywgJzIwMCcsICctbWV0YWxfYmluZGluZycsICctaW1hZScsICc8aW5maWxlLm1hZT4nLCAnLW9tYWUnLCAnPG91dGZpbGUubWFlPic=

> <r_lp_tautomer_probability>
1

> <r_epik_Ionization_Penalty>
0.423322

> <r_epik_Ionization_Penalty_Charging>
0

> <r_epik_Ionization_Penalty_Neutral>
0.423322

> <r_epik_State_Penalty>
0.569486

> <r_epik_Charging_Adjusted_Penalty>
0.569486

> <i_epik_Tot_Q>
0

> <i_epik_Tot_abs_Q>
0

> <r_epik_Metal_State_Penalty>
0.568671

> <b_epik_Metal_Only>
0

> <s_lp_Force_Field>
OPLS_2005

> <r_lp_Energy>
55.4432

> <b_lp_Chiralities_Consistent>
1

> <s_lp_Variant>
AV-unprocessed.smi:213-16

> <Gold.Version>
5.8.1

> <Gold.Id.Protein>
6NUR|6NUR_protein|mol2

> <Gold.PLP.Fitness>
44.8689

> <Gold.PLP.PLP>
-43.0130

> <Gold.PLP.part.hbond>
-0.1770

> <Gold.PLP.part.metal>
0.0000

> <Gold.PLP.part.buried>
-1.0023

> <Gold.PLP.part.nonpolar>
-42.2290

> <Gold.PLP.part.repulsive>
0.7621

> <Gold.PLP.ligand.clash>
0.0000

> <Gold.PLP.ligand.torsion>
0.8755

> <Gold.PLP.Chemscore.Hbond>
0.0000

> <Gold.PLP.Chemscore.CHOScore>
1.0000

> <Gold.PLP.Chemscore.Metal>
0.0000

> <Gold.Chemscore.Hbonds>
donor molecule, donor type, donor heavy atom, donor atom, acceptor molecule, acceptor atom, score
      L1  C    19    47       P1  8028  1.00

> <Gold.PLP.Chemscore.Internal.Correction>
0.6068

> <Gold.Rescore>
     Score         DG    S(hbond)    S(metal)    S(lipo)     H(rot)  DE(clash)    DE(int)     intcor
      7.50     -11.26       0.00        0.00     109.29       2.74       0.72       3.04       ----

> <Gold.Chemscore.Fitness>
7.4993

> <Gold.Chemscore.DG>
-11.2584

> <Gold.Chemscore.ZeroCoef>
-5.4800

> <Gold.Chemscore.Hbond>
0.0000

> <Gold.Chemscore.Metal>
0.0000

> <Gold.Chemscore.Lipo>
109.2913

> <Gold.Chemscore.Internal_Hbond>
0.0000

> <Gold.Chemscore.DEClash>
0.7152

> <Gold.Chemscore.DEInternal>
3.0439

> <Gold.Chemscore.Rot>
2.7378

> <Gold.Chemscore.Internal.Correction>
   9.000000E+99

> <Gold.Chemscore.Hbond.Weighted>
-0.0000

> <Gold.Chemscore.Metal.Weighted>
-0.0000

> <Gold.Chemscore.Lipo.Weighted>
-12.7871

> <Gold.Chemscore.Internal_Hbond.Weighted>
0.0000

> <Gold.Chemscore.DEClash.Weighted>
0.7152

> <Gold.Chemscore.DEInternal.Weighted>
3.0439

> <Gold.Chemscore.Rot.Weighted>
7.0087

> <Gold.Chemscore.Internal.Correction.Weighted>
   9.000000E+99

> <Gold.Protein.RotatedTorsions>
[ 6907 6896 6895 6894 ] final -165.44 input  -60.11 | X-H torsion
[ 7974 7965 7964 7962 ] final    3.13 input  175.53 | X-H torsion
[ 8008 7997 7996 7995 ] final  136.81 input   59.86 | X-H torsion
[ 10167 10162 10161 10158 ] final  172.04 input  -65.29 | X-H torsion
[ 10718 10713 10712 10709 ] final  151.82 input   66.30 | X-H torsion
[ 10763 10752 10751 10750 ] final  105.53 input  -60.55 | X-H torsion
[ 11005 11000 10999 10996 ] final   10.10 input  -57.11 | X-H torsion

> <Gold.Protein.ActiveResidues>
 VAL166  LYS551  ARG553  GLY616  TRP617  ASP618  TYR619  PRO620  LYS621  CYS622 
 ASP623  PHE694  ASN695  SER759  ASP760  ASP761  ALA762  ILE779  LEU786  VAL792 
 PHE793  MET794  SER795  GLU796  ALA797  LYS798  CYS799  TRP800  GLU811  SER814 

> <Gold.Protein.RotatedAtoms>
  151.4278  133.3679  159.2764 H   0  0  0  0  0  0  0  0  0  0  0  0  # atno 6907 bound_to 6896
  150.9247  134.8665  159.7523 H   0  0  0  0  0  0  0  0  0  0  0  0  # atno 6908 bound_to 6896
  152.4999  134.4218  159.9535 H   0  0  0  0  0  0  0  0  0  0  0  0  # atno 6909 bound_to 6896
  146.2445  140.0731  142.8361 H   0  0  0  0  0  0  0  0  0  0  0  0  # atno 7974 bound_to 7965
  156.3003  140.2435  156.3806 H   0  0  0  0  0  0  0  0  0  0  0  0  # atno 8008 bound_to 7997
  154.8705  140.0416  157.1741 H   0  0  0  0  0  0  0  0  0  0  0  0  # atno 8009 bound_to 7997
  154.8801  140.2948  155.5434 H   0  0  0  0  0  0  0  0  0  0  0  0  # atno 8010 bound_to 7997
  139.5064  144.3419  152.0010 H   0  0  0  0  0  0  0  0  0  0  0  0  # atno 10167 bound_to 10162
  157.2657  131.0807  151.1634 H   0  0  0  0  0  0  0  0  0  0  0  0  # atno 10718 bound_to 10713
  153.3806  135.3907  155.1854 H   0  0  0  0  0  0  0  0  0  0  0  0  # atno 10763 bound_to 10752
  154.8707  135.3724  154.4862 H   0  0  0  0  0  0  0  0  0  0  0  0  # atno 10764 bound_to 10752
  153.5338  135.7085  153.5731 H   0  0  0  0  0  0  0  0  0  0  0  0  # atno 10765 bound_to 10752
  140.5183  134.0584  155.7837 H   0  0  0  0  0  0  0  0  0  0  0  0  # atno 11005 bound_to 11000
  145.0799  140.9213  143.4832 LP  0  0  0  0  0  0  0  0  0  0  0  0  # atno 17320 bound_to 7965
  145.0882  139.2909  143.5749 LP  0  0  0  0  0  0  0  0  0  0  0  0  # atno 17321 bound_to 7965
  140.2856  144.3811  150.6104 LP  0  0  0  0  0  0  0  0  0  0  0  0  # atno 17342 bound_to 10162
  140.5985  143.2167  151.7118 LP  0  0  0  0  0  0  0  0  0  0  0  0  # atno 17343 bound_to 10162
  157.3126  130.6897  149.6224 LP  0  0  0  0  0  0  0  0  0  0  0  0  # atno 17370 bound_to 10713
  155.9663  130.4359  150.5111 LP  0  0  0  0  0  0  0  0  0  0  0  0  # atno 17371 bound_to 10713
  141.1348  133.9240  157.2458 LP  0  0  0  0  0  0  0  0  0  0  0  0  # atno 17394 bound_to 11000
  139.9620  135.0152  156.9286 LP  0  0  0  0  0  0  0  0  0  0  0  0  # atno 17395 bound_to 11000

$$$$
