AV-unprocessed.smi:745|AV-procd|sdf|3573|dock6
  -GOLD-   22720 0563D 1   1.00000     0.00000
 Structure written by MMmdl.
 42 43  0  0  0  0  0  0  0  0  2 V2000
  144.5543  137.2054  153.2450 C   0  0  0  0  0  0  0  0  0  0  0  0
  145.5085  137.0738  152.0451 C   0  0  1  0  0  0  0  0  0  0  0  0
  146.8481  137.4505  152.4991 N   0  0  0  0  0  0  0  0  0  0  0  0
  147.1501  138.5027  153.2757 C   0  0  0  0  0  0  0  0  0  0  0  0
  146.3159  139.3173  153.6719 O   0  0  0  0  0  0  0  0  0  0  0  0
  148.4665  138.5434  153.5466 N   0  0  0  0  0  0  0  0  0  0  0  0
  149.1737  139.4996  154.3232 C   0  0  0  0  0  0  0  0  0  0  0  0
  150.4536  139.0882  154.7587 C   0  0  0  0  0  0  0  0  0  0  0  0
  151.2362  139.9646  155.5353 C   0  0  0  0  0  0  0  0  0  0  0  0
  150.7182  141.2319  155.8566 C   0  0  0  0  0  0  0  0  0  0  0  0
  149.4355  141.5632  155.3826 C   0  0  0  0  0  0  0  0  0  0  0  0
  148.6840  140.7251  154.6377 N   0  0  0  0  0  0  0  0  0  0  0  0
  145.5119  135.6548  151.4108 C   0  0  2  0  0  0  0  0  0  0  0  0
  144.0910  135.1656  151.0425 C   0  0  0  0  0  0  0  0  0  0  0  0
  144.0977  133.7413  150.4644 C   0  0  0  0  0  0  0  0  0  0  0  0
  144.7360  132.7903  151.4043 N   0  3  1  0  0  0  0  0  0  0  0  0
  144.6458  131.3896  150.9395 C   0  0  0  0  0  0  0  0  0  0  0  0
  146.1255  133.1920  151.7256 C   0  0  0  0  0  0  0  0  0  0  0  0
  146.1641  134.6028  152.3356 C   0  0  0  0  0  0  0  0  0  0  0  0
  143.5119  137.0902  152.9503 H   0  0  0  0  0  0  0  0  0  0  0  0
  144.6411  138.1904  153.7055 H   0  0  0  0  0  0  0  0  0  0  0  0
  144.7724  136.4615  154.0119 H   0  0  0  0  0  0  0  0  0  0  0  0
  145.1692  137.7838  151.2885 H   0  0  0  0  0  0  0  0  0  0  0  0
  147.6039  136.8422  152.2196 H   0  0  0  0  0  0  0  0  0  0  0  0
  149.0287  137.8026  153.1548 H   0  0  0  0  0  0  0  0  0  0  0  0
  150.8364  138.1108  154.5028 H   0  0  0  0  0  0  0  0  0  0  0  0
  152.2166  139.6684  155.8779 H   0  0  0  0  0  0  0  0  0  0  0  0
  151.2884  141.9312  156.4500 H   0  0  0  0  0  0  0  0  0  0  0  0
  149.0011  142.5263  155.6063 H   0  0  0  0  0  0  0  0  0  0  0  0
  146.0964  135.6992  150.4901 H   0  0  0  0  0  0  0  0  0  0  0  0
  143.4512  135.1965  151.9258 H   0  0  0  0  0  0  0  0  0  0  0  0
  143.6335  135.8291  150.3089 H   0  0  0  0  0  0  0  0  0  0  0  0
  143.0723  133.4260  150.2663 H   0  0  0  0  0  0  0  0  0  0  0  0
  144.6257  133.7246  149.5096 H   0  0  0  0  0  0  0  0  0  0  0  0
  145.1893  131.2520  150.0038 H   0  0  0  0  0  0  0  0  0  0  0  0
  143.6059  131.1045  150.7773 H   0  0  0  0  0  0  0  0  0  0  0  0
  145.0648  130.7101  151.6824 H   0  0  0  0  0  0  0  0  0  0  0  0
  146.5577  132.4803  152.4302 H   0  0  0  0  0  0  0  0  0  0  0  0
  146.7368  133.1551  150.8222 H   0  0  0  0  0  0  0  0  0  0  0  0
  147.2041  134.8590  152.5356 H   0  0  0  0  0  0  0  0  0  0  0  0
  145.6563  134.5954  153.3012 H   0  0  0  0  0  0  0  0  0  0  0  0
  144.2127  132.8410  152.2669 H   0  0  0  0  0  0  0  0  0  0  0  0
  1  2  1  0  0  0  0
  1 20  1  0  0  0  0
  1 21  1  0  0  0  0
  1 22  1  0  0  0  0
  2  3  1  0  0  0  0
  2 13  1  0  0  0  0
  2 23  1  0  0  0  0
  3  4  1  0  0  0  0
  3 24  1  0  0  0  0
  4  5  2  0  0  0  0
  4  6  1  0  0  0  0
  6  7  1  0  0  0  0
  6 25  1  0  0  0  0
  7 12  1  0  0  0  0
  7  8  2  0  0  0  0
  8  9  1  0  0  0  0
  8 26  1  0  0  0  0
  9 10  2  0  0  0  0
  9 27  1  0  0  0  0
 10 11  1  0  0  0  0
 10 28  1  0  0  0  0
 11 12  2  0  0  0  0
 11 29  1  0  0  0  0
 13 19  1  0  0  0  0
 13 14  1  0  0  0  0
 13 30  1  0  0  0  0
 14 15  1  0  0  0  0
 14 31  1  0  0  0  0
 14 32  1  0  0  0  0
 15 16  1  0  0  0  0
 15 33  1  0  0  0  0
 15 34  1  0  0  0  0
 16 17  1  0  0  0  0
 16 18  1  0  0  0  0
 16 42  1  0  0  0  0
 17 35  1  0  0  0  0
 17 36  1  0  0  0  0
 17 37  1  0  0  0  0
 18 19  1  0  0  0  0
 18 38  1  0  0  0  0
 18 39  1  0  0  0  0
 19 40  1  0  0  0  0
 19 41  1  0  0  0  0
M  CHG  1  16   1
M  END
> <s_m_source_file>
AV-unprocessed.smi

> <i_m_source_file_index>
745

> <i_lp_mmshare_version>
43012

> <i_f3d_flags>
0

> <s_epik_input>
W0NIMl0xW0NIMl1OKFtDSDNdKVtDSDJdW0NIMl1bQ0hdMVtDQEhdKFtDSDNdKVtOSF1DKD1PKVtOSF1jMltjSF1bY0hdW2NIXVtjSF1uMg==

> <s_epik_cmdline>
J2VwaWtfcHl0aG9uJywgJy1waCcsICc3LjAnLCAnLXRuJywgJzgnLCAnLW1hJywgJzIwMCcsICctbWV0YWxfYmluZGluZycsICctaW1hZScsICc8aW5maWxlLm1hZT4nLCAnLW9tYWUnLCAnPG91dGZpbGUubWFlPic=

> <r_epik_Ionization_Penalty>
0.0011087

> <r_epik_Ionization_Penalty_Charging>
0.00106265

> <r_epik_Ionization_Penalty_Neutral>
4.60506e-05

> <r_epik_State_Penalty>
0.000695551

> <r_epik_Charging_Adjusted_Penalty>
0.0017582

> <i_epik_Tot_Q>
1

> <i_epik_Tot_abs_Q>
1

> <r_epik_Metal_State_Penalty>
-0

> <b_epik_Metal_Only>
0

> <s_lp_Force_Field>
OPLS_2005

> <r_lp_Energy>
20.1287

> <b_lp_Chiralities_Consistent>
1

> <s_lp_Variant>
AV-unprocessed.smi:745-2

> <Gold.Version>
5.8.1

> <Gold.Id.Protein>
6NUR|6NUR_protein|mol2

> <Gold.PLP.Fitness>
41.5221

> <Gold.PLP.PLP>
-33.4835

> <Gold.PLP.part.hbond>
-2.8358

> <Gold.PLP.part.metal>
0.0000

> <Gold.PLP.part.buried>
-4.1898

> <Gold.PLP.part.nonpolar>
-28.9688

> <Gold.PLP.part.repulsive>
0.3807

> <Gold.PLP.ligand.clash>
0.0000

> <Gold.PLP.ligand.torsion>
0.2966

> <Gold.PLP.Chemscore.Hbond>
1.8713

> <Gold.PLP.Chemscore.CHOScore>
1.0000

> <Gold.PLP.Chemscore.Metal>
0.0000

> <Gold.Chemscore.Hbonds>
donor molecule, donor type, donor heavy atom, donor atom, acceptor molecule, acceptor atom, score
      L1  H     3    24       P1  7948  0.96
      L1  H     6    25       P1  7948  0.86
      L1  C    11    29       P1  8028  1.00

> <Gold.PLP.Chemscore.Internal.Correction>
0.0180

> <Gold.Rescore>
     Score         DG    S(hbond)    S(metal)    S(lipo)     H(rot)  DE(clash)    DE(int)     intcor
     14.26     -17.71       1.90        0.00      77.80       1.26       0.64       2.81       ----

> <Gold.Chemscore.Fitness>
14.2602

> <Gold.Chemscore.DG>
-17.7144

> <Gold.Chemscore.ZeroCoef>
-5.4800

> <Gold.Chemscore.Hbond>
1.9035

> <Gold.Chemscore.Metal>
0.0000

> <Gold.Chemscore.Lipo>
77.8005

> <Gold.Chemscore.Internal_Hbond>
0.0000

> <Gold.Chemscore.DEClash>
0.6399

> <Gold.Chemscore.DEInternal>
2.8143

> <Gold.Chemscore.Rot>
1.2601

> <Gold.Chemscore.Internal.Correction>
   9.000000E+99

> <Gold.Chemscore.Hbonds>
donor molecule, donor type, donor heavy atom, donor atom, acceptor molecule, acceptor atom, score
      L1  H     3    24       P1  7948  0.90
      L1  H     6    25       P1  7948  0.81

> <Gold.Chemscore.Hbond.Weighted>
-6.3577

> <Gold.Chemscore.Metal.Weighted>
-0.0000

> <Gold.Chemscore.Lipo.Weighted>
-9.1027

> <Gold.Chemscore.Internal_Hbond.Weighted>
0.0000

> <Gold.Chemscore.DEClash.Weighted>
0.6399

> <Gold.Chemscore.DEInternal.Weighted>
2.8143

> <Gold.Chemscore.Rot.Weighted>
3.2260

> <Gold.Chemscore.Internal.Correction.Weighted>
   9.000000E+99

> <Gold.Protein.RotatedTorsions>
[ 6907 6896 6895 6894 ] final  -52.70 input  -60.11 | X-H torsion
[ 7974 7965 7964 7962 ] final  118.14 input  175.53 | X-H torsion
[ 8008 7997 7996 7995 ] final   54.44 input   59.86 | X-H torsion
[ 10167 10162 10161 10158 ] final   88.36 input  -65.29 | X-H torsion
[ 10718 10713 10712 10709 ] final   -2.31 input   66.30 | X-H torsion
[ 10763 10752 10751 10750 ] final -143.35 input  -60.55 | X-H torsion
[ 11005 11000 10999 10996 ] final  144.53 input  -57.11 | X-H torsion

> <Gold.Protein.ActiveResidues>
 VAL166  LYS551  ARG553  GLY616  TRP617  ASP618  TYR619  PRO620  LYS621  CYS622 
 ASP623  PHE694  ASN695  SER759  ASP760  ASP761  ALA762  ILE779  LEU786  VAL792 
 PHE793  MET794  SER795  GLU796  ALA797  LYS798  CYS799  TRP800  GLU811  SER814 

> <Gold.Protein.RotatedAtoms>
  150.8494  134.7814  159.6996 H   0  0  0  0  0  0  0  0  0  0  0  0  # atno 6907 bound_to 6896
  152.4563  134.5282  159.9813 H   0  0  0  0  0  0  0  0  0  0  0  0  # atno 6908 bound_to 6896
  151.5406  133.3395  159.2970 H   0  0  0  0  0  0  0  0  0  0  0  0  # atno 6909 bound_to 6896
  145.1588  139.3167  143.4528 H   0  0  0  0  0  0  0  0  0  0  0  0  # atno 7974 bound_to 7965
  155.4848  140.3469  155.4345 H   0  0  0  0  0  0  0  0  0  0  0  0  # atno 8008 bound_to 7997
  156.1016  140.1437  156.9489 H   0  0  0  0  0  0  0  0  0  0  0  0  # atno 8009 bound_to 7997
  154.4697  140.0905  156.7091 H   0  0  0  0  0  0  0  0  0  0  0  0  # atno 8010 bound_to 7997
  139.8681  144.6508  150.8981 H   0  0  0  0  0  0  0  0  0  0  0  0  # atno 10167 bound_to 10162
  156.7927  130.5367  149.5733 H   0  0  0  0  0  0  0  0  0  0  0  0  # atno 10718 bound_to 10713
  154.8473  135.3470  154.6174 H   0  0  0  0  0  0  0  0  0  0  0  0  # atno 10763 bound_to 10752
  153.6783  135.6981  153.5130 H   0  0  0  0  0  0  0  0  0  0  0  0  # atno 10764 bound_to 10752
  153.2688  135.4299  155.0924 H   0  0  0  0  0  0  0  0  0  0  0  0  # atno 10765 bound_to 10752
  140.0639  134.9189  157.1231 H   0  0  0  0  0  0  0  0  0  0  0  0  # atno 11005 bound_to 11000
  146.3485  140.1690  142.8590 LP  0  0  0  0  0  0  0  0  0  0  0  0  # atno 17320 bound_to 7965
  145.0353  140.8903  143.5085 LP  0  0  0  0  0  0  0  0  0  0  0  0  # atno 17321 bound_to 7965
  140.7765  143.3687  151.1690 LP  0  0  0  0  0  0  0  0  0  0  0  0  # atno 17342 bound_to 10162
  139.7310  143.9072  152.3019 LP  0  0  0  0  0  0  0  0  0  0  0  0  # atno 17343 bound_to 10162
  156.1149  130.6068  151.0105 LP  0  0  0  0  0  0  0  0  0  0  0  0  # atno 17370 bound_to 10713
  157.6593  131.0884  150.7876 LP  0  0  0  0  0  0  0  0  0  0  0  0  # atno 17371 bound_to 10713
  140.3728  134.2372  155.7176 LP  0  0  0  0  0  0  0  0  0  0  0  0  # atno 17394 bound_to 11000
  141.1985  133.8035  157.0581 LP  0  0  0  0  0  0  0  0  0  0  0  0  # atno 17395 bound_to 11000

$$$$
