AV-unprocessed.smi:2062|AV-procd|sdf|8398|dock6
  -GOLD-   2272011 83D 1   1.00000     0.00000
 Structure written by MMmdl.
 43 44  0  0  0  0  0  0  0  0  2 V2000
  149.8381  141.9519  157.4972 C   0  0  0  0  0  0  0  0  0  0  0  0
  150.2417  141.0123  156.3484 C   0  0  0  0  0  0  0  0  0  0  0  0
  150.0741  141.7186  154.9947 C   0  0  0  0  0  0  0  0  0  0  0  0
  149.4421  139.6909  156.3726 C   0  0  0  0  0  0  0  0  0  0  0  0
  149.5925  138.8878  155.1278 N   0  3  1  0  0  0  0  0  0  0  0  0
  150.9940  138.7913  154.6525 C   0  0  0  0  0  0  0  0  0  0  0  0
  151.7892  137.7620  155.4747 C   0  0  0  0  0  0  0  0  0  0  0  0
  151.1321  136.5032  155.4138 O   0  0  0  0  0  0  0  0  0  0  0  0
  149.8229  136.5353  155.9743 C   0  0  2  0  0  0  0  0  0  0  0  0
  149.2276  135.1169  155.9231 C   0  0  0  0  0  0  0  0  0  0  0  0
  148.5866  134.8432  154.6411 N   0  0  0  0  0  0  0  0  0  0  0  0
  147.8389  133.7651  154.3651 C   0  0  0  0  0  0  0  0  0  0  0  0
  147.6066  132.8735  155.1817 O   0  0  0  0  0  0  0  0  0  0  0  0
  147.3878  133.7980  153.0991 N   0  0  0  0  0  0  0  0  0  0  0  0
  146.5709  132.8471  152.4330 C   0  0  0  0  0  0  0  0  0  0  0  0
  146.2190  132.9245  151.1443 N   0  0  0  0  0  0  0  0  0  0  0  0
  145.4114  131.8523  150.7563 C   0  0  0  0  0  0  0  0  0  0  0  0
  145.1572  130.9619  151.7696 C   0  0  0  0  0  0  0  0  0  0  0  0
  145.9271  131.4364  153.2598 S   0  0  0  0  0  0  0  0  0  0  0  0
  148.9685  137.5397  155.1688 C   0  0  0  0  0  0  0  0  0  0  0  0
  148.7812  142.2154  157.4434 H   0  0  0  0  0  0  0  0  0  0  0  0
  150.4120  142.8786  157.4645 H   0  0  0  0  0  0  0  0  0  0  0  0
  150.0190  141.4950  158.4702 H   0  0  0  0  0  0  0  0  0  0  0  0
  151.3033  140.7927  156.4540 H   0  0  0  0  0  0  0  0  0  0  0  0
  149.0332  141.9870  154.8118 H   0  0  0  0  0  0  0  0  0  0  0  0
  150.4020  141.0798  154.1741 H   0  0  0  0  0  0  0  0  0  0  0  0
  150.6653  142.6340  154.9522 H   0  0  0  0  0  0  0  0  0  0  0  0
  149.7909  139.1019  157.2221 H   0  0  0  0  0  0  0  0  0  0  0  0
  148.3877  139.8908  156.5629 H   0  0  0  0  0  0  0  0  0  0  0  0
  150.9811  138.4816  153.6066 H   0  0  0  0  0  0  0  0  0  0  0  0
  151.4794  139.7675  154.6753 H   0  0  0  0  0  0  0  0  0  0  0  0
  152.7939  137.6524  155.0661 H   0  0  0  0  0  0  0  0  0  0  0  0
  151.9027  138.0812  156.5117 H   0  0  0  0  0  0  0  0  0  0  0  0
  149.8812  136.8481  157.0177 H   0  0  0  0  0  0  0  0  0  0  0  0
  150.0230  134.3817  156.0475 H   0  0  0  0  0  0  0  0  0  0  0  0
  148.5318  134.9587  156.7489 H   0  0  0  0  0  0  0  0  0  0  0  0
  148.7278  135.5229  153.9082 H   0  0  0  0  0  0  0  0  0  0  0  0
  147.6636  134.5947  152.5441 H   0  0  0  0  0  0  0  0  0  0  0  0
  145.0610  131.8009  149.7359 H   0  0  0  0  0  0  0  0  0  0  0  0
  144.5664  130.0590  151.7296 H   0  0  0  0  0  0  0  0  0  0  0  0
  147.9552  137.5868  155.5646 H   0  0  0  0  0  0  0  0  0  0  0  0
  148.8714  137.1850  154.1418 H   0  0  0  0  0  0  0  0  0  0  0  0
  149.0989  139.4126  154.4195 H   0  0  0  0  0  0  0  0  0  0  0  0
  1  2  1  0  0  0  0
  1 21  1  0  0  0  0
  1 22  1  0  0  0  0
  1 23  1  0  0  0  0
  2  3  1  0  0  0  0
  2  4  1  0  0  0  0
  2 24  1  0  0  0  0
  3 25  1  0  0  0  0
  3 26  1  0  0  0  0
  3 27  1  0  0  0  0
  4  5  1  0  0  0  0
  4 28  1  0  0  0  0
  4 29  1  0  0  0  0
  5 20  1  0  0  0  0
  5  6  1  0  0  0  0
  5 43  1  0  0  0  0
  6  7  1  0  0  0  0
  6 30  1  0  0  0  0
  6 31  1  0  0  0  0
  7  8  1  0  0  0  0
  7 32  1  0  0  0  0
  7 33  1  0  0  0  0
  8  9  1  0  0  0  0
  9 10  1  0  0  0  0
  9 20  1  0  0  0  0
  9 34  1  0  0  0  0
 10 11  1  0  0  0  0
 10 35  1  0  0  0  0
 10 36  1  0  0  0  0
 11 12  1  0  0  0  0
 11 37  1  0  0  0  0
 12 13  2  0  0  0  0
 12 14  1  0  0  0  0
 14 15  1  0  0  0  0
 14 38  1  0  0  0  0
 15 19  1  0  0  0  0
 15 16  2  0  0  0  0
 16 17  1  0  0  0  0
 17 18  2  0  0  0  0
 17 39  1  0  0  0  0
 18 19  1  0  0  0  0
 18 40  1  0  0  0  0
 20 41  1  0  0  0  0
 20 42  1  0  0  0  0
M  CHG  1   5   1
M  END
> <s_m_source_file>
AV-unprocessed.smi

> <i_m_source_file_index>
2062

> <i_lp_mmshare_version>
43012

> <i_f3d_flags>
0

> <s_epik_input>
W0NIM11bQ0hdKFtDSDNdKVtDSDJdTjFbQ0gyXVtDSDJdT1tDQEhdKFtDSDJdMSlbQ0gyXVtOSF1DKD1PKVtOSF1jMm5bY0hdW2NIXXMy

> <s_epik_cmdline>
J2VwaWtfcHl0aG9uJywgJy1waCcsICc3LjAnLCAnLXRuJywgJzgnLCAnLW1hJywgJzIwMCcsICctbWV0YWxfYmluZGluZycsICctaW1hZScsICc8aW5maWxlLm1hZT4nLCAnLW9tYWUnLCAnPG91dGZpbGUubWFlPic=

> <r_lp_tautomer_probability>
0.999

> <r_epik_Ionization_Penalty>
0.0985527

> <r_epik_Ionization_Penalty_Charging>
0.098413

> <r_epik_Ionization_Penalty_Neutral>
0.000139681

> <r_epik_State_Penalty>
0.0884988

> <r_epik_Charging_Adjusted_Penalty>
0.186912

> <i_epik_Tot_Q>
1

> <i_epik_Tot_abs_Q>
1

> <r_epik_Metal_State_Penalty>
0.141792

> <b_epik_Metal_Only>
0

> <s_lp_Force_Field>
OPLS_2005

> <r_lp_Energy>
18.2091

> <b_lp_Chiralities_Consistent>
1

> <s_lp_Variant>
AV-unprocessed.smi:2062-3

> <Gold.Version>
5.8.1

> <Gold.Id.Protein>
6NUR|6NUR_protein|mol2

> <Gold.PLP.Fitness>
39.8376

> <Gold.PLP.PLP>
-31.8482

> <Gold.PLP.part.hbond>
-3.0000

> <Gold.PLP.part.metal>
0.0000

> <Gold.PLP.part.buried>
-4.0822

> <Gold.PLP.part.nonpolar>
-24.8926

> <Gold.PLP.part.repulsive>
0.4266

> <Gold.PLP.ligand.clash>
0.0000

> <Gold.PLP.ligand.torsion>
0.4991

> <Gold.PLP.Chemscore.Hbond>
2.9600

> <Gold.PLP.Chemscore.CHOScore>
0.0000

> <Gold.PLP.Chemscore.Metal>
0.0000

> <Gold.Chemscore.Hbonds>
donor molecule, donor type, donor heavy atom, donor atom, acceptor molecule, acceptor atom, score
      L1  H    11    37       P1  7948  0.68
      L1  H    14    38       P1  7948  0.70
      P1  H 10752 10764       L1     8  0.32

> <Gold.PLP.Chemscore.Internal.Correction>
0.1076

> <Gold.Rescore>
     Score         DG    S(hbond)    S(metal)    S(lipo)     H(rot)  DE(clash)    DE(int)     intcor
     14.75     -16.70       2.37        0.00      66.61       1.76       0.01       1.93       ----

> <Gold.Chemscore.Fitness>
14.7545

> <Gold.Chemscore.DG>
-16.6978

> <Gold.Chemscore.ZeroCoef>
-5.4800

> <Gold.Chemscore.Hbond>
2.3742

> <Gold.Chemscore.Metal>
0.0000

> <Gold.Chemscore.Lipo>
66.6099

> <Gold.Chemscore.Internal_Hbond>
0.0000

> <Gold.Chemscore.DEClash>
0.0086

> <Gold.Chemscore.DEInternal>
1.9347

> <Gold.Chemscore.Rot>
1.7599

> <Gold.Chemscore.Internal.Correction>
   9.000000E+99

> <Gold.Chemscore.Hbonds>
donor molecule, donor type, donor heavy atom, donor atom, acceptor molecule, acceptor atom, score
      L1  H    11    37       P1  7948  0.65
      L1  H    14    38       P1  7948  0.56
      P1  H 10752 10764       L1     8  0.01

> <Gold.Chemscore.Hbond.Weighted>
-7.9299

> <Gold.Chemscore.Metal.Weighted>
-0.0000

> <Gold.Chemscore.Lipo.Weighted>
-7.7934

> <Gold.Chemscore.Internal_Hbond.Weighted>
0.0000

> <Gold.Chemscore.DEClash.Weighted>
0.0086

> <Gold.Chemscore.DEInternal.Weighted>
1.9347

> <Gold.Chemscore.Rot.Weighted>
4.5054

> <Gold.Chemscore.Internal.Correction.Weighted>
   9.000000E+99

> <Gold.Protein.RotatedTorsions>
[ 6907 6896 6895 6894 ] final -140.85 input  -60.11 | X-H torsion
[ 7974 7965 7964 7962 ] final -146.23 input  175.53 | X-H torsion
[ 8008 7997 7996 7995 ] final  109.19 input   59.86 | X-H torsion
[ 10167 10162 10161 10158 ] final  -54.60 input  -65.29 | X-H torsion
[ 10718 10713 10712 10709 ] final   72.22 input   66.30 | X-H torsion
[ 10763 10752 10751 10750 ] final  -56.47 input  -60.55 | X-H torsion
[ 11005 11000 10999 10996 ] final   21.91 input  -57.11 | X-H torsion

> <Gold.Protein.ActiveResidues>
 VAL166  LYS551  ARG553  GLY616  TRP617  ASP618  TYR619  PRO620  LYS621  CYS622 
 ASP623  PHE694  ASN695  SER759  ASP760  ASP761  ALA762  ILE779  LEU786  VAL792 
 PHE793  MET794  SER795  GLU796  ALA797  LYS798  CYS799  TRP800  GLU811  SER814 

> <Gold.Protein.RotatedAtoms>
  151.0661  133.5504  159.2630 H   0  0  0  0  0  0  0  0  0  0  0  0  # atno 6907 bound_to 6896
  151.2461  135.0605  159.9054 H   0  0  0  0  0  0  0  0  0  0  0  0  # atno 6908 bound_to 6896
  152.5405  134.0428  159.8129 H   0  0  0  0  0  0  0  0  0  0  0  0  # atno 6909 bound_to 6896
  144.8173  140.5483  143.5602 H   0  0  0  0  0  0  0  0  0  0  0  0  # atno 7974 bound_to 7965
  156.1960  140.3062  155.9429 H   0  0  0  0  0  0  0  0  0  0  0  0  # atno 8008 bound_to 7997
  155.3064  140.0449  157.3049 H   0  0  0  0  0  0  0  0  0  0  0  0  # atno 8009 bound_to 7997
  154.5511  140.2291  155.8493 H   0  0  0  0  0  0  0  0  0  0  0  0  # atno 8010 bound_to 7997
  140.6421  143.2514  151.4960 H   0  0  0  0  0  0  0  0  0  0  0  0  # atno 10167 bound_to 10162
  157.6490  130.9568  150.0898 H   0  0  0  0  0  0  0  0  0  0  0  0  # atno 10718 bound_to 10713
  154.2071  135.6401  153.5104 H   0  0  0  0  0  0  0  0  0  0  0  0  # atno 10763 bound_to 10752
  152.9998  135.5465  154.6254 H   0  0  0  0  0  0  0  0  0  0  0  0  # atno 10764 bound_to 10752
  154.5682  135.2914  155.0827 H   0  0  0  0  0  0  0  0  0  0  0  0  # atno 10765 bound_to 10752
  140.3864  134.1866  155.7663 H   0  0  0  0  0  0  0  0  0  0  0  0  # atno 11005 bound_to 11000
  145.5184  139.1477  143.3566 LP  0  0  0  0  0  0  0  0  0  0  0  0  # atno 17320 bound_to 7965
  146.2477  140.5325  142.8906 LP  0  0  0  0  0  0  0  0  0  0  0  0  # atno 17321 bound_to 7965
  139.5631  144.2109  152.1722 LP  0  0  0  0  0  0  0  0  0  0  0  0  # atno 17342 bound_to 10162
  140.1382  144.5226  150.6760 LP  0  0  0  0  0  0  0  0  0  0  0  0  # atno 17343 bound_to 10162
  156.1850  130.3652  149.8984 LP  0  0  0  0  0  0  0  0  0  0  0  0  # atno 17370 bound_to 10713
  156.6927  130.8902  151.3590 LP  0  0  0  0  0  0  0  0  0  0  0  0  # atno 17371 bound_to 10713
  141.1906  133.8213  157.0912 LP  0  0  0  0  0  0  0  0  0  0  0  0  # atno 17394 bound_to 11000
  140.0439  134.9840  157.1014 LP  0  0  0  0  0  0  0  0  0  0  0  0  # atno 17395 bound_to 11000

$$$$
