AV-unprocessed.smi:72|AV-procd|sdf|669|dock2
  -GOLD-   2262016573D 1   1.00000     0.00000
 Structure written by MMmdl.
 29 30  0  0  0  0  0  0  0  0  1 V2000
  140.5489  135.1126  153.8841 N   0  0  0  0  0  0  0  0  0  0  0  0
  141.7201  135.5104  153.5350 C   0  0  0  0  0  0  0  0  0  0  0  0
  142.0134  136.7496  152.9472 N   0  0  0  0  0  0  0  0  0  0  0  0
  143.2422  137.0110  152.6234 C   0  0  0  0  0  0  0  0  0  0  0  0
  144.3222  136.0524  152.8264 N   0  0  0  0  0  0  0  0  0  0  0  0
  145.7702  136.3577  152.4742 C   0  0  2  0  0  0  0  0  0  0  0  0
  146.5628  136.3537  153.6238 O   0  0  0  0  0  0  0  0  0  0  0  0
  146.6782  137.6784  154.1278 C   0  0  1  0  0  0  0  0  0  0  0  0
  147.8902  137.7772  155.0656 C   0  0  0  0  0  0  0  0  0  0  0  0
  149.0821  137.6008  154.3300 O   0  0  0  0  0  0  0  0  0  0  0  0
  146.8242  138.4944  152.8426 C   0  0  2  0  0  0  0  0  0  0  0  0
  146.3773  139.8197  153.0485 O   0  0  0  0  0  0  0  0  0  0  0  0
  145.9156  137.7662  151.8539 C   0  0  1  0  0  0  0  0  0  0  0  0
  146.5244  137.7132  150.5802 O   0  0  0  0  0  0  0  0  0  0  0  0
  144.0471  134.8218  153.4739 C   0  0  0  0  0  0  0  0  0  0  0  0
  144.9284  134.0028  153.7344 O   0  0  0  0  0  0  0  0  0  0  0  0
  142.7528  134.5984  153.7870 N   0  0  0  0  0  0  0  0  0  0  0  0
  146.0708  135.5401  151.8161 H   0  0  0  0  0  0  0  0  0  0  0  0
  145.7593  137.9642  154.6439 H   0  0  0  0  0  0  0  0  0  0  0  0
  147.8622  138.4865  152.5050 H   0  0  0  0  0  0  0  0  0  0  0  0
  144.9402  138.2502  151.7806 H   0  0  0  0  0  0  0  0  0  0  0  0
  140.5935  134.1885  154.2873 H   0  0  0  0  0  0  0  0  0  0  0  0
  143.5323  137.9651  152.1832 H   0  0  0  0  0  0  0  0  0  0  0  0
  147.9066  138.7296  155.5961 H   0  0  0  0  0  0  0  0  0  0  0  0
  147.8489  136.9875  155.8163 H   0  0  0  0  0  0  0  0  0  0  0  0
  149.5812  138.4020  154.3695 H   0  0  0  0  0  0  0  0  0  0  0  0
  145.4499  139.8522  152.8689 H   0  0  0  0  0  0  0  0  0  0  0  0
  145.9077  138.0392  149.9420 H   0  0  0  0  0  0  0  0  0  0  0  0
  142.5275  133.7235  154.2374 H   0  0  0  0  0  0  0  0  0  0  0  0
  1  2  2  0  0  0  0
  1 22  1  0  0  0  0
  2 17  1  0  0  0  0
  2  3  1  0  0  0  0
  3  4  2  0  0  0  0
  4  5  1  0  0  0  0
  4 23  1  0  0  0  0
  5  6  1  0  0  0  0
  5 15  1  0  0  0  0
  6 18  1  0  0  0  0
  6 13  1  0  0  0  0
  6  7  1  0  0  0  0
  7  8  1  0  0  0  0
  8 19  1  0  0  0  0
  8  9  1  0  0  0  0
  8 11  1  0  0  0  0
  9 10  1  0  0  0  0
  9 24  1  0  0  0  0
  9 25  1  0  0  0  0
 10 26  1  0  0  0  0
 11 20  1  0  0  0  0
 11 12  1  0  0  0  0
 11 13  1  0  0  0  0
 12 27  1  0  0  0  0
 13 21  1  0  0  0  0
 13 14  1  0  0  0  0
 14 28  1  0  0  0  0
 15 16  2  0  0  0  0
 15 17  1  0  0  0  0
 17 29  1  0  0  0  0
M  END
> <s_m_source_file>
AV-unprocessed.smi

> <i_m_source_file_index>
72

> <i_lp_mmshare_version>
43012

> <i_f3d_flags>
0

> <s_epik_input>
W05IMl1jMW5bY0hdbihjKD1PKW4xKVtDQEBIXTJPW0NASF0oW0NIMl1bT0hdKVtDQEBIXShbT0hdKVtDQEhdMltPSF0=

> <s_epik_cmdline>
J2VwaWtfcHl0aG9uJywgJy1waCcsICc3LjAnLCAnLXRuJywgJzgnLCAnLW1hJywgJzIwMCcsICctbWV0YWxfYmluZGluZycsICctaW1hZScsICc8aW5maWxlLm1hZT4nLCAnLW9tYWUnLCAnPG91dGZpbGUubWFlPic=

> <r_lp_tautomer_probability>
7.17554e-07

> <r_epik_Ionization_Penalty>
0.0066451

> <r_epik_Ionization_Penalty_Charging>
0.00663793

> <r_epik_Ionization_Penalty_Neutral>
7.17052e-06

> <r_epik_State_Penalty>
0.419231

> <r_epik_Charging_Adjusted_Penalty>
0.425868

> <i_epik_Tot_Q>
0

> <i_epik_Tot_abs_Q>
0

> <r_epik_Metal_State_Penalty>
1.44144

> <b_epik_Metal_Only>
0

> <s_epik_Chemistry_Notes>
This compound contains an acetal/aminal-like group ( X-CH(R)-Y where X, Y are N, S, or O) that may be acid/base labile, releasing an aldehyde.

> <s_lp_Force_Field>
OPLS_2005

> <r_lp_Energy>
35.5906

> <b_lp_Chiralities_Consistent>
1

> <s_lp_Variant>
AV-unprocessed.smi:72-7

> <Gold.Version>
5.8.1

> <Gold.Id.Protein>
6NUR|6NUR_protein|mol2

> <Gold.PLP.Fitness>
40.5243

> <Gold.PLP.PLP>
-22.3769

> <Gold.PLP.part.hbond>
-7.5943

> <Gold.PLP.part.metal>
0.0000

> <Gold.PLP.part.buried>
-3.3551

> <Gold.PLP.part.nonpolar>
-13.4060

> <Gold.PLP.part.repulsive>
1.4651

> <Gold.PLP.ligand.clash>
0.0000

> <Gold.PLP.ligand.torsion>
0.0695

> <Gold.PLP.Chemscore.Hbond>
4.0875

> <Gold.PLP.Chemscore.CHOScore>
1.9941

> <Gold.PLP.Chemscore.Metal>
0.0000

> <Gold.Chemscore.Hbonds>
donor molecule, donor type, donor heavy atom, donor atom, acceptor molecule, acceptor atom, score
      L1  H     1    22       P1 11000  0.05
      L1  H    12    27       P1 10175  1.00
      L1  H    14    28       P1 10171  0.70
      L1  H    17    29       P1 10957  1.00
      P1  H  7954  7966       L1    14  0.99
      L1  C     4    23       P1 10171  1.00
      L1  C     4    23       P1 10175  1.00

> <Gold.PLP.Chemscore.Internal.Correction>
0.0416

> <Gold.Rescore>
     Score         DG    S(hbond)    S(metal)    S(lipo)     H(rot)  DE(clash)    DE(int)     intcor
      7.79     -10.04       3.86        0.00      17.69       4.06       0.95       1.31       ----

> <Gold.Chemscore.Fitness>
7.7898

> <Gold.Chemscore.DG>
-10.0449

> <Gold.Chemscore.ZeroCoef>
-5.4800

> <Gold.Chemscore.Hbond>
3.8589

> <Gold.Chemscore.Metal>
0.0000

> <Gold.Chemscore.Lipo>
17.6911

> <Gold.Chemscore.Internal_Hbond>
0.0000

> <Gold.Chemscore.DEClash>
0.9488

> <Gold.Chemscore.DEInternal>
1.3062

> <Gold.Chemscore.Rot>
4.0600

> <Gold.Chemscore.Internal.Correction>
   9.000000E+99

> <Gold.Chemscore.Hbonds>
donor molecule, donor type, donor heavy atom, donor atom, acceptor molecule, acceptor atom, score
      L1  H     1    22       P1 11000  0.03
      L1  H    12    27       P1 10175  0.99
      L1  H    14    28       P1 10171  0.68
      L1  H    17    29       P1 10957  0.93
      P1  H  7954  7966       L1    14  0.57

> <Gold.Chemscore.Hbond.Weighted>
-12.8886

> <Gold.Chemscore.Metal.Weighted>
-0.0000

> <Gold.Chemscore.Lipo.Weighted>
-2.0699

> <Gold.Chemscore.Internal_Hbond.Weighted>
0.0000

> <Gold.Chemscore.DEClash.Weighted>
0.9488

> <Gold.Chemscore.DEInternal.Weighted>
1.3062

> <Gold.Chemscore.Rot.Weighted>
10.3936

> <Gold.Chemscore.Internal.Correction.Weighted>
   9.000000E+99

> <Gold.Protein.RotatedTorsions>
[ 6907 6896 6895 6894 ] final   -7.30 input  -60.11 | X-H torsion
[ 7974 7965 7964 7962 ] final   33.18 input  175.53 | X-H torsion
[ 8008 7997 7996 7995 ] final   45.29 input   59.86 | X-H torsion
[ 10167 10162 10161 10158 ] final    3.58 input  -65.29 | X-H torsion
[ 10718 10713 10712 10709 ] final -152.48 input   66.30 | X-H torsion
[ 10763 10752 10751 10750 ] final -116.66 input  -60.55 | X-H torsion
[ 11005 11000 10999 10996 ] final  140.38 input  -57.11 | X-H torsion

> <Gold.Protein.ActiveResidues>
 VAL166  LYS551  ARG553  GLY616  TRP617  ASP618  TYR619  PRO620  LYS621  CYS622 
 ASP623  PHE694  ASN695  SER759  ASP760  ASP761  ALA762  ILE779  LEU786  VAL792 
 PHE793  MET794  SER795  GLU796  ALA797  LYS798  CYS799  TRP800  GLU811  SER814 

> <Gold.Protein.RotatedAtoms>
  151.4518  135.1030  159.9699 H   0  0  0  0  0  0  0  0  0  0  0  0  # atno 6907 bound_to 6896
  152.4885  133.8433  159.7174 H   0  0  0  0  0  0  0  0  0  0  0  0  # atno 6908 bound_to 6896
  150.9017  133.7050  159.2904 H   0  0  0  0  0  0  0  0  0  0  0  0  # atno 6909 bound_to 6896
  146.1438  139.6430  142.9145 H   0  0  0  0  0  0  0  0  0  0  0  0  # atno 7974 bound_to 7965
  155.3335  140.3404  155.4239 H   0  0  0  0  0  0  0  0  0  0  0  0  # atno 8008 bound_to 7997
  156.1849  140.1677  156.8240 H   0  0  0  0  0  0  0  0  0  0  0  0  # atno 8009 bound_to 7997
  154.5375  140.0732  156.8437 H   0  0  0  0  0  0  0  0  0  0  0  0  # atno 8010 bound_to 7997
  140.6578  143.7381  150.7685 H   0  0  0  0  0  0  0  0  0  0  0  0  # atno 10167 bound_to 10162
  156.4731  130.8268  151.2497 H   0  0  0  0  0  0  0  0  0  0  0  0  # atno 10718 bound_to 10713
  154.8527  135.4338  154.1856 H   0  0  0  0  0  0  0  0  0  0  0  0  # atno 10763 bound_to 10752
  153.2936  135.6963  153.7275 H   0  0  0  0  0  0  0  0  0  0  0  0  # atno 10764 bound_to 10752
  153.6433  135.3464  155.3052 H   0  0  0  0  0  0  0  0  0  0  0  0  # atno 10765 bound_to 10752
  140.0323  134.9346  157.0686 H   0  0  0  0  0  0  0  0  0  0  0  0  # atno 11005 bound_to 11000
  145.4985  141.0438  143.2553 LP  0  0  0  0  0  0  0  0  0  0  0  0  # atno 17320 bound_to 7965
  144.7822  139.6501  143.7149 LP  0  0  0  0  0  0  0  0  0  0  0  0  # atno 17321 bound_to 7965
  140.1044  143.4757  152.2406 LP  0  0  0  0  0  0  0  0  0  0  0  0  # atno 17342 bound_to 10162
  139.5805  144.7508  151.3653 LP  0  0  0  0  0  0  0  0  0  0  0  0  # atno 17343 bound_to 10162
  157.7489  131.0070  150.3172 LP  0  0  0  0  0  0  0  0  0  0  0  0  # atno 17370 bound_to 10713
  156.3598  130.3845  149.7260 LP  0  0  0  0  0  0  0  0  0  0  0  0  # atno 17371 bound_to 10713
  140.4205  134.1885  155.7164 LP  0  0  0  0  0  0  0  0  0  0  0  0  # atno 17394 bound_to 11000
  141.1838  133.8357  157.1163 LP  0  0  0  0  0  0  0  0  0  0  0  0  # atno 17395 bound_to 11000

$$$$
