#       Name:                AV-unprocessed.smi:1487
#       Creating user name   scv26
#       Creation time:       Fri Mar 27 06:12:21 2020


#       File generated by GOLD software.
#

@<TRIPOS>MOLECULE
AV-unprocessed.smi:1487
    53    55     1
SMALL
NO_CHARGES


@<TRIPOS>ATOM
      1 ****        -3.6051   4.4073   3.2390 C.3            1 S1                 0.0000
      2 ****        -3.1640   3.3910   2.1994 C.ar           1 S1                 0.0000
      3 ****        -3.2185   3.7541   0.8349 C.ar           1 S1                 0.0000
      4 ****        -2.8063   2.8037  -0.0915 C.ar           1 S1                 0.0000
      5 ****        -2.7384   2.8552  -1.4853 N.pl3          1 S1                 1.0000
      6 ****        -2.2659   1.6705  -1.9618 C.2            1 S1                 0.0000
      7 ****        -2.0282   0.8625  -0.8925 N.pl3          1 S1                 0.0000
      8 ****        -1.5217  -0.5175  -0.8545 C.3            1 S1                 0.0000
      9 ****         0.0182  -0.5938  -0.8603 C.3            1 S1                 0.0000
     10 ****         0.5310   0.0718   0.2772 O.3            1 S1                 0.0000
     11 ****         0.5165  -2.0528  -0.8401 C.3            1 S1                 0.0000
     12 ****         1.9963  -2.1531  -0.9280 N.4            1 S1                 1.0000
     13 ****         2.5157  -3.4046  -0.3197 C.3            1 S1                 0.0000
     14 ****         4.0508  -3.3915  -0.2585 C.3            1 S1                 0.0000
     15 ****         4.6554  -3.1823  -1.6537 C.3            1 S1                 0.0000
     16 ****         4.0638  -1.9347  -2.3313 C.3            1 S1                 0.0000
     17 ****         4.5421  -0.7597  -1.7062 O.3            1 S1                 0.0000
     18 ****         2.5224  -1.9473  -2.3055 C.3            1 S1                 0.0000
     19 ****        -2.3534   1.5275   0.2966 C.ar           1 S1                 0.0000
     20 ****        -2.2952   1.1535   1.6375 C.ar           1 S1                 0.0000
     21 ****        -2.7082   2.1071   2.5954 C.ar           1 S1                 0.0000
     22 ****        -2.6511   1.7287   4.0657 C.3            1 S1                 0.0000
     23 ****        -3.8929   5.3522   2.7770 H              1 S1                 0.0000
     24 ****        -2.7969   4.6135   3.9411 H              1 S1                 0.0000
     25 ****        -4.4634   4.0340   3.7981 H              1 S1                 0.0000
     26 ****        -3.5646   4.7298   0.5262 H              1 S1                 0.0000
     27 ****        -2.1103   1.4181  -3.0010 H              1 S1                 0.0000
     28 ****        -1.9442  -1.0319   0.0091 H              1 S1                 0.0000
     29 ****        -1.9193  -1.0262  -1.7338 H              1 S1                 0.0000
     30 ****         0.3846  -0.0782  -1.7475 H              1 S1                 0.0000
     31 ****         0.2416   0.9717   0.2556 H              1 S1                 0.0000
     32 ****         0.1688  -2.5193   0.0832 H              1 S1                 0.0000
     33 ****         0.0679  -2.6246  -1.6539 H              1 S1                 0.0000
     34 ****         2.1236  -3.5149   0.6921 H              1 S1                 0.0000
     35 ****         2.1646  -4.2643  -0.8928 H              1 S1                 0.0000
     36 ****         4.3843  -2.5983   0.4120 H              1 S1                 0.0000
     37 ****         4.4150  -4.3268   0.1673 H              1 S1                 0.0000
     38 ****         5.7417  -3.1074  -1.5908 H              1 S1                 0.0000
     39 ****         4.4433  -4.0581  -2.2683 H              1 S1                 0.0000
     40 ****         4.4043  -1.9007  -3.3667 H              1 S1                 0.0000
     41 ****         4.2861  -0.0124  -2.2254 H              1 S1                 0.0000
     42 ****         2.1537  -2.7494  -2.9471 H              1 S1                 0.0000
     43 ****         2.1466  -1.0166  -2.7291 H              1 S1                 0.0000
     44 ****        -1.9445   0.1786   1.9424 H              1 S1                 0.0000
     45 ****        -2.3224   0.6978   4.2005 H              1 S1                 0.0000
     46 ****        -3.6343   1.8264   4.5268 H              1 S1                 0.0000
     47 ****        -1.9526   2.3739   4.5991 H              1 S1                 0.0000
     48 ****         2.3616  -1.3999  -0.3616 H              1 S1                 0.0000
     49 ****        -2.9972   3.6394  -2.0705 H              1 S1                 0.0000
     50 ****         1.5304   0.0388   0.2650 LP             1 S1                 0.0000
     51 ****         0.1930  -0.3711   1.1077 LP             1 S1                 0.0000
     52 ****         5.5391  -0.7967  -1.6392 LP             1 S1                 0.0000
     53 ****         4.1491  -0.6828  -0.7898 LP             1 S1                 0.0000
@<TRIPOS>BOND
    1    1    2 1     
    2    1   23 1     
    3    1   24 1     
    4    1   25 1     
    5    2   21 ar    
    6    2    3 ar    
    7    3    4 ar    
    8    3   26 1     
    9    4   19 ar    
   10    4    5 1     
   11    5    6 2     
   12    5   49 1     
   13    6    7 1     
   14    6   27 1     
   15    7    8 1     
   16    7   19 1     
   17    8    9 1     
   18    8   28 1     
   19    8   29 1     
   20    9   10 1     
   21    9   11 1     
   22    9   30 1     
   23   10   31 1     
   24   11   12 1     
   25   11   32 1     
   26   11   33 1     
   27   12   18 1     
   28   12   13 1     
   29   12   48 1     
   30   13   14 1     
   31   13   34 1     
   32   13   35 1     
   33   14   15 1     
   34   14   36 1     
   35   14   37 1     
   36   15   16 1     
   37   15   38 1     
   38   15   39 1     
   39   16   17 1     
   40   16   18 1     
   41   16   40 1     
   42   17   41 1     
   43   18   42 1     
   44   18   43 1     
   45   19   20 ar    
   46   20   21 ar    
   47   20   44 1     
   48   21   22 1     
   49   22   45 1     
   50   22   46 1     
   51   22   47 1     
   52   10   50 1     
   53   10   51 1     
   54   17   52 1     
   55   17   53 1     
@<TRIPOS>SUBSTRUCTURE
      1 S1             1
@<TRIPOS>SET
LONE_PAIRS      STATIC     ATOMS    <user>   **** ""
4 50 51 52 53
DONOR_HYDROGENS      STATIC     ATOMS    <user>   **** ""
4 49 31 48 41
ATOM$BLUE        STATIC     ATOMS    COLORGROUP SYSTEM
4 50 51 52 53
ATOM$RED        STATIC     ATOMS    COLORGROUP SYSTEM
4 49 31 48 41
