AV-unprocessed.smi:2083|AV-procd|sdf|8497|dock8
  -GOLD-   2272011203D 1   1.00000     0.00000
 Structure written by MMmdl.
 45 46  0  0  0  0  0  0  0  0  2 V2000
  151.0140  142.2466  156.5931 C   0  0  0  0  0  0  0  0  0  0  0  0
  150.7283  141.0881  155.7004 C   0  0  0  0  0  0  0  0  0  0  0  0
  149.5754  140.5939  155.1583 C   0  0  0  0  0  0  0  0  0  0  0  0
  150.0271  139.4719  154.4143 C   0  0  0  0  0  0  0  0  0  0  0  0
  149.1140  138.6665  153.6872 N   0  0  0  0  0  0  0  0  0  0  0  0
  147.7726  138.6719  153.7684 C   0  0  0  0  0  0  0  0  0  0  0  0
  147.1091  139.3969  154.5098 O   0  0  0  0  0  0  0  0  0  0  0  0
  147.2302  137.7742  152.9320 N   0  0  0  0  0  0  0  0  0  0  0  0
  145.7992  137.5497  152.7389 C   0  0  0  0  0  0  0  0  0  0  0  0
  145.4946  136.5127  151.6222 C   0  0  1  0  0  0  0  0  0  0  0  0
  145.8142  137.0986  150.2287 C   0  0  0  0  0  0  0  0  0  0  0  0
  146.2038  135.1998  151.7869 N   0  3  2  0  0  0  0  0  0  0  0  0
  145.7321  134.1861  150.8001 C   0  0  0  0  0  0  0  0  0  0  0  0
  146.6003  132.9202  150.8291 C   0  0  0  0  0  0  0  0  0  0  0  0
  146.6105  132.3048  152.2309 C   0  0  0  0  0  0  0  0  0  0  0  0
  147.0784  133.3485  153.2552 C   0  0  2  0  0  0  0  0  0  0  0  0
  147.0808  132.7716  154.6783 C   0  0  0  0  0  0  0  0  0  0  0  0
  146.2160  134.6255  153.1655 C   0  0  0  0  0  0  0  0  0  0  0  0
  151.3375  139.2980  154.4921 N   0  0  0  0  0  0  0  0  0  0  0  0
  151.7936  140.3329  155.3174 O   0  0  0  0  0  0  0  0  0  0  0  0
  150.1537  142.9137  156.6525 H   0  0  0  0  0  0  0  0  0  0  0  0
  151.8624  142.8222  156.2224 H   0  0  0  0  0  0  0  0  0  0  0  0
  151.2493  141.9073  157.6018 H   0  0  0  0  0  0  0  0  0  0  0  0
  148.5723  140.9752  155.2791 H   0  0  0  0  0  0  0  0  0  0  0  0
  149.5281  138.0216  153.0307 H   0  0  0  0  0  0  0  0  0  0  0  0
  147.8557  137.2204  152.3651 H   0  0  0  0  0  0  0  0  0  0  0  0
  145.3241  137.2528  153.6757 H   0  0  0  0  0  0  0  0  0  0  0  0
  145.3902  138.5255  152.4773 H   0  0  0  0  0  0  0  0  0  0  0  0
  144.4225  136.3137  151.6701 H   0  0  0  0  0  0  0  0  0  0  0  0
  145.2282  137.9938  150.0224 H   0  0  0  0  0  0  0  0  0  0  0  0
  145.5956  136.4034  149.4199 H   0  0  0  0  0  0  0  0  0  0  0  0
  146.8678  137.3693  150.1507 H   0  0  0  0  0  0  0  0  0  0  0  0
  144.6941  133.9275  151.0151 H   0  0  0  0  0  0  0  0  0  0  0  0
  145.7452  134.5891  149.7887 H   0  0  0  0  0  0  0  0  0  0  0  0
  146.2242  132.1937  150.1079 H   0  0  0  0  0  0  0  0  0  0  0  0
  147.6185  133.1630  150.5226 H   0  0  0  0  0  0  0  0  0  0  0  0
  145.6102  131.9513  152.4860 H   0  0  0  0  0  0  0  0  0  0  0  0
  147.2653  131.4329  152.2498 H   0  0  0  0  0  0  0  0  0  0  0  0
  148.1065  133.6210  153.0114 H   0  0  0  0  0  0  0  0  0  0  0  0
  146.0785  132.4735  154.9878 H   0  0  0  0  0  0  0  0  0  0  0  0
  147.4480  133.5025  155.3991 H   0  0  0  0  0  0  0  0  0  0  0  0
  147.7239  131.8936  154.7451 H   0  0  0  0  0  0  0  0  0  0  0  0
  146.6374  135.3398  153.8719 H   0  0  0  0  0  0  0  0  0  0  0  0
  145.1927  134.4175  153.4823 H   0  0  0  0  0  0  0  0  0  0  0  0
  147.1725  135.3865  151.5700 H   0  0  0  0  0  0  0  0  0  0  0  0
  1  2  1  0  0  0  0
  1 21  1  0  0  0  0
  1 22  1  0  0  0  0
  1 23  1  0  0  0  0
  2 20  1  0  0  0  0
  2  3  2  0  0  0  0
  3  4  1  0  0  0  0
  3 24  1  0  0  0  0
  4  5  1  0  0  0  0
  4 19  2  0  0  0  0
  5  6  1  0  0  0  0
  5 25  1  0  0  0  0
  6  7  2  0  0  0  0
  6  8  1  0  0  0  0
  8  9  1  0  0  0  0
  8 26  1  0  0  0  0
  9 10  1  0  0  0  0
  9 27  1  0  0  0  0
  9 28  1  0  0  0  0
 10 11  1  0  0  0  0
 10 12  1  0  0  0  0
 10 29  1  0  0  0  0
 11 30  1  0  0  0  0
 11 31  1  0  0  0  0
 11 32  1  0  0  0  0
 12 18  1  0  0  0  0
 12 13  1  0  0  0  0
 12 45  1  0  0  0  0
 13 14  1  0  0  0  0
 13 33  1  0  0  0  0
 13 34  1  0  0  0  0
 14 15  1  0  0  0  0
 14 35  1  0  0  0  0
 14 36  1  0  0  0  0
 15 16  1  0  0  0  0
 15 37  1  0  0  0  0
 15 38  1  0  0  0  0
 16 17  1  0  0  0  0
 16 18  1  0  0  0  0
 16 39  1  0  0  0  0
 17 40  1  0  0  0  0
 17 41  1  0  0  0  0
 17 42  1  0  0  0  0
 18 43  1  0  0  0  0
 18 44  1  0  0  0  0
 19 20  1  0  0  0  0
M  CHG  1  12   1
M  END
> <s_m_source_file>
AV-unprocessed.smi

> <i_m_source_file_index>
2083

> <i_lp_mmshare_version>
43012

> <i_f3d_flags>
0

> <s_epik_input>
W0NIM11jMVtjSF1jKG5vMSlbTkhdQyg9TylbTkhdW0NIMl1bQ0BIXShbQ0gzXSlOMltDSDJdW0NIMl1bQ0gyXVtDQEBIXShbQ0gzXSlbQ0gyXTI=

> <s_epik_cmdline>
J2VwaWtfcHl0aG9uJywgJy1waCcsICc3LjAnLCAnLXRuJywgJzgnLCAnLW1hJywgJzIwMCcsICctbWV0YWxfYmluZGluZycsICctaW1hZScsICc8aW5maWxlLm1hZT4nLCAnLW9tYWUnLCAnPG91dGZpbGUubWFlPic=

> <r_epik_Ionization_Penalty>
0.00216453

> <r_epik_Ionization_Penalty_Charging>
0.00212879

> <r_epik_Ionization_Penalty_Neutral>
3.57418e-05

> <r_epik_State_Penalty>
0.00146033

> <r_epik_Charging_Adjusted_Penalty>
0.00358912

> <i_epik_Tot_Q>
1

> <i_epik_Tot_abs_Q>
1

> <r_epik_Metal_State_Penalty>
0.0215827

> <b_epik_Metal_Only>
0

> <s_lp_Force_Field>
OPLS_2005

> <r_lp_Energy>
20.5585

> <b_lp_Chiralities_Consistent>
1

> <s_lp_Variant>
AV-unprocessed.smi:2083-8

> <Gold.Version>
5.8.1

> <Gold.Id.Protein>
6NUR|6NUR_protein|mol2

> <Gold.PLP.Fitness>
42.0070

> <Gold.PLP.PLP>
-31.7208

> <Gold.PLP.part.hbond>
-6.0000

> <Gold.PLP.part.metal>
0.0000

> <Gold.PLP.part.buried>
2.9067

> <Gold.PLP.part.nonpolar>
-27.8267

> <Gold.PLP.part.repulsive>
0.3929

> <Gold.PLP.ligand.clash>
0.0000

> <Gold.PLP.ligand.torsion>
0.2005

> <Gold.PLP.Chemscore.Hbond>
3.5437

> <Gold.PLP.Chemscore.CHOScore>
0.0000

> <Gold.PLP.Chemscore.Metal>
0.0000

> <Gold.Chemscore.Hbonds>
donor molecule, donor type, donor heavy atom, donor atom, acceptor molecule, acceptor atom, score
      L1  H     5    25       P1  7948  0.52
      L1  H     8    26       P1  7948  1.00
      L1  H    12    45       P1  7948  2.00

> <Gold.PLP.Chemscore.Internal.Correction>
0.0563

> <Gold.Rescore>
     Score         DG    S(hbond)    S(metal)    S(lipo)     H(rot)  DE(clash)    DE(int)     intcor
     14.87     -17.99       2.32        0.00      74.54       1.55       1.60       1.52       ----

> <Gold.Chemscore.Fitness>
14.8660

> <Gold.Chemscore.DG>
-17.9867

> <Gold.Chemscore.ZeroCoef>
-5.4800

> <Gold.Chemscore.Hbond>
2.3192

> <Gold.Chemscore.Metal>
0.0000

> <Gold.Chemscore.Lipo>
74.5444

> <Gold.Chemscore.Internal_Hbond>
0.0000

> <Gold.Chemscore.DEClash>
1.5959

> <Gold.Chemscore.DEInternal>
1.5248

> <Gold.Chemscore.Rot>
1.5474

> <Gold.Chemscore.Internal.Correction>
   9.000000E+99

> <Gold.Chemscore.Hbonds>
donor molecule, donor type, donor heavy atom, donor atom, acceptor molecule, acceptor atom, score
      L1  H     5    25       P1  7948  0.44
      L1  H     8    26       P1  7948  0.95
      L1  H    12    45       P1  7948  0.95

> <Gold.Chemscore.Hbond.Weighted>
-7.7462

> <Gold.Chemscore.Metal.Weighted>
-0.0000

> <Gold.Chemscore.Lipo.Weighted>
-8.7217

> <Gold.Chemscore.Internal_Hbond.Weighted>
0.0000

> <Gold.Chemscore.DEClash.Weighted>
1.5959

> <Gold.Chemscore.DEInternal.Weighted>
1.5248

> <Gold.Chemscore.Rot.Weighted>
3.9612

> <Gold.Chemscore.Internal.Correction.Weighted>
   9.000000E+99

> <Gold.Protein.RotatedTorsions>
[ 6907 6896 6895 6894 ] final  -58.93 input  -60.11 | X-H torsion
[ 7974 7965 7964 7962 ] final  -96.17 input  175.53 | X-H torsion
[ 8008 7997 7996 7995 ] final -124.53 input   59.86 | X-H torsion
[ 10167 10162 10161 10158 ] final  163.54 input  -65.29 | X-H torsion
[ 10718 10713 10712 10709 ] final -134.87 input   66.30 | X-H torsion
[ 10763 10752 10751 10750 ] final  -22.35 input  -60.55 | X-H torsion
[ 11005 11000 10999 10996 ] final  -68.94 input  -57.11 | X-H torsion

> <Gold.Protein.ActiveResidues>
 VAL166  LYS551  ARG553  GLY616  TRP617  ASP618  TYR619  PRO620  LYS621  CYS622 
 ASP623  PHE694  ASN695  SER759  ASP760  ASP761  ALA762  ILE779  LEU786  VAL792 
 PHE793  MET794  SER795  GLU796  ALA797  LYS798  CYS799  TRP800  GLU811  SER814 

> <Gold.Protein.RotatedAtoms>
  150.7969  134.7035  159.6562 H   0  0  0  0  0  0  0  0  0  0  0  0  # atno 6907 bound_to 6896
  152.4082  134.6167  160.0049 H   0  0  0  0  0  0  0  0  0  0  0  0  # atno 6908 bound_to 6896
  151.6418  133.3288  159.3168 H   0  0  0  0  0  0  0  0  0  0  0  0  # atno 6909 bound_to 6896
  145.3504  140.9475  143.2557 H   0  0  0  0  0  0  0  0  0  0  0  0  # atno 7974 bound_to 7965
  155.1984  140.0415  157.2913 H   0  0  0  0  0  0  0  0  0  0  0  0  # atno 8008 bound_to 7997
  154.6091  140.2472  155.7664 H   0  0  0  0  0  0  0  0  0  0  0  0  # atno 8009 bound_to 7997
  156.2368  140.2918  156.0344 H   0  0  0  0  0  0  0  0  0  0  0  0  # atno 8010 bound_to 7997
  139.4875  144.4327  151.9051 H   0  0  0  0  0  0  0  0  0  0  0  0  # atno 10167 bound_to 10162
  156.2601  130.7204  151.1135 H   0  0  0  0  0  0  0  0  0  0  0  0  # atno 10718 bound_to 10713
  153.6506  135.6981  153.5210 H   0  0  0  0  0  0  0  0  0  0  0  0  # atno 10763 bound_to 10752
  153.2709  135.4215  155.0986 H   0  0  0  0  0  0  0  0  0  0  0  0  # atno 10764 bound_to 10752
  154.8477  135.3578  154.6051 H   0  0  0  0  0  0  0  0  0  0  0  0  # atno 10765 bound_to 10752
  141.1543  133.6752  156.6523 H   0  0  0  0  0  0  0  0  0  0  0  0  # atno 11005 bound_to 11000
  144.8722  139.5022  143.6762 LP  0  0  0  0  0  0  0  0  0  0  0  0  # atno 17320 bound_to 7965
  146.2970  139.7309  142.9119 LP  0  0  0  0  0  0  0  0  0  0  0  0  # atno 17321 bound_to 7965
  140.3775  144.2778  150.5912 LP  0  0  0  0  0  0  0  0  0  0  0  0  # atno 17342 bound_to 10162
  140.5263  143.2253  151.8309 LP  0  0  0  0  0  0  0  0  0  0  0  0  # atno 17343 bound_to 10162
  157.7247  131.0658  150.5983 LP  0  0  0  0  0  0  0  0  0  0  0  0  # atno 17370 bound_to 10713
  156.6070  130.4370  149.5874 LP  0  0  0  0  0  0  0  0  0  0  0  0  # atno 17371 bound_to 10713
  140.3310  134.7928  157.4326 LP  0  0  0  0  0  0  0  0  0  0  0  0  # atno 17394 bound_to 11000
  140.1016  134.5464  155.8347 LP  0  0  0  0  0  0  0  0  0  0  0  0  # atno 17395 bound_to 11000

$$$$
