AV-unprocessed.smi:2311|AV-procd|sdf|9262|dock7
  -GOLD-   2272012483D 1   1.00000     0.00000
 Structure written by MMmdl.
 40 41  0  0  0  0  0  0  0  0  1 V2000
  141.8440  134.5763  152.8712 C   0  0  0  0  0  0  0  0  0  0  0  0
  143.2166  134.4821  152.2391 C   0  0  0  0  0  0  0  0  0  0  0  0
  143.5019  133.5026  151.2675 C   0  0  0  0  0  0  0  0  0  0  0  0
  144.7961  133.4713  150.7182 C   0  0  0  0  0  0  0  0  0  0  0  0
  145.7446  134.4146  151.1587 C   0  0  0  0  0  0  0  0  0  0  0  0
  145.3769  135.3654  152.1374 C   0  0  0  0  0  0  0  0  0  0  0  0
  146.4043  136.2714  152.5130 N   0  0  0  0  0  0  0  0  0  0  0  0
  146.2954  137.3960  153.2428 C   0  0  0  0  0  0  0  0  0  0  0  0
  145.2498  137.8371  153.7210 O   0  0  0  0  0  0  0  0  0  0  0  0
  147.4857  137.9961  153.3900 N   0  0  0  0  0  0  0  0  0  0  0  0
  147.7167  139.2376  154.1237 C   0  0  1  0  0  0  0  0  0  0  0  0
  149.2003  139.6165  154.0479 C   0  0  0  0  0  0  0  0  0  0  0  0
  149.4443  140.9788  154.7113 C   0  0  0  0  0  0  0  0  0  0  0  0
  148.6219  141.9793  154.1136 O   0  0  0  0  0  0  0  0  0  0  0  0
  147.2089  141.7562  154.1724 C   0  0  0  0  0  0  0  0  0  0  0  0
  146.6942  141.8752  155.6232 C   0  0  0  0  0  0  0  0  0  0  0  0
  146.5874  142.8828  153.3305 C   0  0  0  0  0  0  0  0  0  0  0  0
  146.8728  140.3847  153.5383 C   0  0  0  0  0  0  0  0  0  0  0  0
  144.1259  135.3868  152.6616 N   0  0  0  0  0  0  0  0  0  0  0  0
  141.2214  133.7258  152.5921 H   0  0  0  0  0  0  0  0  0  0  0  0
  141.3416  135.4881  152.5477 H   0  0  0  0  0  0  0  0  0  0  0  0
  141.9246  134.5953  153.9583 H   0  0  0  0  0  0  0  0  0  0  0  0
  142.7514  132.7938  150.9494 H   0  0  0  0  0  0  0  0  0  0  0  0
  145.0580  132.7370  149.9707 H   0  0  0  0  0  0  0  0  0  0  0  0
  146.7430  134.4041  150.7461 H   0  0  0  0  0  0  0  0  0  0  0  0
  147.3296  136.0370  152.1858 H   0  0  0  0  0  0  0  0  0  0  0  0
  148.2922  137.5647  152.9631 H   0  0  0  0  0  0  0  0  0  0  0  0
  147.4521  139.0833  155.1710 H   0  0  0  0  0  0  0  0  0  0  0  0
  149.8124  138.8527  154.5289 H   0  0  0  0  0  0  0  0  0  0  0  0
  149.5199  139.6638  153.0057 H   0  0  0  0  0  0  0  0  0  0  0  0
  149.2735  140.9259  155.7864 H   0  0  0  0  0  0  0  0  0  0  0  0
  150.4867  141.2695  154.5819 H   0  0  0  0  0  0  0  0  0  0  0  0
  145.6064  141.8071  155.6567 H   0  0  0  0  0  0  0  0  0  0  0  0
  146.9763  142.8332  156.0610 H   0  0  0  0  0  0  0  0  0  0  0  0
  147.0805  141.0925  156.2743 H   0  0  0  0  0  0  0  0  0  0  0  0
  145.5009  142.7968  153.2926 H   0  0  0  0  0  0  0  0  0  0  0  0
  146.9566  142.8612  152.3046 H   0  0  0  0  0  0  0  0  0  0  0  0
  146.8281  143.8630  153.7432 H   0  0  0  0  0  0  0  0  0  0  0  0
  147.0561  140.4350  152.4638 H   0  0  0  0  0  0  0  0  0  0  0  0
  145.8091  140.1715  153.6531 H   0  0  0  0  0  0  0  0  0  0  0  0
  1  2  1  0  0  0  0
  1 20  1  0  0  0  0
  1 21  1  0  0  0  0
  1 22  1  0  0  0  0
  2 19  1  0  0  0  0
  2  3  2  0  0  0  0
  3  4  1  0  0  0  0
  3 23  1  0  0  0  0
  4  5  2  0  0  0  0
  4 24  1  0  0  0  0
  5  6  1  0  0  0  0
  5 25  1  0  0  0  0
  6  7  1  0  0  0  0
  6 19  2  0  0  0  0
  7  8  1  0  0  0  0
  7 26  1  0  0  0  0
  8  9  2  0  0  0  0
  8 10  1  0  0  0  0
 10 11  1  0  0  0  0
 10 27  1  0  0  0  0
 11 18  1  0  0  0  0
 11 12  1  0  0  0  0
 11 28  1  0  0  0  0
 12 13  1  0  0  0  0
 12 29  1  0  0  0  0
 12 30  1  0  0  0  0
 13 14  1  0  0  0  0
 13 31  1  0  0  0  0
 13 32  1  0  0  0  0
 14 15  1  0  0  0  0
 15 16  1  0  0  0  0
 15 17  1  0  0  0  0
 15 18  1  0  0  0  0
 16 33  1  0  0  0  0
 16 34  1  0  0  0  0
 16 35  1  0  0  0  0
 17 36  1  0  0  0  0
 17 37  1  0  0  0  0
 17 38  1  0  0  0  0
 18 39  1  0  0  0  0
 18 40  1  0  0  0  0
M  END
> <s_m_source_file>
AV-unprocessed.smi

> <i_m_source_file_index>
2311

> <i_lp_mmshare_version>
43012

> <i_f3d_flags>
0

> <s_epik_input>
W0NIM11jMVtjSF1bY0hdW2NIXWMobjEpW05IXUMoPU8pW05IXVtDQEBIXShbQ0gyXTIpW0NIMl1bQ0gyXU9DMihbQ0gzXSlbQ0gzXQ==

> <s_epik_cmdline>
J2VwaWtfcHl0aG9uJywgJy1waCcsICc3LjAnLCAnLXRuJywgJzgnLCAnLW1hJywgJzIwMCcsICctbWV0YWxfYmluZGluZycsICctaW1hZScsICc8aW5maWxlLm1hZT4nLCAnLW9tYWUnLCAnPG91dGZpbGUubWFlPic=

> <r_lp_tautomer_probability>
1

> <r_epik_Ionization_Penalty>
8.54628e-05

> <r_epik_Ionization_Penalty_Charging>
0

> <r_epik_Ionization_Penalty_Neutral>
8.54628e-05

> <r_epik_State_Penalty>
-0

> <r_epik_Charging_Adjusted_Penalty>
0

> <i_epik_Tot_Q>
0

> <i_epik_Tot_abs_Q>
0

> <r_epik_Metal_State_Penalty>
-0

> <b_epik_Metal_Only>
0

> <s_lp_Force_Field>
OPLS_2005

> <r_lp_Energy>
12.4955

> <b_lp_Chiralities_Consistent>
1

> <s_lp_Variant>
AV-unprocessed.smi:2311-2

> <Gold.Version>
5.8.1

> <Gold.Id.Protein>
6NUR|6NUR_protein|mol2

> <Gold.PLP.Fitness>
37.1982

> <Gold.PLP.PLP>
-30.4822

> <Gold.PLP.part.hbond>
-3.0000

> <Gold.PLP.part.metal>
0.0000

> <Gold.PLP.part.buried>
-3.0162

> <Gold.PLP.part.nonpolar>
-24.3122

> <Gold.PLP.part.repulsive>
0.4802

> <Gold.PLP.ligand.clash>
0.0000

> <Gold.PLP.ligand.torsion>
0.0320

> <Gold.PLP.Chemscore.Hbond>
2.2599

> <Gold.PLP.Chemscore.CHOScore>
0.0000

> <Gold.PLP.Chemscore.Metal>
0.0000

> <Gold.Chemscore.Hbonds>
donor molecule, donor type, donor heavy atom, donor atom, acceptor molecule, acceptor atom, score
      L1  H     7    26       P1  7948  1.00
      L1  H    10    27       P1  7948  0.98
      P1  H  8011  8017       L1    14  0.27

> <Gold.PLP.Chemscore.Internal.Correction>
0.0002

> <Gold.Rescore>
     Score         DG    S(hbond)    S(metal)    S(lipo)     H(rot)  DE(clash)    DE(int)     intcor
     16.18     -19.07       2.25        0.00      73.89       1.00       1.58       1.31       ----

> <Gold.Chemscore.Fitness>
16.1795

> <Gold.Chemscore.DG>
-19.0665

> <Gold.Chemscore.ZeroCoef>
-5.4800

> <Gold.Chemscore.Hbond>
2.2458

> <Gold.Chemscore.Metal>
0.0000

> <Gold.Chemscore.Lipo>
73.8936

> <Gold.Chemscore.Internal_Hbond>
0.0000

> <Gold.Chemscore.DEClash>
1.5765

> <Gold.Chemscore.DEInternal>
1.3105

> <Gold.Chemscore.Rot>
1.0000

> <Gold.Chemscore.Internal.Correction>
   9.000000E+99

> <Gold.Chemscore.Hbonds>
donor molecule, donor type, donor heavy atom, donor atom, acceptor molecule, acceptor atom, score
      L1  H     7    26       P1  7948  0.99
      L1  H    10    27       P1  7948  0.92
      P1  H  8011  8017       L1    14  0.08

> <Gold.Chemscore.Hbond.Weighted>
-7.5010

> <Gold.Chemscore.Metal.Weighted>
-0.0000

> <Gold.Chemscore.Lipo.Weighted>
-8.6456

> <Gold.Chemscore.Internal_Hbond.Weighted>
0.0000

> <Gold.Chemscore.DEClash.Weighted>
1.5765

> <Gold.Chemscore.DEInternal.Weighted>
1.3105

> <Gold.Chemscore.Rot.Weighted>
2.5600

> <Gold.Chemscore.Internal.Correction.Weighted>
   9.000000E+99

> <Gold.Protein.RotatedTorsions>
[ 6907 6896 6895 6894 ] final -140.84 input  -60.11 | X-H torsion
[ 7974 7965 7964 7962 ] final   -2.48 input  175.53 | X-H torsion
[ 8008 7997 7996 7995 ] final  -40.02 input   59.86 | X-H torsion
[ 10167 10162 10161 10158 ] final    8.98 input  -65.29 | X-H torsion
[ 10718 10713 10712 10709 ] final  112.24 input   66.30 | X-H torsion
[ 10763 10752 10751 10750 ] final  114.90 input  -60.55 | X-H torsion
[ 11005 11000 10999 10996 ] final -147.83 input  -57.11 | X-H torsion

> <Gold.Protein.ActiveResidues>
 VAL166  LYS551  ARG553  GLY616  TRP617  ASP618  TYR619  PRO620  LYS621  CYS622 
 ASP623  PHE694  ASN695  SER759  ASP760  ASP761  ALA762  ILE779  LEU786  VAL792 
 PHE793  MET794  SER795  GLU796  ALA797  LYS798  CYS799  TRP800  GLU811  SER814 

> <Gold.Protein.RotatedAtoms>
  151.0660  133.5505  159.2630 H   0  0  0  0  0  0  0  0  0  0  0  0  # atno 6907 bound_to 6896
  151.2463  135.0606  159.9054 H   0  0  0  0  0  0  0  0  0  0  0  0  # atno 6908 bound_to 6896
  152.5404  134.0427  159.8128 H   0  0  0  0  0  0  0  0  0  0  0  0  # atno 6909 bound_to 6896
  146.2404  140.1578  142.8333 H   0  0  0  0  0  0  0  0  0  0  0  0  # atno 7974 bound_to 7965
  154.4016  140.1536  156.2959 H   0  0  0  0  0  0  0  0  0  0  0  0  # atno 8008 bound_to 7997
  155.8744  140.3447  155.5821 H   0  0  0  0  0  0  0  0  0  0  0  0  # atno 8009 bound_to 7997
  155.7738  140.0834  157.2085 H   0  0  0  0  0  0  0  0  0  0  0  0  # atno 8010 bound_to 7997
  140.6282  143.8053  150.7261 H   0  0  0  0  0  0  0  0  0  0  0  0  # atno 10167 bound_to 10162
  157.6403  131.0964  150.6867 H   0  0  0  0  0  0  0  0  0  0  0  0  # atno 10718 bound_to 10713
  153.5142  135.3611  155.2601 H   0  0  0  0  0  0  0  0  0  0  0  0  # atno 10763 bound_to 10752
  154.8740  135.4030  154.3334 H   0  0  0  0  0  0  0  0  0  0  0  0  # atno 10764 bound_to 10752
  153.3993  135.7074  153.6505 H   0  0  0  0  0  0  0  0  0  0  0  0  # atno 10765 bound_to 10752
  140.7675  134.3227  157.5084 H   0  0  0  0  0  0  0  0  0  0  0  0  # atno 11005 bound_to 11000
  145.0115  140.8717  143.5221 LP  0  0  0  0  0  0  0  0  0  0  0  0  # atno 17320 bound_to 7965
  145.1612  139.2457  143.5390 LP  0  0  0  0  0  0  0  0  0  0  0  0  # atno 17321 bound_to 7965
  140.1658  143.4236  152.2035 LP  0  0  0  0  0  0  0  0  0  0  0  0  # atno 17342 bound_to 10162
  139.5500  144.7330  151.4465 LP  0  0  0  0  0  0  0  0  0  0  0  0  # atno 17343 bound_to 10162
  156.7192  130.4675  149.5527 LP  0  0  0  0  0  0  0  0  0  0  0  0  # atno 17370 bound_to 10713
  156.1677  130.6416  151.0799 LP  0  0  0  0  0  0  0  0  0  0  0  0  # atno 17371 bound_to 10713
  139.8761  134.9240  156.3340 LP  0  0  0  0  0  0  0  0  0  0  0  0  # atno 17394 bound_to 11000
  140.9605  133.7392  156.0394 LP  0  0  0  0  0  0  0  0  0  0  0  0  # atno 17395 bound_to 11000

$$$$
