AV-unprocessed.smi:3166|AV-procd|sdf|12095|dock8
  -GOLD-   2272017533D 1   1.00000     0.00000
 Structure written by MMmdl.
 40 41  0  0  0  0  0  0  0  0  1 V2000
  149.4619  141.7420  158.0032 C   0  0  0  0  0  0  0  0  0  0  0  0
  150.9052  141.7849  157.4594 C   0  0  2  0  0  0  0  0  0  0  0  0
  151.5861  143.1483  157.7009 C   0  0  0  0  0  0  0  0  0  0  0  0
  151.8703  143.4001  159.1032 N   0  0  0  0  0  0  0  0  0  0  0  0
  152.6105  142.6318  159.9776 C   0  0  0  0  0  0  0  0  0  0  0  0
  152.6047  143.2695  161.1848 C   0  0  0  0  0  0  0  0  0  0  0  0
  151.8313  144.4397  160.9448 C   0  0  0  0  0  0  0  0  0  0  0  0
  151.3949  144.5160  159.6979 N   0  0  0  0  0  0  0  0  0  0  0  0
  150.9589  141.4706  156.0283 N   0  0  0  0  0  0  0  0  0  0  0  0
  150.2998  140.2239  155.6269 C   0  0  0  0  0  0  0  0  0  0  0  0
  149.1730  140.4558  154.5946 C   0  0  0  0  0  0  0  0  0  0  0  0
  149.7936  140.8949  153.3996 O   0  0  0  0  0  0  0  0  0  0  0  0
  148.3416  139.1764  154.3189 C   0  0  0  0  0  0  0  0  0  0  0  0
  147.1296  139.4318  153.4045 C   0  0  0  0  0  0  0  0  0  0  0  0
  146.2364  140.5527  153.9533 C   0  0  0  0  0  0  0  0  0  0  0  0
  147.0441  141.8405  154.1633 C   0  0  0  0  0  0  0  0  0  0  0  0
  148.2506  141.5967  155.0874 C   0  0  0  0  0  0  0  0  0  0  0  0
  149.4251  141.9997  159.0616 H   0  0  0  0  0  0  0  0  0  0  0  0
  149.0218  140.7494  157.9158 H   0  0  0  0  0  0  0  0  0  0  0  0
  148.8186  142.4433  157.4710 H   0  0  0  0  0  0  0  0  0  0  0  0
  151.4845  141.0343  157.9988 H   0  0  0  0  0  0  0  0  0  0  0  0
  152.5300  143.1996  157.1563 H   0  0  0  0  0  0  0  0  0  0  0  0
  150.9608  143.9554  157.3143 H   0  0  0  0  0  0  0  0  0  0  0  0
  153.0708  141.7039  159.6718 H   0  0  0  0  0  0  0  0  0  0  0  0
  153.0818  142.9501  162.0995 H   0  0  0  0  0  0  0  0  0  0  0  0
  151.5763  145.2307  161.6347 H   0  0  0  0  0  0  0  0  0  0  0  0
  151.9260  141.4546  155.7209 H   0  0  0  0  0  0  0  0  0  0  0  0
  151.0418  139.5516  155.1942 H   0  0  0  0  0  0  0  0  0  0  0  0
  149.8886  139.7093  156.4952 H   0  0  0  0  0  0  0  0  0  0  0  0
  149.6573  140.2364  152.7354 H   0  0  0  0  0  0  0  0  0  0  0  0
  148.9637  138.4003  153.8717 H   0  0  0  0  0  0  0  0  0  0  0  0
  147.9858  138.7703  155.2667 H   0  0  0  0  0  0  0  0  0  0  0  0
  147.4727  139.6956  152.4034 H   0  0  0  0  0  0  0  0  0  0  0  0
  146.5486  138.5156  153.2973 H   0  0  0  0  0  0  0  0  0  0  0  0
  145.4097  140.7399  153.2673 H   0  0  0  0  0  0  0  0  0  0  0  0
  145.7911  140.2396  154.8985 H   0  0  0  0  0  0  0  0  0  0  0  0
  147.3859  142.2202  153.1996 H   0  0  0  0  0  0  0  0  0  0  0  0
  146.4033  142.6142  154.5871 H   0  0  0  0  0  0  0  0  0  0  0  0
  147.8782  141.3522  156.0832 H   0  0  0  0  0  0  0  0  0  0  0  0
  148.8188  142.5212  155.1989 H   0  0  0  0  0  0  0  0  0  0  0  0
  1  2  1  0  0  0  0
  1 18  1  0  0  0  0
  1 19  1  0  0  0  0
  1 20  1  0  0  0  0
  2  3  1  0  0  0  0
  2  9  1  0  0  0  0
  2 21  1  0  0  0  0
  3  4  1  0  0  0  0
  3 22  1  0  0  0  0
  3 23  1  0  0  0  0
  4  8  1  0  0  0  0
  4  5  1  0  0  0  0
  5  6  2  0  0  0  0
  5 24  1  0  0  0  0
  6  7  1  0  0  0  0
  6 25  1  0  0  0  0
  7  8  2  0  0  0  0
  7 26  1  0  0  0  0
  9 10  1  0  0  0  0
  9 27  1  0  0  0  0
 10 11  1  0  0  0  0
 10 28  1  0  0  0  0
 10 29  1  0  0  0  0
 11 17  1  0  0  0  0
 11 12  1  0  0  0  0
 11 13  1  0  0  0  0
 12 30  1  0  0  0  0
 13 14  1  0  0  0  0
 13 31  1  0  0  0  0
 13 32  1  0  0  0  0
 14 15  1  0  0  0  0
 14 33  1  0  0  0  0
 14 34  1  0  0  0  0
 15 16  1  0  0  0  0
 15 35  1  0  0  0  0
 15 36  1  0  0  0  0
 16 17  1  0  0  0  0
 16 37  1  0  0  0  0
 16 38  1  0  0  0  0
 17 39  1  0  0  0  0
 17 40  1  0  0  0  0
M  END
> <s_m_source_file>
AV-unprocessed.smi

> <i_m_source_file_index>
3166

> <i_lp_mmshare_version>
43012

> <i_f3d_flags>
0

> <s_epik_input>
bjFbY0hdW2NIXVtjSF1uMVtDSDJdW0NAQEhdKFtDSDNdKVtOSF1bQ0gyXUMyKFtPSF0pW0NIMl1bQ0gyXVtDSDJdW0NIMl1bQ0gyXTI=

> <s_epik_cmdline>
J2VwaWtfcHl0aG9uJywgJy1waCcsICc3LjAnLCAnLXRuJywgJzgnLCAnLW1hJywgJzIwMCcsICctbWV0YWxfYmluZGluZycsICctaW1hZScsICc8aW5maWxlLm1hZT4nLCAnLW9tYWUnLCAnPG91dGZpbGUubWFlPic=

> <r_lp_tautomer_probability>
1

> <r_epik_Ionization_Penalty>
2.35964

> <r_epik_Ionization_Penalty_Charging>
0

> <r_epik_Ionization_Penalty_Neutral>
2.35964

> <r_epik_State_Penalty>
2.51455

> <r_epik_Charging_Adjusted_Penalty>
2.51455

> <i_epik_Tot_Q>
0

> <i_epik_Tot_abs_Q>
0

> <r_epik_Metal_State_Penalty>
2.51451

> <b_epik_Metal_Only>
0

> <s_lp_Force_Field>
OPLS_2005

> <r_lp_Energy>
22.8123

> <b_lp_Chiralities_Consistent>
1

> <s_lp_Variant>
AV-unprocessed.smi:3166-3

> <Gold.Version>
5.8.1

> <Gold.Id.Protein>
6NUR|6NUR_protein|mol2

> <Gold.PLP.Fitness>
41.6925

> <Gold.PLP.PLP>
-36.4617

> <Gold.PLP.part.hbond>
-2.0695

> <Gold.PLP.part.metal>
0.0000

> <Gold.PLP.part.buried>
-2.2721

> <Gold.PLP.part.nonpolar>
-32.0533

> <Gold.PLP.part.repulsive>
0.0690

> <Gold.PLP.ligand.clash>
0.0000

> <Gold.PLP.ligand.torsion>
0.5355

> <Gold.PLP.Chemscore.Hbond>
2.0880

> <Gold.PLP.Chemscore.CHOScore>
0.0000

> <Gold.PLP.Chemscore.Metal>
0.0000

> <Gold.Chemscore.Hbonds>
donor molecule, donor type, donor heavy atom, donor atom, acceptor molecule, acceptor atom, score
      L1  H    12    30       P1  7957  0.83
      P1  H  7989  7998       L1    12  0.27
      P1  H  8011  8017       L1    12  0.95

> <Gold.PLP.Chemscore.Internal.Correction>
0.0379

> <Gold.Rescore>
     Score         DG    S(hbond)    S(metal)    S(lipo)     H(rot)  DE(clash)    DE(int)     intcor
     15.48     -16.14       1.36        0.00      98.86       2.12       0.14       0.52       ----

> <Gold.Chemscore.Fitness>
15.4808

> <Gold.Chemscore.DG>
-16.1425

> <Gold.Chemscore.ZeroCoef>
-5.4800

> <Gold.Chemscore.Hbond>
1.3550

> <Gold.Chemscore.Metal>
0.0000

> <Gold.Chemscore.Lipo>
98.8584

> <Gold.Chemscore.Internal_Hbond>
0.0000

> <Gold.Chemscore.DEClash>
0.1424

> <Gold.Chemscore.DEInternal>
0.5194

> <Gold.Chemscore.Rot>
2.1209

> <Gold.Chemscore.Internal.Correction>
   9.000000E+99

> <Gold.Chemscore.Hbonds>
donor molecule, donor type, donor heavy atom, donor atom, acceptor molecule, acceptor atom, score
      L1  H    12    30       P1  7957  0.81
      P1  H  7989  7998       L1    12  0.06
      P1  H  8011  8017       L1    12  0.21

> <Gold.Chemscore.Hbond.Weighted>
-4.5257

> <Gold.Chemscore.Metal.Weighted>
-0.0000

> <Gold.Chemscore.Lipo.Weighted>
-11.5664

> <Gold.Chemscore.Internal_Hbond.Weighted>
0.0000

> <Gold.Chemscore.DEClash.Weighted>
0.1424

> <Gold.Chemscore.DEInternal.Weighted>
0.5194

> <Gold.Chemscore.Rot.Weighted>
5.4296

> <Gold.Chemscore.Internal.Correction.Weighted>
   9.000000E+99

> <Gold.Protein.RotatedTorsions>
[ 6907 6896 6895 6894 ] final  -11.44 input  -60.11 | X-H torsion
[ 7974 7965 7964 7962 ] final   72.55 input  175.53 | X-H torsion
[ 8008 7997 7996 7995 ] final -157.41 input   59.86 | X-H torsion
[ 10167 10162 10161 10158 ] final  138.60 input  -65.29 | X-H torsion
[ 10718 10713 10712 10709 ] final  176.16 input   66.30 | X-H torsion
[ 10763 10752 10751 10750 ] final  -20.24 input  -60.55 | X-H torsion
[ 11005 11000 10999 10996 ] final -154.96 input  -57.11 | X-H torsion

> <Gold.Protein.ActiveResidues>
 VAL166  LYS551  ARG553  GLY616  TRP617  ASP618  TYR619  PRO620  LYS621  CYS622 
 ASP623  PHE694  ASN695  SER759  ASP760  ASP761  ALA762  ILE779  LEU786  VAL792 
 PHE793  MET794  SER795  GLU796  ALA797  LYS798  CYS799  TRP800  GLU811  SER814 

> <Gold.Protein.RotatedAtoms>
  151.3862  135.0948  159.9511 H   0  0  0  0  0  0  0  0  0  0  0  0  # atno 6907 bound_to 6896
  152.5093  133.9024  159.7458 H   0  0  0  0  0  0  0  0  0  0  0  0  # atno 6908 bound_to 6896
  150.9468  133.6539  159.2808 H   0  0  0  0  0  0  0  0  0  0  0  0  # atno 6909 bound_to 6896
  145.7519  139.2764  143.1426 H   0  0  0  0  0  0  0  0  0  0  0  0  # atno 7974 bound_to 7965
  155.7320  140.0803  157.2284 H   0  0  0  0  0  0  0  0  0  0  0  0  # atno 8008 bound_to 7997
  154.4032  140.1593  156.2574 H   0  0  0  0  0  0  0  0  0  0  0  0  # atno 8009 bound_to 7997
  155.9100  140.3404  155.6094 H   0  0  0  0  0  0  0  0  0  0  0  0  # atno 8010 bound_to 7997
  139.5105  144.6344  151.5736 H   0  0  0  0  0  0  0  0  0  0  0  0  # atno 10167 bound_to 10162
  156.9242  130.9950  151.2999 H   0  0  0  0  0  0  0  0  0  0  0  0  # atno 10718 bound_to 10713
  153.6173  135.6994  153.5324 H   0  0  0  0  0  0  0  0  0  0  0  0  # atno 10763 bound_to 10752
  153.2967  135.4141  155.1215 H   0  0  0  0  0  0  0  0  0  0  0  0  # atno 10764 bound_to 10752
  154.8551  135.3638  154.5713 H   0  0  0  0  0  0  0  0  0  0  0  0  # atno 10765 bound_to 10752
  140.6917  134.4034  157.5218 H   0  0  0  0  0  0  0  0  0  0  0  0  # atno 11005 bound_to 11000
  146.0348  140.8223  142.9858 LP  0  0  0  0  0  0  0  0  0  0  0  0  # atno 17320 bound_to 7965
  144.6848  140.2822  143.7290 LP  0  0  0  0  0  0  0  0  0  0  0  0  # atno 17321 bound_to 7965
  140.6087  143.9476  150.6437 LP  0  0  0  0  0  0  0  0  0  0  0  0  # atno 17342 bound_to 10162
  140.2711  143.3455  152.1237 LP  0  0  0  0  0  0  0  0  0  0  0  0  # atno 17343 bound_to 10162
  157.5888  130.8429  149.8629 LP  0  0  0  0  0  0  0  0  0  0  0  0  # atno 17370 bound_to 10713
  156.0477  130.3724  150.1277 LP  0  0  0  0  0  0  0  0  0  0  0  0  # atno 17371 bound_to 10713
  139.8921  134.8762  156.2285 LP  0  0  0  0  0  0  0  0  0  0  0  0  # atno 17394 bound_to 11000
  141.0236  133.7027  156.1310 LP  0  0  0  0  0  0  0  0  0  0  0  0  # atno 17395 bound_to 11000

$$$$
