AV-unprocessed.smi:326|AV-procd|sdf|2344|dock8
  -GOLD-   2262022253D 1   1.00000     0.00000
 Structure written by MMmdl.
 44 45  0  0  0  0  0  0  0  0  1 V2000
  152.0845  144.2013  157.3799 C   0  0  0  0  0  0  0  0  0  0  0  0
  150.9526  143.3504  157.3535 O   0  0  0  0  0  0  0  0  0  0  0  0
  151.3015  141.9836  157.2115 C   0  0  0  0  0  0  0  0  0  0  0  0
  150.0347  141.1139  157.2585 C   0  0  0  0  0  0  0  0  0  0  0  0
  150.2955  139.7486  156.7883 N   0  0  0  0  0  0  0  0  0  0  0  0
  149.8696  138.7636  157.6642 N   0  0  0  0  0  0  0  0  0  0  0  0
  150.0239  137.5145  157.3641 C   0  0  0  0  0  0  0  0  0  0  0  0
  149.5779  136.4265  158.2777 C   0  0  0  0  0  0  0  0  0  0  0  0
  149.7751  135.2380  158.0188 O   0  0  0  0  0  0  0  0  0  0  0  0
  148.9491  136.8348  159.3948 N   0  0  0  0  0  0  0  0  0  0  0  0
  148.4281  135.9606  160.4409 C   0  0  2  0  0  0  0  0  0  0  0  0
  147.5441  134.8505  159.8375 C   0  0  0  0  0  0  0  0  0  0  0  0
  146.9300  133.9646  160.9336 C   0  0  0  0  0  0  0  0  0  0  0  0
  146.1334  134.7954  161.9579 C   0  0  1  0  0  0  0  0  0  0  0  0
  145.5307  133.9066  163.0551 C   0  0  0  0  0  0  0  0  0  0  0  0
  147.0206  135.9044  162.5557 C   0  0  0  0  0  0  0  0  0  0  0  0
  147.6297  136.7935  161.4597 C   0  0  0  0  0  0  0  0  0  0  0  0
  150.6446  137.1217  156.1104 C   0  0  0  0  0  0  0  0  0  0  0  0
  151.0541  138.0931  155.2656 C   0  0  0  0  0  0  0  0  0  0  0  0
  150.8894  139.5134  155.5790 C   0  0  0  0  0  0  0  0  0  0  0  0
  151.2505  140.4138  154.8220 O   0  0  0  0  0  0  0  0  0  0  0  0
  151.7609  145.2370  157.4824 H   0  0  0  0  0  0  0  0  0  0  0  0
  152.6627  144.1185  156.4588 H   0  0  0  0  0  0  0  0  0  0  0  0
  152.7337  143.9663  158.2243 H   0  0  0  0  0  0  0  0  0  0  0  0
  151.8063  141.8387  156.2556 H   0  0  0  0  0  0  0  0  0  0  0  0
  151.9993  141.6827  157.9947 H   0  0  0  0  0  0  0  0  0  0  0  0
  149.6089  141.1206  158.2633 H   0  0  0  0  0  0  0  0  0  0  0  0
  149.2711  141.5655  156.6230 H   0  0  0  0  0  0  0  0  0  0  0  0
  148.8278  137.8284  159.5298 H   0  0  0  0  0  0  0  0  0  0  0  0
  149.2677  135.4993  160.9649 H   0  0  0  0  0  0  0  0  0  0  0  0
  146.7459  135.2957  159.2418 H   0  0  0  0  0  0  0  0  0  0  0  0
  148.1279  134.2310  159.1557 H   0  0  0  0  0  0  0  0  0  0  0  0
  146.2826  133.2158  160.4756 H   0  0  0  0  0  0  0  0  0  0  0  0
  147.7241  133.4154  161.4415 H   0  0  0  0  0  0  0  0  0  0  0  0
  145.3059  135.2737  161.4315 H   0  0  0  0  0  0  0  0  0  0  0  0
  146.3087  133.4038  163.6306 H   0  0  0  0  0  0  0  0  0  0  0  0
  144.8839  133.1394  162.6283 H   0  0  0  0  0  0  0  0  0  0  0  0
  144.9296  134.4938  163.7501 H   0  0  0  0  0  0  0  0  0  0  0  0
  146.4380  136.5199  163.2422 H   0  0  0  0  0  0  0  0  0  0  0  0
  147.8221  135.4582  163.1465 H   0  0  0  0  0  0  0  0  0  0  0  0
  148.2744  137.5462  161.9153 H   0  0  0  0  0  0  0  0  0  0  0  0
  146.8315  137.3369  160.9514 H   0  0  0  0  0  0  0  0  0  0  0  0
  150.7784  136.0811  155.8524 H   0  0  0  0  0  0  0  0  0  0  0  0
  151.5164  137.8155  154.3299 H   0  0  0  0  0  0  0  0  0  0  0  0
  1  2  1  0  0  0  0
  1 22  1  0  0  0  0
  1 23  1  0  0  0  0
  1 24  1  0  0  0  0
  2  3  1  0  0  0  0
  3  4  1  0  0  0  0
  3 25  1  0  0  0  0
  3 26  1  0  0  0  0
  4  5  1  0  0  0  0
  4 27  1  0  0  0  0
  4 28  1  0  0  0  0
  5 20  1  0  0  0  0
  5  6  1  0  0  0  0
  6  7  2  0  0  0  0
  7  8  1  0  0  0  0
  7 18  1  0  0  0  0
  8  9  2  0  0  0  0
  8 10  1  0  0  0  0
 10 11  1  0  0  0  0
 10 29  1  0  0  0  0
 11 17  1  0  0  0  0
 11 12  1  0  0  0  0
 11 30  1  0  0  0  0
 12 13  1  0  0  0  0
 12 31  1  0  0  0  0
 12 32  1  0  0  0  0
 13 14  1  0  0  0  0
 13 33  1  0  0  0  0
 13 34  1  0  0  0  0
 14 15  1  0  0  0  0
 14 16  1  0  0  0  0
 14 35  1  0  0  0  0
 15 36  1  0  0  0  0
 15 37  1  0  0  0  0
 15 38  1  0  0  0  0
 16 17  1  0  0  0  0
 16 39  1  0  0  0  0
 16 40  1  0  0  0  0
 17 41  1  0  0  0  0
 17 42  1  0  0  0  0
 18 19  2  0  0  0  0
 18 43  1  0  0  0  0
 19 20  1  0  0  0  0
 19 44  1  0  0  0  0
 20 21  2  0  0  0  0
M  END
> <s_m_source_file>
AV-unprocessed.smi

> <i_m_source_file_index>
326

> <i_lp_mmshare_version>
43012

> <i_f3d_flags>
0

> <s_epik_input>
W0NIM11PW0NIMl1bQ0gyXW4xbmMoW2NIXVtjSF1jMT1PKUMoPU8pW05IXVtDQEBIXTJbQ0gyXVtDSDJdW0NAQEhdKFtDSDNdKVtDSDJdW0NIMl0y

> <s_epik_cmdline>
J2VwaWtfcHl0aG9uJywgJy1waCcsICc3LjAnLCAnLXRuJywgJzgnLCAnLW1hJywgJzIwMCcsICctbWV0YWxfYmluZGluZycsICctaW1hZScsICc8aW5maWxlLm1hZT4nLCAnLW9tYWUnLCAnPG91dGZpbGUubWFlPic=

> <r_lp_tautomer_probability>
1

> <r_epik_Ionization_Penalty>
6.47102e-07

> <r_epik_Ionization_Penalty_Charging>
6.8576e-09

> <r_epik_Ionization_Penalty_Neutral>
6.40245e-07

> <r_epik_State_Penalty>
-0

> <r_epik_Charging_Adjusted_Penalty>
6.8576e-09

> <i_epik_Tot_Q>
0

> <i_epik_Tot_abs_Q>
0

> <r_epik_Metal_State_Penalty>
-0

> <b_epik_Metal_Only>
0

> <s_lp_Force_Field>
OPLS_2005

> <r_lp_Energy>
29.5472

> <b_lp_Chiralities_Consistent>
1

> <s_lp_Variant>
AV-unprocessed.smi:326-1

> <Gold.Version>
5.8.1

> <Gold.Id.Protein>
6NUR|6NUR_protein|mol2

> <Gold.PLP.Fitness>
37.5148

> <Gold.PLP.PLP>
-32.0678

> <Gold.PLP.part.hbond>
-2.0000

> <Gold.PLP.part.metal>
0.0000

> <Gold.PLP.part.buried>
-4.5267

> <Gold.PLP.part.nonpolar>
-26.5822

> <Gold.PLP.part.repulsive>
0.3689

> <Gold.PLP.ligand.clash>
0.0000

> <Gold.PLP.ligand.torsion>
0.1774

> <Gold.PLP.Chemscore.Hbond>
1.9280

> <Gold.PLP.Chemscore.CHOScore>
0.0000

> <Gold.PLP.Chemscore.Metal>
0.0000

> <Gold.Chemscore.Hbonds>
donor molecule, donor type, donor heavy atom, donor atom, acceptor molecule, acceptor atom, score
      P1  H  6896  6907       L1     9  0.94
      P1  H  7989  7998       L1    21  0.80

> <Gold.PLP.Chemscore.Internal.Correction>
0.0178

> <Gold.Rescore>
     Score         DG    S(hbond)    S(metal)    S(lipo)     H(rot)  DE(clash)    DE(int)     intcor
     17.05     -17.49       1.89        0.00      82.65       1.55       0.11       0.34       ----

> <Gold.Chemscore.Fitness>
17.0498

> <Gold.Chemscore.DG>
-17.4948

> <Gold.Chemscore.ZeroCoef>
-5.4800

> <Gold.Chemscore.Hbond>
1.8885

> <Gold.Chemscore.Metal>
0.0000

> <Gold.Chemscore.Lipo>
82.6454

> <Gold.Chemscore.Internal_Hbond>
0.0000

> <Gold.Chemscore.DEClash>
0.1065

> <Gold.Chemscore.DEInternal>
0.3385

> <Gold.Chemscore.Rot>
1.5478

> <Gold.Chemscore.Internal.Correction>
   9.000000E+99

> <Gold.Chemscore.Hbonds>
donor molecule, donor type, donor heavy atom, donor atom, acceptor molecule, acceptor atom, score
      P1  H  6896  6907       L1     9  0.81
      P1  H  7989  7998       L1    21  0.77

> <Gold.Chemscore.Hbond.Weighted>
-6.3076

> <Gold.Chemscore.Metal.Weighted>
-0.0000

> <Gold.Chemscore.Lipo.Weighted>
-9.6695

> <Gold.Chemscore.Internal_Hbond.Weighted>
0.0000

> <Gold.Chemscore.DEClash.Weighted>
0.1065

> <Gold.Chemscore.DEInternal.Weighted>
0.3385

> <Gold.Chemscore.Rot.Weighted>
3.9623

> <Gold.Chemscore.Internal.Correction.Weighted>
   9.000000E+99

> <Gold.Protein.RotatedTorsions>
[ 6907 6896 6895 6894 ] final  -89.59 input  -60.11 | X-H torsion
[ 7974 7965 7964 7962 ] final  -72.33 input  175.53 | X-H torsion
[ 8008 7997 7996 7995 ] final -176.68 input   59.86 | X-H torsion
[ 10167 10162 10161 10158 ] final  167.42 input  -65.29 | X-H torsion
[ 10718 10713 10712 10709 ] final   -8.87 input   66.30 | X-H torsion
[ 10763 10752 10751 10750 ] final  100.10 input  -60.55 | X-H torsion
[ 11005 11000 10999 10996 ] final  -37.43 input  -57.11 | X-H torsion

> <Gold.Protein.ActiveResidues>
 VAL166  LYS551  ARG553  GLY616  TRP617  ASP618  TYR619  PRO620  LYS621  CYS622 
 ASP623  PHE694  ASN695  SER759  ASP760  ASP761  ALA762  ILE779  LEU786  VAL792 
 PHE793  MET794  SER795  GLU796  ALA797  LYS798  CYS799  TRP800  GLU811  SER814 

> <Gold.Protein.RotatedAtoms>
  150.6875  134.2563  159.4530 H   0  0  0  0  0  0  0  0  0  0  0  0  # atno 6907 bound_to 6896
  152.0496  134.9659  160.0584 H   0  0  0  0  0  0  0  0  0  0  0  0  # atno 6908 bound_to 6896
  152.1128  133.4275  159.4676 H   0  0  0  0  0  0  0  0  0  0  0  0  # atno 6909 bound_to 6896
  145.6665  140.9235  143.0906 H   0  0  0  0  0  0  0  0  0  0  0  0  # atno 7974 bound_to 7965
  155.9977  140.1214  157.0577 H   0  0  0  0  0  0  0  0  0  0  0  0  # atno 8008 bound_to 7997
  154.4232  140.1113  156.5723 H   0  0  0  0  0  0  0  0  0  0  0  0  # atno 8009 bound_to 7997
  155.6255  140.3472  155.4668 H   0  0  0  0  0  0  0  0  0  0  0  0  # atno 8010 bound_to 7997
  139.4945  144.3923  151.9503 H   0  0  0  0  0  0  0  0  0  0  0  0  # atno 10167 bound_to 10162
  156.6964  130.5080  149.5929 H   0  0  0  0  0  0  0  0  0  0  0  0  # atno 10718 bound_to 10713
  153.3097  135.4090  155.1325 H   0  0  0  0  0  0  0  0  0  0  0  0  # atno 10763 bound_to 10752
  154.8572  135.3561  154.5741 H   0  0  0  0  0  0  0  0  0  0  0  0  # atno 10764 bound_to 10752
  153.6169  135.7066  153.5384 H   0  0  0  0  0  0  0  0  0  0  0  0  # atno 10765 bound_to 10752
  140.9951  133.6984  156.1920 H   0  0  0  0  0  0  0  0  0  0  0  0  # atno 11005 bound_to 11000
  144.7071  139.8516  143.7426 LP  0  0  0  0  0  0  0  0  0  0  0  0  # atno 17320 bound_to 7965
  146.1081  139.4083  143.0304 LP  0  0  0  0  0  0  0  0  0  0  0  0  # atno 17321 bound_to 7965
  140.3361  144.3259  150.5977 LP  0  0  0  0  0  0  0  0  0  0  0  0  # atno 17342 bound_to 10162
  140.5605  143.2193  151.7774 LP  0  0  0  0  0  0  0  0  0  0  0  0  # atno 17343 bound_to 10162
  156.1761  130.6468  151.0895 LP  0  0  0  0  0  0  0  0  0  0  0  0  # atno 17370 bound_to 10713
  157.6990  131.0783  150.6881 LP  0  0  0  0  0  0  0  0  0  0  0  0  # atno 17371 bound_to 10713
  140.6978  134.4596  157.5587 LP  0  0  0  0  0  0  0  0  0  0  0  0  # atno 17394 bound_to 11000
  139.9011  134.8555  156.1894 LP  0  0  0  0  0  0  0  0  0  0  0  0  # atno 17395 bound_to 11000

$$$$
