AV-unprocessed.smi:3193|AV-procd|sdf|12202|dock10
  -GOLD-   2272018 33D 1   1.00000     0.00000
 Structure written by MMmdl.
 40 41  0  0  0  0  0  0  0  0  2 V2000
  150.4602  144.7375  159.7399 C   0  0  0  0  0  0  0  0  0  0  0  0
  151.2814  144.1970  158.5513 C   0  0  1  0  0  0  0  0  0  0  0  0
  152.7945  144.4233  158.7565 C   0  0  0  0  0  0  0  0  0  0  0  0
  153.3899  143.4789  159.8142 C   0  0  0  0  0  0  0  0  0  0  0  0
  153.0976  142.0105  159.4743 C   0  0  0  0  0  0  0  0  0  0  0  0
  151.5929  141.7669  159.2790 C   0  0  0  0  0  0  0  0  0  0  0  0
  151.0003  142.7094  158.2069 C   0  0  1  0  0  0  0  0  0  0  0  0
  149.5068  142.4327  157.9403 C   0  0  0  0  0  0  0  0  0  0  0  0
  149.2247  142.3106  156.4958 N   0  3  0  0  0  0  0  0  0  0  0  0
  150.3078  141.6704  155.7248 C   0  0  0  0  0  0  0  0  0  0  0  0
  149.7522  140.5950  154.7815 C   0  0  0  0  0  0  0  0  0  0  0  0
  150.6338  139.4476  154.7081 N   0  0  0  0  0  0  0  0  0  0  0  0
  150.5637  138.3925  153.8078 C   0  0  0  0  0  0  0  0  0  0  0  0
  151.6052  137.5456  154.1135 C   0  0  0  0  0  0  0  0  0  0  0  0
  152.3247  138.0577  155.1908 N   0  0  0  0  0  0  0  0  0  0  0  0
  151.6902  139.1838  155.4892 C   0  0  0  0  0  0  0  0  0  0  0  0
  150.6374  144.1727  160.6546 H   0  0  0  0  0  0  0  0  0  0  0  0
  149.3902  144.7096  159.5349 H   0  0  0  0  0  0  0  0  0  0  0  0
  150.7147  145.7777  159.9450 H   0  0  0  0  0  0  0  0  0  0  0  0
  150.9906  144.7928  157.6848 H   0  0  0  0  0  0  0  0  0  0  0  0
  153.3120  144.2639  157.8093 H   0  0  0  0  0  0  0  0  0  0  0  0
  152.9885  145.4605  159.0321 H   0  0  0  0  0  0  0  0  0  0  0  0
  154.4669  143.6347  159.8833 H   0  0  0  0  0  0  0  0  0  0  0  0
  152.9844  143.7169  160.7979 H   0  0  0  0  0  0  0  0  0  0  0  0
  153.6322  141.7352  158.5643 H   0  0  0  0  0  0  0  0  0  0  0  0
  153.4803  141.3631  160.2638 H   0  0  0  0  0  0  0  0  0  0  0  0
  151.4391  140.7259  158.9939 H   0  0  0  0  0  0  0  0  0  0  0  0
  151.0727  141.8998  160.2281 H   0  0  0  0  0  0  0  0  0  0  0  0
  151.5295  142.5072  157.2737 H   0  0  0  0  0  0  0  0  0  0  0  0
  149.1873  141.5209  158.4462 H   0  0  0  0  0  0  0  0  0  0  0  0
  148.9048  143.2503  158.3392 H   0  0  0  0  0  0  0  0  0  0  0  0
  148.3823  141.7659  156.3793 H   0  0  0  0  0  0  0  0  0  0  0  0
  150.8401  142.4315  155.1526 H   0  0  0  0  0  0  0  0  0  0  0  0
  151.0248  141.2255  156.4163 H   0  0  0  0  0  0  0  0  0  0  0  0
  148.7710  140.2583  155.1194 H   0  0  0  0  0  0  0  0  0  0  0  0
  149.6225  140.9968  153.7757 H   0  0  0  0  0  0  0  0  0  0  0  0
  149.8014  138.3311  153.0452 H   0  0  0  0  0  0  0  0  0  0  0  0
  151.8903  136.6153  153.6447 H   0  0  0  0  0  0  0  0  0  0  0  0
  152.0035  139.8330  156.2939 H   0  0  0  0  0  0  0  0  0  0  0  0
  149.0659  143.2358  156.1222 H   0  0  0  0  0  0  0  0  0  0  0  0
  1  2  1  0  0  0  0
  1 17  1  0  0  0  0
  1 18  1  0  0  0  0
  1 19  1  0  0  0  0
  2  7  1  0  0  0  0
  2  3  1  0  0  0  0
  2 20  1  0  0  0  0
  3  4  1  0  0  0  0
  3 21  1  0  0  0  0
  3 22  1  0  0  0  0
  4  5  1  0  0  0  0
  4 23  1  0  0  0  0
  4 24  1  0  0  0  0
  5  6  1  0  0  0  0
  5 25  1  0  0  0  0
  5 26  1  0  0  0  0
  6  7  1  0  0  0  0
  6 27  1  0  0  0  0
  6 28  1  0  0  0  0
  7  8  1  0  0  0  0
  7 29  1  0  0  0  0
  8  9  1  0  0  0  0
  8 30  1  0  0  0  0
  8 31  1  0  0  0  0
  9 10  1  0  0  0  0
  9 32  1  0  0  0  0
  9 40  1  0  0  0  0
 10 11  1  0  0  0  0
 10 33  1  0  0  0  0
 10 34  1  0  0  0  0
 11 12  1  0  0  0  0
 11 35  1  0  0  0  0
 11 36  1  0  0  0  0
 12 16  1  0  0  0  0
 12 13  1  0  0  0  0
 13 14  2  0  0  0  0
 13 37  1  0  0  0  0
 14 15  1  0  0  0  0
 14 38  1  0  0  0  0
 15 16  2  0  0  0  0
 16 39  1  0  0  0  0
M  CHG  1   9   1
M  END
> <s_m_source_file>
AV-unprocessed.smi

> <i_m_source_file_index>
3193

> <i_lp_mmshare_version>
43012

> <i_f3d_flags>
0

> <s_epik_input>
W0NIM11bQ0BASF0xW0NIMl1bQ0gyXVtDSDJdW0NIMl1bQ0BIXTFbQ0gyXVtOSF1bQ0gyXVtDSDJdbjJbY0hdW2NIXW5bY0hdMg==

> <s_epik_cmdline>
J2VwaWtfcHl0aG9uJywgJy1waCcsICc3LjAnLCAnLXRuJywgJzgnLCAnLW1hJywgJzIwMCcsICctbWV0YWxfYmluZGluZycsICctaW1hZScsICc8aW5maWxlLm1hZT4nLCAnLW9tYWUnLCAnPG91dGZpbGUubWFlPic=

> <r_lp_tautomer_probability>
1

> <r_epik_Ionization_Penalty>
0.0503046

> <r_epik_Ionization_Penalty_Charging>
0.0503046

> <r_epik_Ionization_Penalty_Neutral>
0

> <r_epik_State_Penalty>
0.0981804

> <r_epik_Charging_Adjusted_Penalty>
0.148485

> <i_epik_Tot_Q>
1

> <i_epik_Tot_abs_Q>
1

> <r_epik_Metal_State_Penalty>
0.000105854

> <b_epik_Metal_Only>
0

> <s_lp_Force_Field>
OPLS_2005

> <r_lp_Energy>
20.219

> <b_lp_Chiralities_Consistent>
1

> <s_lp_Variant>
AV-unprocessed.smi:3193-2

> <Gold.Version>
5.8.1

> <Gold.Id.Protein>
6NUR|6NUR_protein|mol2

> <Gold.PLP.Fitness>
48.7934

> <Gold.PLP.PLP>
-37.7176

> <Gold.PLP.part.hbond>
-1.0000

> <Gold.PLP.part.metal>
0.0000

> <Gold.PLP.part.buried>
-0.4736

> <Gold.PLP.part.nonpolar>
-33.2943

> <Gold.PLP.part.repulsive>
0.0701

> <Gold.PLP.ligand.clash>
0.0000

> <Gold.PLP.ligand.torsion>
1.4889

> <Gold.PLP.Chemscore.Hbond>
2.0000

> <Gold.PLP.Chemscore.CHOScore>
2.6707

> <Gold.PLP.Chemscore.Metal>
0.0000

> <Gold.Chemscore.Hbonds>
donor molecule, donor type, donor heavy atom, donor atom, acceptor molecule, acceptor atom, score
      L1  H     9    40       P1  8028  2.00
      L1  C    13    37       P1  7948  0.95
      L1  C    13    37       P1  7957  0.85
      L1  C    14    38       P1  7949  0.87

> <Gold.PLP.Chemscore.Internal.Correction>
0.0415

> <Gold.Rescore>
     Score         DG    S(hbond)    S(metal)    S(lipo)     H(rot)  DE(clash)    DE(int)     intcor
     15.87     -17.36       0.99        0.00     114.52       1.89       0.09       1.40       ----

> <Gold.Chemscore.Fitness>
15.8728

> <Gold.Chemscore.DG>
-17.3588

> <Gold.Chemscore.ZeroCoef>
-5.4800

> <Gold.Chemscore.Hbond>
0.9932

> <Gold.Chemscore.Metal>
0.0000

> <Gold.Chemscore.Lipo>
114.5177

> <Gold.Chemscore.Internal_Hbond>
0.0000

> <Gold.Chemscore.DEClash>
0.0875

> <Gold.Chemscore.DEInternal>
1.3985

> <Gold.Chemscore.Rot>
1.8895

> <Gold.Chemscore.Internal.Correction>
   9.000000E+99

> <Gold.Chemscore.Hbonds>
donor molecule, donor type, donor heavy atom, donor atom, acceptor molecule, acceptor atom, score
      L1  H     9    40       P1  8028  0.97

> <Gold.Chemscore.Hbond.Weighted>
-3.3173

> <Gold.Chemscore.Metal.Weighted>
-0.0000

> <Gold.Chemscore.Lipo.Weighted>
-13.3986

> <Gold.Chemscore.Internal_Hbond.Weighted>
0.0000

> <Gold.Chemscore.DEClash.Weighted>
0.0875

> <Gold.Chemscore.DEInternal.Weighted>
1.3985

> <Gold.Chemscore.Rot.Weighted>
4.8371

> <Gold.Chemscore.Internal.Correction.Weighted>
   9.000000E+99

> <Gold.Protein.RotatedTorsions>
[ 6907 6896 6895 6894 ] final  -83.57 input  -60.11 | X-H torsion
[ 7974 7965 7964 7962 ] final  -12.79 input  175.53 | X-H torsion
[ 8008 7997 7996 7995 ] final  104.19 input   59.86 | X-H torsion
[ 10167 10162 10161 10158 ] final  -54.49 input  -65.29 | X-H torsion
[ 10718 10713 10712 10709 ] final   24.46 input   66.30 | X-H torsion
[ 10763 10752 10751 10750 ] final  171.35 input  -60.55 | X-H torsion
[ 11005 11000 10999 10996 ] final  -43.94 input  -57.11 | X-H torsion

> <Gold.Protein.ActiveResidues>
 VAL166  LYS551  ARG553  GLY616  TRP617  ASP618  TYR619  PRO620  LYS621  CYS622 
 ASP623  PHE694  ASN695  SER759  ASP760  ASP761  ALA762  ILE779  LEU786  VAL792 
 PHE793  MET794  SER795  GLU796  ALA797  LYS798  CYS799  TRP800  GLU811  SER814 

> <Gold.Protein.RotatedAtoms>
  150.6884  134.3492  159.4901 H   0  0  0  0  0  0  0  0  0  0  0  0  # atno 6907 bound_to 6896
  152.1335  134.9114  160.0567 H   0  0  0  0  0  0  0  0  0  0  0  0  # atno 6908 bound_to 6896
  152.0274  133.3889  159.4320 H   0  0  0  0  0  0  0  0  0  0  0  0  # atno 6909 bound_to 6896
  146.2139  140.3109  142.8382 H   0  0  0  0  0  0  0  0  0  0  0  0  # atno 7974 bound_to 7965
  156.1551  140.3152  155.8712 H   0  0  0  0  0  0  0  0  0  0  0  0  # atno 8008 bound_to 7997
  155.3895  140.0493  157.3058 H   0  0  0  0  0  0  0  0  0  0  0  0  # atno 8009 bound_to 7997
  154.5093  140.2159  155.9199 H   0  0  0  0  0  0  0  0  0  0  0  0  # atno 8010 bound_to 7997
  140.6427  143.2517  151.4944 H   0  0  0  0  0  0  0  0  0  0  0  0  # atno 10167 bound_to 10162
  157.1801  130.6799  149.6110 H   0  0  0  0  0  0  0  0  0  0  0  0  # atno 10718 bound_to 10713
  154.4107  135.2756  155.2039 H   0  0  0  0  0  0  0  0  0  0  0  0  # atno 10763 bound_to 10752
  154.4026  135.6041  153.5909 H   0  0  0  0  0  0  0  0  0  0  0  0  # atno 10764 bound_to 10752
  152.9831  135.5930  154.4388 H   0  0  0  0  0  0  0  0  0  0  0  0  # atno 10765 bound_to 10752
  141.0417  133.6777  156.2803 H   0  0  0  0  0  0  0  0  0  0  0  0  # atno 11005 bound_to 11000
  144.8989  140.7617  143.5880 LP  0  0  0  0  0  0  0  0  0  0  0  0  # atno 17320 bound_to 7965
  145.3034  139.1842  143.4677 LP  0  0  0  0  0  0  0  0  0  0  0  0  # atno 17321 bound_to 7965
  139.5637  144.2094  152.1731 LP  0  0  0  0  0  0  0  0  0  0  0  0  # atno 17342 bound_to 10162
  140.1370  144.5237  150.6767 LP  0  0  0  0  0  0  0  0  0  0  0  0  # atno 17343 bound_to 10162
  155.9725  130.4649  150.6236 LP  0  0  0  0  0  0  0  0  0  0  0  0  # atno 17370 bound_to 10713
  157.3960  131.0803  151.1351 LP  0  0  0  0  0  0  0  0  0  0  0  0  # atno 17371 bound_to 10713
  140.6221  134.5350  157.5549 LP  0  0  0  0  0  0  0  0  0  0  0  0  # atno 17394 bound_to 11000
  139.9281  134.8017  156.1010 LP  0  0  0  0  0  0  0  0  0  0  0  0  # atno 17395 bound_to 11000

$$$$
