AV-unprocessed.smi:1806|AV-procd|sdf|7300|dock9
  -GOLD-   22720 8553D 1   1.00000     0.00000
 Structure written by MMmdl.
 27 28  0  0  0  0  0  0  0  0  2 V2000
  151.5116  144.5731  159.5611 C   0  0  0  0  0  0  0  0  0  0  0  0
  152.1249  143.2064  159.7814 C   0  0  0  0  0  0  0  0  0  0  0  0
  152.6779  142.8575  161.0290 C   0  0  0  0  0  0  0  0  0  0  0  0
  153.2325  141.5729  161.1693 C   0  0  0  0  0  0  0  0  0  0  0  0
  153.2143  140.7007  160.0642 C   0  0  0  0  0  0  0  0  0  0  0  0
  152.6478  141.1323  158.8420 C   0  0  0  0  0  0  0  0  0  0  0  0
  152.6134  140.3049  157.7863 N   0  5  0  0  0  0  0  0  0  0  0  0
  151.6623  140.4402  156.8261 C   0  0  0  0  0  0  0  0  0  0  0  0
  151.0724  141.4965  156.5796 O   0  0  0  0  0  0  0  0  0  0  0  0
  151.3596  139.2300  156.0660 C   0  0  0  0  0  0  0  0  0  0  0  0
  152.2269  138.1895  156.0715 C   0  0  0  0  0  0  0  0  0  0  0  0
  152.0361  137.0316  155.3593 O   0  0  0  0  0  0  0  0  0  0  0  0
  150.9787  137.0862  154.4094 C   0  0  0  0  0  0  0  0  0  0  0  0
  149.7746  137.8397  154.9913 C   0  0  0  0  0  0  0  0  0  0  0  0
  150.1618  139.1494  155.3896 O   0  0  0  0  0  0  0  0  0  0  0  0
  152.1084  142.3691  158.7213 N   0  0  0  0  0  0  0  0  0  0  0  0
  151.1840  145.0100  160.5048 H   0  0  0  0  0  0  0  0  0  0  0  0
  150.6460  144.5083  158.9005 H   0  0  0  0  0  0  0  0  0  0  0  0
  152.2417  145.2433  159.1071 H   0  0  0  0  0  0  0  0  0  0  0  0
  152.6769  143.5521  161.8559 H   0  0  0  0  0  0  0  0  0  0  0  0
  153.6644  141.2598  162.1082 H   0  0  0  0  0  0  0  0  0  0  0  0
  153.6349  139.7097  160.1533 H   0  0  0  0  0  0  0  0  0  0  0  0
  153.1695  138.1750  156.5996 H   0  0  0  0  0  0  0  0  0  0  0  0
  151.3342  137.5793  153.5037 H   0  0  0  0  0  0  0  0  0  0  0  0
  150.6954  136.0707  154.1321 H   0  0  0  0  0  0  0  0  0  0  0  0
  148.9761  137.9127  154.2528 H   0  0  0  0  0  0  0  0  0  0  0  0
  149.3688  137.3068  155.8525 H   0  0  0  0  0  0  0  0  0  0  0  0
  1  2  1  0  0  0  0
  1 17  1  0  0  0  0
  1 18  1  0  0  0  0
  1 19  1  0  0  0  0
  2 16  1  0  0  0  0
  2  3  2  0  0  0  0
  3  4  1  0  0  0  0
  3 20  1  0  0  0  0
  4  5  2  0  0  0  0
  4 21  1  0  0  0  0
  5  6  1  0  0  0  0
  5 22  1  0  0  0  0
  6  7  1  0  0  0  0
  6 16  2  0  0  0  0
  7  8  1  0  0  0  0
  8  9  2  0  0  0  0
  8 10  1  0  0  0  0
 10 15  1  0  0  0  0
 10 11  2  0  0  0  0
 11 12  1  0  0  0  0
 11 23  1  0  0  0  0
 12 13  1  0  0  0  0
 13 14  1  0  0  0  0
 13 24  1  0  0  0  0
 13 25  1  0  0  0  0
 14 15  1  0  0  0  0
 14 26  1  0  0  0  0
 14 27  1  0  0  0  0
M  CHG  1   7  -1
M  END
> <s_m_source_file>
AV-unprocessed.smi

> <i_m_source_file_index>
1806

> <i_lp_mmshare_version>
43012

> <i_f3d_flags>
0

> <s_epik_input>
W0NIM11jMVtjSF1bY0hdW2NIXWMobjEpW05IXUMoPU8pQzI9W0NIXU9bQ0gyXVtDSDJdTzI=

> <s_epik_cmdline>
J2VwaWtfcHl0aG9uJywgJy1waCcsICc3LjAnLCAnLXRuJywgJzgnLCAnLW1hJywgJzIwMCcsICctbWV0YWxfYmluZGluZycsICctaW1hZScsICc8aW5maWxlLm1hZT4nLCAnLW9tYWUnLCAnPG91dGZpbGUubWFlPic=

> <r_lp_tautomer_probability>
1

> <r_epik_Ionization_Penalty>
11.2807

> <r_epik_Ionization_Penalty_Charging>
5.82682

> <r_epik_Ionization_Penalty_Neutral>
5.45386

> <r_epik_State_Penalty>
5.82679

> <r_epik_Charging_Adjusted_Penalty>
11.6536

> <i_epik_Tot_Q>
-1

> <i_epik_Tot_abs_Q>
1

> <r_epik_Metal_State_Penalty>
1.79445

> <b_epik_Metal_Only>
1

> <s_lp_Force_Field>
OPLS_2005

> <r_lp_Energy>
4.64637

> <b_lp_Chiralities_Consistent>
1

> <s_lp_Variant>
AV-unprocessed.smi:1806-2

> <Gold.Version>
5.8.1

> <Gold.Id.Protein>
6NUR|6NUR_protein|mol2

> <Gold.PLP.Fitness>
38.8123

> <Gold.PLP.PLP>
-31.0425

> <Gold.PLP.part.hbond>
-2.0000

> <Gold.PLP.part.metal>
0.0000

> <Gold.PLP.part.buried>
-1.4983

> <Gold.PLP.part.nonpolar>
-26.8995

> <Gold.PLP.part.repulsive>
0.1561

> <Gold.PLP.ligand.clash>
0.0000

> <Gold.PLP.ligand.torsion>
0.4340

> <Gold.PLP.Chemscore.Hbond>
2.8320

> <Gold.PLP.Chemscore.CHOScore>
0.0000

> <Gold.PLP.Chemscore.Metal>
0.0000

> <Gold.Chemscore.Hbonds>
donor molecule, donor type, donor heavy atom, donor atom, acceptor molecule, acceptor atom, score
      P1  H  7997  8010       L1     7  1.66
      P1  H 10752 10765       L1    12  0.94

> <Gold.PLP.Chemscore.Internal.Correction>
0.1418

> <Gold.Rescore>
     Score         DG    S(hbond)    S(metal)    S(lipo)     H(rot)  DE(clash)    DE(int)     intcor
     16.73     -19.02       1.31        0.00      78.20       0.00       0.08       2.21       ----

> <Gold.Chemscore.Fitness>
16.7329

> <Gold.Chemscore.DG>
-19.0166

> <Gold.Chemscore.ZeroCoef>
-5.4800

> <Gold.Chemscore.Hbond>
1.3137

> <Gold.Chemscore.Metal>
0.0000

> <Gold.Chemscore.Lipo>
78.1956

> <Gold.Chemscore.Internal_Hbond>
0.0000

> <Gold.Chemscore.DEClash>
0.0774

> <Gold.Chemscore.DEInternal>
2.2062

> <Gold.Chemscore.Rot>
0.0000

> <Gold.Chemscore.Internal.Correction>
   9.000000E+99

> <Gold.Chemscore.Hbonds>
donor molecule, donor type, donor heavy atom, donor atom, acceptor molecule, acceptor atom, score
      P1  H  7997  8010       L1     7  0.41
      P1  H 10752 10765       L1    12  0.41

> <Gold.Chemscore.Hbond.Weighted>
-4.3877

> <Gold.Chemscore.Metal.Weighted>
-0.0000

> <Gold.Chemscore.Lipo.Weighted>
-9.1489

> <Gold.Chemscore.Internal_Hbond.Weighted>
0.0000

> <Gold.Chemscore.DEClash.Weighted>
0.0774

> <Gold.Chemscore.DEInternal.Weighted>
2.2062

> <Gold.Chemscore.Rot.Weighted>
0.0000

> <Gold.Chemscore.Internal.Correction.Weighted>
   9.000000E+99

> <Gold.Protein.RotatedTorsions>
[ 6907 6896 6895 6894 ] final   22.00 input  -60.11 | X-H torsion
[ 7974 7965 7964 7962 ] final   75.44 input  175.53 | X-H torsion
[ 8008 7997 7996 7995 ] final   50.36 input   59.86 | X-H torsion
[ 10167 10162 10161 10158 ] final  -37.38 input  -65.29 | X-H torsion
[ 10718 10713 10712 10709 ] final  153.78 input   66.30 | X-H torsion
[ 10763 10752 10751 10750 ] final -165.46 input  -60.55 | X-H torsion
[ 11005 11000 10999 10996 ] final  -78.54 input  -57.11 | X-H torsion

> <Gold.Protein.ActiveResidues>
 VAL166  LYS551  ARG553  GLY616  TRP617  ASP618  TYR619  PRO620  LYS621  CYS622 
 ASP623  PHE694  ASN695  SER759  ASP760  ASP761  ALA762  ILE779  LEU786  VAL792 
 PHE793  MET794  SER795  GLU796  ALA797  LYS798  CYS799  TRP800  GLU811  SER814 

> <Gold.Protein.RotatedAtoms>
  151.9203  135.0301  160.0521 H   0  0  0  0  0  0  0  0  0  0  0  0  # atno 6907 bound_to 6896
  152.2205  133.4975  159.5168 H   0  0  0  0  0  0  0  0  0  0  0  0  # atno 6908 bound_to 6896
  150.6998  134.1266  159.4097 H   0  0  0  0  0  0  0  0  0  0  0  0  # atno 6909 bound_to 6896
  145.7155  139.2630  143.1626 H   0  0  0  0  0  0  0  0  0  0  0  0  # atno 7974 bound_to 7965
  155.4175  140.3445  155.4268 H   0  0  0  0  0  0  0  0  0  0  0  0  # atno 8008 bound_to 7997
  156.1413  140.1543  156.8948 H   0  0  0  0  0  0  0  0  0  0  0  0  # atno 8009 bound_to 7997
  154.4973  140.0824  156.7704 H   0  0  0  0  0  0  0  0  0  0  0  0  # atno 8010 bound_to 7997
  140.7120  143.3346  151.2492 H   0  0  0  0  0  0  0  0  0  0  0  0  # atno 10167 bound_to 10162
  157.2402  131.0757  151.1797 H   0  0  0  0  0  0  0  0  0  0  0  0  # atno 10718 bound_to 10713
  154.6929  135.2974  154.9453 H   0  0  0  0  0  0  0  0  0  0  0  0  # atno 10763 bound_to 10752
  154.0410  135.6657  153.4794 H   0  0  0  0  0  0  0  0  0  0  0  0  # atno 10764 bound_to 10752
  153.0625  135.5107  154.8031 H   0  0  0  0  0  0  0  0  0  0  0  0  # atno 10765 bound_to 10752
  141.1665  133.7068  156.7988 H   0  0  0  0  0  0  0  0  0  0  0  0  # atno 11005 bound_to 11000
  146.0673  140.7907  142.9705 LP  0  0  0  0  0  0  0  0  0  0  0  0  # atno 17320 bound_to 7965
  144.6930  140.3288  143.7219 LP  0  0  0  0  0  0  0  0  0  0  0  0  # atno 17321 bound_to 7965
  139.6837  143.9810  152.2822 LP  0  0  0  0  0  0  0  0  0  0  0  0  # atno 17342 bound_to 10162
  139.9449  144.6658  150.8230 LP  0  0  0  0  0  0  0  0  0  0  0  0  # atno 17343 bound_to 10162
  157.3386  130.7022  149.6368 LP  0  0  0  0  0  0  0  0  0  0  0  0  # atno 17370 bound_to 10713
  155.9670  130.4286  150.4797 LP  0  0  0  0  0  0  0  0  0  0  0  0  # atno 17371 bound_to 10713
  140.2272  134.8713  157.3438 LP  0  0  0  0  0  0  0  0  0  0  0  0  # atno 17394 bound_to 11000
  140.1928  134.4351  155.7706 LP  0  0  0  0  0  0  0  0  0  0  0  0  # atno 17395 bound_to 11000

$$$$
