#       Name:                AV-unprocessed.smi:2322
#       Creating user name   scv26
#       Creation time:       Fri Mar 27 12:51:05 2020


#       File generated by GOLD software.
#

@<TRIPOS>MOLECULE
AV-unprocessed.smi:2322
    44    46     1
SMALL
NO_CHARGES


@<TRIPOS>ATOM
      1 ****        -2.1018  -5.1832   0.9560 C.3            1 S1                 0.0000
      2 ****        -0.7848  -5.4652   0.4182 N.pl3          1 S1                 0.0000
      3 ****        -0.3403  -6.7386   0.3041 N.2            1 S1                 0.0000
      4 ****         0.8746  -6.5794  -0.2193 C.2            1 S1                 0.0000
      5 ****         1.2582  -5.2909  -0.4590 N.2            1 S1                 0.0000
      6 ****         0.1713  -4.6492  -0.0375 C.2            1 S1                 0.0000
      7 ****        -0.0443  -3.2390  -0.0307 N.am           1 S1                 0.0000
      8 ****         0.7363  -2.2180  -0.4429 C.2            1 S1                 0.0000
      9 ****         1.8492  -2.4249  -0.9237 O.2            1 S1                 0.0000
     10 ****         0.2264  -0.9845  -0.2938 N.am           1 S1                 0.0000
     11 ****         0.8946   0.2612  -0.6550 C.3            1 S1                 0.0000
     12 ****         0.7006   0.5766  -2.1473 C.3            1 S1                 0.0000
     13 ****         1.2625   1.9673  -2.4830 C.3            1 S1                 0.0000
     14 ****         0.6567   2.9533  -1.6534 O.3            1 S1                 0.0000
     15 ****         0.9237   2.7615  -0.2671 C.3            1 S1                 0.0000
     16 ****         0.3230   3.9262   0.4945 C.3            1 S1                 0.0000
     17 ****         1.1147   5.1924   0.7248 C.3            1 S1                 0.0000
     18 ****         0.8107   4.2724   1.8822 C.3            1 S1                 0.0000
     19 ****         0.3289   1.4151   0.1850 C.3            1 S1                 0.0000
     20 ****        -2.7562  -4.8361   0.1563 H              1 S1                 0.0000
     21 ****        -2.0305  -4.4094   1.7207 H              1 S1                 0.0000
     22 ****        -2.5325  -6.0798   1.4035 H              1 S1                 0.0000
     23 ****         1.5095  -7.4255  -0.4370 H              1 S1                 0.0000
     24 ****        -0.9351  -2.9559   0.3510 H              1 S1                 0.0000
     25 ****        -0.6974  -0.9057   0.1077 H              1 S1                 0.0000
     26 ****         1.9623   0.1747  -0.4434 H              1 S1                 0.0000
     27 ****         1.1867  -0.1801  -2.7637 H              1 S1                 0.0000
     28 ****        -0.3610   0.5490  -2.3973 H              1 S1                 0.0000
     29 ****         2.3463   1.9890  -2.3588 H              1 S1                 0.0000
     30 ****         1.0580   2.2111  -3.5257 H              1 S1                 0.0000
     31 ****         2.0034   2.7606  -0.1055 H              1 S1                 0.0000
     32 ****        -0.7444   4.0562   0.3249 H              1 S1                 0.0000
     33 ****         2.1407   5.2227   0.3636 H              1 S1                 0.0000
     34 ****         0.5755   6.1362   0.6764 H              1 S1                 0.0000
     35 ****         0.0687   4.6017   2.6065 H              1 S1                 0.0000
     36 ****         1.6342   3.6894   2.2902 H              1 S1                 0.0000
     37 ****        -0.7573   1.4465   0.0857 H              1 S1                 0.0000
     38 ****         0.5409   1.2475   1.2416 H              1 S1                 0.0000
     39 ****        -0.8074  -7.5876   0.5513 LP             1 S1                 0.0000
     40 ****         2.1102  -4.9328  -0.8411 LP             1 S1                 0.0000
     41 ****         2.1886  -3.3612  -1.0142 LP             1 S1                 0.0000
     42 ****         2.4147  -1.6568  -1.2243 LP             1 S1                 0.0000
     43 ****        -0.3329   2.9223  -1.7937 LP             1 S1                 0.0000
     44 ****         1.0035   3.8518  -1.9225 LP             1 S1                 0.0000
@<TRIPOS>BOND
    1    1    2 1     
    2    1   20 1     
    3    1   21 1     
    4    1   22 1     
    5    2    6 1     
    6    2    3 1     
    7    3    4 2     
    8    4    5 1     
    9    4   23 1     
   10    5    6 2     
   11    6    7 1     
   12    7    8 am    
   13    7   24 1     
   14    8    9 2     
   15    8   10 am    
   16   10   11 1     
   17   10   25 1     
   18   11   19 1     
   19   11   12 1     
   20   11   26 1     
   21   12   13 1     
   22   12   27 1     
   23   12   28 1     
   24   13   14 1     
   25   13   29 1     
   26   13   30 1     
   27   14   15 1     
   28   15   16 1     
   29   15   19 1     
   30   15   31 1     
   31   16   18 1     
   32   16   17 1     
   33   16   32 1     
   34   17   18 1     
   35   17   33 1     
   36   17   34 1     
   37   18   35 1     
   38   18   36 1     
   39   19   37 1     
   40   19   38 1     
   41    3   39 1     
   42    5   40 1     
   43    9   41 1     
   44    9   42 1     
   45   14   43 1     
   46   14   44 1     
@<TRIPOS>SUBSTRUCTURE
      1 S1             1
@<TRIPOS>SET
LONE_PAIRS      STATIC     ATOMS    <user>   **** ""
6 39 40 41 42 43 44
DONOR_HYDROGENS      STATIC     ATOMS    <user>   **** ""
2 24 25
ATOM$BLUE        STATIC     ATOMS    COLORGROUP SYSTEM
6 39 40 41 42 43 44
ATOM$RED        STATIC     ATOMS    COLORGROUP SYSTEM
2 24 25
