#       Name:                AV-unprocessed.smi:2844
#       Creating user name   scv26
#       Creation time:       Fri Mar 27 15:38:44 2020


#       File generated by GOLD software.
#

@<TRIPOS>MOLECULE
AV-unprocessed.smi:2844
    42    44     1
SMALL
NO_CHARGES


@<TRIPOS>ATOM
      1 ****        -2.7271   4.0448   2.3973 C.3            1 S1                 0.0000
      2 ****        -2.3116   2.9098   1.4779 C.ar           1 S1                 0.0000
      3 ****        -2.4605   3.0676   0.0816 C.ar           1 S1                 0.0000
      4 ****        -2.0923   2.0340  -0.8072 C.ar           1 S1                 0.0000
      5 ****        -2.1538   1.9728  -2.1888 N.2            1 S1                 0.0000
      6 ****        -1.6755   0.7542  -2.4242 C.2            1 S1                 0.0000
      7 ****        -1.3116   0.0176  -1.3567 N.pl3          1 S1                 0.0000
      8 ****        -0.7743  -1.3311  -1.3636 C.3            1 S1                 0.0000
      9 ****         0.7647  -1.3558  -1.3100 C.3            1 S1                 0.0000
     10 ****         1.2889  -0.6957  -2.4473 O.3            1 S1                 0.0000
     11 ****         1.3111  -2.7950  -1.2414 C.3            1 S1                 0.0000
     12 ****         2.7579  -2.8391  -1.1217 N.pl3          1 S1                 0.0000
     13 ****         3.5216  -2.7135   0.0227 C.2            1 S1                 0.0000
     14 ****         4.8141  -2.8270  -0.3897 C.2            1 S1                 0.0000
     15 ****         6.2241  -2.7537   0.6004 Cl             1 S1                 0.0000
     16 ****         4.7716  -3.0184  -1.7942 C.2            1 S1                 0.0000
     17 ****         3.5203  -3.0242  -2.2301 N.2            1 S1                 0.0000
     18 ****        -1.5671   0.8284  -0.2565 C.ar           1 S1                 0.0000
     19 ****        -1.4097   0.6611   1.1306 C.ar           1 S1                 0.0000
     20 ****        -1.7835   1.7035   2.0047 C.ar           1 S1                 0.0000
     21 ****        -1.6150   1.5121   3.5017 C.3            1 S1                 0.0000
     22 ****        -3.0907   4.9030   1.8316 H              1 S1                 0.0000
     23 ****        -1.8829   4.3771   3.0018 H              1 S1                 0.0000
     24 ****        -3.5263   3.7214   3.0646 H              1 S1                 0.0000
     25 ****        -2.8626   3.9861  -0.3200 H              1 S1                 0.0000
     26 ****        -1.5836   0.3739  -3.4311 H              1 S1                 0.0000
     27 ****        -1.1896  -1.8659  -0.5086 H              1 S1                 0.0000
     28 ****        -1.1340  -1.8455  -2.2561 H              1 S1                 0.0000
     29 ****         1.0972  -0.8094  -0.4261 H              1 S1                 0.0000
     30 ****         2.2326  -0.7373  -2.4109 H              1 S1                 0.0000
     31 ****         0.8881  -3.3144  -0.3806 H              1 S1                 0.0000
     32 ****         1.0095  -3.3622  -2.1236 H              1 S1                 0.0000
     33 ****         3.0897  -2.5589   1.0004 H              1 S1                 0.0000
     34 ****         5.5836  -3.1502  -2.4942 H              1 S1                 0.0000
     35 ****        -1.0071  -0.2632   1.5178 H              1 S1                 0.0000
     36 ****        -1.2138   0.5253   3.7339 H              1 S1                 0.0000
     37 ****        -2.5743   1.6110   4.0100 H              1 S1                 0.0000
     38 ****        -0.9290   2.2560   3.9073 H              1 S1                 0.0000
     39 ****        -2.4734   2.6627  -2.8384 LP             1 S1                 0.0000
     40 ****         0.9934   0.2597  -2.4487 LP             1 S1                 0.0000
     41 ****         0.9634  -1.1464  -3.2786 LP             1 S1                 0.0000
     42 ****         3.2054  -3.1399  -3.1722 LP             1 S1                 0.0000
@<TRIPOS>BOND
    1    1    2 1     
    2    1   22 1     
    3    1   23 1     
    4    1   24 1     
    5    2   20 ar    
    6    2    3 ar    
    7    3    4 ar    
    8    3   25 1     
    9    4   18 ar    
   10    4    5 1     
   11    5    6 2     
   12    6    7 1     
   13    6   26 1     
   14    7    8 1     
   15    7   18 1     
   16    8    9 1     
   17    8   27 1     
   18    8   28 1     
   19    9   10 1     
   20    9   11 1     
   21    9   29 1     
   22   10   30 1     
   23   11   12 1     
   24   11   31 1     
   25   11   32 1     
   26   12   17 1     
   27   12   13 1     
   28   13   14 2     
   29   13   33 1     
   30   14   15 1     
   31   14   16 1     
   32   16   17 2     
   33   16   34 1     
   34   18   19 ar    
   35   19   20 ar    
   36   19   35 1     
   37   20   21 1     
   38   21   36 1     
   39   21   37 1     
   40   21   38 1     
   41    5   39 1     
   42   10   40 1     
   43   10   41 1     
   44   17   42 1     
@<TRIPOS>SUBSTRUCTURE
      1 S1             1
@<TRIPOS>SET
LONE_PAIRS      STATIC     ATOMS    <user>   **** ""
4 39 40 41 42
DONOR_HYDROGENS      STATIC     ATOMS    <user>   **** ""
1 30
ATOM$BLUE        STATIC     ATOMS    COLORGROUP SYSTEM
4 39 40 41 42
ATOM$RED        STATIC     ATOMS    COLORGROUP SYSTEM
1 30
