AV-unprocessed.smi:812|AV-procd|sdf|3816|dock10
  -GOLD-   22720 1253D 1   1.00000     0.00000
 Structure written by MMmdl.
 38 40  0  0  0  0  0  0  0  0  1 V2000
  153.7267  138.3868  159.9362 C   0  0  0  0  0  0  0  0  0  0  0  0
  153.0453  139.5755  159.3902 N   0  0  0  0  0  0  0  0  0  0  0  0
  152.2236  139.4125  158.3058 C   0  0  0  0  0  0  0  0  0  0  0  0
  152.0068  138.3381  157.7441 O   0  0  0  0  0  0  0  0  0  0  0  0
  151.5984  140.6563  157.8412 C   0  0  0  0  0  0  0  0  0  0  0  0
  151.8183  141.8576  158.4304 C   0  0  0  0  0  0  0  0  0  0  0  0
  151.1121  142.8701  157.7899 N   0  0  0  0  0  0  0  0  0  0  0  0
  150.4868  142.2041  156.8188 C   0  0  0  0  0  0  0  0  0  0  0  0
  150.7235  140.8776  156.7773 N   0  0  0  0  0  0  0  0  0  0  0  0
  150.1671  139.9394  155.8132 C   0  0  0  0  0  0  0  0  0  0  0  0
  149.0996  140.5819  154.9036 C   0  0  1  0  0  0  0  0  0  0  0  0
  149.6435  140.8722  153.6304 O   0  0  0  0  0  0  0  0  0  0  0  0
  147.8597  139.7076  154.8054 C   0  0  0  0  0  0  0  0  0  0  0  0
  147.1339  139.3633  155.9671 C   0  0  0  0  0  0  0  0  0  0  0  0
  145.9841  138.5556  155.8727 C   0  0  0  0  0  0  0  0  0  0  0  0
  145.5520  138.0892  154.6163 C   0  0  0  0  0  0  0  0  0  0  0  0
  144.4463  137.3131  154.5255 F   0  0  0  0  0  0  0  0  0  0  0  0
  146.2698  138.4321  153.4544 C   0  0  0  0  0  0  0  0  0  0  0  0
  147.4199  139.2401  153.5482 C   0  0  0  0  0  0  0  0  0  0  0  0
  152.6903  141.9131  159.5484 N   0  0  0  0  0  0  0  0  0  0  0  0
  152.9412  143.2041  160.1948 C   0  0  0  0  0  0  0  0  0  0  0  0
  153.3025  140.7798  160.0222 C   0  0  0  0  0  0  0  0  0  0  0  0
  154.0658  140.8429  160.9905 O   0  0  0  0  0  0  0  0  0  0  0  0
  153.4600  137.4442  159.4573 H   0  0  0  0  0  0  0  0  0  0  0  0
  153.4977  138.2656  160.9964 H   0  0  0  0  0  0  0  0  0  0  0  0
  154.8081  138.4937  159.8372 H   0  0  0  0  0  0  0  0  0  0  0  0
  149.8367  142.6982  156.1116 H   0  0  0  0  0  0  0  0  0  0  0  0
  150.9732  139.5012  155.2267 H   0  0  0  0  0  0  0  0  0  0  0  0
  149.7228  139.1124  156.3686 H   0  0  0  0  0  0  0  0  0  0  0  0
  148.8087  141.5397  155.3377 H   0  0  0  0  0  0  0  0  0  0  0  0
  149.4304  140.1622  153.0442 H   0  0  0  0  0  0  0  0  0  0  0  0
  147.4571  139.7193  156.9346 H   0  0  0  0  0  0  0  0  0  0  0  0
  145.4336  138.2948  156.7644 H   0  0  0  0  0  0  0  0  0  0  0  0
  145.9381  138.0756  152.4903 H   0  0  0  0  0  0  0  0  0  0  0  0
  147.9620  139.4984  152.6504 H   0  0  0  0  0  0  0  0  0  0  0  0
  152.6572  143.1684  161.2476 H   0  0  0  0  0  0  0  0  0  0  0  0
  152.3840  144.0214  159.7378 H   0  0  0  0  0  0  0  0  0  0  0  0
  153.9997  143.4606  160.1361 H   0  0  0  0  0  0  0  0  0  0  0  0
  1  2  1  0  0  0  0
  1 24  1  0  0  0  0
  1 25  1  0  0  0  0
  1 26  1  0  0  0  0
  2 22  1  0  0  0  0
  2  3  1  0  0  0  0
  3  4  2  0  0  0  0
  3  5  1  0  0  0  0
  5  9  1  0  0  0  0
  5  6  2  0  0  0  0
  6  7  1  0  0  0  0
  6 20  1  0  0  0  0
  7  8  2  0  0  0  0
  8  9  1  0  0  0  0
  8 27  1  0  0  0  0
  9 10  1  0  0  0  0
 10 11  1  0  0  0  0
 10 28  1  0  0  0  0
 10 29  1  0  0  0  0
 11 12  1  0  0  0  0
 11 13  1  0  0  0  0
 11 30  1  0  0  0  0
 12 31  1  0  0  0  0
 13 19  1  0  0  0  0
 13 14  2  0  0  0  0
 14 15  1  0  0  0  0
 14 32  1  0  0  0  0
 15 16  2  0  0  0  0
 15 33  1  0  0  0  0
 16 17  1  0  0  0  0
 16 18  1  0  0  0  0
 18 19  2  0  0  0  0
 18 34  1  0  0  0  0
 19 35  1  0  0  0  0
 20 21  1  0  0  0  0
 20 22  1  0  0  0  0
 21 36  1  0  0  0  0
 21 37  1  0  0  0  0
 21 38  1  0  0  0  0
 22 23  2  0  0  0  0
M  END
> <s_m_source_file>
AV-unprocessed.smi

> <i_m_source_file_index>
812

> <i_lp_mmshare_version>
43012

> <i_f3d_flags>
0

> <s_epik_input>
Tz1jMW4oW0NIM10pYyg9TyluKFtDSDNdKWMoYzEyKW5bY0hdbjJbQ0gyXVtDQEhdKFtPSF0pYzNbY0hdW2NIXWMoRilbY0hdW2NIXTM=

> <s_epik_cmdline>
J2VwaWtfcHl0aG9uJywgJy1waCcsICc3LjAnLCAnLXRuJywgJzgnLCAnLW1hJywgJzIwMCcsICctbWV0YWxfYmluZGluZycsICctaW1hZScsICc8aW5maWxlLm1hZT4nLCAnLW9tYWUnLCAnPG91dGZpbGUubWFlPic=

> <r_lp_tautomer_probability>
1

> <r_epik_Ionization_Penalty>
1.45649e-06

> <r_epik_Ionization_Penalty_Charging>
3.74189e-09

> <r_epik_Ionization_Penalty_Neutral>
1.45275e-06

> <r_epik_State_Penalty>
-0

> <r_epik_Charging_Adjusted_Penalty>
3.74189e-09

> <i_epik_Tot_Q>
0

> <i_epik_Tot_abs_Q>
0

> <r_epik_Metal_State_Penalty>
-0

> <b_epik_Metal_Only>
0

> <s_lp_Force_Field>
OPLS_2005

> <r_lp_Energy>
35.4349

> <b_lp_Chiralities_Consistent>
1

> <s_lp_Variant>
AV-unprocessed.smi:812-2

> <Gold.Version>
5.8.1

> <Gold.Id.Protein>
6NUR|6NUR_protein|mol2

> <Gold.PLP.Fitness>
42.2648

> <Gold.PLP.PLP>
-34.6021

> <Gold.PLP.part.hbond>
-2.6309

> <Gold.PLP.part.metal>
0.0000

> <Gold.PLP.part.buried>
-3.9511

> <Gold.PLP.part.nonpolar>
-28.0750

> <Gold.PLP.part.repulsive>
0.0985

> <Gold.PLP.ligand.clash>
0.0000

> <Gold.PLP.ligand.torsion>
0.6931

> <Gold.PLP.Chemscore.Hbond>
2.0080

> <Gold.PLP.Chemscore.CHOScore>
1.0000

> <Gold.PLP.Chemscore.Metal>
0.0000

> <Gold.Chemscore.Hbonds>
donor molecule, donor type, donor heavy atom, donor atom, acceptor molecule, acceptor atom, score
      L1  H    12    31       P1  7957  0.59
      P1  H  7989  7998       L1    12  0.37
      P1  H  8011  8017       L1    12  1.00
      L1  C     8    27       P1  8028  1.00

> <Gold.PLP.Chemscore.Internal.Correction>
0.0249

> <Gold.Rescore>
     Score         DG    S(hbond)    S(metal)    S(lipo)     H(rot)  DE(clash)    DE(int)     intcor
     10.05     -10.91       1.45        0.00      54.12       2.24       0.07       0.80       ----

> <Gold.Chemscore.Fitness>
10.0488

> <Gold.Chemscore.DG>
-10.9106

> <Gold.Chemscore.ZeroCoef>
-5.4800

> <Gold.Chemscore.Hbond>
1.4453

> <Gold.Chemscore.Metal>
0.0000

> <Gold.Chemscore.Lipo>
54.1200

> <Gold.Chemscore.Internal_Hbond>
0.0000

> <Gold.Chemscore.DEClash>
0.0665

> <Gold.Chemscore.DEInternal>
0.7953

> <Gold.Chemscore.Rot>
2.2377

> <Gold.Chemscore.Internal.Correction>
   9.000000E+99

> <Gold.Chemscore.Hbonds>
donor molecule, donor type, donor heavy atom, donor atom, acceptor molecule, acceptor atom, score
      L1  H    12    31       P1  7957  0.60
      P1  H  7989  7998       L1    12  0.09
      P1  H  8011  8017       L1    12  0.27

> <Gold.Chemscore.Hbond.Weighted>
-4.8272

> <Gold.Chemscore.Metal.Weighted>
-0.0000

> <Gold.Chemscore.Lipo.Weighted>
-6.3320

> <Gold.Chemscore.Internal_Hbond.Weighted>
0.0000

> <Gold.Chemscore.DEClash.Weighted>
0.0665

> <Gold.Chemscore.DEInternal.Weighted>
0.7953

> <Gold.Chemscore.Rot.Weighted>
5.7286

> <Gold.Chemscore.Internal.Correction.Weighted>
   9.000000E+99

> <Gold.Protein.RotatedTorsions>
[ 6907 6896 6895 6894 ] final  -58.42 input  -60.11 | X-H torsion
[ 7974 7965 7964 7962 ] final    3.86 input  175.53 | X-H torsion
[ 8008 7997 7996 7995 ] final  104.58 input   59.86 | X-H torsion
[ 10167 10162 10161 10158 ] final   27.50 input  -65.29 | X-H torsion
[ 10718 10713 10712 10709 ] final -167.98 input   66.30 | X-H torsion
[ 10763 10752 10751 10750 ] final  147.20 input  -60.55 | X-H torsion
[ 11005 11000 10999 10996 ] final  -70.36 input  -57.11 | X-H torsion

> <Gold.Protein.ActiveResidues>
 VAL166  LYS551  ARG553  GLY616  TRP617  ASP618  TYR619  PRO620  LYS621  CYS622 
 ASP623  PHE694  ASN695  SER759  ASP760  ASP761  ALA762  ILE779  LEU786  VAL792 
 PHE793  MET794  SER795  GLU796  ALA797  LYS798  CYS799  TRP800  GLU811  SER814 

> <Gold.Protein.RotatedAtoms>
  150.8008  134.7101  159.6598 H   0  0  0  0  0  0  0  0  0  0  0  0  # atno 6907 bound_to 6896
  152.4125  134.6096  160.0032 H   0  0  0  0  0  0  0  0  0  0  0  0  # atno 6908 bound_to 6896
  151.6335  133.3293  159.3150 H   0  0  0  0  0  0  0  0  0  0  0  0  # atno 6909 bound_to 6896
  146.2445  140.0622  142.8368 H   0  0  0  0  0  0  0  0  0  0  0  0  # atno 7974 bound_to 7965
  156.1585  140.3145  155.8767 H   0  0  0  0  0  0  0  0  0  0  0  0  # atno 8008 bound_to 7997
  155.3829  140.0489  157.3060 H   0  0  0  0  0  0  0  0  0  0  0  0  # atno 8009 bound_to 7997
  154.5124  140.2169  155.9142 H   0  0  0  0  0  0  0  0  0  0  0  0  # atno 8010 bound_to 7997
  140.4933  144.0432  150.6305 H   0  0  0  0  0  0  0  0  0  0  0  0  # atno 10167 bound_to 10162
  156.6903  130.9157  151.3068 H   0  0  0  0  0  0  0  0  0  0  0  0  # atno 10718 bound_to 10713
  154.0344  135.2895  155.3364 H   0  0  0  0  0  0  0  0  0  0  0  0  # atno 10763 bound_to 10752
  154.6968  135.5204  153.8473 H   0  0  0  0  0  0  0  0  0  0  0  0  # atno 10764 bound_to 10752
  153.0626  135.6619  154.0554 H   0  0  0  0  0  0  0  0  0  0  0  0  # atno 10765 bound_to 10752
  141.1572  133.6788  156.6741 H   0  0  0  0  0  0  0  0  0  0  0  0  # atno 11005 bound_to 11000
  145.0890  140.9271  143.4780 LP  0  0  0  0  0  0  0  0  0  0  0  0  # atno 17320 bound_to 7965
  145.0791  139.2973  143.5793 LP  0  0  0  0  0  0  0  0  0  0  0  0  # atno 17321 bound_to 7965
  140.3707  143.2856  152.0281 LP  0  0  0  0  0  0  0  0  0  0  0  0  # atno 17342 bound_to 10162
  139.4856  144.6232  151.7215 LP  0  0  0  0  0  0  0  0  0  0  0  0  # atno 17343 bound_to 10162
  157.7011  130.9334  150.0789 LP  0  0  0  0  0  0  0  0  0  0  0  0  # atno 17370 bound_to 10713
  156.1802  130.3650  149.9045 LP  0  0  0  0  0  0  0  0  0  0  0  0  # atno 17371 bound_to 10713
  140.3152  134.8053  157.4208 LP  0  0  0  0  0  0  0  0  0  0  0  0  # atno 17394 bound_to 11000
  140.1144  134.5302  155.8238 LP  0  0  0  0  0  0  0  0  0  0  0  0  # atno 17395 bound_to 11000

$$$$
