AV-unprocessed.smi:1240|AV-procd|sdf|5196|dock3
  -GOLD-   22720 4283D 1   1.00000     0.00000
 Structure written by MMmdl.
 47 49  0  0  0  0  0  0  0  0  1 V2000
  144.6473  136.5635  152.6616 O   0  0  0  0  0  0  0  0  0  0  0  0
  145.8358  136.4316  152.3705 C   0  0  0  0  0  0  0  0  0  0  0  0
  146.7928  137.2854  152.7607 N   0  0  0  0  0  0  0  0  0  0  0  0
  146.5874  138.4818  153.5730 C   0  0  0  0  0  0  0  0  0  0  0  0
  147.9161  139.2500  153.8052 C   0  0  1  0  0  0  0  0  0  0  0  0
  147.6853  140.6609  154.4329 C   0  0  2  0  0  0  0  0  0  0  0  0
  147.0416  140.7011  155.8224 C   0  0  0  0  0  0  0  0  0  0  0  0
  145.8962  141.7006  155.6688 C   0  0  0  0  0  0  0  0  0  0  0  0
  146.3064  142.5318  154.5960 O   0  0  0  0  0  0  0  0  0  0  0  0
  146.8813  141.6851  153.6137 C   0  0  0  0  0  0  0  0  0  0  0  0
  148.9957  138.4524  154.4235 N   0  0  0  0  0  0  0  0  0  0  0  0
  148.6534  137.9450  155.7508 C   0  0  0  0  0  0  0  0  0  0  0  0
  149.7365  137.0012  156.2981 C   0  0  0  0  0  0  0  0  0  0  0  0
  150.9844  137.6852  156.3277 O   0  0  0  0  0  0  0  0  0  0  0  0
  151.3843  138.1487  155.0425 C   0  0  0  0  0  0  0  0  0  0  0  0
  150.3118  139.0871  154.4611 C   0  0  0  0  0  0  0  0  0  0  0  0
  146.3494  135.4459  151.6141 N   0  0  0  0  0  0  0  0  0  0  0  0
  145.6867  134.3425  151.0097 C   0  0  0  0  0  0  0  0  0  0  0  0
  146.4817  133.2607  150.5776 C   0  0  0  0  0  0  0  0  0  0  0  0
  145.8521  132.1460  149.9888 C   0  0  0  0  0  0  0  0  0  0  0  0
  144.5165  132.0519  149.8207 N   0  0  0  0  0  0  0  0  0  0  0  0
  143.7553  133.0823  150.2456 C   0  0  0  0  0  0  0  0  0  0  0  0
  144.2835  134.2423  150.8470 C   0  0  0  0  0  0  0  0  0  0  0  0
  147.7409  137.0974  152.4691 H   0  0  0  0  0  0  0  0  0  0  0  0
  145.8447  139.1416  153.1230 H   0  0  0  0  0  0  0  0  0  0  0  0
  146.1601  138.1428  154.5154 H   0  0  0  0  0  0  0  0  0  0  0  0
  148.2827  139.4830  152.8042 H   0  0  0  0  0  0  0  0  0  0  0  0
  148.6732  141.1071  154.5580 H   0  0  0  0  0  0  0  0  0  0  0  0
  146.6819  139.7402  156.1885 H   0  0  0  0  0  0  0  0  0  0  0  0
  147.7642  141.0701  156.5514 H   0  0  0  0  0  0  0  0  0  0  0  0
  144.9709  141.1904  155.3972 H   0  0  0  0  0  0  0  0  0  0  0  0
  145.7151  142.2754  156.5771 H   0  0  0  0  0  0  0  0  0  0  0  0
  147.5107  142.2595  152.9341 H   0  0  0  0  0  0  0  0  0  0  0  0
  146.0903  141.2328  153.0193 H   0  0  0  0  0  0  0  0  0  0  0  0
  148.5312  138.7696  156.4525 H   0  0  0  0  0  0  0  0  0  0  0  0
  147.7003  137.4165  155.7144 H   0  0  0  0  0  0  0  0  0  0  0  0
  149.4828  136.6773  157.3077 H   0  0  0  0  0  0  0  0  0  0  0  0
  149.8172  136.1037  155.6830 H   0  0  0  0  0  0  0  0  0  0  0  0
  152.3364  138.6717  155.1322 H   0  0  0  0  0  0  0  0  0  0  0  0
  151.5486  137.2979  154.3794 H   0  0  0  0  0  0  0  0  0  0  0  0
  150.6289  139.3627  153.4591 H   0  0  0  0  0  0  0  0  0  0  0  0
  150.2730  140.0017  155.0536 H   0  0  0  0  0  0  0  0  0  0  0  0
  147.3345  135.5188  151.4066 H   0  0  0  0  0  0  0  0  0  0  0  0
  147.5562  133.2814  150.6889 H   0  0  0  0  0  0  0  0  0  0  0  0
  146.4382  131.3065  149.6453 H   0  0  0  0  0  0  0  0  0  0  0  0
  142.6894  132.9771  150.1078 H   0  0  0  0  0  0  0  0  0  0  0  0
  143.6057  135.0143  151.1760 H   0  0  0  0  0  0  0  0  0  0  0  0
  1  2  2  0  0  0  0
  2  3  1  0  0  0  0
  2 17  1  0  0  0  0
  3  4  1  0  0  0  0
  3 24  1  0  0  0  0
  4  5  1  0  0  0  0
  4 25  1  0  0  0  0
  4 26  1  0  0  0  0
  5  6  1  0  0  0  0
  5 11  1  0  0  0  0
  5 27  1  0  0  0  0
  6 10  1  0  0  0  0
  6  7  1  0  0  0  0
  6 28  1  0  0  0  0
  7  8  1  0  0  0  0
  7 29  1  0  0  0  0
  7 30  1  0  0  0  0
  8  9  1  0  0  0  0
  8 31  1  0  0  0  0
  8 32  1  0  0  0  0
  9 10  1  0  0  0  0
 10 33  1  0  0  0  0
 10 34  1  0  0  0  0
 11 16  1  0  0  0  0
 11 12  1  0  0  0  0
 12 13  1  0  0  0  0
 12 35  1  0  0  0  0
 12 36  1  0  0  0  0
 13 14  1  0  0  0  0
 13 37  1  0  0  0  0
 13 38  1  0  0  0  0
 14 15  1  0  0  0  0
 15 16  1  0  0  0  0
 15 39  1  0  0  0  0
 15 40  1  0  0  0  0
 16 41  1  0  0  0  0
 16 42  1  0  0  0  0
 17 18  1  0  0  0  0
 17 43  1  0  0  0  0
 18 23  1  0  0  0  0
 18 19  2  0  0  0  0
 19 20  1  0  0  0  0
 19 44  1  0  0  0  0
 20 21  2  0  0  0  0
 20 45  1  0  0  0  0
 21 22  1  0  0  0  0
 22 23  2  0  0  0  0
 22 46  1  0  0  0  0
 23 47  1  0  0  0  0
M  END
> <s_m_source_file>
AV-unprocessed.smi

> <i_m_source_file_index>
1240

> <i_lp_mmshare_version>
43012

> <i_f3d_flags>
0

> <s_epik_input>
W2NIXTFbY0hdbltjSF1bY0hdYzFbTkhdQyg9TylbTkhdW0NIMl1bQ0BIXShbQ0BASF0yW0NIMl1bQ0gyXU9bQ0gyXTIpTjNbQ0gyXVtDSDJdT1tDSDJdW0NIMl0z

> <s_epik_cmdline>
J2VwaWtfcHl0aG9uJywgJy1waCcsICc3LjAnLCAnLXRuJywgJzgnLCAnLW1hJywgJzIwMCcsICctbWV0YWxfYmluZGluZycsICctaW1hZScsICc8aW5maWxlLm1hZT4nLCAnLW9tYWUnLCAnPG91dGZpbGUubWFlPic=

> <r_epik_Ionization_Penalty>
0.238664

> <r_epik_Ionization_Penalty_Charging>
0

> <r_epik_Ionization_Penalty_Neutral>
0.238664

> <r_epik_State_Penalty>
0.217087

> <r_epik_Charging_Adjusted_Penalty>
0.217087

> <i_epik_Tot_Q>
0

> <i_epik_Tot_abs_Q>
0

> <r_epik_Metal_State_Penalty>
0.199194

> <b_epik_Metal_Only>
0

> <s_lp_Force_Field>
OPLS_2005

> <r_lp_Energy>
59.2824

> <b_lp_Chiralities_Consistent>
1

> <s_lp_Variant>
AV-unprocessed.smi:1240-2

> <Gold.Version>
5.8.1

> <Gold.Id.Protein>
6NUR|6NUR_protein|mol2

> <Gold.PLP.Fitness>
44.5455

> <Gold.PLP.PLP>
-32.8345

> <Gold.PLP.part.hbond>
-2.1293

> <Gold.PLP.part.metal>
0.0000

> <Gold.PLP.part.buried>
-6.5882

> <Gold.PLP.part.nonpolar>
-25.1956

> <Gold.PLP.part.repulsive>
0.7795

> <Gold.PLP.ligand.clash>
0.0000

> <Gold.PLP.ligand.torsion>
0.2617

> <Gold.PLP.Chemscore.Hbond>
1.9920

> <Gold.PLP.Chemscore.CHOScore>
1.9378

> <Gold.PLP.Chemscore.Metal>
0.0000

> <Gold.Chemscore.Hbonds>
donor molecule, donor type, donor heavy atom, donor atom, acceptor molecule, acceptor atom, score
      L1  H     3    24       P1  7948  1.00
      L1  H    17    43       P1  7948  0.99
      L1  C    20    45       P1 10747  0.68
      L1  C    22    46       P1 10186  1.00

> <Gold.PLP.Chemscore.Internal.Correction>
0.4448

> <Gold.Rescore>
     Score         DG    S(hbond)    S(metal)    S(lipo)     H(rot)  DE(clash)    DE(int)     intcor
     16.22     -17.72       1.92        0.00      85.96       1.65       0.10       1.40       ----

> <Gold.Chemscore.Fitness>
16.2230

> <Gold.Chemscore.DG>
-17.7236

> <Gold.Chemscore.ZeroCoef>
-5.4800

> <Gold.Chemscore.Hbond>
1.9199

> <Gold.Chemscore.Metal>
0.0000

> <Gold.Chemscore.Lipo>
85.9599

> <Gold.Chemscore.Internal_Hbond>
0.0000

> <Gold.Chemscore.DEClash>
0.0977

> <Gold.Chemscore.DEInternal>
1.4030

> <Gold.Chemscore.Rot>
1.6508

> <Gold.Chemscore.Internal.Correction>
   9.000000E+99

> <Gold.Chemscore.Hbonds>
donor molecule, donor type, donor heavy atom, donor atom, acceptor molecule, acceptor atom, score
      L1  H     3    24       P1  7948  0.98
      L1  H    17    43       P1  7948  0.87

> <Gold.Chemscore.Hbond.Weighted>
-6.4125

> <Gold.Chemscore.Metal.Weighted>
-0.0000

> <Gold.Chemscore.Lipo.Weighted>
-10.0573

> <Gold.Chemscore.Internal_Hbond.Weighted>
0.0000

> <Gold.Chemscore.DEClash.Weighted>
0.0977

> <Gold.Chemscore.DEInternal.Weighted>
1.4030

> <Gold.Chemscore.Rot.Weighted>
4.2262

> <Gold.Chemscore.Internal.Correction.Weighted>
   9.000000E+99

> <Gold.Protein.RotatedTorsions>
[ 6907 6896 6895 6894 ] final  -19.84 input  -60.11 | X-H torsion
[ 7974 7965 7964 7962 ] final -162.94 input  175.53 | X-H torsion
[ 8008 7997 7996 7995 ] final  -59.42 input   59.86 | X-H torsion
[ 10167 10162 10161 10158 ] final   43.40 input  -65.29 | X-H torsion
[ 10718 10713 10712 10709 ] final -158.54 input   66.30 | X-H torsion
[ 10763 10752 10751 10750 ] final  -39.93 input  -60.55 | X-H torsion
[ 11005 11000 10999 10996 ] final -155.21 input  -57.11 | X-H torsion

> <Gold.Protein.ActiveResidues>
 VAL166  LYS551  ARG553  GLY616  TRP617  ASP618  TYR619  PRO620  LYS621  CYS622 
 ASP623  PHE694  ASN695  SER759  ASP760  ASP761  ALA762  ILE779  LEU786  VAL792 
 PHE793  MET794  SER795  GLU796  ALA797  LYS798  CYS799  TRP800  GLU811  SER814 

> <Gold.Protein.RotatedAtoms>
  151.2570  135.0641  159.9083 H   0  0  0  0  0  0  0  0  0  0  0  0  # atno 6907 bound_to 6896
  152.5371  134.0271  159.8018 H   0  0  0  0  0  0  0  0  0  0  0  0  # atno 6908 bound_to 6896
  151.0488  133.5592  159.2675 H   0  0  0  0  0  0  0  0  0  0  0  0  # atno 6909 bound_to 6896
  144.7341  140.3179  143.6176 H   0  0  0  0  0  0  0  0  0  0  0  0  # atno 7974 bound_to 7965
  154.4352  140.1062  156.6114 H   0  0  0  0  0  0  0  0  0  0  0  0  # atno 8008 bound_to 7997
  155.5806  140.3490  155.4520 H   0  0  0  0  0  0  0  0  0  0  0  0  # atno 8009 bound_to 7997
  156.0321  140.1263  157.0236 H   0  0  0  0  0  0  0  0  0  0  0  0  # atno 8010 bound_to 7997
  140.3448  144.2425  150.6151 H   0  0  0  0  0  0  0  0  0  0  0  0  # atno 10167 bound_to 10162
  156.5555  130.8624  151.2793 H   0  0  0  0  0  0  0  0  0  0  0  0  # atno 10718 bound_to 10713
  153.9375  135.6765  153.4744 H   0  0  0  0  0  0  0  0  0  0  0  0  # atno 10763 bound_to 10752
  153.0948  135.4857  154.8755 H   0  0  0  0  0  0  0  0  0  0  0  0  # atno 10764 bound_to 10752
  154.7395  135.3157  154.8711 H   0  0  0  0  0  0  0  0  0  0  0  0  # atno 10765 bound_to 10752
  140.6889  134.4063  157.5221 H   0  0  0  0  0  0  0  0  0  0  0  0  # atno 11005 bound_to 11000
  145.7598  139.1821  143.2273 LP  0  0  0  0  0  0  0  0  0  0  0  0  # atno 17320 bound_to 7965
  146.0995  140.7561  142.9556 LP  0  0  0  0  0  0  0  0  0  0  0  0  # atno 17321 bound_to 7965
  140.5275  143.2251  151.8291 LP  0  0  0  0  0  0  0  0  0  0  0  0  # atno 17342 bound_to 10162
  139.4835  144.4761  151.9365 LP  0  0  0  0  0  0  0  0  0  0  0  0  # atno 17343 bound_to 10162
  157.7379  130.9804  150.2220 LP  0  0  0  0  0  0  0  0  0  0  0  0  # atno 17370 bound_to 10713
  156.2845  130.3737  149.7902 LP  0  0  0  0  0  0  0  0  0  0  0  0  # atno 17371 bound_to 10713
  139.8929  134.8743  156.2247 LP  0  0  0  0  0  0  0  0  0  0  0  0  # atno 17394 bound_to 11000
  141.0257  133.7016  156.1344 LP  0  0  0  0  0  0  0  0  0  0  0  0  # atno 17395 bound_to 11000

$$$$
