AV-unprocessed.smi:486|AV-procd|sdf|2696|dock6
  -GOLD-   2262023133D 1   1.00000     0.00000
 Structure written by MMmdl.
 43 45  0  0  0  0  0  0  0  0  1 V2000
  142.4870  146.6753  154.7024 C   0  0  0  0  0  0  0  0  0  0  0  0
  143.1947  146.1634  153.5827 O   0  0  0  0  0  0  0  0  0  0  0  0
  144.1563  145.2016  153.8076 C   0  0  0  0  0  0  0  0  0  0  0  0
  144.9591  144.8284  152.7119 C   0  0  0  0  0  0  0  0  0  0  0  0
  145.9644  143.8536  152.8541 C   0  0  0  0  0  0  0  0  0  0  0  0
  146.1921  143.2284  154.0954 C   0  0  0  0  0  0  0  0  0  0  0  0
  147.1958  142.2848  154.1464 O   0  0  0  0  0  0  0  0  0  0  0  0
  147.5239  141.7207  155.4091 C   0  0  0  0  0  0  0  0  0  0  0  0
  148.7969  140.8681  155.2574 C   0  0  1  0  0  0  0  0  0  0  0  0
  148.7385  140.2020  154.0134 O   0  0  0  0  0  0  0  0  0  0  0  0
  150.1071  141.6844  155.2680 C   0  0  0  0  0  0  0  0  0  0  0  0
  151.0287  141.2845  156.3229 N   0  0  0  0  0  0  0  0  0  0  0  0
  151.6979  140.1118  156.4455 C   0  0  0  0  0  0  0  0  0  0  0  0
  151.5630  139.0149  155.4374 C   0  0  0  0  0  0  0  0  0  0  0  0
  152.4836  139.9995  157.5166 N   0  0  0  0  0  0  0  0  0  0  0  0
  152.3131  141.2171  158.1467 C   0  0  0  0  0  0  0  0  0  0  0  0
  152.8759  141.7199  159.3415 C   0  0  0  0  0  0  0  0  0  0  0  0
  152.5457  143.0131  159.7974 C   0  0  0  0  0  0  0  0  0  0  0  0
  151.6521  143.8216  159.0657 C   0  0  0  0  0  0  0  0  0  0  0  0
  151.0807  143.3405  157.8721 C   0  0  0  0  0  0  0  0  0  0  0  0
  151.4115  142.0478  157.4226 C   0  0  0  0  0  0  0  0  0  0  0  0
  145.3872  143.6000  155.2006 C   0  0  0  0  0  0  0  0  0  0  0  0
  144.3808  144.5754  155.0583 C   0  0  0  0  0  0  0  0  0  0  0  0
  141.7658  147.4184  154.3623 H   0  0  0  0  0  0  0  0  0  0  0  0
  143.1585  147.1664  155.4080 H   0  0  0  0  0  0  0  0  0  0  0  0
  141.9324  145.8901  155.2179 H   0  0  0  0  0  0  0  0  0  0  0  0
  144.8028  145.2950  151.7503 H   0  0  0  0  0  0  0  0  0  0  0  0
  146.5677  143.5832  151.9999 H   0  0  0  0  0  0  0  0  0  0  0  0
  147.6606  142.4899  156.1715 H   0  0  0  0  0  0  0  0  0  0  0  0
  146.6892  141.0903  155.7144 H   0  0  0  0  0  0  0  0  0  0  0  0
  148.8306  140.1210  156.0504 H   0  0  0  0  0  0  0  0  0  0  0  0
  149.5441  139.7220  153.8949 H   0  0  0  0  0  0  0  0  0  0  0  0
  150.6166  141.5946  154.3082 H   0  0  0  0  0  0  0  0  0  0  0  0
  149.8856  142.7456  155.3904 H   0  0  0  0  0  0  0  0  0  0  0  0
  152.1954  138.1685  155.7072 H   0  0  0  0  0  0  0  0  0  0  0  0
  151.8671  139.3666  154.4513 H   0  0  0  0  0  0  0  0  0  0  0  0
  150.5316  138.6673  155.3883 H   0  0  0  0  0  0  0  0  0  0  0  0
  153.5622  141.1086  159.9087 H   0  0  0  0  0  0  0  0  0  0  0  0
  152.9801  143.3861  160.7132 H   0  0  0  0  0  0  0  0  0  0  0  0
  151.4044  144.8110  159.4219 H   0  0  0  0  0  0  0  0  0  0  0  0
  150.3929  143.9563  157.3120 H   0  0  0  0  0  0  0  0  0  0  0  0
  145.5199  143.1503  156.1727 H   0  0  0  0  0  0  0  0  0  0  0  0
  143.7924  144.8254  155.9279 H   0  0  0  0  0  0  0  0  0  0  0  0
  1  2  1  0  0  0  0
  1 24  1  0  0  0  0
  1 25  1  0  0  0  0
  1 26  1  0  0  0  0
  2  3  1  0  0  0  0
  3 23  1  0  0  0  0
  3  4  2  0  0  0  0
  4  5  1  0  0  0  0
  4 27  1  0  0  0  0
  5  6  2  0  0  0  0
  5 28  1  0  0  0  0
  6  7  1  0  0  0  0
  6 22  1  0  0  0  0
  7  8  1  0  0  0  0
  8  9  1  0  0  0  0
  8 29  1  0  0  0  0
  8 30  1  0  0  0  0
  9 10  1  0  0  0  0
  9 11  1  0  0  0  0
  9 31  1  0  0  0  0
 10 32  1  0  0  0  0
 11 12  1  0  0  0  0
 11 33  1  0  0  0  0
 11 34  1  0  0  0  0
 12 21  1  0  0  0  0
 12 13  1  0  0  0  0
 13 14  1  0  0  0  0
 13 15  2  0  0  0  0
 14 35  1  0  0  0  0
 14 36  1  0  0  0  0
 14 37  1  0  0  0  0
 15 16  1  0  0  0  0
 16 21  2  0  0  0  0
 16 17  1  0  0  0  0
 17 18  2  0  0  0  0
 17 38  1  0  0  0  0
 18 19  1  0  0  0  0
 18 39  1  0  0  0  0
 19 20  2  0  0  0  0
 19 40  1  0  0  0  0
 20 21  1  0  0  0  0
 20 41  1  0  0  0  0
 22 23  2  0  0  0  0
 22 42  1  0  0  0  0
 23 43  1  0  0  0  0
M  END
> <s_m_source_file>
AV-unprocessed.smi

> <i_m_source_file_index>
486

> <i_lp_mmshare_version>
43012

> <i_f3d_flags>
0

> <s_epik_input>
W0NIM11PYzFbY0hdW2NIXWMoW2NIXVtjSF0xKU9bQ0gyXVtDQEhdKFtPSF0pW0NIMl1uKGMobjIpW0NIM10pYyhjMjMpW2NIXVtjSF1bY0hdW2NIXTM=

> <s_epik_cmdline>
J2VwaWtfcHl0aG9uJywgJy1waCcsICc3LjAnLCAnLXRuJywgJzgnLCAnLW1hJywgJzIwMCcsICctbWV0YWxfYmluZGluZycsICctaW1hZScsICc8aW5maWxlLm1hZT4nLCAnLW9tYWUnLCAnPG91dGZpbGUubWFlPic=

> <r_lp_tautomer_probability>
1

> <r_epik_Ionization_Penalty>
0.114052

> <r_epik_Ionization_Penalty_Charging>
0

> <r_epik_Ionization_Penalty_Neutral>
0.114052

> <r_epik_State_Penalty>
0.103717

> <r_epik_Charging_Adjusted_Penalty>
0.103717

> <i_epik_Tot_Q>
0

> <i_epik_Tot_abs_Q>
0

> <r_epik_Metal_State_Penalty>
0.000113338

> <b_epik_Metal_Only>
0

> <s_lp_Force_Field>
OPLS_2005

> <r_lp_Energy>
20.3049

> <b_lp_Chiralities_Consistent>
1

> <s_lp_Variant>
AV-unprocessed.smi:486-2

> <Gold.Version>
5.8.1

> <Gold.Id.Protein>
6NUR|6NUR_protein|mol2

> <Gold.PLP.Fitness>
50.1477

> <Gold.PLP.PLP>
-49.2906

> <Gold.PLP.part.hbond>
-3.0000

> <Gold.PLP.part.metal>
0.0000

> <Gold.PLP.part.buried>
-6.0558

> <Gold.PLP.part.nonpolar>
-40.5494

> <Gold.PLP.part.repulsive>
0.2348

> <Gold.PLP.ligand.clash>
0.0000

> <Gold.PLP.ligand.torsion>
1.1082

> <Gold.PLP.Chemscore.Hbond>
0.9913

> <Gold.PLP.Chemscore.CHOScore>
0.0000

> <Gold.PLP.Chemscore.Metal>
0.0000

> <Gold.Chemscore.Hbonds>
donor molecule, donor type, donor heavy atom, donor atom, acceptor molecule, acceptor atom, score
      P1  H  7997  8009       L1    15  0.84

> <Gold.PLP.Chemscore.Internal.Correction>
0.0997

> <Gold.Rescore>
     Score         DG    S(hbond)    S(metal)    S(lipo)     H(rot)  DE(clash)    DE(int)     intcor
     14.48     -16.52       0.46        0.00     131.55       2.30       1.03       1.02       ----

> <Gold.Chemscore.Fitness>
14.4756

> <Gold.Chemscore.DG>
-16.5250

> <Gold.Chemscore.ZeroCoef>
-5.4800

> <Gold.Chemscore.Hbond>
0.4634

> <Gold.Chemscore.Metal>
0.0000

> <Gold.Chemscore.Lipo>
131.5489

> <Gold.Chemscore.Internal_Hbond>
0.0000

> <Gold.Chemscore.DEClash>
1.0266

> <Gold.Chemscore.DEInternal>
1.0227

> <Gold.Chemscore.Rot>
2.3023

> <Gold.Chemscore.Internal.Correction>
   9.000000E+99

> <Gold.Chemscore.Hbonds>
donor molecule, donor type, donor heavy atom, donor atom, acceptor molecule, acceptor atom, score
      P1  H  7997  8009       L1    15  0.21

> <Gold.Chemscore.Hbond.Weighted>
-1.5478

> <Gold.Chemscore.Metal.Weighted>
-0.0000

> <Gold.Chemscore.Lipo.Weighted>
-15.3912

> <Gold.Chemscore.Internal_Hbond.Weighted>
0.0000

> <Gold.Chemscore.DEClash.Weighted>
1.0266

> <Gold.Chemscore.DEInternal.Weighted>
1.0227

> <Gold.Chemscore.Rot.Weighted>
5.8940

> <Gold.Chemscore.Internal.Correction.Weighted>
   9.000000E+99

> <Gold.Protein.RotatedTorsions>
[ 6907 6896 6895 6894 ] final  -85.12 input  -60.11 | X-H torsion
[ 7974 7965 7964 7962 ] final  107.52 input  175.53 | X-H torsion
[ 8008 7997 7996 7995 ] final  165.45 input   59.86 | X-H torsion
[ 10167 10162 10161 10158 ] final    0.17 input  -65.29 | X-H torsion
[ 10718 10713 10712 10709 ] final  -31.16 input   66.30 | X-H torsion
[ 10763 10752 10751 10750 ] final   60.41 input  -60.55 | X-H torsion
[ 11005 11000 10999 10996 ] final -127.54 input  -57.11 | X-H torsion

> <Gold.Protein.ActiveResidues>
 VAL166  LYS551  ARG553  GLY616  TRP617  ASP618  TYR619  PRO620  LYS621  CYS622 
 ASP623  PHE694  ASN695  SER759  ASP760  ASP761  ALA762  ILE779  LEU786  VAL792 
 PHE793  MET794  SER795  GLU796  ALA797  LYS798  CYS799  TRP800  GLU811  SER814 

> <Gold.Protein.RotatedAtoms>
  150.6872  134.3254  159.4804 H   0  0  0  0  0  0  0  0  0  0  0  0  # atno 6907 bound_to 6896
  152.1125  134.9262  160.0575 H   0  0  0  0  0  0  0  0  0  0  0  0  # atno 6908 bound_to 6896
  152.0499  133.3979  159.4409 H   0  0  0  0  0  0  0  0  0  0  0  0  # atno 6909 bound_to 6896
  145.2926  139.2595  143.3857 H   0  0  0  0  0  0  0  0  0  0  0  0  # atno 7974 bound_to 7965
  156.1800  140.1670  156.8292 H   0  0  0  0  0  0  0  0  0  0  0  0  # atno 8008 bound_to 7997
  154.5349  140.0749  156.8443 H   0  0  0  0  0  0  0  0  0  0  0  0  # atno 8009 bound_to 7997
  155.3332  140.3380  155.4241 H   0  0  0  0  0  0  0  0  0  0  0  0  # atno 8010 bound_to 7997
  140.6740  143.6967  150.7984 H   0  0  0  0  0  0  0  0  0  0  0  0  # atno 10167 bound_to 10162
  156.3907  130.4372  149.7397 H   0  0  0  0  0  0  0  0  0  0  0  0  # atno 10718 bound_to 10713
  152.9920  135.5537  154.5869 H   0  0  0  0  0  0  0  0  0  0  0  0  # atno 10763 bound_to 10752
  154.5238  135.2809  155.1241 H   0  0  0  0  0  0  0  0  0  0  0  0  # atno 10764 bound_to 10752
  154.2584  135.6386  153.5318 H   0  0  0  0  0  0  0  0  0  0  0  0  # atno 10765 bound_to 10752
  140.9591  134.0961  157.3986 H   0  0  0  0  0  0  0  0  0  0  0  0  # atno 11005 bound_to 11000
  146.3180  140.3421  142.8649 LP  0  0  0  0  0  0  0  0  0  0  0  0  # atno 17320 bound_to 7965
  144.9160  140.7813  143.5778 LP  0  0  0  0  0  0  0  0  0  0  0  0  # atno 17321 bound_to 7965
  140.0657  143.5110  152.2605 LP  0  0  0  0  0  0  0  0  0  0  0  0  # atno 17342 bound_to 10162
  139.6023  144.7586  151.3143 LP  0  0  0  0  0  0  0  0  0  0  0  0  # atno 17343 bound_to 10162
  156.4451  130.7880  151.2901 LP  0  0  0  0  0  0  0  0  0  0  0  0  # atno 17370 bound_to 10713
  157.7499  131.0113  150.3339 LP  0  0  0  0  0  0  0  0  0  0  0  0  # atno 17371 bound_to 10713
  139.8872  135.0088  156.6546 LP  0  0  0  0  0  0  0  0  0  0  0  0  # atno 17394 bound_to 11000
  140.7493  133.8911  155.8335 LP  0  0  0  0  0  0  0  0  0  0  0  0  # atno 17395 bound_to 11000

$$$$
