AV-unprocessed.smi:13|AV-procd|sdf|73|dock8
  -GOLD-   2262015193D 1   1.00000     0.00000
 Structure written by MMmdl.
 54 58  0  0  0  0  0  0  0  0  1 V2000
  147.1340  135.1662  163.1397 C   0  0  0  0  0  0  0  0  0  0  0  0
  146.7250  135.6623  161.7458 C   0  0  0  0  0  0  0  0  0  0  0  0
  145.3129  136.2313  161.8815 C   0  0  0  0  0  0  0  0  0  0  0  0
  147.7496  136.5796  161.0604 C   0  0  0  0  0  0  0  0  0  0  0  0
  148.2222  135.4053  160.3487 N   0  0  0  0  0  0  0  0  0  0  0  0
  148.6515  135.6657  159.0140 C   0  0  0  0  0  0  0  0  0  0  0  0
  149.0443  134.6477  158.2025 N   0  0  0  0  0  0  0  0  0  0  0  0
  149.4650  134.8780  156.9561 C   0  0  0  0  0  0  0  0  0  0  0  0
  149.5766  136.0426  156.3173 N   0  0  0  0  0  0  0  0  0  0  0  0
  149.1923  137.0767  157.1174 C   0  0  0  0  0  0  0  0  0  0  0  0
  148.7284  136.9762  158.4604 C   0  0  0  0  0  0  0  0  0  0  0  0
  148.4449  138.2435  158.9553 N   0  0  0  0  0  0  0  0  0  0  0  0
  148.7190  139.0445  157.9624 C   0  0  0  0  0  0  0  0  0  0  0  0
  149.1658  138.4276  156.8160 N   0  0  0  0  0  0  0  0  0  0  0  0
  149.5453  139.0755  155.5693 C   0  0  0  0  0  0  0  0  0  0  0  0
  150.9225  139.7800  155.6264 C   0  0  1  0  0  0  0  0  0  0  0  0
  151.5028  139.7535  154.3348 O   0  0  0  0  0  0  0  0  0  0  0  0
  150.8141  141.2332  156.0941 C   0  0  0  0  0  0  0  0  0  0  0  0
  151.4122  141.2033  157.4955 C   0  0  0  0  0  0  0  0  0  0  0  0
  152.4417  140.2388  157.3705 O   0  0  0  0  0  0  0  0  0  0  0  0
  151.9035  139.1490  156.6358 C   0  0  0  0  0  0  0  0  0  0  0  0
  146.9524  134.7135  160.5443 C   0  0  1  0  0  0  0  0  0  0  0  0
  147.1245  133.2016  160.7344 C   0  0  1  0  0  0  0  0  0  0  0  0
  147.8146  132.5032  159.5594 C   0  0  0  0  0  0  0  0  0  0  0  0
  148.5499  131.3321  160.1966 C   0  0  0  0  0  0  0  0  0  0  0  0
  148.3848  131.5597  161.6991 C   0  0  0  0  0  0  0  0  0  0  0  0
  148.0104  132.9229  161.8071 O   0  0  0  0  0  0  0  0  0  0  0  0
  147.1969  135.9907  163.8500 H   0  0  0  0  0  0  0  0  0  0  0  0
  148.1115  134.6833  163.1268 H   0  0  0  0  0  0  0  0  0  0  0  0
  146.4209  134.4471  163.5422 H   0  0  0  0  0  0  0  0  0  0  0  0
  144.9521  136.6342  160.9348 H   0  0  0  0  0  0  0  0  0  0  0  0
  145.2752  137.0412  162.6109 H   0  0  0  0  0  0  0  0  0  0  0  0
  144.6024  135.4666  162.1972 H   0  0  0  0  0  0  0  0  0  0  0  0
  147.2966  137.3234  160.4018 H   0  0  0  0  0  0  0  0  0  0  0  0
  148.4907  137.0164  161.7304 H   0  0  0  0  0  0  0  0  0  0  0  0
  149.7538  134.0037  156.3918 H   0  0  0  0  0  0  0  0  0  0  0  0
  148.5994  140.1155  158.0390 H   0  0  0  0  0  0  0  0  0  0  0  0
  149.5380  138.3225  154.7799 H   0  0  0  0  0  0  0  0  0  0  0  0
  148.7688  139.7959  155.3084 H   0  0  0  0  0  0  0  0  0  0  0  0
  151.1246  139.0334  153.8532 H   0  0  0  0  0  0  0  0  0  0  0  0
  151.4150  141.8939  155.4666 H   0  0  0  0  0  0  0  0  0  0  0  0
  149.7936  141.6177  156.0869 H   0  0  0  0  0  0  0  0  0  0  0  0
  151.8009  142.1719  157.8101 H   0  0  0  0  0  0  0  0  0  0  0  0
  150.6777  140.8680  158.2298 H   0  0  0  0  0  0  0  0  0  0  0  0
  151.3820  138.5058  157.3447 H   0  0  0  0  0  0  0  0  0  0  0  0
  152.6902  138.5543  156.1694 H   0  0  0  0  0  0  0  0  0  0  0  0
  146.2451  134.9585  159.7492 H   0  0  0  0  0  0  0  0  0  0  0  0
  146.1679  132.7157  160.9366 H   0  0  0  0  0  0  0  0  0  0  0  0
  147.1098  132.1816  158.7932 H   0  0  0  0  0  0  0  0  0  0  0  0
  148.5353  133.1737  159.0894 H   0  0  0  0  0  0  0  0  0  0  0  0
  148.1333  130.3704  159.8958 H   0  0  0  0  0  0  0  0  0  0  0  0
  149.6025  131.3468  159.9120 H   0  0  0  0  0  0  0  0  0  0  0  0
  147.5845  130.9348  162.0991 H   0  0  0  0  0  0  0  0  0  0  0  0
  149.2959  131.3504  162.2600 H   0  0  0  0  0  0  0  0  0  0  0  0
  1  2  1  0  0  0  0
  1 28  1  0  0  0  0
  1 29  1  0  0  0  0
  1 30  1  0  0  0  0
  2 22  1  0  0  0  0
  2  3  1  0  0  0  0
  2  4  1  0  0  0  0
  3 31  1  0  0  0  0
  3 32  1  0  0  0  0
  3 33  1  0  0  0  0
  4  5  1  0  0  0  0
  4 34  1  0  0  0  0
  4 35  1  0  0  0  0
  5  6  1  0  0  0  0
  5 22  1  0  0  0  0
  6 11  1  0  0  0  0
  6  7  2  0  0  0  0
  7  8  1  0  0  0  0
  8  9  2  0  0  0  0
  8 36  1  0  0  0  0
  9 10  1  0  0  0  0
 10 14  1  0  0  0  0
 10 11  2  0  0  0  0
 11 12  1  0  0  0  0
 12 13  2  0  0  0  0
 13 14  1  0  0  0  0
 13 37  1  0  0  0  0
 14 15  1  0  0  0  0
 15 16  1  0  0  0  0
 15 38  1  0  0  0  0
 15 39  1  0  0  0  0
 16 21  1  0  0  0  0
 16 17  1  0  0  0  0
 16 18  1  0  0  0  0
 17 40  1  0  0  0  0
 18 19  1  0  0  0  0
 18 41  1  0  0  0  0
 18 42  1  0  0  0  0
 19 20  1  0  0  0  0
 19 43  1  0  0  0  0
 19 44  1  0  0  0  0
 20 21  1  0  0  0  0
 21 45  1  0  0  0  0
 21 46  1  0  0  0  0
 22 23  1  0  0  0  0
 22 47  1  0  0  0  0
 23 27  1  0  0  0  0
 23 24  1  0  0  0  0
 23 48  1  0  0  0  0
 24 25  1  0  0  0  0
 24 49  1  0  0  0  0
 24 50  1  0  0  0  0
 25 26  1  0  0  0  0
 25 51  1  0  0  0  0
 25 52  1  0  0  0  0
 26 27  1  0  0  0  0
 26 53  1  0  0  0  0
 26 54  1  0  0  0  0
M  END
> <s_m_source_file>
AV-unprocessed.smi

> <i_m_source_file_index>
13

> <i_lp_mmshare_version>
43012

> <i_f3d_flags>
0

> <s_epik_input>
TzFbQ0gyXVtDSDJdW0NIMl1bQ0BIXTFbQ0BASF0yTihbQ0gyXUMyKFtDSDNdKVtDSDNdKWMobltjSF1uMyljKGMzNCluW2NIXW40W0NIMl1bQ0BAXTUoW09IXSlbQ0gyXVtDSDJdT1tDSDJdNQ==

> <s_epik_cmdline>
J2VwaWtfcHl0aG9uJywgJy1waCcsICc3LjAnLCAnLXRuJywgJzgnLCAnLW1hJywgJzIwMCcsICctbWV0YWxfYmluZGluZycsICctaW1hZScsICc8aW5maWxlLm1hZT4nLCAnLW9tYWUnLCAnPG91dGZpbGUubWFlPic=

> <r_lp_tautomer_probability>
1

> <r_epik_Ionization_Penalty>
0.00202764

> <r_epik_Ionization_Penalty_Charging>
0

> <r_epik_Ionization_Penalty_Neutral>
0.00202764

> <r_epik_State_Penalty>
0.00134017

> <r_epik_Charging_Adjusted_Penalty>
0.00134017

> <i_epik_Tot_Q>
0

> <i_epik_Tot_abs_Q>
0

> <r_epik_Metal_State_Penalty>
-0

> <b_epik_Metal_Only>
0

> <s_lp_Force_Field>
OPLS_2005

> <r_lp_Energy>
61.4884

> <b_lp_Chiralities_Consistent>
1

> <s_lp_Variant>
AV-unprocessed.smi:13-5

> <Gold.Version>
5.8.1

> <Gold.Id.Protein>
6NUR|6NUR_protein|mol2

> <Gold.PLP.Fitness>
40.2106

> <Gold.PLP.PLP>
-32.8725

> <Gold.PLP.part.hbond>
-3.9998

> <Gold.PLP.part.metal>
0.0000

> <Gold.PLP.part.buried>
-2.6122

> <Gold.PLP.part.nonpolar>
-27.5145

> <Gold.PLP.part.repulsive>
0.0208

> <Gold.PLP.ligand.clash>
0.0000

> <Gold.PLP.ligand.torsion>
1.0345

> <Gold.PLP.Chemscore.Hbond>
3.0000

> <Gold.PLP.Chemscore.CHOScore>
0.0000

> <Gold.PLP.Chemscore.Metal>
0.0000

> <Gold.Chemscore.Hbonds>
donor molecule, donor type, donor heavy atom, donor atom, acceptor molecule, acceptor atom, score
      P1  H  6896  6907       L1     7  0.72
      P1  H  7989  7998       L1    17  0.65
      P1  H  7997  8008       L1    20  0.86

> <Gold.PLP.Chemscore.Internal.Correction>
0.4071

> <Gold.Rescore>
     Score         DG    S(hbond)    S(metal)    S(lipo)     H(rot)  DE(clash)    DE(int)     intcor
     10.95     -16.79       2.03        0.00      89.05       2.30       0.42       5.42       ----

> <Gold.Chemscore.Fitness>
10.9526

> <Gold.Chemscore.DG>
-16.7935

> <Gold.Chemscore.ZeroCoef>
-5.4800

> <Gold.Chemscore.Hbond>
2.0303

> <Gold.Chemscore.Metal>
0.0000

> <Gold.Chemscore.Lipo>
89.0542

> <Gold.Chemscore.Internal_Hbond>
0.0000

> <Gold.Chemscore.DEClash>
0.4169

> <Gold.Chemscore.DEInternal>
5.4239

> <Gold.Chemscore.Rot>
2.2996

> <Gold.Chemscore.Internal.Correction>
   9.000000E+99

> <Gold.Chemscore.Hbonds>
donor molecule, donor type, donor heavy atom, donor atom, acceptor molecule, acceptor atom, score
      P1  H  6896  6907       L1     7  0.10
      P1  H  6934  6947       L1    12  0.01
      P1  H  7989  7998       L1    17  0.48
      P1  H  7997  8008       L1    20  0.20

> <Gold.Chemscore.Hbond.Weighted>
-6.7811

> <Gold.Chemscore.Metal.Weighted>
-0.0000

> <Gold.Chemscore.Lipo.Weighted>
-10.4193

> <Gold.Chemscore.Internal_Hbond.Weighted>
0.0000

> <Gold.Chemscore.DEClash.Weighted>
0.4169

> <Gold.Chemscore.DEInternal.Weighted>
5.4239

> <Gold.Chemscore.Rot.Weighted>
5.8869

> <Gold.Chemscore.Internal.Correction.Weighted>
   9.000000E+99

> <Gold.Protein.RotatedTorsions>
[ 6907 6896 6895 6894 ] final -113.11 input  -60.11 | X-H torsion
[ 7974 7965 7964 7962 ] final  100.56 input  175.53 | X-H torsion
[ 8008 7997 7996 7995 ] final  -70.53 input   59.86 | X-H torsion
[ 10167 10162 10161 10158 ] final   48.90 input  -65.29 | X-H torsion
[ 10718 10713 10712 10709 ] final   45.41 input   66.30 | X-H torsion
[ 10763 10752 10751 10750 ] final  -75.27 input  -60.55 | X-H torsion
[ 11005 11000 10999 10996 ] final   -7.69 input  -57.11 | X-H torsion

> <Gold.Protein.ActiveResidues>
 VAL166  LYS551  ARG553  GLY616  TRP617  ASP618  TYR619  PRO620  LYS621  CYS622 
 ASP623  PHE694  ASN695  SER759  ASP760  ASP761  ALA762  ILE779  LEU786  VAL792 
 PHE793  MET794  SER795  GLU796  ALA797  LYS798  CYS799  TRP800  GLU811  SER814 

> <Gold.Protein.RotatedAtoms>
  150.7805  133.8993  159.3336 H   0  0  0  0  0  0  0  0  0  0  0  0  # atno 6907 bound_to 6896
  151.6856  135.0953  160.0233 H   0  0  0  0  0  0  0  0  0  0  0  0  # atno 6908 bound_to 6896
  152.3855  133.6567  159.6231 H   0  0  0  0  0  0  0  0  0  0  0  0  # atno 6909 bound_to 6896
  145.3839  139.2375  143.3388 H   0  0  0  0  0  0  0  0  0  0  0  0  # atno 7974 bound_to 7965
  154.5019  140.0832  156.7814 H   0  0  0  0  0  0  0  0  0  0  0  0  # atno 8008 bound_to 7997
  155.3984  140.3436  155.4237 H   0  0  0  0  0  0  0  0  0  0  0  0  # atno 8009 bound_to 7997
  156.1467  140.1546  156.8823 H   0  0  0  0  0  0  0  0  0  0  0  0  # atno 8010 bound_to 7997
  140.2885  144.3074  150.6246 H   0  0  0  0  0  0  0  0  0  0  0  0  # atno 10167 bound_to 10162
  157.4372  130.8060  149.7659 H   0  0  0  0  0  0  0  0  0  0  0  0  # atno 10718 bound_to 10713
  154.4844  135.5836  153.6413 H   0  0  0  0  0  0  0  0  0  0  0  0  # atno 10763 bound_to 10752
  152.9852  135.6097  154.3206 H   0  0  0  0  0  0  0  0  0  0  0  0  # atno 10764 bound_to 10752
  154.3100  135.2845  155.2550 H   0  0  0  0  0  0  0  0  0  0  0  0  # atno 10765 bound_to 10752
  140.7155  133.8872  155.8782 H   0  0  0  0  0  0  0  0  0  0  0  0  # atno 11005 bound_to 11000
  146.2829  140.4511  142.8769 LP  0  0  0  0  0  0  0  0  0  0  0  0  # atno 17320 bound_to 7965
  144.8488  140.6969  143.6182 LP  0  0  0  0  0  0  0  0  0  0  0  0  # atno 17321 bound_to 7965
  140.5752  143.2177  151.7528 LP  0  0  0  0  0  0  0  0  0  0  0  0  # atno 17342 bound_to 10162
  139.4944  144.4160  152.0030 LP  0  0  0  0  0  0  0  0  0  0  0  0  # atno 17343 bound_to 10162
  155.9935  130.3924  150.2898 LP  0  0  0  0  0  0  0  0  0  0  0  0  # atno 17370 bound_to 10713
  157.1060  131.0208  151.3067 LP  0  0  0  0  0  0  0  0  0  0  0  0  # atno 17371 bound_to 10713
  141.0048  134.1101  157.4281 LP  0  0  0  0  0  0  0  0  0  0  0  0  # atno 17394 bound_to 11000
  139.8861  135.0078  156.6476 LP  0  0  0  0  0  0  0  0  0  0  0  0  # atno 17395 bound_to 11000

$$$$
