AV-unprocessed.smi:2874|AV-procd|sdf|11039|dock10
  -GOLD-   2272015503D 1   1.00000     0.00000
 Structure written by MMmdl.
 40 42  0  0  0  0  0  0  0  0  2 V2000
  150.8509  136.5863  154.5292 C   0  0  0  0  0  0  0  0  0  0  0  0
  151.2454  137.9147  154.8218 O   0  0  0  0  0  0  0  0  0  0  0  0
  150.7334  138.3748  156.0620 C   0  0  0  0  0  0  0  0  0  0  0  0
  151.7109  139.3865  156.6766 C   0  0  0  0  0  0  0  0  0  0  0  0
  151.1782  140.7560  156.6564 N   0  0  0  0  0  0  0  0  0  0  0  0
  150.3047  141.3537  155.7982 C   0  0  0  0  0  0  0  0  0  0  0  0
  149.5424  140.5985  154.3950 S   0  0  0  0  0  0  0  0  0  0  0  0
  147.8309  140.2127  154.8700 C   0  0  0  0  0  0  0  0  0  0  0  0
  147.1878  139.2895  153.8502 C   0  0  0  0  0  0  0  0  0  0  0  0
  147.0100  139.7793  152.6190 N   0  0  0  0  0  0  0  0  0  0  0  0
  146.4212  138.9649  151.7165 C   0  0  0  0  0  0  0  0  0  0  0  0
  146.0109  137.6588  152.0528 C   0  0  0  0  0  0  0  0  0  0  0  0
  146.2540  137.2515  153.3797 C   0  0  0  0  0  0  0  0  0  0  0  0
  145.8865  135.9813  153.8156 N   0  0  0  0  0  0  0  0  0  0  0  0
  146.8431  138.0696  154.2775 N   0  0  0  0  0  0  0  0  0  0  0  0
  150.1231  142.6343  156.2246 N   0  3  0  0  0  0  0  0  0  0  0  0
  150.8947  142.8626  157.3640 C   0  0  0  0  0  0  0  0  0  0  0  0
  151.0471  144.0020  158.1475 C   0  0  0  0  0  0  0  0  0  0  0  0
  151.9164  143.8990  159.2538 C   0  0  0  0  0  0  0  0  0  0  0  0
  152.1552  145.2716  160.2709 Cl  0  0  0  0  0  0  0  0  0  0  0  0
  152.5923  142.6955  159.5439 C   0  0  0  0  0  0  0  0  0  0  0  0
  152.4309  141.5465  158.7419 C   0  0  0  0  0  0  0  0  0  0  0  0
  151.5721  141.6591  157.6494 C   0  0  0  0  0  0  0  0  0  0  0  0
  151.2721  136.2825  153.5709 H   0  0  0  0  0  0  0  0  0  0  0  0
  149.7654  136.5031  154.4614 H   0  0  0  0  0  0  0  0  0  0  0  0
  151.2092  135.8915  155.2900 H   0  0  0  0  0  0  0  0  0  0  0  0
  149.7583  138.8404  155.9111 H   0  0  0  0  0  0  0  0  0  0  0  0
  150.5918  137.5358  156.7446 H   0  0  0  0  0  0  0  0  0  0  0  0
  151.9617  139.1179  157.7031 H   0  0  0  0  0  0  0  0  0  0  0  0
  152.6486  139.3847  156.1200 H   0  0  0  0  0  0  0  0  0  0  0  0
  147.8323  139.7293  155.8473 H   0  0  0  0  0  0  0  0  0  0  0  0
  147.2654  141.1400  154.9704 H   0  0  0  0  0  0  0  0  0  0  0  0
  146.2749  139.3579  150.7212 H   0  0  0  0  0  0  0  0  0  0  0  0
  145.5393  137.0103  151.3289 H   0  0  0  0  0  0  0  0  0  0  0  0
  145.4385  135.3224  153.1948 H   0  0  0  0  0  0  0  0  0  0  0  0
  146.1678  135.6360  154.7219 H   0  0  0  0  0  0  0  0  0  0  0  0
  150.5284  144.9231  157.9258 H   0  0  0  0  0  0  0  0  0  0  0  0
  153.2500  142.6515  160.3999 H   0  0  0  0  0  0  0  0  0  0  0  0
  152.9530  140.6300  158.9740 H   0  0  0  0  0  0  0  0  0  0  0  0
  149.5242  143.3049  155.7592 H   0  0  0  0  0  0  0  0  0  0  0  0
  1  2  1  0  0  0  0
  1 24  1  0  0  0  0
  1 25  1  0  0  0  0
  1 26  1  0  0  0  0
  2  3  1  0  0  0  0
  3  4  1  0  0  0  0
  3 27  1  0  0  0  0
  3 28  1  0  0  0  0
  4  5  1  0  0  0  0
  4 29  1  0  0  0  0
  4 30  1  0  0  0  0
  5 23  1  0  0  0  0
  5  6  1  0  0  0  0
  6  7  1  0  0  0  0
  6 16  2  0  0  0  0
  7  8  1  0  0  0  0
  8  9  1  0  0  0  0
  8 31  1  0  0  0  0
  8 32  1  0  0  0  0
  9 15  1  0  0  0  0
  9 10  2  0  0  0  0
 10 11  1  0  0  0  0
 11 12  2  0  0  0  0
 11 33  1  0  0  0  0
 12 13  1  0  0  0  0
 12 34  1  0  0  0  0
 13 14  1  0  0  0  0
 13 15  2  0  0  0  0
 14 35  1  0  0  0  0
 14 36  1  0  0  0  0
 16 17  1  0  0  0  0
 16 40  1  0  0  0  0
 17 23  2  0  0  0  0
 17 18  1  0  0  0  0
 18 19  2  0  0  0  0
 18 37  1  0  0  0  0
 19 20  1  0  0  0  0
 19 21  1  0  0  0  0
 21 22  2  0  0  0  0
 21 38  1  0  0  0  0
 22 23  1  0  0  0  0
 22 39  1  0  0  0  0
M  CHG  1  16   1
M  END
> <s_m_source_file>
AV-unprocessed.smi

> <i_m_source_file_index>
2874

> <i_lp_mmshare_version>
43012

> <i_f3d_flags>
0

> <s_epik_input>
W2NIXTFjKENsKVtjSF1bY0hdYyhjMTIpbihbQ0gyXVtDSDJdT1tDSDNdKWMobjIpU1tDSDJdYzNuW2NIXVtjSF1jKG4zKVtOSDJd

> <s_epik_cmdline>
J2VwaWtfcHl0aG9uJywgJy1waCcsICc3LjAnLCAnLXRuJywgJzgnLCAnLW1hJywgJzIwMCcsICctbWV0YWxfYmluZGluZycsICctaW1hZScsICc8aW5maWxlLm1hZT4nLCAnLW9tYWUnLCAnPG91dGZpbGUubWFlPic=

> <r_lp_tautomer_probability>
1

> <r_epik_Ionization_Penalty>
2.48176

> <r_epik_Ionization_Penalty_Charging>
2.48043

> <r_epik_Ionization_Penalty_Neutral>
0.00132706

> <r_epik_State_Penalty>
2.64401

> <r_epik_Charging_Adjusted_Penalty>
5.12444

> <i_epik_Tot_Q>
1

> <i_epik_Tot_abs_Q>
1

> <r_epik_Metal_State_Penalty>
2.65168

> <b_epik_Metal_Only>
0

> <s_lp_Force_Field>
OPLS_2005

> <r_lp_Energy>
0.65944

> <b_lp_Chiralities_Consistent>
1

> <s_lp_Variant>
AV-unprocessed.smi:2874-2

> <Gold.Version>
5.8.1

> <Gold.Id.Protein>
6NUR|6NUR_protein|mol2

> <Gold.PLP.Fitness>
44.3792

> <Gold.PLP.PLP>
-39.8440

> <Gold.PLP.part.hbond>
-0.9966

> <Gold.PLP.part.metal>
0.0000

> <Gold.PLP.part.buried>
-3.0344

> <Gold.PLP.part.nonpolar>
-38.7059

> <Gold.PLP.part.repulsive>
1.9946

> <Gold.PLP.ligand.clash>
0.0000

> <Gold.PLP.ligand.torsion>
1.1986

> <Gold.PLP.Chemscore.Hbond>
2.0000

> <Gold.PLP.Chemscore.CHOScore>
0.2938

> <Gold.PLP.Chemscore.Metal>
0.0000

> <Gold.Chemscore.Hbonds>
donor molecule, donor type, donor heavy atom, donor atom, acceptor molecule, acceptor atom, score
      L1  H    16    40       P1  8028  2.00
      L1  C    11    33       P1 10171  0.42

> <Gold.PLP.Chemscore.Internal.Correction>
0.0509

> <Gold.Rescore>
     Score         DG    S(hbond)    S(metal)    S(lipo)     H(rot)  DE(clash)    DE(int)     intcor
     13.22     -14.49       0.92        0.00     105.59       2.51       0.09       1.19       ----

> <Gold.Chemscore.Fitness>
13.2155

> <Gold.Chemscore.DG>
-14.4913

> <Gold.Chemscore.ZeroCoef>
-5.4800

> <Gold.Chemscore.Hbond>
0.9221

> <Gold.Chemscore.Metal>
0.0000

> <Gold.Chemscore.Lipo>
105.5901

> <Gold.Chemscore.Internal_Hbond>
0.0000

> <Gold.Chemscore.DEClash>
0.0908

> <Gold.Chemscore.DEInternal>
1.1850

> <Gold.Chemscore.Rot>
2.5088

> <Gold.Chemscore.Internal.Correction>
   9.000000E+99

> <Gold.Chemscore.Hbonds>
donor molecule, donor type, donor heavy atom, donor atom, acceptor molecule, acceptor atom, score
      L1  H    16    40       P1  8028  0.91

> <Gold.Chemscore.Hbond.Weighted>
-3.0797

> <Gold.Chemscore.Metal.Weighted>
-0.0000

> <Gold.Chemscore.Lipo.Weighted>
-12.3540

> <Gold.Chemscore.Internal_Hbond.Weighted>
0.0000

> <Gold.Chemscore.DEClash.Weighted>
0.0908

> <Gold.Chemscore.DEInternal.Weighted>
1.1850

> <Gold.Chemscore.Rot.Weighted>
6.4224

> <Gold.Chemscore.Internal.Correction.Weighted>
   9.000000E+99

> <Gold.Protein.RotatedTorsions>
[ 6907 6896 6895 6894 ] final   45.11 input  -60.11 | X-H torsion
[ 7974 7965 7964 7962 ] final    0.55 input  175.53 | X-H torsion
[ 8008 7997 7996 7995 ] final  113.29 input   59.86 | X-H torsion
[ 10167 10162 10161 10158 ] final    5.31 input  -65.29 | X-H torsion
[ 10718 10713 10712 10709 ] final -175.17 input   66.30 | X-H torsion
[ 10763 10752 10751 10750 ] final  -66.66 input  -60.55 | X-H torsion
[ 11005 11000 10999 10996 ] final -176.27 input  -57.11 | X-H torsion

> <Gold.Protein.ActiveResidues>
 VAL166  LYS551  ARG553  GLY616  TRP617  ASP618  TYR619  PRO620  LYS621  CYS622 
 ASP623  PHE694  ASN695  SER759  ASP760  ASP761  ALA762  ILE779  LEU786  VAL792 
 PHE793  MET794  SER795  GLU796  ALA797  LYS798  CYS799  TRP800  GLU811  SER814 

> <Gold.Protein.RotatedAtoms>
  152.2406  134.8232  160.0460 H   0  0  0  0  0  0  0  0  0  0  0  0  # atno 6907 bound_to 6896
  151.8948  133.3519  159.3818 H   0  0  0  0  0  0  0  0  0  0  0  0  # atno 6908 bound_to 6896
  150.7052  134.4814  159.5516 H   0  0  0  0  0  0  0  0  0  0  0  0  # atno 6909 bound_to 6896
  146.2435  140.1121  142.8343 H   0  0  0  0  0  0  0  0  0  0  0  0  # atno 7974 bound_to 7965
  156.2249  140.2982  156.0041 H   0  0  0  0  0  0  0  0  0  0  0  0  # atno 8008 bound_to 7997
  155.2384  140.0421  157.2989 H   0  0  0  0  0  0  0  0  0  0  0  0  # atno 8009 bound_to 7997
  154.5899  140.2398  155.7943 H   0  0  0  0  0  0  0  0  0  0  0  0  # atno 8010 bound_to 7997
  140.6489  143.7594  150.7543 H   0  0  0  0  0  0  0  0  0  0  0  0  # atno 10167 bound_to 10162
  156.7958  130.9534  151.3119 H   0  0  0  0  0  0  0  0  0  0  0  0  # atno 10718 bound_to 10713
  154.3630  135.6112  153.5700 H   0  0  0  0  0  0  0  0  0  0  0  0  # atno 10763 bound_to 10752
  152.9793  135.5820  154.4610 H   0  0  0  0  0  0  0  0  0  0  0  0  # atno 10764 bound_to 10752
  154.4351  135.2849  155.1863 H   0  0  0  0  0  0  0  0  0  0  0  0  # atno 10765 bound_to 10752
  140.4540  134.6317  157.4814 H   0  0  0  0  0  0  0  0  0  0  0  0  # atno 11005 bound_to 11000
  145.0478  140.8994  143.5014 LP  0  0  0  0  0  0  0  0  0  0  0  0  # atno 17320 bound_to 7965
  145.1213  139.2691  143.5587 LP  0  0  0  0  0  0  0  0  0  0  0  0  # atno 17321 bound_to 7965
  140.1241  143.4585  152.2295 LP  0  0  0  0  0  0  0  0  0  0  0  0  # atno 17342 bound_to 10162
  139.5702  144.7458  151.3912 LP  0  0  0  0  0  0  0  0  0  0  0  0  # atno 17343 bound_to 10162
  157.6578  130.8939  149.9765 LP  0  0  0  0  0  0  0  0  0  0  0  0  # atno 17370 bound_to 10713
  156.1131  130.3649  150.0015 LP  0  0  0  0  0  0  0  0  0  0  0  0  # atno 17371 bound_to 10713
  139.9988  134.6869  155.9564 LP  0  0  0  0  0  0  0  0  0  0  0  0  # atno 17394 bound_to 11000
  141.1651  133.6537  156.4452 LP  0  0  0  0  0  0  0  0  0  0  0  0  # atno 17395 bound_to 11000

$$$$
