AV-unprocessed.smi:2079|AV-procd|sdf|8484|dock3
  -GOLD-   2272011193D 1   1.00000     0.00000
 Structure written by MMmdl.
 41 42  0  0  0  0  0  0  0  0  3 V2000
  153.3924  142.4734  161.0130 C   0  0  0  0  0  0  0  0  0  0  0  0
  153.0169  141.6475  159.8310 C   0  0  0  0  0  0  0  0  0  0  0  0
  152.1697  141.8583  158.7798 C   0  0  0  0  0  0  0  0  0  0  0  0
  152.2872  140.6595  158.0268 C   0  0  0  0  0  0  0  0  0  0  0  0
  151.5440  140.4799  156.8302 N   0  0  0  0  0  0  0  0  0  0  0  0
  151.9469  139.9547  155.6588 C   0  0  0  0  0  0  0  0  0  0  0  0
  153.1113  139.5618  155.5171 O   0  0  0  0  0  0  0  0  0  0  0  0
  150.9489  139.9335  154.7320 N   0  5  0  0  0  0  0  0  0  0  0  0
  150.3668  138.7203  154.1600 C   0  0  0  0  0  0  0  0  0  0  0  0
  149.0468  138.3670  154.8758 C   0  0  0  0  0  0  0  0  0  0  0  0
  147.9890  137.9506  153.9154 N   0  3  1  0  0  0  0  0  0  0  0  0
  146.9682  137.0277  154.4910 C   0  0  0  0  0  0  0  0  0  0  0  0
  146.0592  136.4574  153.3901 C   0  0  0  0  0  0  0  0  0  0  0  0
  145.3969  137.5789  152.5799 C   0  0  0  0  0  0  0  0  0  0  0  0
  146.4651  138.5394  152.0350 C   0  0  0  0  0  0  0  0  0  0  0  0
  147.3820  139.0819  153.1515 C   0  0  1  0  0  0  0  0  0  0  0  0
  146.6665  140.1137  154.0510 C   0  0  0  0  0  0  0  0  0  0  0  0
  153.1342  139.7969  158.5691 N   0  0  0  0  0  0  0  0  0  0  0  0
  153.6048  140.4249  159.7282 O   0  0  0  0  0  0  0  0  0  0  0  0
  153.0058  143.4883  160.9182 H   0  0  0  0  0  0  0  0  0  0  0  0
  154.4760  142.5328  161.1156 H   0  0  0  0  0  0  0  0  0  0  0  0
  152.9885  142.0413  161.9287 H   0  0  0  0  0  0  0  0  0  0  0  0
  151.5618  142.7291  158.5841 H   0  0  0  0  0  0  0  0  0  0  0  0
  150.5797  140.7750  156.8681 H   0  0  0  0  0  0  0  0  0  0  0  0
  150.1770  138.8185  153.0902 H   0  0  0  0  0  0  0  0  0  0  0  0
  151.0539  137.8792  154.2537 H   0  0  0  0  0  0  0  0  0  0  0  0
  149.2000  137.5888  155.6252 H   0  0  0  0  0  0  0  0  0  0  0  0
  148.7158  139.2525  155.4205 H   0  0  0  0  0  0  0  0  0  0  0  0
  147.4573  136.1991  155.0037 H   0  0  0  0  0  0  0  0  0  0  0  0
  146.3752  137.5452  155.2456 H   0  0  0  0  0  0  0  0  0  0  0  0
  146.6472  135.8244  152.7241 H   0  0  0  0  0  0  0  0  0  0  0  0
  145.2960  135.8160  153.8315 H   0  0  0  0  0  0  0  0  0  0  0  0
  144.8184  137.1560  151.7581 H   0  0  0  0  0  0  0  0  0  0  0  0
  144.6889  138.1209  153.2075 H   0  0  0  0  0  0  0  0  0  0  0  0
  147.0735  138.0115  151.2991 H   0  0  0  0  0  0  0  0  0  0  0  0
  145.9910  139.3626  151.4994 H   0  0  0  0  0  0  0  0  0  0  0  0
  148.2008  139.6053  152.6553 H   0  0  0  0  0  0  0  0  0  0  0  0
  146.2725  140.9357  153.4530 H   0  0  0  0  0  0  0  0  0  0  0  0
  147.3436  140.5509  154.7846 H   0  0  0  0  0  0  0  0  0  0  0  0
  145.8277  139.6814  154.5955 H   0  0  0  0  0  0  0  0  0  0  0  0
  148.4830  137.4093  153.2202 H   0  0  0  0  0  0  0  0  0  0  0  0
  1  2  1  0  0  0  0
  1 20  1  0  0  0  0
  1 21  1  0  0  0  0
  1 22  1  0  0  0  0
  2 19  1  0  0  0  0
  2  3  2  0  0  0  0
  3  4  1  0  0  0  0
  3 23  1  0  0  0  0
  4  5  1  0  0  0  0
  4 18  2  0  0  0  0
  5  6  1  0  0  0  0
  5 24  1  0  0  0  0
  6  7  2  0  0  0  0
  6  8  1  0  0  0  0
  8  9  1  0  0  0  0
  9 10  1  0  0  0  0
  9 25  1  0  0  0  0
  9 26  1  0  0  0  0
 10 11  1  0  0  0  0
 10 27  1  0  0  0  0
 10 28  1  0  0  0  0
 11 16  1  0  0  0  0
 11 12  1  0  0  0  0
 11 41  1  0  0  0  0
 12 13  1  0  0  0  0
 12 29  1  0  0  0  0
 12 30  1  0  0  0  0
 13 14  1  0  0  0  0
 13 31  1  0  0  0  0
 13 32  1  0  0  0  0
 14 15  1  0  0  0  0
 14 33  1  0  0  0  0
 14 34  1  0  0  0  0
 15 16  1  0  0  0  0
 15 35  1  0  0  0  0
 15 36  1  0  0  0  0
 16 17  1  0  0  0  0
 16 37  1  0  0  0  0
 17 38  1  0  0  0  0
 17 39  1  0  0  0  0
 17 40  1  0  0  0  0
 18 19  1  0  0  0  0
M  CHG  1   8  -1
M  CHG  1  11   1
M  END
> <s_m_source_file>
AV-unprocessed.smi

> <i_m_source_file_index>
2079

> <i_lp_mmshare_version>
43012

> <i_f3d_flags>
0

> <s_epik_input>
W0NIM11jMVtjSF1jKG5vMSlbTkhdQyg9TylbTkhdW0NIMl1bQ0gyXU4yW0NIMl1bQ0gyXVtDSDJdW0NIMl1bQ0BIXTJbQ0gzXQ==

> <s_epik_cmdline>
J2VwaWtfcHl0aG9uJywgJy1waCcsICc3LjAnLCAnLXRuJywgJzgnLCAnLW1hJywgJzIwMCcsICctbWV0YWxfYmluZGluZycsICctaW1hZScsICc8aW5maWxlLm1hZT4nLCAnLW9tYWUnLCAnPG91dGZpbGUubWFlPic=

> <r_epik_Ionization_Penalty>
6.7666

> <r_epik_Ionization_Penalty_Charging>
6.7666

> <r_epik_Ionization_Penalty_Neutral>
5.77131e-06

> <r_epik_State_Penalty>
6.79217

> <r_epik_Charging_Adjusted_Penalty>
13.5588

> <i_epik_Tot_Q>
0

> <i_epik_Tot_abs_Q>
2

> <r_epik_Metal_State_Penalty>
2.72569

> <b_epik_Metal_Only>
1

> <s_lp_Force_Field>
OPLS_2005

> <r_lp_Energy>
14.7698

> <b_lp_Chiralities_Consistent>
1

> <s_lp_Variant>
AV-unprocessed.smi:2079-10

> <Gold.Version>
5.8.1

> <Gold.Id.Protein>
6NUR|6NUR_protein|mol2

> <Gold.PLP.Fitness>
41.6090

> <Gold.PLP.PLP>
-32.7662

> <Gold.PLP.part.hbond>
-3.3810

> <Gold.PLP.part.metal>
0.0000

> <Gold.PLP.part.buried>
-3.3888

> <Gold.PLP.part.nonpolar>
-26.4270

> <Gold.PLP.part.repulsive>
0.1755

> <Gold.PLP.ligand.clash>
0.0000

> <Gold.PLP.ligand.torsion>
1.6240

> <Gold.PLP.Chemscore.Hbond>
4.0000

> <Gold.PLP.Chemscore.CHOScore>
0.0000

> <Gold.PLP.Chemscore.Metal>
0.0000

> <Gold.Chemscore.Hbonds>
donor molecule, donor type, donor heavy atom, donor atom, acceptor molecule, acceptor atom, score
      L1  H    11    41       P1  7948  2.00
      P1  H  7989  7998       L1     8  1.00
      P1  H  7997  8010       L1     7  1.00

> <Gold.PLP.Chemscore.Internal.Correction>
0.0907

> <Gold.Rescore>
     Score         DG    S(hbond)    S(metal)    S(lipo)     H(rot)  DE(clash)    DE(int)     intcor
     16.67     -18.48       2.48        0.00      73.92       1.54       0.06       1.75       ----

> <Gold.Chemscore.Fitness>
16.6715

> <Gold.Chemscore.DG>
-18.4771

> <Gold.Chemscore.ZeroCoef>
-5.4800

> <Gold.Chemscore.Hbond>
2.4830

> <Gold.Chemscore.Metal>
0.0000

> <Gold.Chemscore.Lipo>
73.9178

> <Gold.Chemscore.Internal_Hbond>
0.0000

> <Gold.Chemscore.DEClash>
0.0555

> <Gold.Chemscore.DEInternal>
1.7501

> <Gold.Chemscore.Rot>
1.5409

> <Gold.Chemscore.Internal.Correction>
   9.000000E+99

> <Gold.Chemscore.Hbonds>
donor molecule, donor type, donor heavy atom, donor atom, acceptor molecule, acceptor atom, score
      L1  H    11    41       P1  7948  1.00
      P1  H  7989  7998       L1     8  0.21
      P1  H  7997  8010       L1     7  0.94

> <Gold.Chemscore.Hbond.Weighted>
-8.2933

> <Gold.Chemscore.Metal.Weighted>
-0.0000

> <Gold.Chemscore.Lipo.Weighted>
-8.6484

> <Gold.Chemscore.Internal_Hbond.Weighted>
0.0000

> <Gold.Chemscore.DEClash.Weighted>
0.0555

> <Gold.Chemscore.DEInternal.Weighted>
1.7501

> <Gold.Chemscore.Rot.Weighted>
3.9446

> <Gold.Chemscore.Internal.Correction.Weighted>
   9.000000E+99

> <Gold.Protein.RotatedTorsions>
[ 6907 6896 6895 6894 ] final   11.94 input  -60.11 | X-H torsion
[ 7974 7965 7964 7962 ] final -174.49 input  175.53 | X-H torsion
[ 8008 7997 7996 7995 ] final   78.82 input   59.86 | X-H torsion
[ 10167 10162 10161 10158 ] final  120.24 input  -65.29 | X-H torsion
[ 10718 10713 10712 10709 ] final -159.14 input   66.30 | X-H torsion
[ 10763 10752 10751 10750 ] final -101.54 input  -60.55 | X-H torsion
[ 11005 11000 10999 10996 ] final   57.61 input  -57.11 | X-H torsion

> <Gold.Protein.ActiveResidues>
 VAL166  LYS551  ARG553  GLY616  TRP617  ASP618  TYR619  PRO620  LYS621  CYS622 
 ASP623  PHE694  ASN695  SER759  ASP760  ASP761  ALA762  ILE779  LEU786  VAL792 
 PHE793  MET794  SER795  GLU796  ALA797  LYS798  CYS799  TRP800  GLU811  SER814 

> <Gold.Protein.RotatedAtoms>
  151.7624  135.0807  160.0347 H   0  0  0  0  0  0  0  0  0  0  0  0  # atno 6907 bound_to 6896
  152.3344  133.5990  159.5840 H   0  0  0  0  0  0  0  0  0  0  0  0  # atno 6908 bound_to 6896
  150.7441  133.9735  159.3595 H   0  0  0  0  0  0  0  0  0  0  0  0  # atno 6909 bound_to 6896
  144.7131  140.1463  143.6388 H   0  0  0  0  0  0  0  0  0  0  0  0  # atno 7974 bound_to 7965
  155.8611  140.3453  155.5757 H   0  0  0  0  0  0  0  0  0  0  0  0  # atno 8008 bound_to 7997
  155.7932  140.0874  157.2017 H   0  0  0  0  0  0  0  0  0  0  0  0  # atno 8009 bound_to 7997
  154.4012  140.1479  156.3174 H   0  0  0  0  0  0  0  0  0  0  0  0  # atno 8010 bound_to 7997
  139.5994  144.7052  151.3097 H   0  0  0  0  0  0  0  0  0  0  0  0  # atno 10167 bound_to 10162
  156.5639  130.8659  151.2818 H   0  0  0  0  0  0  0  0  0  0  0  0  # atno 10718 bound_to 10713
  154.7665  135.4894  153.9565 H   0  0  0  0  0  0  0  0  0  0  0  0  # atno 10763 bound_to 10752
  153.1315  135.6754  153.9179 H   0  0  0  0  0  0  0  0  0  0  0  0  # atno 10764 bound_to 10752
  153.8881  135.3124  155.3425 H   0  0  0  0  0  0  0  0  0  0  0  0  # atno 10765 bound_to 10752
  140.0440  134.5833  155.9346 H   0  0  0  0  0  0  0  0  0  0  0  0  # atno 11005 bound_to 11000
  145.9157  139.2514  143.1411 LP  0  0  0  0  0  0  0  0  0  0  0  0  # atno 17320 bound_to 7965
  145.9672  140.8789  143.0181 LP  0  0  0  0  0  0  0  0  0  0  0  0  # atno 17321 bound_to 7965
  140.7238  143.7061  150.7806 LP  0  0  0  0  0  0  0  0  0  0  0  0  # atno 17342 bound_to 10162
  140.0635  143.5132  152.2616 LP  0  0  0  0  0  0  0  0  0  0  0  0  # atno 17343 bound_to 10162
  157.7362  130.9776  150.2126 LP  0  0  0  0  0  0  0  0  0  0  0  0  # atno 17370 bound_to 10713
  156.2774  130.3729  149.7970 LP  0  0  0  0  0  0  0  0  0  0  0  0  # atno 17371 bound_to 10713
  141.1897  133.6566  156.5380 LP  0  0  0  0  0  0  0  0  0  0  0  0  # atno 17394 bound_to 11000
  140.4024  134.7345  157.4787 LP  0  0  0  0  0  0  0  0  0  0  0  0  # atno 17395 bound_to 11000

$$$$
