AV-unprocessed.smi:1428|AV-procd|sdf|5817|dock10
  -GOLD-   22720 5473D 1   1.00000     0.00000
 Structure written by MMmdl.
 43 44  0  0  0  0  0  0  0  0  3 V2000
  152.0819  138.3587  154.3623 C   0  0  0  0  0  0  0  0  0  0  0  0
  150.7130  138.1718  154.0197 O   0  0  0  0  0  0  0  0  0  0  0  0
  149.8230  139.1973  154.2771 C   0  0  0  0  0  0  0  0  0  0  0  0
  150.3204  140.4182  154.5977 N   0  0  0  0  0  0  0  0  0  0  0  0
  149.4530  141.4205  154.8467 C   0  0  0  0  0  0  0  0  0  0  0  0
  148.0564  141.2635  154.7844 C   0  0  0  0  0  0  0  0  0  0  0  0
  147.5377  139.9985  154.4518 C   0  0  0  0  0  0  0  0  0  0  0  0
  148.4356  138.9321  154.2018 C   0  0  0  0  0  0  0  0  0  0  0  0
  148.0218  137.6198  153.8416 N   0  0  0  0  0  0  0  0  0  0  0  0
  146.9823  136.9100  154.3115 C   0  0  0  0  0  0  0  0  0  0  0  0
  146.1769  137.2986  155.1570 O   0  0  0  0  0  0  0  0  0  0  0  0
  146.9376  135.6916  153.7536 N   0  0  0  0  0  0  0  0  0  0  0  0
  145.9412  134.6622  154.0475 C   0  0  2  0  0  0  0  0  0  0  0  0
  146.2162  133.3575  153.2733 C   0  0  0  0  0  0  0  0  0  0  0  0
  145.9487  133.5146  151.7662 C   0  0  0  0  0  0  0  0  0  0  0  0
  144.5635  133.9859  151.5149 N   0  3  2  0  0  0  0  0  0  0  0  0
  144.2289  134.0048  150.0688 C   0  0  0  0  0  0  0  0  0  0  0  0
  144.1313  132.5749  149.5252 C   0  0  0  0  0  0  0  0  0  0  0  0
  142.8870  132.2638  149.1152 N   0  5  0  0  0  0  0  0  0  0  0  0
  145.1305  131.8582  149.5158 O   0  0  0  0  0  0  0  0  0  0  0  0
  144.2932  135.2804  152.1968 C   0  0  0  0  0  0  0  0  0  0  0  0
  144.5276  135.1711  153.7149 C   0  0  0  0  0  0  0  0  0  0  0  0
  152.6451  137.4628  154.1014 H   0  0  0  0  0  0  0  0  0  0  0  0
  152.2055  138.5259  155.4333 H   0  0  0  0  0  0  0  0  0  0  0  0
  152.5196  139.1953  153.8159 H   0  0  0  0  0  0  0  0  0  0  0  0
  149.8855  142.3780  155.0969 H   0  0  0  0  0  0  0  0  0  0  0  0
  147.3977  142.0961  154.9824 H   0  0  0  0  0  0  0  0  0  0  0  0
  146.4680  139.8774  154.3814 H   0  0  0  0  0  0  0  0  0  0  0  0
  148.6389  137.1360  153.2056 H   0  0  0  0  0  0  0  0  0  0  0  0
  147.6410  135.4611  153.0668 H   0  0  0  0  0  0  0  0  0  0  0  0
  145.9828  134.4526  155.1179 H   0  0  0  0  0  0  0  0  0  0  0  0
  147.2393  133.0178  153.4381 H   0  0  0  0  0  0  0  0  0  0  0  0
  145.5733  132.5690  153.6662 H   0  0  0  0  0  0  0  0  0  0  0  0
  146.6596  134.2138  151.3230 H   0  0  0  0  0  0  0  0  0  0  0  0
  146.1047  132.5528  151.2762 H   0  0  0  0  0  0  0  0  0  0  0  0
  143.3203  134.5867  149.8989 H   0  0  0  0  0  0  0  0  0  0  0  0
  145.0245  134.4989  149.5092 H   0  0  0  0  0  0  0  0  0  0  0  0
  142.1059  132.8708  149.3911 H   0  0  0  0  0  0  0  0  0  0  0  0
  144.9294  136.0570  151.7697 H   0  0  0  0  0  0  0  0  0  0  0  0
  143.2628  135.5910  152.0211 H   0  0  0  0  0  0  0  0  0  0  0  0
  143.7924  134.4847  154.1373 H   0  0  0  0  0  0  0  0  0  0  0  0
  144.3498  136.1355  154.1926 H   0  0  0  0  0  0  0  0  0  0  0  0
  143.9482  133.3001  151.9295 H   0  0  0  0  0  0  0  0  0  0  0  0
  1  2  1  0  0  0  0
  1 23  1  0  0  0  0
  1 24  1  0  0  0  0
  1 25  1  0  0  0  0
  2  3  1  0  0  0  0
  3  8  1  0  0  0  0
  3  4  2  0  0  0  0
  4  5  1  0  0  0  0
  5  6  2  0  0  0  0
  5 26  1  0  0  0  0
  6  7  1  0  0  0  0
  6 27  1  0  0  0  0
  7  8  2  0  0  0  0
  7 28  1  0  0  0  0
  8  9  1  0  0  0  0
  9 10  1  0  0  0  0
  9 29  1  0  0  0  0
 10 11  2  0  0  0  0
 10 12  1  0  0  0  0
 12 13  1  0  0  0  0
 12 30  1  0  0  0  0
 13 22  1  0  0  0  0
 13 14  1  0  0  0  0
 13 31  1  0  0  0  0
 14 15  1  0  0  0  0
 14 32  1  0  0  0  0
 14 33  1  0  0  0  0
 15 16  1  0  0  0  0
 15 34  1  0  0  0  0
 15 35  1  0  0  0  0
 16 17  1  0  0  0  0
 16 21  1  0  0  0  0
 16 43  1  0  0  0  0
 17 18  1  0  0  0  0
 17 36  1  0  0  0  0
 17 37  1  0  0  0  0
 18 19  1  0  0  0  0
 18 20  2  0  0  0  0
 19 38  1  0  0  0  0
 21 22  1  0  0  0  0
 21 39  1  0  0  0  0
 21 40  1  0  0  0  0
 22 41  1  0  0  0  0
 22 42  1  0  0  0  0
M  CHG  1  16   1
M  CHG  1  19  -1
M  END
> <s_m_source_file>
AV-unprocessed.smi

> <i_m_source_file_index>
1428

> <i_lp_mmshare_version>
43012

> <i_f3d_flags>
0

> <s_epik_input>
W0NIM11PYzFuW2NIXVtjSF1bY0hdYzFbTkhdQyg9TylbTkhdW0NIXTJbQ0gyXVtDSDJdTihbQ0gyXVtDSDJdMilbQ0gyXUMoPU8pW05IMl0=

> <s_epik_cmdline>
J2VwaWtfcHl0aG9uJywgJy1waCcsICc3LjAnLCAnLXRuJywgJzgnLCAnLW1hJywgJzIwMCcsICctbWV0YWxfYmluZGluZycsICctaW1hZScsICc8aW5maWxlLm1hZT4nLCAnLW9tYWUnLCAnPG91dGZpbGUubWFlPic=

> <r_lp_tautomer_probability>
1

> <r_epik_Ionization_Penalty>
5.72888

> <r_epik_Ionization_Penalty_Charging>
5.7288

> <r_epik_Ionization_Penalty_Neutral>
7.84403e-05

> <r_epik_State_Penalty>
6.54882

> <r_epik_Charging_Adjusted_Penalty>
12.2776

> <i_epik_Tot_Q>
0

> <i_epik_Tot_abs_Q>
2

> <r_epik_Metal_State_Penalty>
2.51301

> <b_epik_Metal_Only>
1

> <s_lp_Force_Field>
OPLS_2005

> <r_lp_Energy>
10.1368

> <b_lp_Chiralities_Consistent>
1

> <s_lp_Variant>
AV-unprocessed.smi:1428-5

> <Gold.Version>
5.8.1

> <Gold.Id.Protein>
6NUR|6NUR_protein|mol2

> <Gold.PLP.Fitness>
50.4171

> <Gold.PLP.PLP>
-34.1581

> <Gold.PLP.part.hbond>
-6.3117

> <Gold.PLP.part.metal>
0.0000

> <Gold.PLP.part.buried>
-5.7052

> <Gold.PLP.part.nonpolar>
-22.8030

> <Gold.PLP.part.repulsive>
0.5371

> <Gold.PLP.ligand.clash>
0.0000

> <Gold.PLP.ligand.torsion>
0.5473

> <Gold.PLP.Chemscore.Hbond>
4.7740

> <Gold.PLP.Chemscore.CHOScore>
1.0000

> <Gold.PLP.Chemscore.Metal>
0.0000

> <Gold.Chemscore.Hbonds>
donor molecule, donor type, donor heavy atom, donor atom, acceptor molecule, acceptor atom, score
      L1  H     9    29       P1  7948  1.00
      L1  H    12    30       P1  7948  0.90
      L1  H    19    38       P1 10186  1.00
      P1  H  7989  7998       L1     4  1.00
      P1  H 10785 10796       L1    19  0.60
      L1  C     5    26       P1  8028  0.82

> <Gold.PLP.Chemscore.Internal.Correction>
0.0315

> <Gold.Rescore>
     Score         DG    S(hbond)    S(metal)    S(lipo)     H(rot)  DE(clash)    DE(int)     intcor
     16.98     -18.92       3.82        0.00      55.98       2.29       0.06       1.88       ----

> <Gold.Chemscore.Fitness>
16.9792

> <Gold.Chemscore.DG>
-18.9221

> <Gold.Chemscore.ZeroCoef>
-5.4800

> <Gold.Chemscore.Hbond>
3.8182

> <Gold.Chemscore.Metal>
0.0000

> <Gold.Chemscore.Lipo>
55.9849

> <Gold.Chemscore.Internal_Hbond>
0.0000

> <Gold.Chemscore.DEClash>
0.0580

> <Gold.Chemscore.DEInternal>
1.8850

> <Gold.Chemscore.Rot>
2.2894

> <Gold.Chemscore.Internal.Correction>
   9.000000E+99

> <Gold.Chemscore.Hbonds>
donor molecule, donor type, donor heavy atom, donor atom, acceptor molecule, acceptor atom, score
      L1  H     9    29       P1  7948  0.97
      L1  H    12    30       P1  7948  0.88
      L1  H    19    38       P1 10186  1.00
      P1  H  7989  7998       L1     4  0.63
      P1  H 10785 10796       L1    19  0.14

> <Gold.Chemscore.Hbond.Weighted>
-12.7527

> <Gold.Chemscore.Metal.Weighted>
-0.0000

> <Gold.Chemscore.Lipo.Weighted>
-6.5502

> <Gold.Chemscore.Internal_Hbond.Weighted>
0.0000

> <Gold.Chemscore.DEClash.Weighted>
0.0580

> <Gold.Chemscore.DEInternal.Weighted>
1.8850

> <Gold.Chemscore.Rot.Weighted>
5.8608

> <Gold.Chemscore.Internal.Correction.Weighted>
   9.000000E+99

> <Gold.Protein.RotatedTorsions>
[ 6907 6896 6895 6894 ] final -106.58 input  -60.11 | X-H torsion
[ 7974 7965 7964 7962 ] final   16.70 input  175.53 | X-H torsion
[ 8008 7997 7996 7995 ] final -150.11 input   59.86 | X-H torsion
[ 10167 10162 10161 10158 ] final   91.00 input  -65.29 | X-H torsion
[ 10718 10713 10712 10709 ] final  176.90 input   66.30 | X-H torsion
[ 10763 10752 10751 10750 ] final -111.44 input  -60.55 | X-H torsion
[ 11005 11000 10999 10996 ] final   53.55 input  -57.11 | X-H torsion

> <Gold.Protein.ActiveResidues>
 VAL166  LYS551  ARG553  GLY616  TRP617  ASP618  TYR619  PRO620  LYS621  CYS622 
 ASP623  PHE694  ASN695  SER759  ASP760  ASP761  ALA762  ILE779  LEU786  VAL792 
 PHE793  MET794  SER795  GLU796  ALA797  LYS798  CYS799  TRP800  GLU811  SER814 

> <Gold.Protein.RotatedAtoms>
  150.7397  133.9954  159.3620 H   0  0  0  0  0  0  0  0  0  0  0  0  # atno 6907 bound_to 6896
  151.7905  135.0735  160.0396 H   0  0  0  0  0  0  0  0  0  0  0  0  # atno 6908 bound_to 6896
  152.3211  133.5818  159.5781 H   0  0  0  0  0  0  0  0  0  0  0  0  # atno 6909 bound_to 6896
  146.2241  139.8709  142.8587 H   0  0  0  0  0  0  0  0  0  0  0  0  # atno 7974 bound_to 7965
  155.6184  140.0679  157.2685 H   0  0  0  0  0  0  0  0  0  0  0  0  # atno 8008 bound_to 7997
  154.4235  140.1789  156.1394 H   0  0  0  0  0  0  0  0  0  0  0  0  # atno 8009 bound_to 7997
  156.0029  140.3334  155.6867 H   0  0  0  0  0  0  0  0  0  0  0  0  # atno 8010 bound_to 7997
  139.8417  144.6638  150.9275 H   0  0  0  0  0  0  0  0  0  0  0  0  # atno 10167 bound_to 10162
  156.9133  130.9917  151.3017 H   0  0  0  0  0  0  0  0  0  0  0  0  # atno 10718 bound_to 10713
  154.8300  135.4527  154.1039 H   0  0  0  0  0  0  0  0  0  0  0  0  # atno 10763 bound_to 10752
  153.2320  135.6906  153.7885 H   0  0  0  0  0  0  0  0  0  0  0  0  # atno 10764 bound_to 10752
  153.7264  135.3333  155.3253 H   0  0  0  0  0  0  0  0  0  0  0  0  # atno 10765 bound_to 10752
  140.0758  134.5407  155.8998 H   0  0  0  0  0  0  0  0  0  0  0  0  # atno 11005 bound_to 11000
  145.2609  141.0076  143.3827 LP  0  0  0  0  0  0  0  0  0  0  0  0  # atno 17320 bound_to 7965
  144.9299  139.4311  143.6500 LP  0  0  0  0  0  0  0  0  0  0  0  0  # atno 17321 bound_to 7965
  140.7797  143.3906  151.1316 LP  0  0  0  0  0  0  0  0  0  0  0  0  # atno 17342 bound_to 10162
  139.7552  143.8718  152.3087 LP  0  0  0  0  0  0  0  0  0  0  0  0  # atno 17343 bound_to 10162
  157.5954  130.8474  149.8721 LP  0  0  0  0  0  0  0  0  0  0  0  0  # atno 17370 bound_to 10713
  156.0525  130.3714  150.1167 LP  0  0  0  0  0  0  0  0  0  0  0  0  # atno 17371 bound_to 10713
  141.2029  133.6628  156.6031 LP  0  0  0  0  0  0  0  0  0  0  0  0  # atno 17394 bound_to 11000
  140.3560  134.7728  157.4500 LP  0  0  0  0  0  0  0  0  0  0  0  0  # atno 17395 bound_to 11000

$$$$
