AV-unprocessed.smi:958|AV-procd|sdf|4267|dock5
  -GOLD-   22720 2173D 1   1.00000     0.00000
 Structure written by MMmdl.
 31 33  0  0  0  0  0  0  0  0  2 V2000
  153.1789  141.4272  158.9296 C   0  0  0  0  0  0  0  0  0  0  0  0
  153.1285  140.1965  158.4233 N   0  0  0  0  0  0  0  0  0  0  0  0
  151.9816  140.1840  157.6575 N   0  0  0  0  0  0  0  0  0  0  0  0
  151.4492  141.4073  157.7791 C   0  0  0  0  0  0  0  0  0  0  0  0
  150.1623  141.8149  157.1180 C   0  0  2  0  0  0  0  0  0  0  0  0
  148.9603  141.0107  157.6498 C   0  0  0  0  0  0  0  0  0  0  0  0
  147.6678  141.4365  156.9365 C   0  0  0  0  0  0  0  0  0  0  0  0
  147.8225  141.3305  155.4104 C   0  0  0  0  0  0  0  0  0  0  0  0
  148.9794  142.1267  154.9471 N   0  3  0  0  0  0  0  0  0  0  0  0
  150.2523  141.7177  155.5810 C   0  0  0  0  0  0  0  0  0  0  0  0
  152.1805  142.2407  158.5507 N   0  0  0  0  0  0  0  0  0  0  0  0
  151.9328  143.6156  158.9523 C   0  0  0  0  0  0  0  0  0  0  0  0
  151.4163  144.5072  157.8462 C   0  0  0  0  0  0  0  0  0  0  0  0
  152.8475  144.6394  158.3175 C   0  0  0  0  0  0  0  0  0  0  0  0
  153.9692  141.7442  159.5943 H   0  0  0  0  0  0  0  0  0  0  0  0
  149.9712  142.8598  157.3619 H   0  0  0  0  0  0  0  0  0  0  0  0
  149.1243  139.9437  157.4927 H   0  0  0  0  0  0  0  0  0  0  0  0
  148.8564  141.1546  158.7259 H   0  0  0  0  0  0  0  0  0  0  0  0
  146.8356  140.8165  157.2712 H   0  0  0  0  0  0  0  0  0  0  0  0
  147.4191  142.4628  157.2102 H   0  0  0  0  0  0  0  0  0  0  0  0
  147.9601  140.2898  155.1134 H   0  0  0  0  0  0  0  0  0  0  0  0
  146.9211  141.6880  154.9121 H   0  0  0  0  0  0  0  0  0  0  0  0
  149.0654  142.0277  153.9455 H   0  0  0  0  0  0  0  0  0  0  0  0
  151.0524  142.3568  155.2065 H   0  0  0  0  0  0  0  0  0  0  0  0
  150.4882  140.6981  155.2726 H   0  0  0  0  0  0  0  0  0  0  0  0
  151.5839  143.7239  159.9772 H   0  0  0  0  0  0  0  0  0  0  0  0
  151.2499  144.0667  156.8649 H   0  0  0  0  0  0  0  0  0  0  0  0
  150.7239  145.2992  158.1240 H   0  0  0  0  0  0  0  0  0  0  0  0
  153.1004  145.5176  158.9078 H   0  0  0  0  0  0  0  0  0  0  0  0
  153.6267  144.2977  157.6387 H   0  0  0  0  0  0  0  0  0  0  0  0
  148.8088  143.0981  155.1648 H   0  0  0  0  0  0  0  0  0  0  0  0
  1 11  1  0  0  0  0
  1  2  2  0  0  0  0
  1 15  1  0  0  0  0
  2  3  1  0  0  0  0
  3  4  2  0  0  0  0
  4  5  1  0  0  0  0
  4 11  1  0  0  0  0
  5 10  1  0  0  0  0
  5  6  1  0  0  0  0
  5 16  1  0  0  0  0
  6  7  1  0  0  0  0
  6 17  1  0  0  0  0
  6 18  1  0  0  0  0
  7  8  1  0  0  0  0
  7 19  1  0  0  0  0
  7 20  1  0  0  0  0
  8  9  1  0  0  0  0
  8 21  1  0  0  0  0
  8 22  1  0  0  0  0
  9 10  1  0  0  0  0
  9 23  1  0  0  0  0
  9 31  1  0  0  0  0
 10 24  1  0  0  0  0
 10 25  1  0  0  0  0
 11 12  1  0  0  0  0
 12 14  1  0  0  0  0
 12 13  1  0  0  0  0
 12 26  1  0  0  0  0
 13 14  1  0  0  0  0
 13 27  1  0  0  0  0
 13 28  1  0  0  0  0
 14 29  1  0  0  0  0
 14 30  1  0  0  0  0
M  CHG  1   9   1
M  END
> <s_m_source_file>
AV-unprocessed.smi

> <i_m_source_file_index>
958

> <i_lp_mmshare_version>
43012

> <i_f3d_flags>
0

> <s_epik_input>
W0NIMl0xW0NIMl1bQ0hdMW4yW2NIXW5uYzJbQ0BASF0zW0NIMl1bQ0gyXVtDSDJdW05IXVtDSDJdMw==

> <s_epik_cmdline>
J2VwaWtfcHl0aG9uJywgJy1waCcsICc3LjAnLCAnLXRuJywgJzgnLCAnLW1hJywgJzIwMCcsICctbWV0YWxfYmluZGluZycsICctaW1hZScsICc8aW5maWxlLm1hZT4nLCAnLW9tYWUnLCAnPG91dGZpbGUubWFlPic=

> <r_lp_tautomer_probability>
1

> <r_epik_Ionization_Penalty>
0.000442722

> <r_epik_Ionization_Penalty_Charging>
0.000426856

> <r_epik_Ionization_Penalty_Neutral>
1.58656e-05

> <r_epik_State_Penalty>
-0

> <r_epik_Charging_Adjusted_Penalty>
0.000426856

> <i_epik_Tot_Q>
1

> <i_epik_Tot_abs_Q>
1

> <r_epik_Metal_State_Penalty>
-0

> <b_epik_Metal_Only>
0

> <s_lp_Force_Field>
OPLS_2005

> <r_lp_Energy>
27.25

> <b_lp_Chiralities_Consistent>
1

> <s_lp_Variant>
AV-unprocessed.smi:958-1

> <Gold.Version>
5.8.1

> <Gold.Id.Protein>
6NUR|6NUR_protein|mol2

> <Gold.PLP.Fitness>
36.2568

> <Gold.PLP.PLP>
-28.1633

> <Gold.PLP.part.hbond>
-2.0000

> <Gold.PLP.part.metal>
0.0000

> <Gold.PLP.part.buried>
-3.7568

> <Gold.PLP.part.nonpolar>
-21.6443

> <Gold.PLP.part.repulsive>
0.2133

> <Gold.PLP.ligand.clash>
0.0000

> <Gold.PLP.ligand.torsion>
0.4282

> <Gold.PLP.Chemscore.Hbond>
2.9516

> <Gold.PLP.Chemscore.CHOScore>
0.0000

> <Gold.PLP.Chemscore.Metal>
0.0000

> <Gold.Chemscore.Hbonds>
donor molecule, donor type, donor heavy atom, donor atom, acceptor molecule, acceptor atom, score
      L1  H     9    31       P1  8028  2.00
      P1  H  7997  8010       L1     2  0.96

> <Gold.PLP.Chemscore.Internal.Correction>
0.0951

> <Gold.Rescore>
     Score         DG    S(hbond)    S(metal)    S(lipo)     H(rot)  DE(clash)    DE(int)     intcor
     13.89     -14.33       1.44        0.00      61.89       1.25       0.17       0.27       ----

> <Gold.Chemscore.Fitness>
13.8925

> <Gold.Chemscore.DG>
-14.3327

> <Gold.Chemscore.ZeroCoef>
-5.4800

> <Gold.Chemscore.Hbond>
1.4399

> <Gold.Chemscore.Metal>
0.0000

> <Gold.Chemscore.Lipo>
61.8890

> <Gold.Chemscore.Internal_Hbond>
0.0000

> <Gold.Chemscore.DEClash>
0.1671

> <Gold.Chemscore.DEInternal>
0.2732

> <Gold.Chemscore.Rot>
1.2491

> <Gold.Chemscore.Internal.Correction>
   9.000000E+99

> <Gold.Chemscore.Hbonds>
donor molecule, donor type, donor heavy atom, donor atom, acceptor molecule, acceptor atom, score
      L1  H     9    31       P1  8028  1.00
      P1  H  7997  8010       L1     2  0.23

> <Gold.Chemscore.Hbond.Weighted>
-4.8094

> <Gold.Chemscore.Metal.Weighted>
-0.0000

> <Gold.Chemscore.Lipo.Weighted>
-7.2410

> <Gold.Chemscore.Internal_Hbond.Weighted>
0.0000

> <Gold.Chemscore.DEClash.Weighted>
0.1671

> <Gold.Chemscore.DEInternal.Weighted>
0.2732

> <Gold.Chemscore.Rot.Weighted>
3.1977

> <Gold.Chemscore.Internal.Correction.Weighted>
   9.000000E+99

> <Gold.Protein.RotatedTorsions>
[ 6907 6896 6895 6894 ] final -122.35 input  -60.11 | X-H torsion
[ 7974 7965 7964 7962 ] final  -11.50 input  175.53 | X-H torsion
[ 8008 7997 7996 7995 ] final   32.47 input   59.86 | X-H torsion
[ 10167 10162 10161 10158 ] final   48.81 input  -65.29 | X-H torsion
[ 10718 10713 10712 10709 ] final  -70.66 input   66.30 | X-H torsion
[ 10763 10752 10751 10750 ] final   17.35 input  -60.55 | X-H torsion
[ 11005 11000 10999 10996 ] final  153.85 input  -57.11 | X-H torsion

> <Gold.Protein.ActiveResidues>
 VAL166  LYS551  ARG553  GLY616  TRP617  ASP618  TYR619  PRO620  LYS621  CYS622 
 ASP623  PHE694  ASN695  SER759  ASP760  ASP761  ALA762  ILE779  LEU786  VAL792 
 PHE793  MET794  SER795  GLU796  ALA797  LYS798  CYS799  TRP800  GLU811  SER814 

> <Gold.Protein.RotatedAtoms>
  150.8567  133.7704  159.3006 H   0  0  0  0  0  0  0  0  0  0  0  0  # atno 6907 bound_to 6896
  151.5359  135.1067  159.9924 H   0  0  0  0  0  0  0  0  0  0  0  0  # atno 6908 bound_to 6896
  152.4595  133.7749  159.6875 H   0  0  0  0  0  0  0  0  0  0  0  0  # atno 6909 bound_to 6896
  146.2185  140.2920  142.8369 H   0  0  0  0  0  0  0  0  0  0  0  0  # atno 7974 bound_to 7965
  155.1229  140.3250  155.4493 H   0  0  0  0  0  0  0  0  0  0  0  0  # atno 8008 bound_to 7997
  156.2657  140.2024  156.6299 H   0  0  0  0  0  0  0  0  0  0  0  0  # atno 8009 bound_to 7997
  154.6670  140.0541  157.0111 H   0  0  0  0  0  0  0  0  0  0  0  0  # atno 8010 bound_to 7997
  140.2894  144.3063  150.6244 H   0  0  0  0  0  0  0  0  0  0  0  0  # atno 10167 bound_to 10162
  156.0398  130.4336  150.2329 H   0  0  0  0  0  0  0  0  0  0  0  0  # atno 10718 bound_to 10713
  153.1346  135.6747  153.9123 H   0  0  0  0  0  0  0  0  0  0  0  0  # atno 10763 bound_to 10752
  153.8598  135.3083  155.3438 H   0  0  0  0  0  0  0  0  0  0  0  0  # atno 10764 bound_to 10752
  154.7737  135.4926  153.9783 H   0  0  0  0  0  0  0  0  0  0  0  0  # atno 10765 bound_to 10752
  140.1435  134.8723  157.2362 H   0  0  0  0  0  0  0  0  0  0  0  0  # atno 11005 bound_to 11000
  144.9119  140.7768  143.5802 LP  0  0  0  0  0  0  0  0  0  0  0  0  # atno 17320 bound_to 7965
  145.2852  139.1904  143.4770 LP  0  0  0  0  0  0  0  0  0  0  0  0  # atno 17321 bound_to 7965
  140.5745  143.2178  151.7540 LP  0  0  0  0  0  0  0  0  0  0  0  0  # atno 17342 bound_to 10162
  139.4942  144.4170  152.0019 LP  0  0  0  0  0  0  0  0  0  0  0  0  # atno 17343 bound_to 10162
  157.0425  131.0039  151.3279 LP  0  0  0  0  0  0  0  0  0  0  0  0  # atno 17370 bound_to 10713
  157.5199  130.7991  149.7798 LP  0  0  0  0  0  0  0  0  0  0  0  0  # atno 17371 bound_to 10713
  140.2692  134.3480  155.7379 LP  0  0  0  0  0  0  0  0  0  0  0  0  # atno 17394 bound_to 11000
  141.2189  133.7413  156.9197 LP  0  0  0  0  0  0  0  0  0  0  0  0  # atno 17395 bound_to 11000

$$$$
