AV-unprocessed.smi:824|AV-procd|sdf|3849|dock9
  -GOLD-   22720 1293D 1   1.00000     0.00000
 Structure written by MMmdl.
 52 53  0  0  0  0  0  0  0  0  1 V2000
  147.7994  142.0836  154.1451 C   0  0  0  0  0  0  0  0  0  0  0  0
  149.0069  141.3871  154.7480 C   0  0  0  0  0  0  0  0  0  0  0  0
  149.6180  142.0825  155.7754 N   0  0  0  0  0  0  0  0  0  0  0  0
  150.7358  141.5356  156.3931 C   0  0  0  0  0  0  0  0  0  0  0  0
  151.2653  142.3179  157.4167 N   0  0  0  0  0  0  0  0  0  0  0  0
  151.5666  143.7250  157.1559 C   0  0  0  0  0  0  0  0  0  0  0  0
  151.6901  144.5214  158.4660 C   0  0  0  0  0  0  0  0  0  0  0  0
  152.6687  143.9182  159.3022 O   0  0  0  0  0  0  0  0  0  0  0  0
  152.3098  142.5861  159.6459 C   0  0  0  0  0  0  0  0  0  0  0  0
  152.2074  141.7333  158.3704 C   0  0  0  0  0  0  0  0  0  0  0  0
  151.2436  140.3854  156.0553 N   0  0  0  0  0  0  0  0  0  0  0  0
  150.6727  139.6358  155.0159 C   0  0  0  0  0  0  0  0  0  0  0  0
  151.1576  138.5538  154.6880 O   0  0  0  0  0  0  0  0  0  0  0  0
  149.4848  140.1897  154.3333 C   0  0  0  0  0  0  0  0  0  0  0  0
  148.8469  139.3821  153.2062 C   0  0  0  0  0  0  0  0  0  0  0  0
  147.3446  139.1380  153.4514 C   0  0  0  0  0  0  0  0  0  0  0  0
  146.6552  138.3257  152.3391 C   0  0  0  0  0  0  0  0  0  0  0  0
  146.8025  138.6760  151.1665 O   0  0  0  0  0  0  0  0  0  0  0  0
  145.8817  137.2639  152.6752 N   0  0  0  0  0  0  0  0  0  0  0  0
  145.8179  136.8212  154.0722 C   0  0  0  0  0  0  0  0  0  0  0  0
  145.1245  136.4446  151.7146 C   0  0  0  0  0  0  0  0  0  0  0  0
  145.0057  134.9600  152.1373 C   0  0  0  0  0  0  0  0  0  0  0  0
  146.3027  134.1668  151.9034 C   0  0  0  0  0  0  0  0  0  0  0  0
  143.8281  134.2875  151.4166 C   0  0  0  0  0  0  0  0  0  0  0  0
  149.2231  142.9713  156.0463 H   0  0  0  0  0  0  0  0  0  0  0  0
  147.9265  142.2051  153.0691 H   0  0  0  0  0  0  0  0  0  0  0  0
  147.6479  143.0731  154.5779 H   0  0  0  0  0  0  0  0  0  0  0  0
  146.8964  141.4988  154.3222 H   0  0  0  0  0  0  0  0  0  0  0  0
  150.7974  144.1796  156.5308 H   0  0  0  0  0  0  0  0  0  0  0  0
  152.5014  143.7851  156.5971 H   0  0  0  0  0  0  0  0  0  0  0  0
  151.9894  145.5480  158.2541 H   0  0  0  0  0  0  0  0  0  0  0  0
  150.7308  144.5702  158.9836 H   0  0  0  0  0  0  0  0  0  0  0  0
  153.0682  142.1751  160.3123 H   0  0  0  0  0  0  0  0  0  0  0  0
  151.3665  142.5805  160.1941 H   0  0  0  0  0  0  0  0  0  0  0  0
  153.1873  141.6495  157.8983 H   0  0  0  0  0  0  0  0  0  0  0  0
  151.8937  140.7225  158.6359 H   0  0  0  0  0  0  0  0  0  0  0  0
  149.3622  138.4274  153.1007 H   0  0  0  0  0  0  0  0  0  0  0  0
  149.0022  139.8981  152.2572 H   0  0  0  0  0  0  0  0  0  0  0  0
  147.2316  138.6283  154.4064 H   0  0  0  0  0  0  0  0  0  0  0  0
  146.8318  140.0963  153.5416 H   0  0  0  0  0  0  0  0  0  0  0  0
  145.5467  137.6476  154.7310 H   0  0  0  0  0  0  0  0  0  0  0  0
  146.7860  136.4337  154.3924 H   0  0  0  0  0  0  0  0  0  0  0  0
  145.0789  136.0351  154.2292 H   0  0  0  0  0  0  0  0  0  0  0  0
  144.1313  136.8686  151.5639 H   0  0  0  0  0  0  0  0  0  0  0  0
  145.5895  136.5041  150.7294 H   0  0  0  0  0  0  0  0  0  0  0  0
  144.7933  134.9128  153.2047 H   0  0  0  0  0  0  0  0  0  0  0  0
  146.6032  134.1973  150.8556 H   0  0  0  0  0  0  0  0  0  0  0  0
  146.1777  133.1200  152.1819 H   0  0  0  0  0  0  0  0  0  0  0  0
  147.1258  134.5598  152.5000 H   0  0  0  0  0  0  0  0  0  0  0  0
  143.9740  134.2851  150.3359 H   0  0  0  0  0  0  0  0  0  0  0  0
  142.8917  134.8053  151.6254 H   0  0  0  0  0  0  0  0  0  0  0  0
  143.7081  133.2527  151.7385 H   0  0  0  0  0  0  0  0  0  0  0  0
  1 26  1  0  0  0  0
  1 27  1  0  0  0  0
  1 28  1  0  0  0  0
  1  2  1  0  0  0  0
  2 14  2  0  0  0  0
  2  3  1  0  0  0  0
  3 25  1  0  0  0  0
  3  4  1  0  0  0  0
  4  5  1  0  0  0  0
  4 11  2  0  0  0  0
  5 10  1  0  0  0  0
  5  6  1  0  0  0  0
  6  7  1  0  0  0  0
  6 29  1  0  0  0  0
  6 30  1  0  0  0  0
  7  8  1  0  0  0  0
  7 31  1  0  0  0  0
  7 32  1  0  0  0  0
  8  9  1  0  0  0  0
  9 10  1  0  0  0  0
  9 33  1  0  0  0  0
  9 34  1  0  0  0  0
 10 35  1  0  0  0  0
 10 36  1  0  0  0  0
 11 12  1  0  0  0  0
 12 13  2  0  0  0  0
 12 14  1  0  0  0  0
 14 15  1  0  0  0  0
 15 16  1  0  0  0  0
 15 37  1  0  0  0  0
 15 38  1  0  0  0  0
 16 17  1  0  0  0  0
 16 39  1  0  0  0  0
 16 40  1  0  0  0  0
 17 18  2  0  0  0  0
 17 19  1  0  0  0  0
 19 20  1  0  0  0  0
 19 21  1  0  0  0  0
 20 41  1  0  0  0  0
 20 42  1  0  0  0  0
 20 43  1  0  0  0  0
 21 22  1  0  0  0  0
 21 44  1  0  0  0  0
 21 45  1  0  0  0  0
 22 23  1  0  0  0  0
 22 24  1  0  0  0  0
 22 46  1  0  0  0  0
 23 47  1  0  0  0  0
 23 48  1  0  0  0  0
 23 49  1  0  0  0  0
 24 50  1  0  0  0  0
 24 51  1  0  0  0  0
 24 52  1  0  0  0  0
M  END
> <s_m_source_file>
AV-unprocessed.smi

> <i_m_source_file_index>
824

> <i_lp_mmshare_version>
43012

> <i_f3d_flags>
0

> <s_epik_input>
W0NIMl0xW0NIMl1PW0NIMl1bQ0gyXU4xYyhuYzJbQ0gzXSlbbkhdYyg9TyljMltDSDJdW0NIMl1DKD1PKU4oW0NIM10pW0NIMl1bQ0hdKFtDSDNdKVtDSDNd

> <s_epik_cmdline>
J2VwaWtfcHl0aG9uJywgJy1waCcsICc3LjAnLCAnLXRuJywgJzgnLCAnLW1hJywgJzIwMCcsICctbWV0YWxfYmluZGluZycsICctaW1hZScsICc8aW5maWxlLm1hZT4nLCAnLW9tYWUnLCAnPG91dGZpbGUubWFlPic=

> <r_lp_tautomer_probability>
0.108306

> <r_epik_Ionization_Penalty>
0.0729191

> <r_epik_Ionization_Penalty_Charging>
0.0597558

> <r_epik_Ionization_Penalty_Neutral>
0.0131634

> <r_epik_State_Penalty>
1.71329

> <r_epik_Charging_Adjusted_Penalty>
1.77304

> <i_epik_Tot_Q>
0

> <i_epik_Tot_abs_Q>
0

> <r_epik_Metal_State_Penalty>
2.71696

> <b_epik_Metal_Only>
0

> <s_lp_Force_Field>
OPLS_2005

> <r_lp_Energy>
37.7489

> <b_lp_Chiralities_Consistent>
1

> <s_lp_Variant>
AV-unprocessed.smi:824-2

> <Gold.Version>
5.8.1

> <Gold.Id.Protein>
6NUR|6NUR_protein|mol2

> <Gold.PLP.Fitness>
48.0668

> <Gold.PLP.PLP>
-44.0957

> <Gold.PLP.part.hbond>
-2.0000

> <Gold.PLP.part.metal>
0.0000

> <Gold.PLP.part.buried>
1.5940

> <Gold.PLP.part.nonpolar>
-43.4144

> <Gold.PLP.part.repulsive>
1.0241

> <Gold.PLP.ligand.clash>
0.0000

> <Gold.PLP.ligand.torsion>
1.1823

> <Gold.PLP.Chemscore.Hbond>
1.9920

> <Gold.PLP.Chemscore.CHOScore>
0.0000

> <Gold.PLP.Chemscore.Metal>
0.0000

> <Gold.Chemscore.Hbonds>
donor molecule, donor type, donor heavy atom, donor atom, acceptor molecule, acceptor atom, score
      L1  H     3    25       P1  8028  0.99
      P1  H  7954  7966       L1    18  1.00

> <Gold.PLP.Chemscore.Internal.Correction>
0.3598

> <Gold.Rescore>
     Score         DG    S(hbond)    S(metal)    S(lipo)     H(rot)  DE(clash)    DE(int)     intcor
     16.26     -19.59       1.93        0.00     102.76       1.71       2.31       1.02       ----

> <Gold.Chemscore.Fitness>
16.2635

> <Gold.Chemscore.DG>
-19.5894

> <Gold.Chemscore.ZeroCoef>
-5.4800

> <Gold.Chemscore.Hbond>
1.9349

> <Gold.Chemscore.Metal>
0.0000

> <Gold.Chemscore.Lipo>
102.7570

> <Gold.Chemscore.Internal_Hbond>
0.0000

> <Gold.Chemscore.DEClash>
2.3089

> <Gold.Chemscore.DEInternal>
1.0169

> <Gold.Chemscore.Rot>
1.7093

> <Gold.Chemscore.Internal.Correction>
   9.000000E+99

> <Gold.Chemscore.Hbonds>
donor molecule, donor type, donor heavy atom, donor atom, acceptor molecule, acceptor atom, score
      L1  H     3    25       P1  8028  0.93
      P1  H  7954  7966       L1    18  0.88

> <Gold.Chemscore.Hbond.Weighted>
-6.4627

> <Gold.Chemscore.Metal.Weighted>
-0.0000

> <Gold.Chemscore.Lipo.Weighted>
-12.0226

> <Gold.Chemscore.Internal_Hbond.Weighted>
0.0000

> <Gold.Chemscore.DEClash.Weighted>
2.3089

> <Gold.Chemscore.DEInternal.Weighted>
1.0169

> <Gold.Chemscore.Rot.Weighted>
4.3759

> <Gold.Chemscore.Internal.Correction.Weighted>
   9.000000E+99

> <Gold.Protein.RotatedTorsions>
[ 6907 6896 6895 6894 ] final  147.28 input  -60.11 | X-H torsion
[ 7974 7965 7964 7962 ] final  107.50 input  175.53 | X-H torsion
[ 8008 7997 7996 7995 ] final  -85.12 input   59.86 | X-H torsion
[ 10167 10162 10161 10158 ] final   61.21 input  -65.29 | X-H torsion
[ 10718 10713 10712 10709 ] final  -15.38 input   66.30 | X-H torsion
[ 10763 10752 10751 10750 ] final  -93.92 input  -60.55 | X-H torsion
[ 11005 11000 10999 10996 ] final  -34.02 input  -57.11 | X-H torsion

> <Gold.Protein.ActiveResidues>
 VAL166  LYS551  ARG553  GLY616  TRP617  ASP618  TYR619  PRO620  LYS621  CYS622 
 ASP623  PHE694  ASN695  SER759  ASP760  ASP761  ALA762  ILE779  LEU786  VAL792 
 PHE793  MET794  SER795  GLU796  ALA797  LYS798  CYS799  TRP800  GLU811  SER814 

> <Gold.Protein.RotatedAtoms>
  152.1569  133.4557  159.4840 H   0  0  0  0  0  0  0  0  0  0  0  0  # atno 6907 bound_to 6896
  150.6902  134.2120  159.4372 H   0  0  0  0  0  0  0  0  0  0  0  0  # atno 6908 bound_to 6896
  152.0020  134.9923  160.0616 H   0  0  0  0  0  0  0  0  0  0  0  0  # atno 6909 bound_to 6896
  145.2928  139.2594  143.3855 H   0  0  0  0  0  0  0  0  0  0  0  0  # atno 7974 bound_to 7965
  154.6372  140.0596  156.9803 H   0  0  0  0  0  0  0  0  0  0  0  0  # atno 8008 bound_to 7997
  155.1573  140.3279  155.4400 H   0  0  0  0  0  0  0  0  0  0  0  0  # atno 8009 bound_to 7997
  156.2513  140.1937  156.6682 H   0  0  0  0  0  0  0  0  0  0  0  0  # atno 8010 bound_to 7997
  140.1572  144.4405  150.6728 H   0  0  0  0  0  0  0  0  0  0  0  0  # atno 10167 bound_to 10162
  156.6026  130.4828  149.6233 H   0  0  0  0  0  0  0  0  0  0  0  0  # atno 10718 bound_to 10713
  154.7006  135.5176  153.8521 H   0  0  0  0  0  0  0  0  0  0  0  0  # atno 10763 bound_to 10752
  153.0701  135.6598  154.0276 H   0  0  0  0  0  0  0  0  0  0  0  0  # atno 10764 bound_to 10752
  154.0135  135.3000  155.3369 H   0  0  0  0  0  0  0  0  0  0  0  0  # atno 10765 bound_to 10752
  140.9682  133.7124  156.1480 H   0  0  0  0  0  0  0  0  0  0  0  0  # atno 11005 bound_to 11000
  146.3179  140.3424  142.8649 LP  0  0  0  0  0  0  0  0  0  0  0  0  # atno 17320 bound_to 7965
  144.9158  140.7811  143.5779 LP  0  0  0  0  0  0  0  0  0  0  0  0  # atno 17321 bound_to 7965
  140.6665  143.2270  151.5729 LP  0  0  0  0  0  0  0  0  0  0  0  0  # atno 17342 bound_to 10162
  139.5398  144.2680  152.1327 LP  0  0  0  0  0  0  0  0  0  0  0  0  # atno 17343 bound_to 10162
  156.2456  130.6877  151.1597 LP  0  0  0  0  0  0  0  0  0  0  0  0  # atno 17370 bound_to 10713
  157.7275  131.0638  150.5860 LP  0  0  0  0  0  0  0  0  0  0  0  0  # atno 17371 bound_to 10713
  140.7367  134.4195  157.5559 LP  0  0  0  0  0  0  0  0  0  0  0  0  # atno 17394 bound_to 11000
  139.8902  134.8810  156.2380 LP  0  0  0  0  0  0  0  0  0  0  0  0  # atno 17395 bound_to 11000

$$$$
