AV-unprocessed.smi:2883|AV-procd|sdf|11076|dock4
  -GOLD-   2272015543D 1   1.00000     0.00000
 Structure written by MMmdl.
 40 42  0  0  0  0  0  0  0  0  2 V2000
  150.0808  144.0093  158.9237 C   0  0  0  0  0  0  0  0  0  0  0  0
  151.6077  144.1024  159.1501 C   0  0  0  0  0  0  0  0  0  0  0  0
  152.2871  144.6702  157.8909 C   0  0  0  0  0  0  0  0  0  0  0  0
  151.8121  145.0763  160.3330 C   0  0  0  0  0  0  0  0  0  0  0  0
  152.1976  142.7216  159.4705 C   0  0  0  0  0  0  0  0  0  0  0  0
  152.9649  142.5716  160.5652 N   0  3  0  0  0  0  0  0  0  0  0  0
  153.5817  141.3896  160.8078 C   0  0  0  0  0  0  0  0  0  0  0  0
  153.4545  140.3211  159.9020 C   0  0  0  0  0  0  0  0  0  0  0  0
  152.6796  140.5526  158.7538 C   0  0  0  0  0  0  0  0  0  0  0  0
  152.5290  139.5338  157.8031 N   0  0  0  0  0  0  0  0  0  0  0  0
  152.4085  139.8457  156.3816 C   0  0  1  0  0  0  0  0  0  0  0  0
  152.5176  138.6110  155.4841 C   0  0  0  0  0  0  0  0  0  0  0  0
  151.2409  138.7225  154.6386 C   0  0  1  0  0  0  0  0  0  0  0  0
  149.9959  138.3335  155.4457 C   0  0  0  0  0  0  0  0  0  0  0  0
  149.8461  139.5318  156.3808 C   0  0  0  0  0  0  0  0  0  0  0  0
  151.0365  140.4128  155.9640 C   0  0  2  0  0  0  0  0  0  0  0  0
  151.0783  140.1298  154.5760 O   0  0  0  0  0  0  0  0  0  0  0  0
  152.0870  141.7493  158.5523 N   0  0  0  0  0  0  0  0  0  0  0  0
  149.6463  144.9923  158.7387 H   0  0  0  0  0  0  0  0  0  0  0  0
  149.5747  143.5865  159.7924 H   0  0  0  0  0  0  0  0  0  0  0  0
  149.8317  143.3879  158.0625 H   0  0  0  0  0  0  0  0  0  0  0  0
  152.1322  144.0193  157.0295 H   0  0  0  0  0  0  0  0  0  0  0  0
  153.3633  144.7744  158.0336 H   0  0  0  0  0  0  0  0  0  0  0  0
  151.8925  145.6539  157.6343 H   0  0  0  0  0  0  0  0  0  0  0  0
  151.3569  146.0466  160.1302 H   0  0  0  0  0  0  0  0  0  0  0  0
  152.8681  145.2606  160.5336 H   0  0  0  0  0  0  0  0  0  0  0  0
  151.3624  144.6900  161.2486 H   0  0  0  0  0  0  0  0  0  0  0  0
  154.1646  141.3407  161.7158 H   0  0  0  0  0  0  0  0  0  0  0  0
  153.9407  139.3729  160.0803 H   0  0  0  0  0  0  0  0  0  0  0  0
  152.2818  138.6043  158.1102 H   0  0  0  0  0  0  0  0  0  0  0  0
  153.1932  140.5486  156.0978 H   0  0  0  0  0  0  0  0  0  0  0  0
  153.4070  138.6783  154.8566 H   0  0  0  0  0  0  0  0  0  0  0  0
  152.5624  137.6687  156.0323 H   0  0  0  0  0  0  0  0  0  0  0  0
  151.3085  138.2326  153.6669 H   0  0  0  0  0  0  0  0  0  0  0  0
  149.1244  138.2435  154.7962 H   0  0  0  0  0  0  0  0  0  0  0  0
  150.1235  137.3912  155.9795 H   0  0  0  0  0  0  0  0  0  0  0  0
  148.9042  140.0458  156.1866 H   0  0  0  0  0  0  0  0  0  0  0  0
  149.8652  139.2550  157.4349 H   0  0  0  0  0  0  0  0  0  0  0  0
  150.9036  141.4700  156.1955 H   0  0  0  0  0  0  0  0  0  0  0  0
  153.0824  143.3429  161.2227 H   0  0  0  0  0  0  0  0  0  0  0  0
  1  2  1  0  0  0  0
  1 19  1  0  0  0  0
  1 20  1  0  0  0  0
  1 21  1  0  0  0  0
  2  3  1  0  0  0  0
  2  4  1  0  0  0  0
  2  5  1  0  0  0  0
  3 22  1  0  0  0  0
  3 23  1  0  0  0  0
  3 24  1  0  0  0  0
  4 25  1  0  0  0  0
  4 26  1  0  0  0  0
  4 27  1  0  0  0  0
  5 18  1  0  0  0  0
  5  6  2  0  0  0  0
  6  7  1  0  0  0  0
  6 40  1  0  0  0  0
  7  8  2  0  0  0  0
  7 28  1  0  0  0  0
  8  9  1  0  0  0  0
  8 29  1  0  0  0  0
  9 10  1  0  0  0  0
  9 18  2  0  0  0  0
 10 11  1  0  0  0  0
 10 30  1  0  0  0  0
 11 16  1  0  0  0  0
 11 12  1  0  0  0  0
 11 31  1  0  0  0  0
 12 13  1  0  0  0  0
 12 32  1  0  0  0  0
 12 33  1  0  0  0  0
 13 17  1  0  0  0  0
 13 14  1  0  0  0  0
 13 34  1  0  0  0  0
 14 15  1  0  0  0  0
 14 35  1  0  0  0  0
 14 36  1  0  0  0  0
 15 16  1  0  0  0  0
 15 37  1  0  0  0  0
 15 38  1  0  0  0  0
 16 17  1  0  0  0  0
 16 39  1  0  0  0  0
M  CHG  1   6   1
M  END
> <s_m_source_file>
AV-unprocessed.smi

> <i_m_source_file_index>
2883

> <i_lp_mmshare_version>
43012

> <i_f3d_flags>
0

> <s_epik_input>
W0NIM11DKFtDSDNdKShbQ0gzXSljMW5bY0hdW2NIXWMobjEpW05IXVtDQEhdKFtDSDJdW0NAQEhdMjMpW0NAQEhdKE8zKVtDSDJdW0NIMl0y

> <s_epik_cmdline>
J2VwaWtfcHl0aG9uJywgJy1waCcsICc3LjAnLCAnLXRuJywgJzgnLCAnLW1hJywgJzIwMCcsICctbWV0YWxfYmluZGluZycsICctaW1hZScsICc8aW5maWxlLm1hZT4nLCAnLW9tYWUnLCAnPG91dGZpbGUubWFlPic=

> <r_lp_tautomer_probability>
0.999336

> <r_epik_Ionization_Penalty>
0.371831

> <r_epik_Ionization_Penalty_Charging>
0.371821

> <r_epik_Ionization_Penalty_Neutral>
1.06897e-05

> <r_epik_State_Penalty>
0.369311

> <r_epik_Charging_Adjusted_Penalty>
0.741132

> <i_epik_Tot_Q>
1

> <i_epik_Tot_abs_Q>
1

> <r_epik_Metal_State_Penalty>
0.621338

> <b_epik_Metal_Only>
0

> <s_lp_Force_Field>
OPLS_2005

> <r_lp_Energy>
39.2266

> <b_lp_Chiralities_Consistent>
1

> <s_lp_Variant>
AV-unprocessed.smi:2883-2

> <Gold.Version>
5.8.1

> <Gold.Id.Protein>
6NUR|6NUR_protein|mol2

> <Gold.PLP.Fitness>
42.0705

> <Gold.PLP.PLP>
-39.9134

> <Gold.PLP.part.hbond>
-1.0000

> <Gold.PLP.part.metal>
0.0000

> <Gold.PLP.part.buried>
-5.9090

> <Gold.PLP.part.nonpolar>
-33.4345

> <Gold.PLP.part.repulsive>
0.2165

> <Gold.PLP.ligand.clash>
0.0000

> <Gold.PLP.ligand.torsion>
0.4934

> <Gold.PLP.Chemscore.Hbond>
1.0000

> <Gold.PLP.Chemscore.CHOScore>
0.0000

> <Gold.PLP.Chemscore.Metal>
0.0000

> <Gold.Chemscore.Hbonds>
donor molecule, donor type, donor heavy atom, donor atom, acceptor molecule, acceptor atom, score
      P1  H  7989  7998       L1    17  0.71

> <Gold.PLP.Chemscore.Internal.Correction>
0.1439

> <Gold.Rescore>
     Score         DG    S(hbond)    S(metal)    S(lipo)     H(rot)  DE(clash)    DE(int)     intcor
     16.68     -17.34       1.00        0.00      98.36       1.16       0.05       0.61       ----

> <Gold.Chemscore.Fitness>
16.6836

> <Gold.Chemscore.DG>
-17.3394

> <Gold.Chemscore.ZeroCoef>
-5.4800

> <Gold.Chemscore.Hbond>
0.9964

> <Gold.Chemscore.Metal>
0.0000

> <Gold.Chemscore.Lipo>
98.3560

> <Gold.Chemscore.Internal_Hbond>
0.0000

> <Gold.Chemscore.DEClash>
0.0500

> <Gold.Chemscore.DEInternal>
0.6058

> <Gold.Chemscore.Rot>
1.1626

> <Gold.Chemscore.Internal.Correction>
   9.000000E+99

> <Gold.Chemscore.Hbonds>
donor molecule, donor type, donor heavy atom, donor atom, acceptor molecule, acceptor atom, score
      P1  H  7989  7998       L1    17  0.71

> <Gold.Chemscore.Hbond.Weighted>
-3.3280

> <Gold.Chemscore.Metal.Weighted>
-0.0000

> <Gold.Chemscore.Lipo.Weighted>
-11.5077

> <Gold.Chemscore.Internal_Hbond.Weighted>
0.0000

> <Gold.Chemscore.DEClash.Weighted>
0.0500

> <Gold.Chemscore.DEInternal.Weighted>
0.6058

> <Gold.Chemscore.Rot.Weighted>
2.9763

> <Gold.Chemscore.Internal.Correction.Weighted>
   9.000000E+99

> <Gold.Protein.RotatedTorsions>
[ 6907 6896 6895 6894 ] final -174.52 input  -60.11 | X-H torsion
[ 7974 7965 7964 7962 ] final  -27.45 input  175.53 | X-H torsion
[ 8008 7997 7996 7995 ] final   86.41 input   59.86 | X-H torsion
[ 10167 10162 10161 10158 ] final   -4.36 input  -65.29 | X-H torsion
[ 10718 10713 10712 10709 ] final  -66.46 input   66.30 | X-H torsion
[ 10763 10752 10751 10750 ] final  118.07 input  -60.55 | X-H torsion
[ 11005 11000 10999 10996 ] final   36.40 input  -57.11 | X-H torsion

> <Gold.Protein.ActiveResidues>
 VAL166  LYS551  ARG553  GLY616  TRP617  ASP618  TYR619  PRO620  LYS621  CYS622 
 ASP623  PHE694  ASN695  SER759  ASP760  ASP761  ALA762  ILE779  LEU786  VAL792 
 PHE793  MET794  SER795  GLU796  ALA797  LYS798  CYS799  TRP800  GLU811  SER814 

> <Gold.Protein.RotatedAtoms>
  151.5737  133.3386  159.2994 H   0  0  0  0  0  0  0  0  0  0  0  0  # atno 6907 bound_to 6896
  150.8353  134.7626  159.6899 H   0  0  0  0  0  0  0  0  0  0  0  0  # atno 6908 bound_to 6896
  152.4430  134.5558  159.9931 H   0  0  0  0  0  0  0  0  0  0  0  0  # atno 6909 bound_to 6896
  146.1357  140.5154  142.8674 H   0  0  0  0  0  0  0  0  0  0  0  0  # atno 7974 bound_to 7965
  155.9625  140.3392  155.6503 H   0  0  0  0  0  0  0  0  0  0  0  0  # atno 8008 bound_to 7997
  155.6780  140.0734  157.2513 H   0  0  0  0  0  0  0  0  0  0  0  0  # atno 8009 bound_to 7997
  154.4146  140.1679  156.1939 H   0  0  0  0  0  0  0  0  0  0  0  0  # atno 8010 bound_to 7997
  140.6925  143.6432  150.8416 H   0  0  0  0  0  0  0  0  0  0  0  0  # atno 10167 bound_to 10162
  156.0611  130.4262  150.1712 H   0  0  0  0  0  0  0  0  0  0  0  0  # atno 10718 bound_to 10713
  153.5621  135.3519  155.2803 H   0  0  0  0  0  0  0  0  0  0  0  0  # atno 10763 bound_to 10752
  154.8693  135.4139  154.2819 H   0  0  0  0  0  0  0  0  0  0  0  0  # atno 10764 bound_to 10752
  153.3567  135.7058  153.6814 H   0  0  0  0  0  0  0  0  0  0  0  0  # atno 10765 bound_to 10752
  140.2329  134.3506  155.7956 H   0  0  0  0  0  0  0  0  0  0  0  0  # atno 11005 bound_to 11000
  144.7737  140.5693  143.6653 LP  0  0  0  0  0  0  0  0  0  0  0  0  # atno 17320 bound_to 7965
  145.5162  139.1478  143.3577 LP  0  0  0  0  0  0  0  0  0  0  0  0  # atno 17321 bound_to 7965
  140.0147  143.5606  152.2825 LP  0  0  0  0  0  0  0  0  0  0  0  0  # atno 17342 bound_to 10162
  139.6342  144.7648  151.2472 LP  0  0  0  0  0  0  0  0  0  0  0  0  # atno 17343 bound_to 10162
  156.9780  130.9855  151.3444 LP  0  0  0  0  0  0  0  0  0  0  0  0  # atno 17370 bound_to 10713
  157.5620  130.8252  149.8278 LP  0  0  0  0  0  0  0  0  0  0  0  0  # atno 17371 bound_to 10713
  141.2216  133.7255  156.8761 LP  0  0  0  0  0  0  0  0  0  0  0  0  # atno 17394 bound_to 11000
  140.1732  134.9085  157.2858 LP  0  0  0  0  0  0  0  0  0  0  0  0  # atno 17395 bound_to 11000

$$$$
