AV-unprocessed.smi:769|AV-procd|sdf|3675|dock1
  -GOLD-   22720 1 83D 1   1.00000     0.00000
 Structure written by MMmdl.
 50 52  0  0  0  0  0  0  0  0  2 V2000
  144.7739  136.3152  153.3251 O   0  0  0  0  0  0  0  0  0  0  0  0
  145.9216  136.2027  152.8948 C   0  0  0  0  0  0  0  0  0  0  0  0
  146.8996  137.0744  153.1812 N   0  0  0  0  0  0  0  0  0  0  0  0
  146.7490  138.2392  154.0461 C   0  0  0  0  0  0  0  0  0  0  0  0
  147.2109  139.5317  153.3445 C   0  0  0  0  0  0  0  0  0  0  0  0
  148.5592  139.9685  153.7856 N   0  3  0  0  0  0  0  0  0  0  0  0
  148.4902  141.0422  154.8144 C   0  0  0  0  0  0  0  0  0  0  0  0
  149.8933  141.4863  155.2680 C   0  0  0  0  0  0  0  0  0  0  0  0
  150.6324  140.3115  155.7385 N   0  0  0  0  0  0  0  0  0  0  0  0
  150.9832  140.1329  157.0356 C   0  0  0  0  0  0  0  0  0  0  0  0
  151.5167  139.0947  157.4287 O   0  0  0  0  0  0  0  0  0  0  0  0
  150.7484  141.2829  158.0389 C   0  0  0  0  0  0  0  0  0  0  0  0
  151.3499  142.6533  157.6683 C   0  0  0  0  0  0  0  0  0  0  0  0
  152.4996  142.3957  158.6468 C   0  0  0  0  0  0  0  0  0  0  0  0
  151.6858  141.2506  159.2580 C   0  0  0  0  0  0  0  0  0  0  0  0
  150.8206  139.3414  154.6561 C   0  0  0  0  0  0  0  0  0  0  0  0
  149.4420  138.8384  154.1914 C   0  0  0  0  0  0  0  0  0  0  0  0
  146.3614  135.2283  152.0794 N   0  0  0  0  0  0  0  0  0  0  0  0
  145.6522  134.1158  151.5480 C   0  0  0  0  0  0  0  0  0  0  0  0
  146.4039  132.9824  151.1745 C   0  0  0  0  0  0  0  0  0  0  0  0
  145.7293  131.8585  150.6572 C   0  0  0  0  0  0  0  0  0  0  0  0
  144.3898  131.8033  150.5042 N   0  0  0  0  0  0  0  0  0  0  0  0
  143.6700  132.8837  150.8734 C   0  0  0  0  0  0  0  0  0  0  0  0
  144.2449  134.0573  151.4015 C   0  0  0  0  0  0  0  0  0  0  0  0
  147.8145  136.9122  152.7856 H   0  0  0  0  0  0  0  0  0  0  0  0
  145.7096  138.3068  154.3685 H   0  0  0  0  0  0  0  0  0  0  0  0
  147.3425  138.0722  154.9453 H   0  0  0  0  0  0  0  0  0  0  0  0
  147.2304  139.3435  152.2699 H   0  0  0  0  0  0  0  0  0  0  0  0
  146.4985  140.3432  153.5006 H   0  0  0  0  0  0  0  0  0  0  0  0
  147.9489  141.9001  154.4135 H   0  0  0  0  0  0  0  0  0  0  0  0
  147.9224  140.6814  155.6739 H   0  0  0  0  0  0  0  0  0  0  0  0
  150.4320  141.9413  154.4355 H   0  0  0  0  0  0  0  0  0  0  0  0
  149.8041  142.2667  156.0247 H   0  0  0  0  0  0  0  0  0  0  0  0
  149.6954  141.3843  158.3041 H   0  0  0  0  0  0  0  0  0  0  0  0
  151.6706  142.7834  156.6342 H   0  0  0  0  0  0  0  0  0  0  0  0
  150.7120  143.4814  157.9805 H   0  0  0  0  0  0  0  0  0  0  0  0
  153.4054  142.0481  158.1483 H   0  0  0  0  0  0  0  0  0  0  0  0
  152.7050  143.2203  159.3301 H   0  0  0  0  0  0  0  0  0  0  0  0
  151.1787  141.5332  160.1815 H   0  0  0  0  0  0  0  0  0  0  0  0
  152.2546  140.3284  159.3858 H   0  0  0  0  0  0  0  0  0  0  0  0
  151.3335  139.8317  153.8273 H   0  0  0  0  0  0  0  0  0  0  0  0
  151.4561  138.4991  154.9247 H   0  0  0  0  0  0  0  0  0  0  0  0
  148.9658  138.2761  154.9963 H   0  0  0  0  0  0  0  0  0  0  0  0
  149.5792  138.1473  153.3609 H   0  0  0  0  0  0  0  0  0  0  0  0
  147.3164  135.3151  151.7644 H   0  0  0  0  0  0  0  0  0  0  0  0
  147.4793  132.9700  151.2765 H   0  0  0  0  0  0  0  0  0  0  0  0
  146.2818  130.9797  150.3596 H   0  0  0  0  0  0  0  0  0  0  0  0
  142.5997  132.8094  150.7492 H   0  0  0  0  0  0  0  0  0  0  0  0
  143.5969  134.8702  151.6887 H   0  0  0  0  0  0  0  0  0  0  0  0
  148.9964  140.3950  152.9812 H   0  0  0  0  0  0  0  0  0  0  0  0
  1  2  2  0  0  0  0
  2  3  1  0  0  0  0
  2 18  1  0  0  0  0
  3  4  1  0  0  0  0
  3 25  1  0  0  0  0
  4  5  1  0  0  0  0
  4 26  1  0  0  0  0
  4 27  1  0  0  0  0
  5  6  1  0  0  0  0
  5 28  1  0  0  0  0
  5 29  1  0  0  0  0
  6 17  1  0  0  0  0
  6  7  1  0  0  0  0
  6 50  1  0  0  0  0
  7  8  1  0  0  0  0
  7 30  1  0  0  0  0
  7 31  1  0  0  0  0
  8  9  1  0  0  0  0
  8 32  1  0  0  0  0
  8 33  1  0  0  0  0
  9 10  1  0  0  0  0
  9 16  1  0  0  0  0
 10 11  2  0  0  0  0
 10 12  1  0  0  0  0
 12 15  1  0  0  0  0
 12 13  1  0  0  0  0
 12 34  1  0  0  0  0
 13 14  1  0  0  0  0
 13 35  1  0  0  0  0
 13 36  1  0  0  0  0
 14 15  1  0  0  0  0
 14 37  1  0  0  0  0
 14 38  1  0  0  0  0
 15 39  1  0  0  0  0
 15 40  1  0  0  0  0
 16 17  1  0  0  0  0
 16 41  1  0  0  0  0
 16 42  1  0  0  0  0
 17 43  1  0  0  0  0
 17 44  1  0  0  0  0
 18 19  1  0  0  0  0
 18 45  1  0  0  0  0
 19 24  1  0  0  0  0
 19 20  2  0  0  0  0
 20 21  1  0  0  0  0
 20 46  1  0  0  0  0
 21 22  2  0  0  0  0
 21 47  1  0  0  0  0
 22 23  1  0  0  0  0
 23 24  2  0  0  0  0
 23 48  1  0  0  0  0
 24 49  1  0  0  0  0
M  CHG  1   6   1
M  END
> <s_m_source_file>
AV-unprocessed.smi

> <i_m_source_file_index>
769

> <i_lp_mmshare_version>
43012

> <i_f3d_flags>
0

> <s_epik_input>
W2NIXTFbY0hdbltjSF1bY0hdYzFbTkhdQyg9TylbTkhdW0NIMl1bQ0gyXU4yW0NIMl1bQ0gyXU4oW0NIMl1bQ0gyXTIpQyg9TylbQ0hdM1tDSDJdW0NIMl1bQ0gyXTM=

> <s_epik_cmdline>
J2VwaWtfcHl0aG9uJywgJy1waCcsICc3LjAnLCAnLXRuJywgJzgnLCAnLW1hJywgJzIwMCcsICctbWV0YWxfYmluZGluZycsICctaW1hZScsICc8aW5maWxlLm1hZT4nLCAnLW9tYWUnLCAnPG91dGZpbGUubWFlPic=

> <r_epik_Ionization_Penalty>
0.680309

> <r_epik_Ionization_Penalty_Charging>
0.581996

> <r_epik_Ionization_Penalty_Neutral>
0.0983131

> <r_epik_State_Penalty>
0.686881

> <r_epik_Charging_Adjusted_Penalty>
1.26888

> <i_epik_Tot_Q>
1

> <i_epik_Tot_abs_Q>
1

> <r_epik_Metal_State_Penalty>
0.68612

> <b_epik_Metal_Only>
0

> <s_lp_Force_Field>
OPLS_2005

> <r_lp_Energy>
56.1037

> <b_lp_Chiralities_Consistent>
1

> <s_lp_Variant>
AV-unprocessed.smi:769-2

> <Gold.Version>
5.8.1

> <Gold.Id.Protein>
6NUR|6NUR_protein|mol2

> <Gold.PLP.Fitness>
54.6501

> <Gold.PLP.PLP>
-42.7942

> <Gold.PLP.part.hbond>
-2.8617

> <Gold.PLP.part.metal>
0.0000

> <Gold.PLP.part.buried>
-3.6814

> <Gold.PLP.part.nonpolar>
-36.0777

> <Gold.PLP.part.repulsive>
0.4306

> <Gold.PLP.ligand.clash>
0.0000

> <Gold.PLP.ligand.torsion>
1.2758

> <Gold.PLP.Chemscore.Hbond>
2.7440

> <Gold.PLP.Chemscore.CHOScore>
1.9004

> <Gold.PLP.Chemscore.Metal>
0.0000

> <Gold.Chemscore.Hbonds>
donor molecule, donor type, donor heavy atom, donor atom, acceptor molecule, acceptor atom, score
      L1  H     3    25       P1  7948  1.00
      L1  H     6    50       P1  7957  0.86
      L1  H    18    45       P1  7948  1.00
      L1  C    21    47       P1 10747  0.54
      L1  C    23    48       P1 10186  0.92

> <Gold.PLP.Chemscore.Internal.Correction>
0.4743

> <Gold.Rescore>
     Score         DG    S(hbond)    S(metal)    S(lipo)     H(rot)  DE(clash)    DE(int)     intcor
     20.55     -22.41       2.78        0.00     103.04       1.72       0.57       1.28       ----

> <Gold.Chemscore.Fitness>
20.5532

> <Gold.Chemscore.DG>
-22.4101

> <Gold.Chemscore.ZeroCoef>
-5.4800

> <Gold.Chemscore.Hbond>
2.7775

> <Gold.Chemscore.Metal>
0.0000

> <Gold.Chemscore.Lipo>
103.0364

> <Gold.Chemscore.Internal_Hbond>
0.0000

> <Gold.Chemscore.DEClash>
0.5740

> <Gold.Chemscore.DEInternal>
1.2829

> <Gold.Chemscore.Rot>
1.7195

> <Gold.Chemscore.Internal.Correction>
   9.000000E+99

> <Gold.Chemscore.Hbonds>
donor molecule, donor type, donor heavy atom, donor atom, acceptor molecule, acceptor atom, score
      L1  H     3    25       P1  7948  0.98
      L1  H     6    50       P1  7957  0.86
      L1  H    18    45       P1  7948  0.92

> <Gold.Chemscore.Hbond.Weighted>
-9.2769

> <Gold.Chemscore.Metal.Weighted>
-0.0000

> <Gold.Chemscore.Lipo.Weighted>
-12.0553

> <Gold.Chemscore.Internal_Hbond.Weighted>
0.0000

> <Gold.Chemscore.DEClash.Weighted>
0.5740

> <Gold.Chemscore.DEInternal.Weighted>
1.2829

> <Gold.Chemscore.Rot.Weighted>
4.4020

> <Gold.Chemscore.Internal.Correction.Weighted>
   9.000000E+99

> <Gold.Protein.RotatedTorsions>
[ 6907 6896 6895 6894 ] final   67.09 input  -60.11 | X-H torsion
[ 7974 7965 7964 7962 ] final  -64.28 input  175.53 | X-H torsion
[ 8008 7997 7996 7995 ] final  -63.44 input   59.86 | X-H torsion
[ 10167 10162 10161 10158 ] final   25.57 input  -65.29 | X-H torsion
[ 10718 10713 10712 10709 ] final  156.06 input   66.30 | X-H torsion
[ 10763 10752 10751 10750 ] final -118.29 input  -60.55 | X-H torsion
[ 11005 11000 10999 10996 ] final  -81.59 input  -57.11 | X-H torsion

> <Gold.Protein.ActiveResidues>
 VAL166  LYS551  ARG553  GLY616  TRP617  ASP618  TYR619  PRO620  LYS621  CYS622 
 ASP623  PHE694  ASN695  SER759  ASP760  ASP761  ALA762  ILE779  LEU786  VAL792 
 PHE793  MET794  SER795  GLU796  ALA797  LYS798  CYS799  TRP800  GLU811  SER814 

> <Gold.Protein.RotatedAtoms>
  152.4527  134.5358  159.9824 H   0  0  0  0  0  0  0  0  0  0  0  0  # atno 6907 bound_to 6896
  151.5426  133.3424  159.2946 H   0  0  0  0  0  0  0  0  0  0  0  0  # atno 6908 bound_to 6896
  150.8462  134.7802  159.7035 H   0  0  0  0  0  0  0  0  0  0  0  0  # atno 6909 bound_to 6896
  145.7686  140.8824  143.0392 H   0  0  0  0  0  0  0  0  0  0  0  0  # atno 7974 bound_to 7965
  154.4554  140.0975  156.6742 H   0  0  0  0  0  0  0  0  0  0  0  0  # atno 8008 bound_to 7997
  155.5154  140.3477  155.4378 H   0  0  0  0  0  0  0  0  0  0  0  0  # atno 8009 bound_to 7997
  156.0767  140.1363  156.9751 H   0  0  0  0  0  0  0  0  0  0  0  0  # atno 8010 bound_to 7997
  140.5095  144.0183  150.6366 H   0  0  0  0  0  0  0  0  0  0  0  0  # atno 10167 bound_to 10162
  157.2100  131.0695  151.1975 H   0  0  0  0  0  0  0  0  0  0  0  0  # atno 10718 bound_to 10713
  154.8583  135.4279  154.2116 H   0  0  0  0  0  0  0  0  0  0  0  0  # atno 10763 bound_to 10752
  153.3140  135.6977  153.7095 H   0  0  0  0  0  0  0  0  0  0  0  0  # atno 10764 bound_to 10752
  153.6177  135.3508  155.2974 H   0  0  0  0  0  0  0  0  0  0  0  0  # atno 10765 bound_to 10752
  141.1666  133.7204  156.8445 H   0  0  0  0  0  0  0  0  0  0  0  0  # atno 11005 bound_to 11000
  144.6817  139.9824  143.7483 LP  0  0  0  0  0  0  0  0  0  0  0  0  # atno 17320 bound_to 7965
  146.0192  139.3236  143.0823 LP  0  0  0  0  0  0  0  0  0  0  0  0  # atno 17321 bound_to 7965
  140.3502  143.2967  152.0495 LP  0  0  0  0  0  0  0  0  0  0  0  0  # atno 17342 bound_to 10162
  139.4892  144.6379  151.6937 LP  0  0  0  0  0  0  0  0  0  0  0  0  # atno 17343 bound_to 10162
  157.3682  130.7167  149.6547 LP  0  0  0  0  0  0  0  0  0  0  0  0  # atno 17370 bound_to 10713
  155.9691  130.4206  150.4431 LP  0  0  0  0  0  0  0  0  0  0  0  0  # atno 17371 bound_to 10713
  140.1960  134.8932  157.3114 LP  0  0  0  0  0  0  0  0  0  0  0  0  # atno 17394 bound_to 11000
  140.2239  134.3990  155.7553 LP  0  0  0  0  0  0  0  0  0  0  0  0  # atno 17395 bound_to 11000

$$$$
