AV-unprocessed.smi:2202|AV-procd|sdf|8931|dock1
  -GOLD-   2272012143D 1   1.00000     0.00000
 Structure written by MMmdl.
 42 44  0  0  0  0  0  0  0  0  1 V2000
  151.0099  136.2172  156.6083 O   0  0  0  0  0  0  0  0  0  0  0  0
  150.7796  136.6319  155.4712 C   0  0  0  0  0  0  0  0  0  0  0  0
  151.5526  137.8261  154.8933 C   0  0  0  0  0  0  0  0  0  0  0  0
  151.5969  138.9822  155.7978 N   0  0  0  0  0  0  0  0  0  0  0  0
  151.0590  140.1860  155.5193 C   0  0  0  0  0  0  0  0  0  0  0  0
  150.3965  140.4947  154.5294 O   0  0  0  0  0  0  0  0  0  0  0  0
  151.4630  141.1705  156.6064 C   0  0  1  0  0  0  0  0  0  0  0  0
  150.5381  142.2918  157.0947 C   0  0  0  0  0  0  0  0  0  0  0  0
  151.1601  142.9053  158.3536 C   0  0  0  0  0  0  0  0  0  0  0  0
  152.1469  142.3135  159.0707 C   0  0  0  0  0  0  0  0  0  0  0  0
  152.7348  140.9387  158.7353 C   0  0  0  0  0  0  0  0  0  0  0  0
  151.7807  140.2395  157.7595 C   0  0  2  0  0  0  0  0  0  0  0  0
  152.1448  138.9562  157.0290 C   0  0  0  0  0  0  0  0  0  0  0  0
  152.7804  138.0350  157.5409 O   0  0  0  0  0  0  0  0  0  0  0  0
  149.8522  136.0906  154.6673 N   0  0  0  0  0  0  0  0  0  0  0  0
  149.0151  134.9458  155.0080 C   0  0  0  0  0  0  0  0  0  0  0  0
  149.2347  133.7752  154.0346 C   0  0  0  0  0  0  0  0  0  0  0  0
  147.9312  133.2466  153.4665 C   0  0  0  0  0  0  0  0  0  0  0  0
  147.7209  133.1947  152.0718 C   0  0  0  0  0  0  0  0  0  0  0  0
  146.4912  132.6984  151.5971 C   0  0  0  0  0  0  0  0  0  0  0  0
  145.5241  132.2768  152.5299 C   0  0  0  0  0  0  0  0  0  0  0  0
  145.8307  132.3714  153.9021 C   0  0  0  0  0  0  0  0  0  0  0  0
  147.0063  132.8457  154.3678 N   0  0  0  0  0  0  0  0  0  0  0  0
  152.5698  137.5113  154.6527 H   0  0  0  0  0  0  0  0  0  0  0  0
  151.0956  138.1071  153.9431 H   0  0  0  0  0  0  0  0  0  0  0  0
  152.3855  141.6343  156.2488 H   0  0  0  0  0  0  0  0  0  0  0  0
  150.4397  143.0603  156.3274 H   0  0  0  0  0  0  0  0  0  0  0  0
  149.5379  141.9209  157.3217 H   0  0  0  0  0  0  0  0  0  0  0  0
  150.7761  143.8660  158.6641 H   0  0  0  0  0  0  0  0  0  0  0  0
  152.5554  142.8169  159.9346 H   0  0  0  0  0  0  0  0  0  0  0  0
  153.7319  141.0583  158.3102 H   0  0  0  0  0  0  0  0  0  0  0  0
  152.8333  140.3536  159.6501 H   0  0  0  0  0  0  0  0  0  0  0  0
  150.8616  140.0094  158.3039 H   0  0  0  0  0  0  0  0  0  0  0  0
  149.7225  136.4953  153.7513 H   0  0  0  0  0  0  0  0  0  0  0  0
  149.2090  134.6338  156.0358 H   0  0  0  0  0  0  0  0  0  0  0  0
  147.9735  135.2660  154.9722 H   0  0  0  0  0  0  0  0  0  0  0  0
  149.8818  134.0897  153.2146 H   0  0  0  0  0  0  0  0  0  0  0  0
  149.7539  132.9571  154.5362 H   0  0  0  0  0  0  0  0  0  0  0  0
  148.4816  133.5272  151.3808 H   0  0  0  0  0  0  0  0  0  0  0  0
  146.2934  132.6425  150.5368 H   0  0  0  0  0  0  0  0  0  0  0  0
  144.5702  131.8910  152.2022 H   0  0  0  0  0  0  0  0  0  0  0  0
  145.1126  132.0581  154.6454 H   0  0  0  0  0  0  0  0  0  0  0  0
  1  2  2  0  0  0  0
  2  3  1  0  0  0  0
  2 15  1  0  0  0  0
  3  4  1  0  0  0  0
  3 24  1  0  0  0  0
  3 25  1  0  0  0  0
  4 13  1  0  0  0  0
  4  5  1  0  0  0  0
  5  6  2  0  0  0  0
  5  7  1  0  0  0  0
  7 12  1  0  0  0  0
  7  8  1  0  0  0  0
  7 26  1  0  0  0  0
  8  9  1  0  0  0  0
  8 27  1  0  0  0  0
  8 28  1  0  0  0  0
  9 10  2  0  0  0  0
  9 29  1  0  0  0  0
 10 11  1  0  0  0  0
 10 30  1  0  0  0  0
 11 12  1  0  0  0  0
 11 31  1  0  0  0  0
 11 32  1  0  0  0  0
 12 13  1  0  0  0  0
 12 33  1  0  0  0  0
 13 14  2  0  0  0  0
 15 16  1  0  0  0  0
 15 34  1  0  0  0  0
 16 17  1  0  0  0  0
 16 35  1  0  0  0  0
 16 36  1  0  0  0  0
 17 18  1  0  0  0  0
 17 37  1  0  0  0  0
 17 38  1  0  0  0  0
 18 23  1  0  0  0  0
 18 19  2  0  0  0  0
 19 20  1  0  0  0  0
 19 39  1  0  0  0  0
 20 21  2  0  0  0  0
 20 40  1  0  0  0  0
 21 22  1  0  0  0  0
 21 41  1  0  0  0  0
 22 23  2  0  0  0  0
 22 42  1  0  0  0  0
M  END
> <s_m_source_file>
AV-unprocessed.smi

> <i_m_source_file_index>
2202

> <i_lp_mmshare_version>
43012

> <i_f3d_flags>
0

> <s_epik_input>
W0NIMl0xW0NIXT1bQ0hdW0NIMl1bQ0BIXShbQ0BIXTEyKUMoPU8pTihDMj1PKVtDSDJdQyg9TylbTkhdW0NIMl1bQ0gyXWMzW2NIXVtjSF1bY0hdW2NIXW4z

> <s_epik_cmdline>
J2VwaWtfcHl0aG9uJywgJy1waCcsICc3LjAnLCAnLXRuJywgJzgnLCAnLW1hJywgJzIwMCcsICctbWV0YWxfYmluZGluZycsICctaW1hZScsICc8aW5maWxlLm1hZT4nLCAnLW9tYWUnLCAnPG91dGZpbGUubWFlPic=

> <r_lp_tautomer_probability>
1

> <r_epik_Ionization_Penalty>
0.0244696

> <r_epik_Ionization_Penalty_Charging>
0

> <r_epik_Ionization_Penalty_Neutral>
0.0244696

> <r_epik_State_Penalty>
0.0198648

> <r_epik_Charging_Adjusted_Penalty>
0.0198648

> <i_epik_Tot_Q>
0

> <i_epik_Tot_abs_Q>
0

> <r_epik_Metal_State_Penalty>
0.0190699

> <b_epik_Metal_Only>
0

> <s_lp_Force_Field>
OPLS_2005

> <r_lp_Energy>
20.8302

> <b_lp_Chiralities_Consistent>
1

> <s_lp_Variant>
AV-unprocessed.smi:2202-3

> <Gold.Version>
5.8.1

> <Gold.Id.Protein>
6NUR|6NUR_protein|mol2

> <Gold.PLP.Fitness>
44.8684

> <Gold.PLP.PLP>
-37.0401

> <Gold.PLP.part.hbond>
-2.0000

> <Gold.PLP.part.metal>
0.0000

> <Gold.PLP.part.buried>
-2.7180

> <Gold.PLP.part.nonpolar>
-32.2655

> <Gold.PLP.part.repulsive>
0.1985

> <Gold.PLP.ligand.clash>
0.0000

> <Gold.PLP.ligand.torsion>
0.4735

> <Gold.PLP.Chemscore.Hbond>
1.9360

> <Gold.PLP.Chemscore.CHOScore>
0.9793

> <Gold.PLP.Chemscore.Metal>
0.0000

> <Gold.Chemscore.Hbonds>
donor molecule, donor type, donor heavy atom, donor atom, acceptor molecule, acceptor atom, score
      L1  H    15    34       P1  7948  0.93
      P1  H  7989  7998       L1     6  0.98
      L1  C    22    42       P1 10957  1.00

> <Gold.PLP.Chemscore.Internal.Correction>
0.0293

> <Gold.Rescore>
     Score         DG    S(hbond)    S(metal)    S(lipo)     H(rot)  DE(clash)    DE(int)     intcor
     13.00     -16.12       1.57        0.00      86.53       1.85       0.00       3.11       ----

> <Gold.Chemscore.Fitness>
13.0014

> <Gold.Chemscore.DG>
-16.1180

> <Gold.Chemscore.ZeroCoef>
-5.4800

> <Gold.Chemscore.Hbond>
1.5748

> <Gold.Chemscore.Metal>
0.0000

> <Gold.Chemscore.Lipo>
86.5321

> <Gold.Chemscore.Internal_Hbond>
0.0000

> <Gold.Chemscore.DEClash>
0.0044

> <Gold.Chemscore.DEInternal>
3.1122

> <Gold.Chemscore.Rot>
1.8540

> <Gold.Chemscore.Internal.Correction>
   9.000000E+99

> <Gold.Chemscore.Hbonds>
donor molecule, donor type, donor heavy atom, donor atom, acceptor molecule, acceptor atom, score
      L1  H    15    34       P1  7948  0.42
      P1  H  7989  7998       L1     6  0.24

> <Gold.Chemscore.Hbond.Weighted>
-5.2600

> <Gold.Chemscore.Metal.Weighted>
-0.0000

> <Gold.Chemscore.Lipo.Weighted>
-10.1243

> <Gold.Chemscore.Internal_Hbond.Weighted>
0.0000

> <Gold.Chemscore.DEClash.Weighted>
0.0044

> <Gold.Chemscore.DEInternal.Weighted>
3.1122

> <Gold.Chemscore.Rot.Weighted>
4.7462

> <Gold.Chemscore.Internal.Correction.Weighted>
   9.000000E+99

> <Gold.Protein.RotatedTorsions>
[ 6907 6896 6895 6894 ] final   30.50 input  -60.11 | X-H torsion
[ 7974 7965 7964 7962 ] final -150.10 input  175.53 | X-H torsion
[ 8008 7997 7996 7995 ] final  112.64 input   59.86 | X-H torsion
[ 10167 10162 10161 10158 ] final  111.43 input  -65.29 | X-H torsion
[ 10718 10713 10712 10709 ] final   82.20 input   66.30 | X-H torsion
[ 10763 10752 10751 10750 ] final -162.95 input  -60.55 | X-H torsion
[ 11005 11000 10999 10996 ] final  -34.35 input  -57.11 | X-H torsion

> <Gold.Protein.ActiveResidues>
 VAL166  LYS551  ARG553  GLY616  TRP617  ASP618  TYR619  PRO620  LYS621  CYS622 
 ASP623  PHE694  ASN695  SER759  ASP760  ASP761  ALA762  ILE779  LEU786  VAL792 
 PHE793  MET794  SER795  GLU796  ALA797  LYS798  CYS799  TRP800  GLU811  SER814 

> <Gold.Protein.RotatedAtoms>
  152.0469  134.9677  160.0574 H   0  0  0  0  0  0  0  0  0  0  0  0  # atno 6907 bound_to 6896
  152.1094  133.4287  159.4632 H   0  0  0  0  0  0  0  0  0  0  0  0  # atno 6908 bound_to 6896
  150.6843  134.2585  159.4583 H   0  0  0  0  0  0  0  0  0  0  0  0  # atno 6909 bound_to 6896
  144.7928  140.4977  143.5761 H   0  0  0  0  0  0  0  0  0  0  0  0  # atno 7974 bound_to 7965
  156.2205  140.2995  155.9942 H   0  0  0  0  0  0  0  0  0  0  0  0  # atno 8008 bound_to 7997
  155.2493  140.0425  157.3002 H   0  0  0  0  0  0  0  0  0  0  0  0  # atno 8009 bound_to 7997
  154.5834  140.2381  155.8030 H   0  0  0  0  0  0  0  0  0  0  0  0  # atno 8010 bound_to 7997
  139.6612  144.7128  151.1862 H   0  0  0  0  0  0  0  0  0  0  0  0  # atno 10167 bound_to 10162
  157.6851  131.0037  150.2339 H   0  0  0  0  0  0  0  0  0  0  0  0  # atno 10718 bound_to 10713
  154.7167  135.3017  154.9112 H   0  0  0  0  0  0  0  0  0  0  0  0  # atno 10763 bound_to 10752
  153.9997  135.6708  153.4762 H   0  0  0  0  0  0  0  0  0  0  0  0  # atno 10764 bound_to 10752
  153.0799  135.5014  154.8398 H   0  0  0  0  0  0  0  0  0  0  0  0  # atno 10765 bound_to 10752
  140.9709  133.7110  156.1523 H   0  0  0  0  0  0  0  0  0  0  0  0  # atno 11005 bound_to 11000
  145.5751  139.1485  143.3267 LP  0  0  0  0  0  0  0  0  0  0  0  0  # atno 17320 bound_to 7965
  146.2186  140.5883  142.9027 LP  0  0  0  0  0  0  0  0  0  0  0  0  # atno 17321 bound_to 7965
  140.7581  143.5991  150.8718 LP  0  0  0  0  0  0  0  0  0  0  0  0  # atno 17342 bound_to 10162
  139.9649  143.6122  152.2991 LP  0  0  0  0  0  0  0  0  0  0  0  0  # atno 17343 bound_to 10162
  156.2966  130.3753  149.7790 LP  0  0  0  0  0  0  0  0  0  0  0  0  # atno 17370 bound_to 10713
  156.5433  130.8309  151.3276 LP  0  0  0  0  0  0  0  0  0  0  0  0  # atno 17371 bound_to 10713
  140.7330  134.4234  157.5564 LP  0  0  0  0  0  0  0  0  0  0  0  0  # atno 17394 bound_to 11000
  139.8912  134.8786  156.2332 LP  0  0  0  0  0  0  0  0  0  0  0  0  # atno 17395 bound_to 11000

$$$$
