AV-unprocessed.smi:1392|AV-procd|sdf|5662|dock4
  -GOLD-   22720 5283D 1   1.00000     0.00000
 Structure written by MMmdl.
 39 40  0  0  0  0  0  0  0  0  1 V2000
  151.7763  144.2167  157.7218 C   0  0  0  0  0  0  0  0  0  0  0  0
  151.4157  144.2541  159.1335 N   0  0  0  0  0  0  0  0  0  0  0  0
  150.2305  144.9901  159.5617 C   0  0  0  0  0  0  0  0  0  0  0  0
  152.1706  143.5243  160.0802 C   0  0  0  0  0  0  0  0  0  0  0  0
  152.0832  143.8002  161.4672 C   0  0  0  0  0  0  0  0  0  0  0  0
  152.8589  143.0462  162.3680 C   0  0  0  0  0  0  0  0  0  0  0  0
  153.7108  142.0405  161.8733 C   0  0  0  0  0  0  0  0  0  0  0  0
  154.4690  141.2877  162.8108 N   0  0  0  0  0  0  0  0  0  0  0  0
  155.0440  140.0833  162.6510 C   0  0  0  0  0  0  0  0  0  0  0  0
  155.0315  139.4178  161.6159 O   0  0  0  0  0  0  0  0  0  0  0  0
  155.6623  139.6904  163.7734 N   0  0  0  0  0  0  0  0  0  0  0  0
  156.3853  138.4334  163.9359 C   0  0  0  0  0  0  0  0  0  0  0  0
  155.4775  137.3086  164.4686 C   0  0  1  0  0  0  0  0  0  0  0  0
  154.2762  137.0203  163.5925 C   0  0  0  0  0  0  0  0  0  0  0  0
  153.8638  135.6354  164.0792 C   0  0  0  0  0  0  0  0  0  0  0  0
  155.0754  134.9808  164.4428 O   0  0  0  0  0  0  0  0  0  0  0  0
  156.1358  135.9286  164.5352 C   0  0  0  0  0  0  0  0  0  0  0  0
  153.7240  141.8252  160.4753 C   0  0  0  0  0  0  0  0  0  0  0  0
  152.9803  142.5447  159.6088 N   0  0  0  0  0  0  0  0  0  0  0  0
  152.7623  144.6557  157.5672 H   0  0  0  0  0  0  0  0  0  0  0  0
  151.0642  144.7771  157.1156 H   0  0  0  0  0  0  0  0  0  0  0  0
  151.7879  143.1900  157.3546 H   0  0  0  0  0  0  0  0  0  0  0  0
  150.4871  145.7162  160.3337 H   0  0  0  0  0  0  0  0  0  0  0  0
  149.4807  144.3077  159.9632 H   0  0  0  0  0  0  0  0  0  0  0  0
  149.7785  145.5342  158.7324 H   0  0  0  0  0  0  0  0  0  0  0  0
  151.4371  144.5713  161.8583 H   0  0  0  0  0  0  0  0  0  0  0  0
  152.7998  143.2446  163.4284 H   0  0  0  0  0  0  0  0  0  0  0  0
  154.6340  141.7429  163.6964 H   0  0  0  0  0  0  0  0  0  0  0  0
  155.6287  140.3027  164.5754 H   0  0  0  0  0  0  0  0  0  0  0  0
  156.8348  138.1378  162.9865 H   0  0  0  0  0  0  0  0  0  0  0  0
  157.2117  138.6071  164.6254 H   0  0  0  0  0  0  0  0  0  0  0  0
  155.1160  137.5705  165.4647 H   0  0  0  0  0  0  0  0  0  0  0  0
  153.4819  137.7602  163.6955 H   0  0  0  0  0  0  0  0  0  0  0  0
  154.5689  136.9754  162.5424 H   0  0  0  0  0  0  0  0  0  0  0  0
  153.2333  135.7170  164.9656 H   0  0  0  0  0  0  0  0  0  0  0  0
  153.3156  135.0729  163.3234 H   0  0  0  0  0  0  0  0  0  0  0  0
  156.8038  135.7764  163.6865 H   0  0  0  0  0  0  0  0  0  0  0  0
  156.7144  135.7885  165.4487 H   0  0  0  0  0  0  0  0  0  0  0  0
  154.3207  141.0515  160.0189 H   0  0  0  0  0  0  0  0  0  0  0  0
  1  2  1  0  0  0  0
  1 20  1  0  0  0  0
  1 21  1  0  0  0  0
  1 22  1  0  0  0  0
  2  3  1  0  0  0  0
  2  4  1  0  0  0  0
  3 23  1  0  0  0  0
  3 24  1  0  0  0  0
  3 25  1  0  0  0  0
  4 19  1  0  0  0  0
  4  5  2  0  0  0  0
  5  6  1  0  0  0  0
  5 26  1  0  0  0  0
  6  7  2  0  0  0  0
  6 27  1  0  0  0  0
  7  8  1  0  0  0  0
  7 18  1  0  0  0  0
  8  9  1  0  0  0  0
  8 28  1  0  0  0  0
  9 10  2  0  0  0  0
  9 11  1  0  0  0  0
 11 12  1  0  0  0  0
 11 29  1  0  0  0  0
 12 13  1  0  0  0  0
 12 30  1  0  0  0  0
 12 31  1  0  0  0  0
 13 17  1  0  0  0  0
 13 14  1  0  0  0  0
 13 32  1  0  0  0  0
 14 15  1  0  0  0  0
 14 33  1  0  0  0  0
 14 34  1  0  0  0  0
 15 16  1  0  0  0  0
 15 35  1  0  0  0  0
 15 36  1  0  0  0  0
 16 17  1  0  0  0  0
 17 37  1  0  0  0  0
 17 38  1  0  0  0  0
 18 19  2  0  0  0  0
 18 39  1  0  0  0  0
M  END
> <s_m_source_file>
AV-unprocessed.smi

> <i_m_source_file_index>
1392

> <i_lp_mmshare_version>
43012

> <i_f3d_flags>
0

> <s_epik_input>
W0NIM11OKFtDSDNdKWMxW2NIXVtjSF1jKFtjSF1uMSlbTkhdQyg9TylbTkhdW0NIMl1bQ0BASF0yW0NIMl1bQ0gyXU9bQ0gyXTI=

> <s_epik_cmdline>
J2VwaWtfcHl0aG9uJywgJy1waCcsICc3LjAnLCAnLXRuJywgJzgnLCAnLW1hJywgJzIwMCcsICctbWV0YWxfYmluZGluZycsICctaW1hZScsICc8aW5maWxlLm1hZT4nLCAnLW9tYWUnLCAnPG91dGZpbGUubWFlPic=

> <r_lp_tautomer_probability>
1

> <r_epik_Ionization_Penalty>
0.612298

> <r_epik_Ionization_Penalty_Charging>
0

> <r_epik_Ionization_Penalty_Neutral>
0.612298

> <r_epik_State_Penalty>
0.626495

> <r_epik_Charging_Adjusted_Penalty>
0.626495

> <i_epik_Tot_Q>
0

> <i_epik_Tot_abs_Q>
0

> <r_epik_Metal_State_Penalty>
0.304101

> <b_epik_Metal_Only>
0

> <s_lp_Force_Field>
OPLS_2005

> <r_lp_Energy>
23.0629

> <b_lp_Chiralities_Consistent>
1

> <s_lp_Variant>
AV-unprocessed.smi:1392-4

> <Gold.Version>
5.8.1

> <Gold.Id.Protein>
6NUR|6NUR_protein|mol2

> <Gold.PLP.Fitness>
44.1703

> <Gold.PLP.PLP>
-45.0108

> <Gold.PLP.part.hbond>
-1.0000

> <Gold.PLP.part.metal>
0.0000

> <Gold.PLP.part.buried>
-5.9902

> <Gold.PLP.part.nonpolar>
-37.1125

> <Gold.PLP.part.repulsive>
0.1016

> <Gold.PLP.ligand.clash>
0.0000

> <Gold.PLP.ligand.torsion>
0.4277

> <Gold.PLP.Chemscore.Hbond>
0.0000

> <Gold.PLP.Chemscore.CHOScore>
0.0000

> <Gold.PLP.Chemscore.Metal>
0.0000

> <Gold.PLP.Chemscore.Internal.Correction>
0.0150

> <Gold.Rescore>
     Score         DG    S(hbond)    S(metal)    S(lipo)     H(rot)  DE(clash)    DE(int)     intcor
     13.04     -14.61       0.00        0.00     104.57       1.21       0.24       1.32       ----

> <Gold.Chemscore.Fitness>
13.0421

> <Gold.Chemscore.DG>
-14.6051

> <Gold.Chemscore.ZeroCoef>
-5.4800

> <Gold.Chemscore.Hbond>
0.0000

> <Gold.Chemscore.Metal>
0.0000

> <Gold.Chemscore.Lipo>
104.5677

> <Gold.Chemscore.Internal_Hbond>
0.0000

> <Gold.Chemscore.DEClash>
0.2407

> <Gold.Chemscore.DEInternal>
1.3223

> <Gold.Chemscore.Rot>
1.2146

> <Gold.Chemscore.Internal.Correction>
   9.000000E+99

> <Gold.Chemscore.Hbond.Weighted>
-0.0000

> <Gold.Chemscore.Metal.Weighted>
-0.0000

> <Gold.Chemscore.Lipo.Weighted>
-12.2344

> <Gold.Chemscore.Internal_Hbond.Weighted>
0.0000

> <Gold.Chemscore.DEClash.Weighted>
0.2407

> <Gold.Chemscore.DEInternal.Weighted>
1.3223

> <Gold.Chemscore.Rot.Weighted>
3.1093

> <Gold.Chemscore.Internal.Correction.Weighted>
   9.000000E+99

> <Gold.Protein.RotatedTorsions>
[ 6907 6896 6895 6894 ] final -147.09 input  -60.11 | X-H torsion
[ 7974 7965 7964 7962 ] final -143.48 input  175.53 | X-H torsion
[ 8008 7997 7996 7995 ] final   66.16 input   59.86 | X-H torsion
[ 10167 10162 10161 10158 ] final   -5.55 input  -65.29 | X-H torsion
[ 10718 10713 10712 10709 ] final  -57.42 input   66.30 | X-H torsion
[ 10763 10752 10751 10750 ] final   22.44 input  -60.55 | X-H torsion
[ 11005 11000 10999 10996 ] final   -8.57 input  -57.11 | X-H torsion

> <Gold.Protein.ActiveResidues>
 VAL166  LYS551  ARG553  GLY616  TRP617  ASP618  TYR619  PRO620  LYS621  CYS622 
 ASP623  PHE694  ASN695  SER759  ASP760  ASP761  ALA762  ILE779  LEU786  VAL792 
 PHE793  MET794  SER795  GLU796  ALA797  LYS798  CYS799  TRP800  GLU811  SER814 

> <Gold.Protein.RotatedAtoms>
  151.1508  133.4908  159.2595 H   0  0  0  0  0  0  0  0  0  0  0  0  # atno 6907 bound_to 6896
  151.1555  135.0248  159.8697 H   0  0  0  0  0  0  0  0  0  0  0  0  # atno 6908 bound_to 6896
  152.5463  134.1388  159.8523 H   0  0  0  0  0  0  0  0  0  0  0  0  # atno 6909 bound_to 6896
  144.8367  140.5830  143.5479 H   0  0  0  0  0  0  0  0  0  0  0  0  # atno 7974 bound_to 7965
  155.6731  140.3497  155.4826 H   0  0  0  0  0  0  0  0  0  0  0  0  # atno 8008 bound_to 7997
  155.9671  140.1148  157.0867 H   0  0  0  0  0  0  0  0  0  0  0  0  # atno 8009 bound_to 7997
  154.4157  140.1164  156.5243 H   0  0  0  0  0  0  0  0  0  0  0  0  # atno 8010 bound_to 7997
  140.6967  143.6296  150.8536 H   0  0  0  0  0  0  0  0  0  0  0  0  # atno 10167 bound_to 10162
  156.1212  130.4166  150.0438 H   0  0  0  0  0  0  0  0  0  0  0  0  # atno 10718 bound_to 10713
  153.0916  135.6648  153.9844 H   0  0  0  0  0  0  0  0  0  0  0  0  # atno 10763 bound_to 10752
  153.9439  135.2991  155.3443 H   0  0  0  0  0  0  0  0  0  0  0  0  # atno 10764 bound_to 10752
  154.7330  135.5114  153.9069 H   0  0  0  0  0  0  0  0  0  0  0  0  # atno 10765 bound_to 10752
  140.7249  133.8797  155.8849 H   0  0  0  0  0  0  0  0  0  0  0  0  # atno 11005 bound_to 11000
  145.4781  139.1497  143.3777 LP  0  0  0  0  0  0  0  0  0  0  0  0  # atno 17320 bound_to 7965
  146.2664  140.4916  142.8832 LP  0  0  0  0  0  0  0  0  0  0  0  0  # atno 17321 bound_to 7965
  140.0014  143.5740  152.2874 LP  0  0  0  0  0  0  0  0  0  0  0  0  # atno 17342 bound_to 10162
  139.6431  144.7656  151.2299 LP  0  0  0  0  0  0  0  0  0  0  0  0  # atno 17343 bound_to 10162
  156.8375  130.9414  151.3634 LP  0  0  0  0  0  0  0  0  0  0  0  0  # atno 17370 bound_to 10713
  157.6396  130.8794  149.9423 LP  0  0  0  0  0  0  0  0  0  0  0  0  # atno 17371 bound_to 10713
  140.9971  134.1200  157.4353 LP  0  0  0  0  0  0  0  0  0  0  0  0  # atno 17394 bound_to 11000
  139.8839  135.0057  156.6335 LP  0  0  0  0  0  0  0  0  0  0  0  0  # atno 17395 bound_to 11000

$$$$
