AV-unprocessed.smi:1414|AV-procd|sdf|5762|dock9
  -GOLD-   22720 5403D 1   1.00000     0.00000
 Structure written by MMmdl.
 45 46  0  0  0  0  0  0  0  0  1 V2000
  153.7767  141.0340  160.1287 C   0  0  0  0  0  0  0  0  0  0  0  0
  152.8425  141.0276  158.9137 C   0  0  1  0  0  0  0  0  0  0  0  0
  152.6603  139.6149  158.3388 C   0  0  0  0  0  0  0  0  0  0  0  0
  151.6548  139.6053  157.2668 N   0  0  0  0  0  0  0  0  0  0  0  0
  152.0630  139.0807  155.6624 S   0  0  0  0  0  0  0  0  0  0  0  0
  151.2670  139.8926  154.7292 O   0  0  0  0  0  0  0  0  0  0  0  0
  153.5303  139.0681  155.5536 O   0  0  0  0  0  0  0  0  0  0  0  0
  151.4277  137.3459  155.5870 C   0  0  0  0  0  0  0  0  0  0  0  0
  149.8941  137.2924  155.4738 C   0  0  0  0  0  0  0  0  0  0  0  0
  149.4456  136.2102  154.6040 N   0  0  0  0  0  0  0  0  0  0  0  0
  149.5452  134.8998  154.8667 C   0  0  0  0  0  0  0  0  0  0  0  0
  150.0278  134.4472  155.9034 O   0  0  0  0  0  0  0  0  0  0  0  0
  149.0733  134.1630  153.8468 N   0  0  0  0  0  0  0  0  0  0  0  0
  148.9744  132.7486  153.7599 C   0  0  0  0  0  0  0  0  0  0  0  0
  149.9873  131.9720  154.3590 C   0  0  0  0  0  0  0  0  0  0  0  0
  149.9202  130.5688  154.2662 C   0  0  0  0  0  0  0  0  0  0  0  0
  148.8424  129.9947  153.5645 C   0  0  0  0  0  0  0  0  0  0  0  0
  147.8735  130.7236  152.9714 N   0  0  0  0  0  0  0  0  0  0  0  0
  147.9422  132.0689  153.0668 C   0  0  0  0  0  0  0  0  0  0  0  0
  150.3968  140.3191  157.5489 C   0  0  0  0  0  0  0  0  0  0  0  0
  150.6172  141.6580  158.2859 C   0  0  2  0  0  0  0  0  0  0  0  0
  150.9407  142.8354  157.3539 C   0  0  0  0  0  0  0  0  0  0  0  0
  151.5792  141.5315  159.3305 O   0  0  0  0  0  0  0  0  0  0  0  0
  154.7666  140.6612  159.8645 H   0  0  0  0  0  0  0  0  0  0  0  0
  153.3866  140.4078  160.9317 H   0  0  0  0  0  0  0  0  0  0  0  0
  153.8963  142.0438  160.5220 H   0  0  0  0  0  0  0  0  0  0  0  0
  153.2786  141.6797  158.1574 H   0  0  0  0  0  0  0  0  0  0  0  0
  153.6126  139.2367  157.9675 H   0  0  0  0  0  0  0  0  0  0  0  0
  152.3322  138.9302  159.1216 H   0  0  0  0  0  0  0  0  0  0  0  0
  151.9225  136.8210  154.7706 H   0  0  0  0  0  0  0  0  0  0  0  0
  151.7360  136.8585  156.5120 H   0  0  0  0  0  0  0  0  0  0  0  0
  149.4569  137.1081  156.4549 H   0  0  0  0  0  0  0  0  0  0  0  0
  149.4955  138.2475  155.1313 H   0  0  0  0  0  0  0  0  0  0  0  0
  149.0364  136.4834  153.7224 H   0  0  0  0  0  0  0  0  0  0  0  0
  148.8011  134.6699  153.0174 H   0  0  0  0  0  0  0  0  0  0  0  0
  150.8035  132.4423  154.8879 H   0  0  0  0  0  0  0  0  0  0  0  0
  150.6771  129.9466  154.7206 H   0  0  0  0  0  0  0  0  0  0  0  0
  148.7598  128.9219  153.4722 H   0  0  0  0  0  0  0  0  0  0  0  0
  147.1569  132.5991  152.5508 H   0  0  0  0  0  0  0  0  0  0  0  0
  149.8296  140.4780  156.6319 H   0  0  0  0  0  0  0  0  0  0  0  0
  149.7872  139.6674  158.1752 H   0  0  0  0  0  0  0  0  0  0  0  0
  149.6781  141.9125  158.7780 H   0  0  0  0  0  0  0  0  0  0  0  0
  150.1370  142.9974  156.6354 H   0  0  0  0  0  0  0  0  0  0  0  0
  151.8519  142.6633  156.7884 H   0  0  0  0  0  0  0  0  0  0  0  0
  151.0685  143.7579  157.9200 H   0  0  0  0  0  0  0  0  0  0  0  0
  1  2  1  0  0  0  0
  1 24  1  0  0  0  0
  1 25  1  0  0  0  0
  1 26  1  0  0  0  0
  2 23  1  0  0  0  0
  2  3  1  0  0  0  0
  2 27  1  0  0  0  0
  3  4  1  0  0  0  0
  3 28  1  0  0  0  0
  3 29  1  0  0  0  0
  4  5  1  0  0  0  0
  4 20  1  0  0  0  0
  5  6  2  0  0  0  0
  5  7  2  0  0  0  0
  5  8  1  0  0  0  0
  8  9  1  0  0  0  0
  8 30  1  0  0  0  0
  8 31  1  0  0  0  0
  9 10  1  0  0  0  0
  9 32  1  0  0  0  0
  9 33  1  0  0  0  0
 10 11  1  0  0  0  0
 10 34  1  0  0  0  0
 11 12  2  0  0  0  0
 11 13  1  0  0  0  0
 13 14  1  0  0  0  0
 13 35  1  0  0  0  0
 14 19  1  0  0  0  0
 14 15  2  0  0  0  0
 15 16  1  0  0  0  0
 15 36  1  0  0  0  0
 16 17  2  0  0  0  0
 16 37  1  0  0  0  0
 17 18  1  0  0  0  0
 17 38  1  0  0  0  0
 18 19  2  0  0  0  0
 19 39  1  0  0  0  0
 20 21  1  0  0  0  0
 20 40  1  0  0  0  0
 20 41  1  0  0  0  0
 21 22  1  0  0  0  0
 21 23  1  0  0  0  0
 21 42  1  0  0  0  0
 22 43  1  0  0  0  0
 22 44  1  0  0  0  0
 22 45  1  0  0  0  0
M  END
> <s_m_source_file>
AV-unprocessed.smi

> <i_m_source_file_index>
1414

> <i_lp_mmshare_version>
43012

> <i_f3d_flags>
0

> <s_epik_input>
W0NIM11bQ0BASF0xW0NIMl1OKFtDSDJdW0NASF0oTzEpW0NIM10pUyg9TykoPU8pW0NIMl1bQ0gyXVtOSF1DKD1PKVtOSF1jMltjSF1bY0hdW2NIXW5bY0hdMg==

> <s_epik_cmdline>
J2VwaWtfcHl0aG9uJywgJy1waCcsICc3LjAnLCAnLXRuJywgJzgnLCAnLW1hJywgJzIwMCcsICctbWV0YWxfYmluZGluZycsICctaW1hZScsICc8aW5maWxlLm1hZT4nLCAnLW9tYWUnLCAnPG91dGZpbGUubWFlPic=

> <r_epik_Ionization_Penalty>
0.00437531

> <r_epik_Ionization_Penalty_Charging>
0

> <r_epik_Ionization_Penalty_Neutral>
0.00437531

> <r_epik_State_Penalty>
0.00312896

> <r_epik_Charging_Adjusted_Penalty>
0.00312896

> <i_epik_Tot_Q>
0

> <i_epik_Tot_abs_Q>
0

> <r_epik_Metal_State_Penalty>
-0

> <b_epik_Metal_Only>
0

> <s_lp_Force_Field>
OPLS_2005

> <r_lp_Energy>
7.0755

> <b_lp_Chiralities_Consistent>
1

> <s_lp_Variant>
AV-unprocessed.smi:1414-3

> <Gold.Version>
5.8.1

> <Gold.Id.Protein>
6NUR|6NUR_protein|mol2

> <Gold.PLP.Fitness>
48.6301

> <Gold.PLP.PLP>
-38.4269

> <Gold.PLP.part.hbond>
-3.7567

> <Gold.PLP.part.metal>
0.0000

> <Gold.PLP.part.buried>
-6.9721

> <Gold.PLP.part.nonpolar>
-28.9108

> <Gold.PLP.part.repulsive>
0.6097

> <Gold.PLP.ligand.clash>
0.0000

> <Gold.PLP.ligand.torsion>
1.8193

> <Gold.PLP.Chemscore.Hbond>
3.9040

> <Gold.PLP.Chemscore.CHOScore>
0.0000

> <Gold.PLP.Chemscore.Metal>
0.0000

> <Gold.Chemscore.Hbonds>
donor molecule, donor type, donor heavy atom, donor atom, acceptor molecule, acceptor atom, score
      L1  H    10    34       P1  7948  0.93
      L1  H    13    35       P1  7948  0.80
      P1  H  7989  7998       L1     6  1.00
      P1  H  7997  8008       L1     7  0.84

> <Gold.PLP.Chemscore.Internal.Correction>
2.1299

> <Gold.Rescore>
     Score         DG    S(hbond)    S(metal)    S(lipo)     H(rot)  DE(clash)    DE(int)     intcor
     18.68     -21.72       3.55        0.00      71.87       1.57       0.00       3.04       ----

> <Gold.Chemscore.Fitness>
18.6827

> <Gold.Chemscore.DG>
-21.7211

> <Gold.Chemscore.ZeroCoef>
-5.4800

> <Gold.Chemscore.Hbond>
3.5475

> <Gold.Chemscore.Metal>
0.0000

> <Gold.Chemscore.Lipo>
71.8666

> <Gold.Chemscore.Internal_Hbond>
0.0000

> <Gold.Chemscore.DEClash>
0.0000

> <Gold.Chemscore.DEInternal>
3.0383

> <Gold.Chemscore.Rot>
1.5687

> <Gold.Chemscore.Internal.Correction>
   9.000000E+99

> <Gold.Chemscore.Hbonds>
donor molecule, donor type, donor heavy atom, donor atom, acceptor molecule, acceptor atom, score
      L1  H    10    34       P1  7948  0.90
      L1  H    13    35       P1  7948  0.11
      P1  H  7989  7998       L1     6  0.99
      P1  H  7997  8008       L1     7  0.79

> <Gold.Chemscore.Hbond.Weighted>
-11.8486

> <Gold.Chemscore.Metal.Weighted>
-0.0000

> <Gold.Chemscore.Lipo.Weighted>
-8.4084

> <Gold.Chemscore.Internal_Hbond.Weighted>
0.0000

> <Gold.Chemscore.DEClash.Weighted>
0.0000

> <Gold.Chemscore.DEInternal.Weighted>
3.0383

> <Gold.Chemscore.Rot.Weighted>
4.0160

> <Gold.Chemscore.Internal.Correction.Weighted>
   9.000000E+99

> <Gold.Protein.RotatedTorsions>
[ 6907 6896 6895 6894 ] final   -7.57 input  -60.11 | X-H torsion
[ 7974 7965 7964 7962 ] final  153.10 input  175.53 | X-H torsion
[ 8008 7997 7996 7995 ] final  -28.95 input   59.86 | X-H torsion
[ 10167 10162 10161 10158 ] final  154.32 input  -65.29 | X-H torsion
[ 10718 10713 10712 10709 ] final  149.42 input   66.30 | X-H torsion
[ 10763 10752 10751 10750 ] final   29.64 input  -60.55 | X-H torsion
[ 11005 11000 10999 10996 ] final  110.76 input  -57.11 | X-H torsion

> <Gold.Protein.ActiveResidues>
 VAL166  LYS551  ARG553  GLY616  TRP617  ASP618  TYR619  PRO620  LYS621  CYS622 
 ASP623  PHE694  ASN695  SER759  ASP760  ASP761  ALA762  ILE779  LEU786  VAL792 
 PHE793  MET794  SER795  GLU796  ALA797  LYS798  CYS799  TRP800  GLU811  SER814 

> <Gold.Protein.RotatedAtoms>
  151.4474  135.1026  159.9687 H   0  0  0  0  0  0  0  0  0  0  0  0  # atno 6907 bound_to 6896
  152.4901  133.8472  159.7193 H   0  0  0  0  0  0  0  0  0  0  0  0  # atno 6908 bound_to 6896
  150.9046  133.7016  159.2897 H   0  0  0  0  0  0  0  0  0  0  0  0  # atno 6909 bound_to 6896
  144.8178  139.6755  143.6114 H   0  0  0  0  0  0  0  0  0  0  0  0  # atno 7974 bound_to 7965
  154.4310  140.1831  156.1171 H   0  0  0  0  0  0  0  0  0  0  0  0  # atno 8008 bound_to 7997
  156.0173  140.3344  155.6976 H   0  0  0  0  0  0  0  0  0  0  0  0  # atno 8009 bound_to 7997
  155.6027  140.0642  157.2719 H   0  0  0  0  0  0  0  0  0  0  0  0  # atno 8010 bound_to 7997
  139.4823  144.5196  151.7896 H   0  0  0  0  0  0  0  0  0  0  0  0  # atno 10167 bound_to 10162
  157.2963  131.0862  151.1424 H   0  0  0  0  0  0  0  0  0  0  0  0  # atno 10718 bound_to 10713
  153.0418  135.6484  154.0922 H   0  0  0  0  0  0  0  0  0  0  0  0  # atno 10763 bound_to 10752
  154.0627  135.2886  155.3323 H   0  0  0  0  0  0  0  0  0  0  0  0  # atno 10764 bound_to 10752
  154.6646  135.5378  153.8126 H   0  0  0  0  0  0  0  0  0  0  0  0  # atno 10765 bound_to 10752
  139.8889  134.9492  156.6329 H   0  0  0  0  0  0  0  0  0  0  0  0  # atno 11005 bound_to 11000
  146.2482  139.6142  142.9445 LP  0  0  0  0  0  0  0  0  0  0  0  0  # atno 17320 bound_to 7965
  145.5175  141.0433  143.2453 LP  0  0  0  0  0  0  0  0  0  0  0  0  # atno 17321 bound_to 7965
  140.4709  144.1588  150.5918 LP  0  0  0  0  0  0  0  0  0  0  0  0  # atno 17342 bound_to 10162
  140.4383  143.2537  151.9506 LP  0  0  0  0  0  0  0  0  0  0  0  0  # atno 17343 bound_to 10162
  157.2800  130.6745  149.6061 LP  0  0  0  0  0  0  0  0  0  0  0  0  # atno 17370 bound_to 10713
  155.9669  130.4453  150.5494 LP  0  0  0  0  0  0  0  0  0  0  0  0  # atno 17371 bound_to 10713
  140.7653  133.8783  155.8449 LP  0  0  0  0  0  0  0  0  0  0  0  0  # atno 17394 bound_to 11000
  140.9888  134.1307  157.4428 LP  0  0  0  0  0  0  0  0  0  0  0  0  # atno 17395 bound_to 11000

$$$$
