AV-unprocessed.smi:2289|AV-procd|sdf|9208|dock6
  -GOLD-   2272012423D 1   1.00000     0.00000
 Structure written by MMmdl.
 40 41  0  0  0  0  0  0  0  0  1 V2000
  144.9563  143.3260  154.6152 C   0  0  0  0  0  0  0  0  0  0  0  0
  146.1320  142.7704  155.3993 C   0  0  0  0  0  0  0  0  0  0  0  0
  147.1232  142.1443  154.6387 N   0  0  0  0  0  0  0  0  0  0  0  0
  148.1593  141.6375  155.2225 C   0  0  0  0  0  0  0  0  0  0  0  0
  148.3245  141.6922  156.6164 N   0  0  0  0  0  0  0  0  0  0  0  0
  149.5607  141.0776  157.1381 C   0  0  0  0  0  0  0  0  0  0  0  0
  150.5400  142.0726  157.8139 C   0  0  2  0  0  0  0  0  0  0  0  0
  151.0005  142.9938  156.8449 O   0  0  0  0  0  0  0  0  0  0  0  0
  151.7323  141.4449  158.5710 C   0  0  0  0  0  0  0  0  0  0  0  0
  152.2259  142.3091  159.7248 C   0  0  0  0  0  0  0  0  0  0  0  0
  151.6900  143.6094  159.8499 C   0  0  0  0  0  0  0  0  0  0  0  0
  152.0996  144.4599  160.8917 C   0  0  0  0  0  0  0  0  0  0  0  0
  153.0565  144.0155  161.8193 C   0  0  0  0  0  0  0  0  0  0  0  0
  153.6005  142.7233  161.7026 C   0  0  0  0  0  0  0  0  0  0  0  0
  153.1956  141.8535  160.6621 C   0  0  0  0  0  0  0  0  0  0  0  0
  153.8229  140.4607  160.5688 C   0  0  0  0  0  0  0  0  0  0  0  0
  154.6259  140.2128  161.6044 F   0  0  0  0  0  0  0  0  0  0  0  0
  152.8855  139.5134  160.5563 F   0  0  0  0  0  0  0  0  0  0  0  0
  154.5525  140.3686  159.4570 F   0  0  0  0  0  0  0  0  0  0  0  0
  147.4103  142.2969  157.4312 C   0  0  0  0  0  0  0  0  0  0  0  0
  147.5636  142.3508  158.6531 O   0  0  0  0  0  0  0  0  0  0  0  0
  146.2342  142.8657  156.7531 C   0  0  0  0  0  0  0  0  0  0  0  0
  145.1860  143.5363  157.6325 C   0  0  0  0  0  0  0  0  0  0  0  0
  144.8841  144.4054  154.7500 H   0  0  0  0  0  0  0  0  0  0  0  0
  144.0241  142.8688  154.9477 H   0  0  0  0  0  0  0  0  0  0  0  0
  145.0611  143.1282  153.5477 H   0  0  0  0  0  0  0  0  0  0  0  0
  148.9617  141.1391  154.6758 H   0  0  0  0  0  0  0  0  0  0  0  0
  149.3212  140.2569  157.8176 H   0  0  0  0  0  0  0  0  0  0  0  0
  150.0955  140.5842  156.3252 H   0  0  0  0  0  0  0  0  0  0  0  0
  149.9500  142.6574  158.5205 H   0  0  0  0  0  0  0  0  0  0  0  0
  150.2542  143.4432  156.4784 H   0  0  0  0  0  0  0  0  0  0  0  0
  151.4540  140.4706  158.9637 H   0  0  0  0  0  0  0  0  0  0  0  0
  152.5568  141.2490  157.8836 H   0  0  0  0  0  0  0  0  0  0  0  0
  150.9533  143.9595  159.1413 H   0  0  0  0  0  0  0  0  0  0  0  0
  151.6806  145.4518  160.9775 H   0  0  0  0  0  0  0  0  0  0  0  0
  153.3757  144.6662  162.6199 H   0  0  0  0  0  0  0  0  0  0  0  0
  154.3383  142.4104  162.4260 H   0  0  0  0  0  0  0  0  0  0  0  0
  144.7865  142.8215  158.3525 H   0  0  0  0  0  0  0  0  0  0  0  0
  144.3457  143.9380  157.0687 H   0  0  0  0  0  0  0  0  0  0  0  0
  145.6329  144.3618  158.1875 H   0  0  0  0  0  0  0  0  0  0  0  0
  1  2  1  0  0  0  0
  1 24  1  0  0  0  0
  1 25  1  0  0  0  0
  1 26  1  0  0  0  0
  2 22  2  0  0  0  0
  2  3  1  0  0  0  0
  3  4  2  0  0  0  0
  4  5  1  0  0  0  0
  4 27  1  0  0  0  0
  5  6  1  0  0  0  0
  5 20  1  0  0  0  0
  6  7  1  0  0  0  0
  6 28  1  0  0  0  0
  6 29  1  0  0  0  0
  7  8  1  0  0  0  0
  7  9  1  0  0  0  0
  7 30  1  0  0  0  0
  8 31  1  0  0  0  0
  9 10  1  0  0  0  0
  9 32  1  0  0  0  0
  9 33  1  0  0  0  0
 10 15  1  0  0  0  0
 10 11  2  0  0  0  0
 11 12  1  0  0  0  0
 11 34  1  0  0  0  0
 12 13  2  0  0  0  0
 12 35  1  0  0  0  0
 13 14  1  0  0  0  0
 13 36  1  0  0  0  0
 14 15  2  0  0  0  0
 14 37  1  0  0  0  0
 15 16  1  0  0  0  0
 16 17  1  0  0  0  0
 16 18  1  0  0  0  0
 16 19  1  0  0  0  0
 20 21  2  0  0  0  0
 20 22  1  0  0  0  0
 22 23  1  0  0  0  0
 23 38  1  0  0  0  0
 23 39  1  0  0  0  0
 23 40  1  0  0  0  0
M  END
> <s_m_source_file>
AV-unprocessed.smi

> <i_m_source_file_index>
2289

> <i_lp_mmshare_version>
43012

> <i_f3d_flags>
0

> <s_epik_input>
W0NIM11jMW5bY0hdbihjKD1PKWMxW0NIM10pW0NIMl1bQ0BIXShbT0hdKVtDSDJdYzJbY0hdW2NIXVtjSF1bY0hdYzJDKEYpKEYpRg==

> <s_epik_cmdline>
J2VwaWtfcHl0aG9uJywgJy1waCcsICc3LjAnLCAnLXRuJywgJzgnLCAnLW1hJywgJzIwMCcsICctbWV0YWxfYmluZGluZycsICctaW1hZScsICc8aW5maWxlLm1hZT4nLCAnLW9tYWUnLCAnPG91dGZpbGUubWFlPic=

> <r_lp_tautomer_probability>
1

> <r_epik_Ionization_Penalty>
8.92636e-05

> <r_epik_Ionization_Penalty_Charging>
8.63033e-08

> <r_epik_Ionization_Penalty_Neutral>
8.91773e-05

> <r_epik_State_Penalty>
-0

> <r_epik_Charging_Adjusted_Penalty>
8.63033e-08

> <i_epik_Tot_Q>
0

> <i_epik_Tot_abs_Q>
0

> <r_epik_Metal_State_Penalty>
-0

> <b_epik_Metal_Only>
0

> <s_lp_Force_Field>
OPLS_2005

> <r_lp_Energy>
23.7682

> <b_lp_Chiralities_Consistent>
1

> <s_lp_Variant>
AV-unprocessed.smi:2289-1

> <Gold.Version>
5.8.1

> <Gold.Id.Protein>
6NUR|6NUR_protein|mol2

> <Gold.PLP.Fitness>
46.2732

> <Gold.PLP.PLP>
-44.6118

> <Gold.PLP.part.hbond>
-0.9941

> <Gold.PLP.part.metal>
0.0000

> <Gold.PLP.part.buried>
-1.9425

> <Gold.PLP.part.nonpolar>
-40.0937

> <Gold.PLP.part.repulsive>
0.2613

> <Gold.PLP.ligand.clash>
1.3149

> <Gold.PLP.ligand.torsion>
0.4898

> <Gold.PLP.Chemscore.Hbond>
0.8288

> <Gold.PLP.Chemscore.CHOScore>
0.0000

> <Gold.PLP.Chemscore.Metal>
0.0000

> <Gold.Chemscore.Hbonds>
donor molecule, donor type, donor heavy atom, donor atom, acceptor molecule, acceptor atom, score
      L1  H     8    31       P1  8028  0.99

> <Gold.PLP.Chemscore.Internal.Correction>
1.4696

> <Gold.Rescore>
     Score         DG    S(hbond)    S(metal)    S(lipo)     H(rot)  DE(clash)    DE(int)     intcor
     11.99     -14.46       0.98        0.00     100.73       2.37       1.03       1.44       ----

> <Gold.Chemscore.Fitness>
11.9884

> <Gold.Chemscore.DG>
-14.4622

> <Gold.Chemscore.ZeroCoef>
-5.4800

> <Gold.Chemscore.Hbond>
0.9760

> <Gold.Chemscore.Metal>
0.0000

> <Gold.Chemscore.Lipo>
100.7259

> <Gold.Chemscore.Internal_Hbond>
0.0000

> <Gold.Chemscore.DEClash>
1.0304

> <Gold.Chemscore.DEInternal>
1.4434

> <Gold.Chemscore.Rot>
2.3681

> <Gold.Chemscore.Internal.Correction>
   9.000000E+99

> <Gold.Chemscore.Hbonds>
donor molecule, donor type, donor heavy atom, donor atom, acceptor molecule, acceptor atom, score
      L1  H     8    31       P1  8028  0.92

> <Gold.Chemscore.Hbond.Weighted>
-3.2597

> <Gold.Chemscore.Metal.Weighted>
-0.0000

> <Gold.Chemscore.Lipo.Weighted>
-11.7849

> <Gold.Chemscore.Internal_Hbond.Weighted>
0.0000

> <Gold.Chemscore.DEClash.Weighted>
1.0304

> <Gold.Chemscore.DEInternal.Weighted>
1.4434

> <Gold.Chemscore.Rot.Weighted>
6.0624

> <Gold.Chemscore.Internal.Correction.Weighted>
   9.000000E+99

> <Gold.Protein.RotatedTorsions>
[ 6907 6896 6895 6894 ] final  -53.32 input  -60.11 | X-H torsion
[ 7974 7965 7964 7962 ] final -152.00 input  175.53 | X-H torsion
[ 8008 7997 7996 7995 ] final -167.77 input   59.86 | X-H torsion
[ 10167 10162 10161 10158 ] final  -90.40 input  -65.29 | X-H torsion
[ 10718 10713 10712 10709 ] final  -93.35 input   66.30 | X-H torsion
[ 10763 10752 10751 10750 ] final  151.45 input  -60.55 | X-H torsion
[ 11005 11000 10999 10996 ] final -123.60 input  -57.11 | X-H torsion

> <Gold.Protein.ActiveResidues>
 VAL166  LYS551  ARG553  GLY616  TRP617  ASP618  TYR619  PRO620  LYS621  CYS622 
 ASP623  PHE694  ASN695  SER759  ASP760  ASP761  ALA762  ILE779  LEU786  VAL792 
 PHE793  MET794  SER795  GLU796  ALA797  LYS798  CYS799  TRP800  GLU811  SER814 

> <Gold.Protein.RotatedAtoms>
  150.8437  134.7739  159.6953 H   0  0  0  0  0  0  0  0  0  0  0  0  # atno 6907 bound_to 6896
  152.4519  134.5372  159.9838 H   0  0  0  0  0  0  0  0  0  0  0  0  # atno 6908 bound_to 6896
  151.5507  133.3380  159.2988 H   0  0  0  0  0  0  0  0  0  0  0  0  # atno 6909 bound_to 6896
  144.7818  140.4721  143.5834 H   0  0  0  0  0  0  0  0  0  0  0  0  # atno 7974 bound_to 7965
  155.8823  140.1011  157.1477 H   0  0  0  0  0  0  0  0  0  0  0  0  # atno 8008 bound_to 7997
  154.4006  140.1326  156.4275 H   0  0  0  0  0  0  0  0  0  0  0  0  # atno 8009 bound_to 7997
  155.7629  140.3462  155.5209 H   0  0  0  0  0  0  0  0  0  0  0  0  # atno 8010 bound_to 7997
  140.3552  143.2870  151.9679 H   0  0  0  0  0  0  0  0  0  0  0  0  # atno 10167 bound_to 10162
  156.0012  130.5023  150.5763 H   0  0  0  0  0  0  0  0  0  0  0  0  # atno 10718 bound_to 10713
  154.1040  135.2843  155.3245 H   0  0  0  0  0  0  0  0  0  0  0  0  # atno 10763 bound_to 10752
  154.6536  135.5360  153.7934 H   0  0  0  0  0  0  0  0  0  0  0  0  # atno 10764 bound_to 10752
  153.0369  135.6516  154.1202 H   0  0  0  0  0  0  0  0  0  0  0  0  # atno 10765 bound_to 10752
  140.9907  134.0543  157.3658 H   0  0  0  0  0  0  0  0  0  0  0  0  # atno 11005 bound_to 11000
  145.6029  139.1505  143.3119 LP  0  0  0  0  0  0  0  0  0  0  0  0  # atno 17320 bound_to 7965
  146.2030  140.6150  142.9094 LP  0  0  0  0  0  0  0  0  0  0  0  0  # atno 17321 bound_to 7965
  139.4821  144.6041  151.7553 LP  0  0  0  0  0  0  0  0  0  0  0  0  # atno 17342 bound_to 10162
  140.5180  144.0923  150.6014 LP  0  0  0  0  0  0  0  0  0  0  0  0  # atno 17343 bound_to 10162
  157.3650  131.0756  151.1605 LP  0  0  0  0  0  0  0  0  0  0  0  0  # atno 17370 bound_to 10713
  157.2377  130.6555  149.5876 LP  0  0  0  0  0  0  0  0  0  0  0  0  # atno 17371 bound_to 10713
  139.8991  135.0157  156.7178 LP  0  0  0  0  0  0  0  0  0  0  0  0  # atno 17394 bound_to 11000
  140.7045  133.9277  155.8045 LP  0  0  0  0  0  0  0  0  0  0  0  0  # atno 17395 bound_to 11000

$$$$
