AV-unprocessed.smi:2880|AV-procd|sdf|11052|dock5
  -GOLD-   2272015523D 1   1.00000     0.00000
 Structure written by MMmdl.
 47 48  0  0  0  0  0  0  0  0  1 V2000
  147.7466  136.7178  163.3830 C   0  0  0  0  0  0  0  0  0  0  0  0
  146.7595  136.2999  162.2747 C   0  0  0  0  0  0  0  0  0  0  0  0
  146.3530  134.8268  162.5192 C   0  0  0  0  0  0  0  0  0  0  0  0
  145.4983  137.1810  162.3457 C   0  0  0  0  0  0  0  0  0  0  0  0
  147.3954  136.4881  160.9633 N   0  0  0  0  0  0  0  0  0  0  0  0
  148.4889  135.8164  160.4415 C   0  0  0  0  0  0  0  0  0  0  0  0
  148.7592  136.3374  159.2081 C   0  0  0  0  0  0  0  0  0  0  0  0
  147.7750  137.3505  159.0616 C   0  0  0  0  0  0  0  0  0  0  0  0
  147.7204  138.1454  157.8883 N   0  0  0  0  0  0  0  0  0  0  0  0
  148.6956  138.3403  156.9841 C   0  0  0  0  0  0  0  0  0  0  0  0
  149.8253  137.8536  157.0438 O   0  0  0  0  0  0  0  0  0  0  0  0
  148.2851  139.1496  155.9963 N   0  0  0  0  0  0  0  0  0  0  0  0
  149.0755  139.5664  154.8351 C   0  0  1  0  0  0  0  0  0  0  0  0
  148.2920  139.2699  153.5403 C   0  0  0  0  0  0  0  0  0  0  0  0
  147.0735  140.1942  153.3725 C   0  0  0  0  0  0  0  0  0  0  0  0
  147.4829  141.6721  153.4495 C   0  0  0  0  0  0  0  0  0  0  0  0
  148.2447  141.9762  154.7494 C   0  0  0  0  0  0  0  0  0  0  0  0
  149.4806  141.0623  154.9119 C   0  0  1  0  0  0  0  0  0  0  0  0
  150.2891  141.3949  156.1832 C   0  0  0  0  0  0  0  0  0  0  0  0
  150.6903  142.7492  156.1830 O   0  0  0  0  0  0  0  0  0  0  0  0
  146.9705  137.4500  160.1088 N   0  0  0  0  0  0  0  0  0  0  0  0
  147.3137  136.5725  164.3733 H   0  0  0  0  0  0  0  0  0  0  0  0
  148.0250  137.7691  163.3058 H   0  0  0  0  0  0  0  0  0  0  0  0
  148.6638  136.1294  163.3369 H   0  0  0  0  0  0  0  0  0  0  0  0
  147.2140  134.1591  162.4656 H   0  0  0  0  0  0  0  0  0  0  0  0
  145.6178  134.4828  161.7902 H   0  0  0  0  0  0  0  0  0  0  0  0
  145.9065  134.6995  163.5059 H   0  0  0  0  0  0  0  0  0  0  0  0
  144.9889  137.0677  163.3031 H   0  0  0  0  0  0  0  0  0  0  0  0
  144.7876  136.9174  161.5617 H   0  0  0  0  0  0  0  0  0  0  0  0
  145.7400  138.2379  162.2285 H   0  0  0  0  0  0  0  0  0  0  0  0
  148.9844  135.0270  160.9869 H   0  0  0  0  0  0  0  0  0  0  0  0
  149.5410  136.0424  158.5241 H   0  0  0  0  0  0  0  0  0  0  0  0
  146.8434  138.6152  157.7187 H   0  0  0  0  0  0  0  0  0  0  0  0
  147.3399  139.5011  156.0405 H   0  0  0  0  0  0  0  0  0  0  0  0
  149.9897  138.9716  154.7953 H   0  0  0  0  0  0  0  0  0  0  0  0
  148.9558  139.3977  152.6842 H   0  0  0  0  0  0  0  0  0  0  0  0
  147.9743  138.2266  153.5217 H   0  0  0  0  0  0  0  0  0  0  0  0
  146.5852  139.9941  152.4184 H   0  0  0  0  0  0  0  0  0  0  0  0
  146.3347  139.9787  154.1453 H   0  0  0  0  0  0  0  0  0  0  0  0
  148.1106  141.9217  152.5932 H   0  0  0  0  0  0  0  0  0  0  0  0
  146.5988  142.3063  153.3794 H   0  0  0  0  0  0  0  0  0  0  0  0
  148.5480  143.0235  154.7465 H   0  0  0  0  0  0  0  0  0  0  0  0
  147.5757  141.8554  155.6024 H   0  0  0  0  0  0  0  0  0  0  0  0
  150.1376  141.2489  154.0605 H   0  0  0  0  0  0  0  0  0  0  0  0
  149.7085  141.1947  157.0842 H   0  0  0  0  0  0  0  0  0  0  0  0
  151.1862  140.7770  156.2341 H   0  0  0  0  0  0  0  0  0  0  0  0
  149.9485  143.2819  155.9400 H   0  0  0  0  0  0  0  0  0  0  0  0
  1  2  1  0  0  0  0
  1 22  1  0  0  0  0
  1 23  1  0  0  0  0
  1 24  1  0  0  0  0
  2  3  1  0  0  0  0
  2  4  1  0  0  0  0
  2  5  1  0  0  0  0
  3 25  1  0  0  0  0
  3 26  1  0  0  0  0
  3 27  1  0  0  0  0
  4 28  1  0  0  0  0
  4 29  1  0  0  0  0
  4 30  1  0  0  0  0
  5 21  1  0  0  0  0
  5  6  1  0  0  0  0
  6  7  2  0  0  0  0
  6 31  1  0  0  0  0
  7  8  1  0  0  0  0
  7 32  1  0  0  0  0
  8  9  1  0  0  0  0
  8 21  2  0  0  0  0
  9 10  1  0  0  0  0
  9 33  1  0  0  0  0
 10 11  2  0  0  0  0
 10 12  1  0  0  0  0
 12 13  1  0  0  0  0
 12 34  1  0  0  0  0
 13 18  1  0  0  0  0
 13 14  1  0  0  0  0
 13 35  1  0  0  0  0
 14 15  1  0  0  0  0
 14 36  1  0  0  0  0
 14 37  1  0  0  0  0
 15 16  1  0  0  0  0
 15 38  1  0  0  0  0
 15 39  1  0  0  0  0
 16 17  1  0  0  0  0
 16 40  1  0  0  0  0
 16 41  1  0  0  0  0
 17 18  1  0  0  0  0
 17 42  1  0  0  0  0
 17 43  1  0  0  0  0
 18 19  1  0  0  0  0
 18 44  1  0  0  0  0
 19 20  1  0  0  0  0
 19 45  1  0  0  0  0
 19 46  1  0  0  0  0
 20 47  1  0  0  0  0
M  END
> <s_m_source_file>
AV-unprocessed.smi

> <i_m_source_file_index>
2880

> <i_lp_mmshare_version>
43012

> <i_f3d_flags>
0

> <s_epik_input>
W0NIM11DKFtDSDNdKShbQ0gzXSluMVtjSF1bY0hdYyhuMSlbTkhdQyg9TylbTkhdW0NAQEhdMltDSDJdW0NIMl1bQ0gyXVtDSDJdW0NASF0yW0NIMl1bT0hd

> <s_epik_cmdline>
J2VwaWtfcHl0aG9uJywgJy1waCcsICc3LjAnLCAnLXRuJywgJzgnLCAnLW1hJywgJzIwMCcsICctbWV0YWxfYmluZGluZycsICctaW1hZScsICc8aW5maWxlLm1hZT4nLCAnLW9tYWUnLCAnPG91dGZpbGUubWFlPic=

> <r_lp_tautomer_probability>
1

> <r_epik_Ionization_Penalty>
3.89283e-05

> <r_epik_Ionization_Penalty_Charging>
0

> <r_epik_Ionization_Penalty_Neutral>
3.89283e-05

> <r_epik_State_Penalty>
-0

> <r_epik_Charging_Adjusted_Penalty>
0

> <i_epik_Tot_Q>
0

> <i_epik_Tot_abs_Q>
0

> <r_epik_Metal_State_Penalty>
-0

> <b_epik_Metal_Only>
0

> <s_lp_Force_Field>
OPLS_2005

> <r_lp_Energy>
20.5246

> <b_lp_Chiralities_Consistent>
1

> <s_lp_Variant>
AV-unprocessed.smi:2880-2

> <Gold.Version>
5.8.1

> <Gold.Id.Protein>
6NUR|6NUR_protein|mol2

> <Gold.PLP.Fitness>
40.1502

> <Gold.PLP.PLP>
-34.7641

> <Gold.PLP.part.hbond>
-1.7827

> <Gold.PLP.part.metal>
0.0000

> <Gold.PLP.part.buried>
-1.3967

> <Gold.PLP.part.nonpolar>
-32.4471

> <Gold.PLP.part.repulsive>
0.0893

> <Gold.PLP.ligand.clash>
0.0000

> <Gold.PLP.ligand.torsion>
0.3268

> <Gold.PLP.Chemscore.Hbond>
2.0000

> <Gold.PLP.Chemscore.CHOScore>
0.0000

> <Gold.PLP.Chemscore.Metal>
0.0000

> <Gold.Chemscore.Hbonds>
donor molecule, donor type, donor heavy atom, donor atom, acceptor molecule, acceptor atom, score
      L1  H    20    47       P1  8028  1.00
      P1  H  6934  6947       L1    21  1.00

> <Gold.PLP.Chemscore.Internal.Correction>
0.0397

> <Gold.Rescore>
     Score         DG    S(hbond)    S(metal)    S(lipo)     H(rot)  DE(clash)    DE(int)     intcor
     11.89     -15.72       1.25        0.00      94.89       1.97       2.26       1.57       ----

> <Gold.Chemscore.Fitness>
11.8921

> <Gold.Chemscore.DG>
-15.7221

> <Gold.Chemscore.ZeroCoef>
-5.4800

> <Gold.Chemscore.Hbond>
1.2504

> <Gold.Chemscore.Metal>
0.0000

> <Gold.Chemscore.Lipo>
94.8883

> <Gold.Chemscore.Internal_Hbond>
0.0000

> <Gold.Chemscore.DEClash>
2.2571

> <Gold.Chemscore.DEInternal>
1.5728

> <Gold.Chemscore.Rot>
1.9672

> <Gold.Chemscore.Internal.Correction>
   9.000000E+99

> <Gold.Chemscore.Hbonds>
donor molecule, donor type, donor heavy atom, donor atom, acceptor molecule, acceptor atom, score
      L1  H    20    47       P1  8028  1.00
      P1  H  6934  6947       L1    21  0.48

> <Gold.Chemscore.Hbond.Weighted>
-4.1762

> <Gold.Chemscore.Metal.Weighted>
-0.0000

> <Gold.Chemscore.Lipo.Weighted>
-11.1019

> <Gold.Chemscore.Internal_Hbond.Weighted>
0.0000

> <Gold.Chemscore.DEClash.Weighted>
2.2571

> <Gold.Chemscore.DEInternal.Weighted>
1.5728

> <Gold.Chemscore.Rot.Weighted>
5.0360

> <Gold.Chemscore.Internal.Correction.Weighted>
   9.000000E+99

> <Gold.Protein.RotatedTorsions>
[ 6907 6896 6895 6894 ] final  162.42 input  -60.11 | X-H torsion
[ 7974 7965 7964 7962 ] final  -30.19 input  175.53 | X-H torsion
[ 8008 7997 7996 7995 ] final   -9.09 input   59.86 | X-H torsion
[ 10167 10162 10161 10158 ] final   32.97 input  -65.29 | X-H torsion
[ 10718 10713 10712 10709 ] final -103.76 input   66.30 | X-H torsion
[ 10763 10752 10751 10750 ] final -143.09 input  -60.55 | X-H torsion
[ 11005 11000 10999 10996 ] final   91.39 input  -57.11 | X-H torsion

> <Gold.Protein.ActiveResidues>
 VAL166  LYS551  ARG553  GLY616  TRP617  ASP618  TYR619  PRO620  LYS621  CYS622 
 ASP623  PHE694  ASN695  SER759  ASP760  ASP761  ALA762  ILE779  LEU786  VAL792 
 PHE793  MET794  SER795  GLU796  ALA797  LYS798  CYS799  TRP800  GLU811  SER814 

> <Gold.Protein.RotatedAtoms>
  151.9407  133.3637  159.3963 H   0  0  0  0  0  0  0  0  0  0  0  0  # atno 6907 bound_to 6896
  150.6999  134.4443  159.5316 H   0  0  0  0  0  0  0  0  0  0  0  0  # atno 6908 bound_to 6896
  152.2099  134.8511  160.0549 H   0  0  0  0  0  0  0  0  0  0  0  0  # atno 6909 bound_to 6896
  146.1161  140.5508  142.8756 H   0  0  0  0  0  0  0  0  0  0  0  0  # atno 7974 bound_to 7965
  154.5679  140.2364  155.8235 H   0  0  0  0  0  0  0  0  0  0  0  0  # atno 8008 bound_to 7997
  156.2083  140.3033  155.9635 H   0  0  0  0  0  0  0  0  0  0  0  0  # atno 8009 bound_to 7997
  155.2766  140.0420  157.3002 H   0  0  0  0  0  0  0  0  0  0  0  0  # atno 8010 bound_to 7997
  140.4450  144.1133  150.6180 H   0  0  0  0  0  0  0  0  0  0  0  0  # atno 10167 bound_to 10162
  156.0278  130.5482  150.7299 H   0  0  0  0  0  0  0  0  0  0  0  0  # atno 10718 bound_to 10713
  154.8484  135.3477  154.6132 H   0  0  0  0  0  0  0  0  0  0  0  0  # atno 10763 bound_to 10752
  153.6740  135.6983  153.5143 H   0  0  0  0  0  0  0  0  0  0  0  0  # atno 10764 bound_to 10752
  153.2720  135.4290  155.0953 H   0  0  0  0  0  0  0  0  0  0  0  0  # atno 10765 bound_to 10752
  139.8839  134.8671  156.3422 H   0  0  0  0  0  0  0  0  0  0  0  0  # atno 11005 bound_to 11000
  144.7554  140.5295  143.6772 LP  0  0  0  0  0  0  0  0  0  0  0  0  # atno 17320 bound_to 7965
  145.5563  139.1478  143.3366 LP  0  0  0  0  0  0  0  0  0  0  0  0  # atno 17321 bound_to 7965
  140.4275  143.2583  151.9638 LP  0  0  0  0  0  0  0  0  0  0  0  0  # atno 17342 bound_to 10162
  139.4792  144.5775  151.7988 LP  0  0  0  0  0  0  0  0  0  0  0  0  # atno 17343 bound_to 10162
  157.4894  131.0909  151.0445 LP  0  0  0  0  0  0  0  0  0  0  0  0  # atno 17370 bound_to 10713
  157.0856  130.5921  149.5429 LP  0  0  0  0  0  0  0  0  0  0  0  0  # atno 17371 bound_to 10713
  140.9651  133.7363  156.0455 LP  0  0  0  0  0  0  0  0  0  0  0  0  # atno 17394 bound_to 11000
  140.7941  134.3584  157.5457 LP  0  0  0  0  0  0  0  0  0  0  0  0  # atno 17395 bound_to 11000

$$$$
