AV-unprocessed.smi:3252|AV-procd|sdf|12440|dock4
  -GOLD-   2272018333D 1   1.00000     0.00000
 Structure written by MMmdl.
 37 38  0  0  0  0  0  0  0  0  2 V2000
  144.1672  132.3979  149.6278 C   0  0  0  0  0  0  0  0  0  0  0  0
  143.8257  132.9127  151.0329 C   0  0  0  0  0  0  0  0  0  0  0  0
  143.4778  134.3584  151.0378 N   0  3  2  0  0  0  0  0  0  0  0  0
  144.5802  135.2340  150.5717 C   0  0  0  0  0  0  0  0  0  0  0  0
  145.6324  135.4353  151.6757 C   0  0  0  0  0  0  0  0  0  0  0  0
  144.9991  135.9665  152.8318 O   0  0  0  0  0  0  0  0  0  0  0  0
  144.0231  135.0858  153.3797 C   0  0  1  0  0  0  0  0  0  0  0  0
  143.4468  135.7134  154.6614 C   0  0  0  0  0  0  0  0  0  0  0  0
  141.9936  135.6094  154.7315 N   0  0  0  0  0  0  0  0  0  0  0  0
  141.1579  136.6847  154.3949 C   0  0  0  0  0  0  0  0  0  0  0  0
  139.7650  136.5309  154.5583 C   0  0  0  0  0  0  0  0  0  0  0  0
  138.9176  137.6051  154.2226 C   0  0  0  0  0  0  0  0  0  0  0  0
  139.4925  138.7953  153.7351 C   0  0  0  0  0  0  0  0  0  0  0  0
  138.6620  139.9321  153.3770 C   0  0  0  0  0  0  0  0  0  0  0  0
  138.0007  140.8376  153.0915 N   0  0  0  0  0  0  0  0  0  0  0  0
  140.8944  138.8550  153.6032 C   0  0  0  0  0  0  0  0  0  0  0  0
  141.7107  137.8274  153.9224 N   0  0  0  0  0  0  0  0  0  0  0  0
  142.9207  134.8631  152.3199 C   0  0  0  0  0  0  0  0  0  0  0  0
  144.5128  131.3648  149.6724 H   0  0  0  0  0  0  0  0  0  0  0  0
  144.9614  132.9911  149.1731 H   0  0  0  0  0  0  0  0  0  0  0  0
  143.3053  132.4207  148.9617 H   0  0  0  0  0  0  0  0  0  0  0  0
  143.0277  132.3158  151.4737 H   0  0  0  0  0  0  0  0  0  0  0  0
  144.7038  132.7577  151.6611 H   0  0  0  0  0  0  0  0  0  0  0  0
  145.0373  134.8342  149.6661 H   0  0  0  0  0  0  0  0  0  0  0  0
  144.1571  136.2015  150.2988 H   0  0  0  0  0  0  0  0  0  0  0  0
  146.1430  134.5018  151.9165 H   0  0  0  0  0  0  0  0  0  0  0  0
  146.3964  136.1369  151.3409 H   0  0  0  0  0  0  0  0  0  0  0  0
  144.4904  134.1339  153.6367 H   0  0  0  0  0  0  0  0  0  0  0  0
  143.9181  135.2915  155.5495 H   0  0  0  0  0  0  0  0  0  0  0  0
  143.6838  136.7774  154.6742 H   0  0  0  0  0  0  0  0  0  0  0  0
  141.5906  134.7907  155.1644 H   0  0  0  0  0  0  0  0  0  0  0  0
  139.3483  135.6081  154.9350 H   0  0  0  0  0  0  0  0  0  0  0  0
  137.8475  137.5115  154.3399 H   0  0  0  0  0  0  0  0  0  0  0  0
  141.3794  139.7470  153.2333 H   0  0  0  0  0  0  0  0  0  0  0  0
  142.4217  135.8120  152.1169 H   0  0  0  0  0  0  0  0  0  0  0  0
  142.1495  134.1946  152.7004 H   0  0  0  0  0  0  0  0  0  0  0  0
  142.7446  134.4524  150.3494 H   0  0  0  0  0  0  0  0  0  0  0  0
  1  2  1  0  0  0  0
  1 19  1  0  0  0  0
  1 20  1  0  0  0  0
  1 21  1  0  0  0  0
  2  3  1  0  0  0  0
  2 22  1  0  0  0  0
  2 23  1  0  0  0  0
  3 18  1  0  0  0  0
  3  4  1  0  0  0  0
  3 37  1  0  0  0  0
  4  5  1  0  0  0  0
  4 24  1  0  0  0  0
  4 25  1  0  0  0  0
  5  6  1  0  0  0  0
  5 26  1  0  0  0  0
  5 27  1  0  0  0  0
  6  7  1  0  0  0  0
  7  8  1  0  0  0  0
  7 18  1  0  0  0  0
  7 28  1  0  0  0  0
  8  9  1  0  0  0  0
  8 29  1  0  0  0  0
  8 30  1  0  0  0  0
  9 10  1  0  0  0  0
  9 31  1  0  0  0  0
 10 17  1  0  0  0  0
 10 11  2  0  0  0  0
 11 12  1  0  0  0  0
 11 32  1  0  0  0  0
 12 13  2  0  0  0  0
 12 33  1  0  0  0  0
 13 14  1  0  0  0  0
 13 16  1  0  0  0  0
 14 15  3  0  0  0  0
 16 17  2  0  0  0  0
 16 34  1  0  0  0  0
 18 35  1  0  0  0  0
 18 36  1  0  0  0  0
M  CHG  1   3   1
M  END
> <s_m_source_file>
AV-unprocessed.smi

> <i_m_source_file_index>
3252

> <i_lp_mmshare_version>
43012

> <i_f3d_flags>
0

> <s_epik_input>
W0NIM11bQ0gyXU4xW0NIMl1bQ0gyXU9bQ0BIXShbQ0gyXTEpW0NIMl1bTkhdYzJbY0hdW2NIXWMoQyNOKVtjSF1uMg==

> <s_epik_cmdline>
J2VwaWtfcHl0aG9uJywgJy1waCcsICc3LjAnLCAnLXRuJywgJzgnLCAnLW1hJywgJzIwMCcsICctbWV0YWxfYmluZGluZycsICctaW1hZScsICc8aW5maWxlLm1hZT4nLCAnLW9tYWUnLCAnPG91dGZpbGUubWFlPic=

> <r_epik_Ionization_Penalty>
0.178512

> <r_epik_Ionization_Penalty_Charging>
0.178504

> <r_epik_Ionization_Penalty_Neutral>
8.15545e-06

> <r_epik_State_Penalty>
0.167974

> <r_epik_Charging_Adjusted_Penalty>
0.346478

> <i_epik_Tot_Q>
1

> <i_epik_Tot_abs_Q>
1

> <r_epik_Metal_State_Penalty>
0.167974

> <b_epik_Metal_Only>
0

> <s_lp_Force_Field>
OPLS_2005

> <r_lp_Energy>
19.5584

> <b_lp_Chiralities_Consistent>
1

> <s_lp_Variant>
AV-unprocessed.smi:3252-2

> <Gold.Version>
5.8.1

> <Gold.Id.Protein>
6NUR|6NUR_protein|mol2

> <Gold.PLP.Fitness>
42.3941

> <Gold.PLP.PLP>
-32.4995

> <Gold.PLP.part.hbond>
-2.0000

> <Gold.PLP.part.metal>
0.0000

> <Gold.PLP.part.buried>
-3.5503

> <Gold.PLP.part.nonpolar>
-26.7768

> <Gold.PLP.part.repulsive>
0.3780

> <Gold.PLP.ligand.clash>
2.1823

> <Gold.PLP.ligand.torsion>
0.8006

> <Gold.PLP.Chemscore.Hbond>
2.8564

> <Gold.PLP.Chemscore.CHOScore>
1.6949

> <Gold.PLP.Chemscore.Metal>
0.0000

> <Gold.Chemscore.Hbonds>
donor molecule, donor type, donor heavy atom, donor atom, acceptor molecule, acceptor atom, score
      L1  H     3    37       P1 10186  2.00
      L1  H     9    31       P1 11000  0.86
      L1  C    16    34       P1 10160  0.48
      L1  C    16    34       P1 10175  1.00

> <Gold.PLP.Chemscore.Internal.Correction>
0.0240

> <Gold.Rescore>
     Score         DG    S(hbond)    S(metal)    S(lipo)     H(rot)  DE(clash)    DE(int)     intcor
     14.41     -15.40       1.51        0.00      73.75       1.47       0.12       0.87       ----

> <Gold.Chemscore.Fitness>
14.4118

> <Gold.Chemscore.DG>
-15.3972

> <Gold.Chemscore.ZeroCoef>
-5.4800

> <Gold.Chemscore.Hbond>
1.5110

> <Gold.Chemscore.Metal>
0.0000

> <Gold.Chemscore.Lipo>
73.7502

> <Gold.Chemscore.Internal_Hbond>
0.0000

> <Gold.Chemscore.DEClash>
0.1198

> <Gold.Chemscore.DEInternal>
0.8655

> <Gold.Chemscore.Rot>
1.4681

> <Gold.Chemscore.Internal.Correction>
   9.000000E+99

> <Gold.Chemscore.Hbonds>
donor molecule, donor type, donor heavy atom, donor atom, acceptor molecule, acceptor atom, score
      L1  H     3    37       P1 10186  0.65
      L1  H     9    31       P1 11000  0.21

> <Gold.Chemscore.Hbond.Weighted>
-5.0468

> <Gold.Chemscore.Metal.Weighted>
-0.0000

> <Gold.Chemscore.Lipo.Weighted>
-8.6288

> <Gold.Chemscore.Internal_Hbond.Weighted>
0.0000

> <Gold.Chemscore.DEClash.Weighted>
0.1198

> <Gold.Chemscore.DEInternal.Weighted>
0.8655

> <Gold.Chemscore.Rot.Weighted>
3.7584

> <Gold.Chemscore.Internal.Correction.Weighted>
   9.000000E+99

> <Gold.Protein.RotatedTorsions>
[ 6907 6896 6895 6894 ] final -128.85 input  -60.11 | X-H torsion
[ 7974 7965 7964 7962 ] final   72.92 input  175.53 | X-H torsion
[ 8008 7997 7996 7995 ] final   47.65 input   59.86 | X-H torsion
[ 10167 10162 10161 10158 ] final -133.00 input  -65.29 | X-H torsion
[ 10718 10713 10712 10709 ] final  133.11 input   66.30 | X-H torsion
[ 10763 10752 10751 10750 ] final   -2.30 input  -60.55 | X-H torsion
[ 11005 11000 10999 10996 ] final -133.77 input  -57.11 | X-H torsion

> <Gold.Protein.ActiveResidues>
 VAL166  LYS551  ARG553  GLY616  TRP617  ASP618  TYR619  PRO620  LYS621  CYS622 
 ASP623  PHE694  ASN695  SER759  ASP760  ASP761  ALA762  ILE779  LEU786  VAL792 
 PHE793  MET794  SER795  GLU796  ALA797  LYS798  CYS799  TRP800  GLU811  SER814 

> <Gold.Protein.RotatedAtoms>
  150.9223  133.6865  159.2828 H   0  0  0  0  0  0  0  0  0  0  0  0  # atno 6907 bound_to 6896
  151.4315  135.1009  159.9653 H   0  0  0  0  0  0  0  0  0  0  0  0  # atno 6908 bound_to 6896
  152.4986  133.8652  159.7325 H   0  0  0  0  0  0  0  0  0  0  0  0  # atno 6909 bound_to 6896
  145.7473  139.2745  143.1451 H   0  0  0  0  0  0  0  0  0  0  0  0  # atno 7974 bound_to 7965
  155.3726  140.3424  155.4244 H   0  0  0  0  0  0  0  0  0  0  0  0  # atno 8008 bound_to 7997
  156.1654  140.1614  156.8574 H   0  0  0  0  0  0  0  0  0  0  0  0  # atno 8009 bound_to 7997
  154.5180  140.0774  156.8100 H   0  0  0  0  0  0  0  0  0  0  0  0  # atno 8010 bound_to 7997
  139.9027  143.6588  152.2591 H   0  0  0  0  0  0  0  0  0  0  0  0  # atno 10167 bound_to 10162
  157.4805  131.1085  150.9688 H   0  0  0  0  0  0  0  0  0  0  0  0  # atno 10718 bound_to 10713
  153.3562  135.6988  153.6749 H   0  0  0  0  0  0  0  0  0  0  0  0  # atno 10763 bound_to 10752
  153.5456  135.3564  155.2738 H   0  0  0  0  0  0  0  0  0  0  0  0  # atno 10764 bound_to 10752
  154.8661  135.4214  154.2808 H   0  0  0  0  0  0  0  0  0  0  0  0  # atno 10765 bound_to 10752
  140.9051  134.1641  157.4432 H   0  0  0  0  0  0  0  0  0  0  0  0  # atno 11005 bound_to 11000
  146.0390  140.8184  142.9838 LP  0  0  0  0  0  0  0  0  0  0  0  0  # atno 17320 bound_to 7965
  144.6857  140.2882  143.7282 LP  0  0  0  0  0  0  0  0  0  0  0  0  # atno 17321 bound_to 7965
  139.7011  144.7635  151.1272 LP  0  0  0  0  0  0  0  0  0  0  0  0  # atno 17342 bound_to 10162
  140.7703  143.5457  150.9262 LP  0  0  0  0  0  0  0  0  0  0  0  0  # atno 17343 bound_to 10162
  157.0423  130.5754  149.5358 LP  0  0  0  0  0  0  0  0  0  0  0  0  # atno 17370 bound_to 10713
  156.0119  130.5211  150.8015 LP  0  0  0  0  0  0  0  0  0  0  0  0  # atno 17371 bound_to 10713
  139.8748  134.9913  156.5545 LP  0  0  0  0  0  0  0  0  0  0  0  0  # atno 17394 bound_to 11000
  140.8181  133.8375  155.8871 LP  0  0  0  0  0  0  0  0  0  0  0  0  # atno 17395 bound_to 11000

$$$$
