AV-unprocessed.smi:2258|AV-procd|sdf|9129|dock4
  -GOLD-   2272012333D 1   1.00000     0.00000
 Structure written by MMmdl.
 40 42  0  0  0  0  0  0  0  0  1 V2000
  146.1929  130.3004  151.7991 C   0  0  0  0  0  0  0  0  0  0  0  0
  145.6319  131.5971  151.4185 N   0  0  0  0  0  0  0  0  0  0  0  0
  144.3881  131.6233  150.7725 C   0  0  0  0  0  0  0  0  0  0  0  0
  143.8293  132.7906  150.4061 C   0  0  0  0  0  0  0  0  0  0  0  0
  144.4734  134.0017  150.6585 N   0  0  0  0  0  0  0  0  0  0  0  0
  145.6371  134.0532  151.2453 C   0  0  0  0  0  0  0  0  0  0  0  0
  146.3125  135.2529  151.5285 N   0  0  0  0  0  0  0  0  0  0  0  0
  145.8466  136.4653  151.9110 C   0  0  0  0  0  0  0  0  0  0  0  0
  144.6464  136.6373  152.1155 O   0  0  0  0  0  0  0  0  0  0  0  0
  146.7586  137.4347  152.1091 N   0  0  0  0  0  0  0  0  0  0  0  0
  146.4791  138.8098  152.5141 C   0  0  0  0  0  0  0  0  0  0  0  0
  147.3885  139.2982  153.6563 C   0  0  0  0  0  0  0  0  0  0  0  0
  146.7032  140.5015  154.3207 C   0  0  0  0  0  0  0  0  0  0  0  0
  146.7755  141.8878  153.7303 C   0  0  0  0  0  0  0  0  0  0  0  0
  147.4300  141.5985  155.0664 C   0  0  0  0  0  0  0  0  0  0  0  0
  147.8870  138.2132  154.6377 C   0  0  0  0  0  0  0  0  0  0  0  0
  149.2844  138.8253  154.5954 C   0  0  0  0  0  0  0  0  0  0  0  0
  148.8783  139.4539  153.2638 C   0  0  0  0  0  0  0  0  0  0  0  0
  146.3044  132.7482  151.6913 C   0  0  0  0  0  0  0  0  0  0  0  0
  147.3956  132.7744  152.2640 O   0  0  0  0  0  0  0  0  0  0  0  0
  145.5735  129.4652  151.4703 H   0  0  0  0  0  0  0  0  0  0  0  0
  146.2904  130.2306  152.8832 H   0  0  0  0  0  0  0  0  0  0  0  0
  147.1819  130.1649  151.3588 H   0  0  0  0  0  0  0  0  0  0  0  0
  143.9287  130.6610  150.5989 H   0  0  0  0  0  0  0  0  0  0  0  0
  142.8724  132.8430  149.9076 H   0  0  0  0  0  0  0  0  0  0  0  0
  147.3202  135.1994  151.4874 H   0  0  0  0  0  0  0  0  0  0  0  0
  147.7268  137.2044  151.9369 H   0  0  0  0  0  0  0  0  0  0  0  0
  146.5504  139.4721  151.6497 H   0  0  0  0  0  0  0  0  0  0  0  0
  145.4348  138.8523  152.8243 H   0  0  0  0  0  0  0  0  0  0  0  0
  145.7439  140.2394  154.7634 H   0  0  0  0  0  0  0  0  0  0  0  0
  147.4286  142.0422  152.8740 H   0  0  0  0  0  0  0  0  0  0  0  0
  145.8627  142.4799  153.7323 H   0  0  0  0  0  0  0  0  0  0  0  0
  146.9489  142.0011  155.9554 H   0  0  0  0  0  0  0  0  0  0  0  0
  148.5167  141.6001  155.0929 H   0  0  0  0  0  0  0  0  0  0  0  0
  147.4143  138.2332  155.6202 H   0  0  0  0  0  0  0  0  0  0  0  0
  147.8683  137.2082  154.2129 H   0  0  0  0  0  0  0  0  0  0  0  0
  149.4548  139.5544  155.3880 H   0  0  0  0  0  0  0  0  0  0  0  0
  150.0971  138.1018  154.5287 H   0  0  0  0  0  0  0  0  0  0  0  0
  149.1606  138.8261  152.4168 H   0  0  0  0  0  0  0  0  0  0  0  0
  149.2292  140.4745  153.1136 H   0  0  0  0  0  0  0  0  0  0  0  0
  1  2  1  0  0  0  0
  1 21  1  0  0  0  0
  1 22  1  0  0  0  0
  1 23  1  0  0  0  0
  2 19  1  0  0  0  0
  2  3  1  0  0  0  0
  3  4  2  0  0  0  0
  3 24  1  0  0  0  0
  4  5  1  0  0  0  0
  4 25  1  0  0  0  0
  5  6  2  0  0  0  0
  6  7  1  0  0  0  0
  6 19  1  0  0  0  0
  7  8  1  0  0  0  0
  7 26  1  0  0  0  0
  8  9  2  0  0  0  0
  8 10  1  0  0  0  0
 10 11  1  0  0  0  0
 10 27  1  0  0  0  0
 11 12  1  0  0  0  0
 11 28  1  0  0  0  0
 11 29  1  0  0  0  0
 12 18  1  0  0  0  0
 12 13  1  0  0  0  0
 12 16  1  0  0  0  0
 13 15  1  0  0  0  0
 13 14  1  0  0  0  0
 13 30  1  0  0  0  0
 14 15  1  0  0  0  0
 14 31  1  0  0  0  0
 14 32  1  0  0  0  0
 15 33  1  0  0  0  0
 15 34  1  0  0  0  0
 16 17  1  0  0  0  0
 16 35  1  0  0  0  0
 16 36  1  0  0  0  0
 17 18  1  0  0  0  0
 17 37  1  0  0  0  0
 17 38  1  0  0  0  0
 18 39  1  0  0  0  0
 18 40  1  0  0  0  0
 19 20  2  0  0  0  0
M  END
> <s_m_source_file>
AV-unprocessed.smi

> <i_m_source_file_index>
2258

> <i_lp_mmshare_version>
43012

> <i_f3d_flags>
0

> <s_epik_input>
W0NIM11uMVtjSF1bY0hdbmMoYzE9TylbTkhdQyg9TylbTkhdW0NIMl1DMihbQ0hdM1tDSDJdW0NIMl0zKVtDSDJdW0NIMl1bQ0gyXTI=

> <s_epik_cmdline>
J2VwaWtfcHl0aG9uJywgJy1waCcsICc3LjAnLCAnLXRuJywgJzgnLCAnLW1hJywgJzIwMCcsICctbWV0YWxfYmluZGluZycsICctaW1hZScsICc8aW5maWxlLm1hZT4nLCAnLW9tYWUnLCAnPG91dGZpbGUubWFlPic=

> <r_lp_tautomer_probability>
1

> <r_epik_Ionization_Penalty>
0.000665538

> <r_epik_Ionization_Penalty_Charging>
1.64466e-07

> <r_epik_Ionization_Penalty_Neutral>
0.000665373

> <r_epik_State_Penalty>
-0

> <r_epik_Charging_Adjusted_Penalty>
1.64466e-07

> <i_epik_Tot_Q>
0

> <i_epik_Tot_abs_Q>
0

> <r_epik_Metal_State_Penalty>
-0

> <b_epik_Metal_Only>
0

> <s_lp_Force_Field>
OPLS_2005

> <r_lp_Energy>
52.1357

> <b_lp_Chiralities_Consistent>
1

> <s_lp_Variant>
AV-unprocessed.smi:2258-1

> <Gold.Version>
5.8.1

> <Gold.Id.Protein>
6NUR|6NUR_protein|mol2

> <Gold.PLP.Fitness>
39.1124

> <Gold.PLP.PLP>
-31.6333

> <Gold.PLP.part.hbond>
-1.8499

> <Gold.PLP.part.metal>
0.0000

> <Gold.PLP.part.buried>
-0.4977

> <Gold.PLP.part.nonpolar>
-30.2732

> <Gold.PLP.part.repulsive>
0.8473

> <Gold.PLP.ligand.clash>
0.0000

> <Gold.PLP.ligand.torsion>
1.4207

> <Gold.PLP.Chemscore.Hbond>
1.8800

> <Gold.PLP.Chemscore.CHOScore>
1.0000

> <Gold.PLP.Chemscore.Metal>
0.0000

> <Gold.Chemscore.Hbonds>
donor molecule, donor type, donor heavy atom, donor atom, acceptor molecule, acceptor atom, score
      L1  H     7    26       P1  7948  0.88
      L1  H    10    27       P1  7948  1.00
      L1  C     4    25       P1 10186  1.00

> <Gold.PLP.Chemscore.Internal.Correction>
1.6803

> <Gold.Rescore>
     Score         DG    S(hbond)    S(metal)    S(lipo)     H(rot)  DE(clash)    DE(int)     intcor
     12.22     -16.93       1.89        0.00      76.26       1.47       2.31       2.40       ----

> <Gold.Chemscore.Fitness>
12.2237

> <Gold.Chemscore.DG>
-16.9262

> <Gold.Chemscore.ZeroCoef>
-5.4800

> <Gold.Chemscore.Hbond>
1.8855

> <Gold.Chemscore.Metal>
0.0000

> <Gold.Chemscore.Lipo>
76.2628

> <Gold.Chemscore.Internal_Hbond>
0.0000

> <Gold.Chemscore.DEClash>
2.3057

> <Gold.Chemscore.DEInternal>
2.3968

> <Gold.Chemscore.Rot>
1.4742

> <Gold.Chemscore.Internal.Correction>
   9.000000E+99

> <Gold.Chemscore.Hbonds>
donor molecule, donor type, donor heavy atom, donor atom, acceptor molecule, acceptor atom, score
      L1  H     7    26       P1  7948  0.71
      L1  H    10    27       P1  7948  0.93

> <Gold.Chemscore.Hbond.Weighted>
-6.2975

> <Gold.Chemscore.Metal.Weighted>
-0.0000

> <Gold.Chemscore.Lipo.Weighted>
-8.9227

> <Gold.Chemscore.Internal_Hbond.Weighted>
0.0000

> <Gold.Chemscore.DEClash.Weighted>
2.3057

> <Gold.Chemscore.DEInternal.Weighted>
2.3968

> <Gold.Chemscore.Rot.Weighted>
3.7740

> <Gold.Chemscore.Internal.Correction.Weighted>
   9.000000E+99

> <Gold.Protein.RotatedTorsions>
[ 6907 6896 6895 6894 ] final  164.89 input  -60.11 | X-H torsion
[ 7974 7965 7964 7962 ] final    1.90 input  175.53 | X-H torsion
[ 8008 7997 7996 7995 ] final  -61.59 input   59.86 | X-H torsion
[ 10167 10162 10161 10158 ] final   49.20 input  -65.29 | X-H torsion
[ 10718 10713 10712 10709 ] final  159.49 input   66.30 | X-H torsion
[ 10763 10752 10751 10750 ] final  -20.22 input  -60.55 | X-H torsion
[ 11005 11000 10999 10996 ] final  -66.15 input  -57.11 | X-H torsion

> <Gold.Protein.ActiveResidues>
 VAL166  LYS551  ARG553  GLY616  TRP617  ASP618  TYR619  PRO620  LYS621  CYS622 
 ASP623  PHE694  ASN695  SER759  ASP760  ASP761  ALA762  ILE779  LEU786  VAL792 
 PHE793  MET794  SER795  GLU796  ALA797  LYS798  CYS799  TRP800  GLU811  SER814 

> <Gold.Protein.RotatedAtoms>
  151.9029  133.3542  159.3836 H   0  0  0  0  0  0  0  0  0  0  0  0  # atno 6907 bound_to 6896
  150.7076  134.4810  159.5480 H   0  0  0  0  0  0  0  0  0  0  0  0  # atno 6908 bound_to 6896
  152.2402  134.8236  160.0512 H   0  0  0  0  0  0  0  0  0  0  0  0  # atno 6909 bound_to 6896
  146.2442  140.0917  142.8352 H   0  0  0  0  0  0  0  0  0  0  0  0  # atno 7974 bound_to 7965
  154.4456  140.1014  156.6455 H   0  0  0  0  0  0  0  0  0  0  0  0  # atno 8008 bound_to 7997
  155.5455  140.3484  155.4438 H   0  0  0  0  0  0  0  0  0  0  0  0  # atno 8009 bound_to 7997
  156.0567  140.1316  156.9978 H   0  0  0  0  0  0  0  0  0  0  0  0  # atno 8010 bound_to 7997
  140.2854  144.3108  150.6254 H   0  0  0  0  0  0  0  0  0  0  0  0  # atno 10167 bound_to 10162
  157.1635  131.0593  151.2220 H   0  0  0  0  0  0  0  0  0  0  0  0  # atno 10718 bound_to 10713
  153.6170  135.6994  153.5325 H   0  0  0  0  0  0  0  0  0  0  0  0  # atno 10763 bound_to 10752
  153.2969  135.4140  155.1217 H   0  0  0  0  0  0  0  0  0  0  0  0  # atno 10764 bound_to 10752
  154.8551  135.3639  154.5710 H   0  0  0  0  0  0  0  0  0  0  0  0  # atno 10765 bound_to 10752
  141.1474  133.6694  156.6094 H   0  0  0  0  0  0  0  0  0  0  0  0  # atno 11005 bound_to 11000
  145.0645  140.9111  143.4919 LP  0  0  0  0  0  0  0  0  0  0  0  0  # atno 17320 bound_to 7965
  145.1039  139.2803  143.5672 LP  0  0  0  0  0  0  0  0  0  0  0  0  # atno 17321 bound_to 7965
  140.5777  143.2175  151.7485 LP  0  0  0  0  0  0  0  0  0  0  0  0  # atno 17342 bound_to 10162
  139.4952  144.4125  152.0065 LP  0  0  0  0  0  0  0  0  0  0  0  0  # atno 17343 bound_to 10162
  157.4111  130.7385  149.6839 LP  0  0  0  0  0  0  0  0  0  0  0  0  # atno 17370 bound_to 10713
  155.9750  130.4095  150.3882 LP  0  0  0  0  0  0  0  0  0  0  0  0  # atno 17371 bound_to 10713
  140.3626  134.7674  157.4544 LP  0  0  0  0  0  0  0  0  0  0  0  0  # atno 17394 bound_to 11000
  140.0773  134.5779  155.8577 LP  0  0  0  0  0  0  0  0  0  0  0  0  # atno 17395 bound_to 11000

$$$$
