AV-unprocessed.smi:2685|AV-procd|sdf|10383|dock2
  -GOLD-   2272014413D 1   1.00000     0.00000
 Structure written by MMmdl.
 21 21  0  0  0  0  0  0  0  0  3 V2000
  151.1339  140.6436  157.8350 C   0  0  0  0  0  0  0  0  0  0  0  0
  151.4723  139.3547  157.1079 C   0  0  0  0  0  0  0  0  0  0  0  0
  152.5671  139.2699  156.4420 N   0  0  0  0  0  0  0  0  0  0  0  0
  152.9218  138.1016  155.7404 C   0  0  0  0  0  0  0  0  0  0  0  0
  153.9854  138.0743  155.1249 O   0  0  0  0  0  0  0  0  0  0  0  0
  152.0644  137.0323  155.7688 N   0  5  0  0  0  0  0  0  0  0  0  0
  150.8982  137.0907  156.4594 C   0  0  0  0  0  0  0  0  0  0  0  0
  150.0224  135.8473  156.4114 C   0  0  0  0  0  0  0  0  0  0  0  0
  150.5205  138.2127  157.1825 C   0  0  0  0  0  0  0  0  0  0  0  0
  149.2228  138.3385  157.9853 C   0  0  0  0  0  0  0  0  0  0  0  0
  149.0098  137.2582  159.0535 C   0  0  0  0  0  0  0  0  0  0  0  0
  147.9847  137.3707  159.7609 O   0  0  0  0  0  0  0  0  0  0  0  0
  149.8622  136.3483  159.1607 O   0  5  0  0  0  0  0  0  0  0  0  0
  150.1474  141.0030  157.5420 H   0  0  0  0  0  0  0  0  0  0  0  0
  151.8578  141.4241  157.5975 H   0  0  0  0  0  0  0  0  0  0  0  0
  151.1489  140.4872  158.9136 H   0  0  0  0  0  0  0  0  0  0  0  0
  149.9743  135.3702  157.3901 H   0  0  0  0  0  0  0  0  0  0  0  0
  150.4017  135.1093  155.7035 H   0  0  0  0  0  0  0  0  0  0  0  0
  149.0063  136.0980  156.1063 H   0  0  0  0  0  0  0  0  0  0  0  0
  149.2025  139.3070  158.4840 H   0  0  0  0  0  0  0  0  0  0  0  0
  148.3618  138.3523  157.3175 H   0  0  0  0  0  0  0  0  0  0  0  0
  1  2  1  0  0  0  0
  1 14  1  0  0  0  0
  1 15  1  0  0  0  0
  1 16  1  0  0  0  0
  2  9  1  0  0  0  0
  2  3  2  0  0  0  0
  3  4  1  0  0  0  0
  4  5  2  0  0  0  0
  4  6  1  0  0  0  0
  6  7  1  0  0  0  0
  7  8  1  0  0  0  0
  7  9  2  0  0  0  0
  8 17  1  0  0  0  0
  8 18  1  0  0  0  0
  8 19  1  0  0  0  0
  9 10  1  0  0  0  0
 10 11  1  0  0  0  0
 10 20  1  0  0  0  0
 10 21  1  0  0  0  0
 11 12  2  0  0  0  0
 11 13  1  0  0  0  0
M  CHG  1   6  -1
M  CHG  1  13  -1
M  END
> <s_m_source_file>
AV-unprocessed.smi

> <i_m_source_file_index>
2685

> <i_lp_mmshare_version>
43012

> <i_f3d_flags>
0

> <s_epik_input>
W0NIM11jMW5jKD1PKVtuSF1jKFtDSDNdKWMxW0NIMl1DKD1PKVtPSF0=

> <s_epik_cmdline>
J2VwaWtfcHl0aG9uJywgJy1waCcsICc3LjAnLCAnLXRuJywgJzgnLCAnLW1hJywgJzIwMCcsICctbWV0YWxfYmluZGluZycsICctaW1hZScsICc8aW5maWxlLm1hZT4nLCAnLW9tYWUnLCAnPG91dGZpbGUubWFlPic=

> <r_lp_tautomer_probability>
1

> <r_epik_Ionization_Penalty>
5.93788

> <r_epik_Ionization_Penalty_Charging>
0.439901

> <r_epik_Ionization_Penalty_Neutral>
5.49798

> <r_epik_State_Penalty>
5.49792

> <r_epik_Charging_Adjusted_Penalty>
5.93782

> <i_epik_Tot_Q>
-2

> <i_epik_Tot_abs_Q>
2

> <r_epik_Metal_State_Penalty>
1.50795

> <b_epik_Metal_Only>
1

> <s_lp_Force_Field>
OPLS_2005

> <r_lp_Energy>
12.6786

> <b_lp_Chiralities_Consistent>
1

> <s_lp_Variant>
AV-unprocessed.smi:2685-2

> <Gold.Version>
5.8.1

> <Gold.Id.Protein>
6NUR|6NUR_protein|mol2

> <Gold.PLP.Fitness>
35.5238

> <Gold.PLP.PLP>
-15.7511

> <Gold.PLP.part.hbond>
-6.3620

> <Gold.PLP.part.metal>
0.0000

> <Gold.PLP.part.buried>
-3.1260

> <Gold.PLP.part.nonpolar>
-7.8858

> <Gold.PLP.part.repulsive>
0.0479

> <Gold.PLP.ligand.clash>
0.0000

> <Gold.PLP.ligand.torsion>
0.0278

> <Gold.PLP.Chemscore.Hbond>
6.6089

> <Gold.PLP.Chemscore.CHOScore>
0.0000

> <Gold.PLP.Chemscore.Metal>
0.0000

> <Gold.Chemscore.Hbonds>
donor molecule, donor type, donor heavy atom, donor atom, acceptor molecule, acceptor atom, score
      P1  H  6896  6908       L1    13  2.00
      P1  H  6934  6947       L1    12  0.87
      P1  H  7997  8009       L1     3  0.80
      P1  H 10752 10765       L1     6  1.95

> <Gold.PLP.Chemscore.Internal.Correction>
0.0016

> <Gold.Rescore>
     Score         DG    S(hbond)    S(metal)    S(lipo)     H(rot)  DE(clash)    DE(int)     intcor
     12.10     -12.14       2.40        0.00      21.07       1.50       0.00       0.03       ----

> <Gold.Chemscore.Fitness>
12.1023

> <Gold.Chemscore.DG>
-12.1373

> <Gold.Chemscore.ZeroCoef>
-5.4800

> <Gold.Chemscore.Hbond>
2.4026

> <Gold.Chemscore.Metal>
0.0000

> <Gold.Chemscore.Lipo>
21.0730

> <Gold.Chemscore.Internal_Hbond>
0.0000

> <Gold.Chemscore.DEClash>
0.0000

> <Gold.Chemscore.DEInternal>
0.0350

> <Gold.Chemscore.Rot>
1.4972

> <Gold.Chemscore.Internal.Correction>
   9.000000E+99

> <Gold.Chemscore.Hbonds>
donor molecule, donor type, donor heavy atom, donor atom, acceptor molecule, acceptor atom, score
      P1  H  6896  6908       L1    13  1.00
      P1  H  6934  6947       L1    12  0.44
      P1  H  7997  8009       L1     3  0.12
      P1  H 10752 10765       L1     6  0.45

> <Gold.Chemscore.Hbond.Weighted>
-8.0247

> <Gold.Chemscore.Metal.Weighted>
-0.0000

> <Gold.Chemscore.Lipo.Weighted>
-2.4655

> <Gold.Chemscore.Internal_Hbond.Weighted>
0.0000

> <Gold.Chemscore.DEClash.Weighted>
0.0000

> <Gold.Chemscore.DEInternal.Weighted>
0.0350

> <Gold.Chemscore.Rot.Weighted>
3.8329

> <Gold.Chemscore.Internal.Correction.Weighted>
   9.000000E+99

> <Gold.Protein.RotatedTorsions>
[ 6907 6896 6895 6894 ] final -168.83 input  -60.11 | X-H torsion
[ 7974 7965 7964 7962 ] final   -3.03 input  175.53 | X-H torsion
[ 8008 7997 7996 7995 ] final -160.07 input   59.86 | X-H torsion
[ 10167 10162 10161 10158 ] final  -65.75 input  -65.29 | X-H torsion
[ 10718 10713 10712 10709 ] final  137.96 input   66.30 | X-H torsion
[ 10763 10752 10751 10750 ] final -169.21 input  -60.55 | X-H torsion
[ 11005 11000 10999 10996 ] final  -12.15 input  -57.11 | X-H torsion

> <Gold.Protein.ActiveResidues>
 VAL166  LYS551  ARG553  GLY616  TRP617  ASP618  TYR619  PRO620  LYS621  CYS622 
 ASP623  PHE694  ASN695  SER759  ASP760  ASP761  ALA762  ILE779  LEU786  VAL792 
 PHE793  MET794  SER795  GLU796  ALA797  LYS798  CYS799  TRP800  GLU811  SER814 

> <Gold.Protein.RotatedAtoms>
  151.4819  133.3544  159.2839 H   0  0  0  0  0  0  0  0  0  0  0  0  # atno 6907 bound_to 6896
  150.8892  134.8295  159.7292 H   0  0  0  0  0  0  0  0  0  0  0  0  # atno 6908 bound_to 6896
  152.4812  134.4726  159.9692 H   0  0  0  0  0  0  0  0  0  0  0  0  # atno 6909 bound_to 6896
  146.2396  140.1660  142.8332 H   0  0  0  0  0  0  0  0  0  0  0  0  # atno 7974 bound_to 7965
  155.7720  140.0853  157.2103 H   0  0  0  0  0  0  0  0  0  0  0  0  # atno 8008 bound_to 7997
  154.3995  140.1523  156.3010 H   0  0  0  0  0  0  0  0  0  0  0  0  # atno 8009 bound_to 7997
  155.8737  140.3424  155.5842 H   0  0  0  0  0  0  0  0  0  0  0  0  # atno 8010 bound_to 7997
  140.5707  143.2317  151.6544 H   0  0  0  0  0  0  0  0  0  0  0  0  # atno 10167 bound_to 10162
  157.4305  131.1048  151.0255 H   0  0  0  0  0  0  0  0  0  0  0  0  # atno 10718 bound_to 10713
  154.6547  135.2916  154.9943 H   0  0  0  0  0  0  0  0  0  0  0  0  # atno 10763 bound_to 10752
  154.1023  135.6575  153.4874 H   0  0  0  0  0  0  0  0  0  0  0  0  # atno 10764 bound_to 10752
  153.0396  135.5245  154.7471 H   0  0  0  0  0  0  0  0  0  0  0  0  # atno 10765 bound_to 10752
  140.7627  133.8502  155.9139 H   0  0  0  0  0  0  0  0  0  0  0  0  # atno 11005 bound_to 11000
  145.0051  140.8665  143.5258 LP  0  0  0  0  0  0  0  0  0  0  0  0  # atno 17320 bound_to 7965
  145.1685  139.2418  143.5354 LP  0  0  0  0  0  0  0  0  0  0  0  0  # atno 17321 bound_to 7965
  139.5116  144.3504  152.0657 LP  0  0  0  0  0  0  0  0  0  0  0  0  # atno 17342 bound_to 10162
  140.2641  144.4035  150.6175 LP  0  0  0  0  0  0  0  0  0  0  0  0  # atno 17343 bound_to 10162
  157.1154  130.6039  149.5492 LP  0  0  0  0  0  0  0  0  0  0  0  0  # atno 17370 bound_to 10713
  155.9911  130.4965  150.7287 LP  0  0  0  0  0  0  0  0  0  0  0  0  # atno 17371 bound_to 10713
  140.9648  134.1609  157.4625 LP  0  0  0  0  0  0  0  0  0  0  0  0  # atno 17394 bound_to 11000
  139.8768  134.9957  156.5760 LP  0  0  0  0  0  0  0  0  0  0  0  0  # atno 17395 bound_to 11000

$$$$
