AV-unprocessed.smi:669|AV-procd|sdf|3264|dock3
  -GOLD-   22720 0213D 1   1.00000     0.00000
 Structure written by MMmdl.
 37 38  0  0  0  0  0  0  0  0  1 V2000
  151.6411  144.7047  159.7288 C   0  0  0  0  0  0  0  0  0  0  0  0
  152.1358  143.3070  159.5005 C   0  0  0  0  0  0  0  0  0  0  0  0
  153.0052  142.6171  160.4334 C   0  0  0  0  0  0  0  0  0  0  0  0
  153.4202  141.3645  160.1476 C   0  0  0  0  0  0  0  0  0  0  0  0
  153.0110  140.6789  158.9237 C   0  0  0  0  0  0  0  0  0  0  0  0
  153.3956  139.5483  158.6272 O   0  0  0  0  0  0  0  0  0  0  0  0
  152.1666  141.4116  158.1393 N   0  0  0  0  0  0  0  0  0  0  0  0
  151.6335  140.8698  156.8788 C   0  0  0  0  0  0  0  0  0  0  0  0
  150.3178  141.5411  156.3865 C   0  0  1  0  0  0  0  0  0  0  0  0
  150.5845  142.9223  156.2217 O   0  0  0  0  0  0  0  0  0  0  0  0
  149.7772  140.9632  155.0536 C   0  0  0  0  0  0  0  0  0  0  0  0
  148.4073  141.5393  154.6533 C   0  0  0  0  0  0  0  0  0  0  0  0
  147.3649  141.3656  155.7710 C   0  0  2  0  0  0  0  0  0  0  0  0
  145.9988  141.9335  155.3603 C   0  0  0  0  0  0  0  0  0  0  0  0
  147.8752  142.0081  157.0723 C   0  0  0  0  0  0  0  0  0  0  0  0
  149.2395  141.4310  157.4916 C   0  0  0  0  0  0  0  0  0  0  0  0
  151.7598  142.7077  158.4190 N   0  0  0  0  0  0  0  0  0  0  0  0
  152.0456  145.1204  160.6521 H   0  0  0  0  0  0  0  0  0  0  0  0
  150.5533  144.7241  159.8024 H   0  0  0  0  0  0  0  0  0  0  0  0
  151.9374  145.3607  158.9099 H   0  0  0  0  0  0  0  0  0  0  0  0
  153.3165  143.1087  161.3434 H   0  0  0  0  0  0  0  0  0  0  0  0
  154.0706  140.8527  160.8414 H   0  0  0  0  0  0  0  0  0  0  0  0
  152.4019  141.0055  156.1151 H   0  0  0  0  0  0  0  0  0  0  0  0
  151.5109  139.7866  156.9431 H   0  0  0  0  0  0  0  0  0  0  0  0
  149.7905  143.3486  155.9381 H   0  0  0  0  0  0  0  0  0  0  0  0
  150.4845  141.1416  154.2429 H   0  0  0  0  0  0  0  0  0  0  0  0
  149.6851  139.8803  155.1448 H   0  0  0  0  0  0  0  0  0  0  0  0
  148.5120  142.5965  154.4056 H   0  0  0  0  0  0  0  0  0  0  0  0
  148.0615  141.0464  153.7441 H   0  0  0  0  0  0  0  0  0  0  0  0
  147.2361  140.2969  155.9495 H   0  0  0  0  0  0  0  0  0  0  0  0
  146.0564  143.0045  155.1632 H   0  0  0  0  0  0  0  0  0  0  0  0
  145.2576  141.7789  156.1447 H   0  0  0  0  0  0  0  0  0  0  0  0
  145.6276  141.4485  154.4571 H   0  0  0  0  0  0  0  0  0  0  0  0
  147.9526  143.0889  156.9472 H   0  0  0  0  0  0  0  0  0  0  0  0
  147.1532  141.8461  157.8734 H   0  0  0  0  0  0  0  0  0  0  0  0
  149.0989  140.3813  157.7537 H   0  0  0  0  0  0  0  0  0  0  0  0
  149.5812  141.9239  158.4031 H   0  0  0  0  0  0  0  0  0  0  0  0
  1  2  1  0  0  0  0
  1 18  1  0  0  0  0
  1 19  1  0  0  0  0
  1 20  1  0  0  0  0
  2 17  2  0  0  0  0
  2  3  1  0  0  0  0
  3  4  2  0  0  0  0
  3 21  1  0  0  0  0
  4  5  1  0  0  0  0
  4 22  1  0  0  0  0
  5  6  2  0  0  0  0
  5  7  1  0  0  0  0
  7  8  1  0  0  0  0
  7 17  1  0  0  0  0
  8  9  1  0  0  0  0
  8 23  1  0  0  0  0
  8 24  1  0  0  0  0
  9 16  1  0  0  0  0
  9 10  1  0  0  0  0
  9 11  1  0  0  0  0
 10 25  1  0  0  0  0
 11 12  1  0  0  0  0
 11 26  1  0  0  0  0
 11 27  1  0  0  0  0
 12 13  1  0  0  0  0
 12 28  1  0  0  0  0
 12 29  1  0  0  0  0
 13 14  1  0  0  0  0
 13 15  1  0  0  0  0
 13 30  1  0  0  0  0
 14 31  1  0  0  0  0
 14 32  1  0  0  0  0
 14 33  1  0  0  0  0
 15 16  1  0  0  0  0
 15 34  1  0  0  0  0
 15 35  1  0  0  0  0
 16 36  1  0  0  0  0
 16 37  1  0  0  0  0
M  END
> <s_m_source_file>
AV-unprocessed.smi

> <i_m_source_file_index>
669

> <i_lp_mmshare_version>
43012

> <i_f3d_flags>
0

> <s_epik_input>
W0NIM11jMVtjSF1bY0hdYyg9TyluKG4xKVtDSDJdW0NAQF0yKFtPSF0pW0NIMl1bQ0gyXVtDQEBIXShbQ0gzXSlbQ0gyXVtDSDJdMg==

> <s_epik_cmdline>
J2VwaWtfcHl0aG9uJywgJy1waCcsICc3LjAnLCAnLXRuJywgJzgnLCAnLW1hJywgJzIwMCcsICctbWV0YWxfYmluZGluZycsICctaW1hZScsICc8aW5maWxlLm1hZT4nLCAnLW9tYWUnLCAnPG91dGZpbGUubWFlPic=

> <r_lp_tautomer_probability>
1

> <r_epik_Ionization_Penalty>
1.6993e-05

> <r_epik_Ionization_Penalty_Charging>
1.61671e-05

> <r_epik_Ionization_Penalty_Neutral>
8.25878e-07

> <r_epik_State_Penalty>
-0

> <r_epik_Charging_Adjusted_Penalty>
1.61671e-05

> <i_epik_Tot_Q>
0

> <i_epik_Tot_abs_Q>
0

> <r_epik_Metal_State_Penalty>
-0

> <b_epik_Metal_Only>
0

> <s_lp_Force_Field>
OPLS_2005

> <r_lp_Energy>
31.8512

> <b_lp_Chiralities_Consistent>
1

> <s_lp_Variant>
AV-unprocessed.smi:669-2

> <Gold.Version>
5.8.1

> <Gold.Id.Protein>
6NUR|6NUR_protein|mol2

> <Gold.PLP.Fitness>
41.4249

> <Gold.PLP.PLP>
-36.0746

> <Gold.PLP.part.hbond>
-2.0000

> <Gold.PLP.part.metal>
0.0000

> <Gold.PLP.part.buried>
-4.1741

> <Gold.PLP.part.nonpolar>
-28.9837

> <Gold.PLP.part.repulsive>
0.0266

> <Gold.PLP.ligand.clash>
0.0000

> <Gold.PLP.ligand.torsion>
0.3287

> <Gold.PLP.Chemscore.Hbond>
2.0000

> <Gold.PLP.Chemscore.CHOScore>
0.0000

> <Gold.PLP.Chemscore.Metal>
0.0000

> <Gold.Chemscore.Hbonds>
donor molecule, donor type, donor heavy atom, donor atom, acceptor molecule, acceptor atom, score
      L1  H    10    25       P1  8028  1.00
      P1  H  7997  8010       L1     6  0.91

> <Gold.PLP.Chemscore.Internal.Correction>
0.0077

> <Gold.Rescore>
     Score         DG    S(hbond)    S(metal)    S(lipo)     H(rot)  DE(clash)    DE(int)     intcor
     14.23     -17.47       1.89        0.00      83.78       1.62       0.01       3.23       ----

> <Gold.Chemscore.Fitness>
14.2331

> <Gold.Chemscore.DG>
-17.4713

> <Gold.Chemscore.ZeroCoef>
-5.4800

> <Gold.Chemscore.Hbond>
1.8947

> <Gold.Chemscore.Metal>
0.0000

> <Gold.Chemscore.Lipo>
83.7794

> <Gold.Chemscore.Internal_Hbond>
0.0000

> <Gold.Chemscore.DEClash>
0.0086

> <Gold.Chemscore.DEInternal>
3.2296

> <Gold.Chemscore.Rot>
1.6168

> <Gold.Chemscore.Internal.Correction>
   9.000000E+99

> <Gold.Chemscore.Hbonds>
donor molecule, donor type, donor heavy atom, donor atom, acceptor molecule, acceptor atom, score
      L1  H    10    25       P1  8028  0.95
      P1  H  7997  8010       L1     6  0.20

> <Gold.Chemscore.Hbond.Weighted>
-6.3283

> <Gold.Chemscore.Metal.Weighted>
-0.0000

> <Gold.Chemscore.Lipo.Weighted>
-9.8022

> <Gold.Chemscore.Internal_Hbond.Weighted>
0.0000

> <Gold.Chemscore.DEClash.Weighted>
0.0086

> <Gold.Chemscore.DEInternal.Weighted>
3.2296

> <Gold.Chemscore.Rot.Weighted>
4.1391

> <Gold.Chemscore.Internal.Correction.Weighted>
   9.000000E+99

> <Gold.Protein.RotatedTorsions>
[ 6907 6896 6895 6894 ] final   43.10 input  -60.11 | X-H torsion
[ 7974 7965 7964 7962 ] final   70.76 input  175.53 | X-H torsion
[ 8008 7997 7996 7995 ] final   22.19 input   59.86 | X-H torsion
[ 10167 10162 10161 10158 ] final  -36.83 input  -65.29 | X-H torsion
[ 10718 10713 10712 10709 ] final -174.39 input   66.30 | X-H torsion
[ 10763 10752 10751 10750 ] final  -42.57 input  -60.55 | X-H torsion
[ 11005 11000 10999 10996 ] final  109.91 input  -57.11 | X-H torsion

> <Gold.Protein.ActiveResidues>
 VAL166  LYS551  ARG553  GLY616  TRP617  ASP618  TYR619  PRO620  LYS621  CYS622 
 ASP623  PHE694  ASN695  SER759  ASP760  ASP761  ALA762  ILE779  LEU786  VAL792 
 PHE793  MET794  SER795  GLU796  ALA797  LYS798  CYS799  TRP800  GLU811  SER814 

> <Gold.Protein.RotatedAtoms>
  152.2161  134.8456  160.0491 H   0  0  0  0  0  0  0  0  0  0  0  0  # atno 6907 bound_to 6896
  151.9257  133.3592  159.3921 H   0  0  0  0  0  0  0  0  0  0  0  0  # atno 6908 bound_to 6896
  150.6988  134.4514  159.5382 H   0  0  0  0  0  0  0  0  0  0  0  0  # atno 6909 bound_to 6896
  145.7742  139.2857  143.1303 H   0  0  0  0  0  0  0  0  0  0  0  0  # atno 7974 bound_to 7965
  154.9620  140.3079  155.5026 H   0  0  0  0  0  0  0  0  0  0  0  0  # atno 8008 bound_to 7997
  156.2976  140.2299  156.4645 H   0  0  0  0  0  0  0  0  0  0  0  0  # atno 8009 bound_to 7997
  154.7956  140.0437  157.1222 H   0  0  0  0  0  0  0  0  0  0  0  0  # atno 8010 bound_to 7997
  140.7133  143.3382  151.2415 H   0  0  0  0  0  0  0  0  0  0  0  0  # atno 10167 bound_to 10162
  156.7844  130.9495  151.3120 H   0  0  0  0  0  0  0  0  0  0  0  0  # atno 10718 bound_to 10713
  153.9813  135.6716  153.4750 H   0  0  0  0  0  0  0  0  0  0  0  0  # atno 10763 bound_to 10752
  153.0747  135.4955  154.8376 H   0  0  0  0  0  0  0  0  0  0  0  0  # atno 10764 bound_to 10752
  154.7163  135.3107  154.9080 H   0  0  0  0  0  0  0  0  0  0  0  0  # atno 10765 bound_to 10752
  139.8871  134.9470  156.6198 H   0  0  0  0  0  0  0  0  0  0  0  0  # atno 11005 bound_to 11000
  146.0140  140.8410  142.9957 LP  0  0  0  0  0  0  0  0  0  0  0  0  # atno 17320 bound_to 7965
  144.6807  140.2531  143.7329 LP  0  0  0  0  0  0  0  0  0  0  0  0  # atno 17321 bound_to 7965
  139.6883  143.9736  152.2846 LP  0  0  0  0  0  0  0  0  0  0  0  0  # atno 17342 bound_to 10162
  139.9389  144.6694  150.8287 LP  0  0  0  0  0  0  0  0  0  0  0  0  # atno 17343 bound_to 10162
  157.6631  130.8983  149.9872 LP  0  0  0  0  0  0  0  0  0  0  0  0  # atno 17370 bound_to 10713
  156.1198  130.3646  149.9907 LP  0  0  0  0  0  0  0  0  0  0  0  0  # atno 17371 bound_to 10713
  140.7748  133.8708  155.8520 LP  0  0  0  0  0  0  0  0  0  0  0  0  # atno 17394 bound_to 11000
  140.9811  134.1404  157.4493 LP  0  0  0  0  0  0  0  0  0  0  0  0  # atno 17395 bound_to 11000

$$$$
