AV-unprocessed.smi:150|AV-procd|sdf|1242|dock9
  -GOLD-   2262018463D 1   1.00000     0.00000
 Structure written by MMmdl.
 55 57  0  0  0  0  0  0  0  0  1 V2000
  143.6844  132.4126  148.8908 C   0  0  0  0  0  0  0  0  0  0  0  0
  144.2791  132.8353  150.2455 C   0  0  0  0  0  0  0  0  0  0  0  0
  143.4862  132.1930  151.3945 C   0  0  0  0  0  0  0  0  0  0  0  0
  144.3292  134.3712  150.4170 C   0  0  0  0  0  0  0  0  0  0  0  0
  145.1839  134.8890  151.6052 C   0  0  2  0  0  0  0  0  0  0  0  0
  146.0490  133.7837  152.2611 C   0  0  0  0  0  0  0  0  0  0  0  0
  147.1115  134.3688  152.9841 O   0  0  0  0  0  0  0  0  0  0  0  0
  144.3731  135.6342  152.5832 N   0  0  0  0  0  0  0  0  0  0  0  0
  143.1722  134.9851  153.1008 C   0  0  0  0  0  0  0  0  0  0  0  0
  144.9006  136.5705  153.4179 C   0  0  0  0  0  0  0  0  0  0  0  0
  144.6184  136.5429  154.7470 N   0  0  0  0  0  0  0  0  0  0  0  0
  145.1200  137.4698  155.5680 C   0  0  0  0  0  0  0  0  0  0  0  0
  145.9106  138.5032  155.2752 N   0  0  0  0  0  0  0  0  0  0  0  0
  146.1946  138.5445  153.9423 C   0  0  0  0  0  0  0  0  0  0  0  0
  145.7375  137.6265  152.9540 C   0  0  0  0  0  0  0  0  0  0  0  0
  146.2462  137.9831  151.7102 N   0  0  0  0  0  0  0  0  0  0  0  0
  146.9569  139.0507  151.9486 C   0  0  0  0  0  0  0  0  0  0  0  0
  146.9729  139.4643  153.2613 N   0  0  0  0  0  0  0  0  0  0  0  0
  147.6788  140.6163  153.8019 C   0  0  0  0  0  0  0  0  0  0  0  0
  148.8997  140.2548  154.6848 C   0  0  0  0  0  0  0  0  0  0  0  0
  148.4117  139.7100  155.8985 O   0  0  0  0  0  0  0  0  0  0  0  0
  149.7661  139.1875  153.9858 C   0  0  0  0  0  0  0  0  0  0  0  0
  151.0833  138.9229  154.7363 C   0  0  0  0  0  0  0  0  0  0  0  0
  151.7988  140.1404  154.9059 O   0  0  0  0  0  0  0  0  0  0  0  0
  151.0956  141.0820  155.7067 C   0  0  0  0  0  0  0  0  0  0  0  0
  149.7770  141.4811  155.0207 C   0  0  0  0  0  0  0  0  0  0  0  0
  142.6853  132.8263  148.7499 H   0  0  0  0  0  0  0  0  0  0  0  0
  143.6056  131.3274  148.8202 H   0  0  0  0  0  0  0  0  0  0  0  0
  144.3024  132.7399  148.0555 H   0  0  0  0  0  0  0  0  0  0  0  0
  145.2908  132.4362  150.3034 H   0  0  0  0  0  0  0  0  0  0  0  0
  142.4506  132.5349  151.4018 H   0  0  0  0  0  0  0  0  0  0  0  0
  143.9244  132.4385  152.3623 H   0  0  0  0  0  0  0  0  0  0  0  0
  143.4772  131.1062  151.3072 H   0  0  0  0  0  0  0  0  0  0  0  0
  144.6971  134.8016  149.4847 H   0  0  0  0  0  0  0  0  0  0  0  0
  143.3097  134.7412  150.5249 H   0  0  0  0  0  0  0  0  0  0  0  0
  145.8783  135.6243  151.2005 H   0  0  0  0  0  0  0  0  0  0  0  0
  145.4825  133.1179  152.9097 H   0  0  0  0  0  0  0  0  0  0  0  0
  146.5048  133.1502  151.5023 H   0  0  0  0  0  0  0  0  0  0  0  0
  147.4848  135.0615  152.4609 H   0  0  0  0  0  0  0  0  0  0  0  0
  142.2862  135.5645  152.8415 H   0  0  0  0  0  0  0  0  0  0  0  0
  143.2123  134.8821  154.1862 H   0  0  0  0  0  0  0  0  0  0  0  0
  143.0481  133.9875  152.6790 H   0  0  0  0  0  0  0  0  0  0  0  0
  144.8472  137.3695  156.6082 H   0  0  0  0  0  0  0  0  0  0  0  0
  147.4880  139.5736  151.1665 H   0  0  0  0  0  0  0  0  0  0  0  0
  147.9862  141.2525  152.9703 H   0  0  0  0  0  0  0  0  0  0  0  0
  146.9631  141.2017  154.3808 H   0  0  0  0  0  0  0  0  0  0  0  0
  149.1411  139.3594  156.3863 H   0  0  0  0  0  0  0  0  0  0  0  0
  149.2081  138.2574  153.8692 H   0  0  0  0  0  0  0  0  0  0  0  0
  150.0090  139.5248  152.9772 H   0  0  0  0  0  0  0  0  0  0  0  0
  150.8995  138.4570  155.7057 H   0  0  0  0  0  0  0  0  0  0  0  0
  151.7030  138.2302  154.1667 H   0  0  0  0  0  0  0  0  0  0  0  0
  150.9131  140.6680  156.6995 H   0  0  0  0  0  0  0  0  0  0  0  0
  151.7237  141.9621  155.8444 H   0  0  0  0  0  0  0  0  0  0  0  0
  150.0136  142.0158  154.0998 H   0  0  0  0  0  0  0  0  0  0  0  0
  149.2365  142.1848  155.6546 H   0  0  0  0  0  0  0  0  0  0  0  0
  1  2  1  0  0  0  0
  1 27  1  0  0  0  0
  1 28  1  0  0  0  0
  1 29  1  0  0  0  0
  2  3  1  0  0  0  0
  2  4  1  0  0  0  0
  2 30  1  0  0  0  0
  3 31  1  0  0  0  0
  3 32  1  0  0  0  0
  3 33  1  0  0  0  0
  4  5  1  0  0  0  0
  4 34  1  0  0  0  0
  4 35  1  0  0  0  0
  5  6  1  0  0  0  0
  5  8  1  0  0  0  0
  5 36  1  0  0  0  0
  6  7  1  0  0  0  0
  6 37  1  0  0  0  0
  6 38  1  0  0  0  0
  7 39  1  0  0  0  0
  8  9  1  0  0  0  0
  8 10  1  0  0  0  0
  9 40  1  0  0  0  0
  9 41  1  0  0  0  0
  9 42  1  0  0  0  0
 10 15  1  0  0  0  0
 10 11  2  0  0  0  0
 11 12  1  0  0  0  0
 12 13  2  0  0  0  0
 12 43  1  0  0  0  0
 13 14  1  0  0  0  0
 14 18  1  0  0  0  0
 14 15  2  0  0  0  0
 15 16  1  0  0  0  0
 16 17  2  0  0  0  0
 17 18  1  0  0  0  0
 17 44  1  0  0  0  0
 18 19  1  0  0  0  0
 19 20  1  0  0  0  0
 19 45  1  0  0  0  0
 19 46  1  0  0  0  0
 20 26  1  0  0  0  0
 20 21  1  0  0  0  0
 20 22  1  0  0  0  0
 21 47  1  0  0  0  0
 22 23  1  0  0  0  0
 22 48  1  0  0  0  0
 22 49  1  0  0  0  0
 23 24  1  0  0  0  0
 23 50  1  0  0  0  0
 23 51  1  0  0  0  0
 24 25  1  0  0  0  0
 25 26  1  0  0  0  0
 25 52  1  0  0  0  0
 25 53  1  0  0  0  0
 26 54  1  0  0  0  0
 26 55  1  0  0  0  0
M  END
> <s_m_source_file>
AV-unprocessed.smi

> <i_m_source_file_index>
150

> <i_lp_mmshare_version>
43012

> <i_f3d_flags>
0

> <s_epik_input>
W0NIM11bQ0hdKFtDSDNdKVtDSDJdW0NASF0oW0NIMl1bT0hdKU4oW0NIM10pYyhuW2NIXW4xKWMoYzEyKW5bY0hdbjJbQ0gyXUMzKFtPSF0pW0NIMl1bQ0gyXU9bQ0gyXVtDSDJdMw==

> <s_epik_cmdline>
J2VwaWtfcHl0aG9uJywgJy1waCcsICc3LjAnLCAnLXRuJywgJzgnLCAnLW1hJywgJzIwMCcsICctbWV0YWxfYmluZGluZycsICctaW1hZScsICc8aW5maWxlLm1hZT4nLCAnLW9tYWUnLCAnPG91dGZpbGUubWFlPic=

> <r_lp_tautomer_probability>
1

> <r_epik_Ionization_Penalty>
0.00548416

> <r_epik_Ionization_Penalty_Charging>
0

> <r_epik_Ionization_Penalty_Neutral>
0.00548416

> <r_epik_State_Penalty>
0.0038135

> <r_epik_Charging_Adjusted_Penalty>
0.0038135

> <i_epik_Tot_Q>
0

> <i_epik_Tot_abs_Q>
0

> <r_epik_Metal_State_Penalty>
-0

> <b_epik_Metal_Only>
0

> <s_lp_Force_Field>
OPLS_2005

> <r_lp_Energy>
31.7552

> <b_lp_Chiralities_Consistent>
1

> <s_lp_Variant>
AV-unprocessed.smi:150-1

> <Gold.Version>
5.8.1

> <Gold.Id.Protein>
6NUR|6NUR_protein|mol2

> <Gold.PLP.Fitness>
51.8629

> <Gold.PLP.PLP>
-46.0942

> <Gold.PLP.part.hbond>
-2.0000

> <Gold.PLP.part.metal>
0.0000

> <Gold.PLP.part.buried>
-2.0823

> <Gold.PLP.part.nonpolar>
-42.9772

> <Gold.PLP.part.repulsive>
1.1288

> <Gold.PLP.ligand.clash>
0.0000

> <Gold.PLP.ligand.torsion>
2.0731

> <Gold.PLP.Chemscore.Hbond>
1.9760

> <Gold.PLP.Chemscore.CHOScore>
0.9524

> <Gold.PLP.Chemscore.Metal>
0.0000

> <Gold.Chemscore.Hbonds>
donor molecule, donor type, donor heavy atom, donor atom, acceptor molecule, acceptor atom, score
      L1  H     7    39       P1  7948  1.00
      P1  H  7989  7998       L1    24  0.88
      L1  C    17    44       P1  7957  0.95

> <Gold.PLP.Chemscore.Internal.Correction>
1.1299

> <Gold.Rescore>
     Score         DG    S(hbond)    S(metal)    S(lipo)     H(rot)  DE(clash)    DE(int)     intcor
      6.54      -9.47       0.50        0.00      94.20       3.40       0.50       2.43       ----

> <Gold.Chemscore.Fitness>
6.5414

> <Gold.Chemscore.DG>
-9.4715

> <Gold.Chemscore.ZeroCoef>
-5.4800

> <Gold.Chemscore.Hbond>
0.5008

> <Gold.Chemscore.Metal>
0.0000

> <Gold.Chemscore.Lipo>
94.2013

> <Gold.Chemscore.Internal_Hbond>
0.0000

> <Gold.Chemscore.DEClash>
0.4968

> <Gold.Chemscore.DEInternal>
2.4332

> <Gold.Chemscore.Rot>
3.3995

> <Gold.Chemscore.Internal.Correction>
   9.000000E+99

> <Gold.Chemscore.Hbonds>
donor molecule, donor type, donor heavy atom, donor atom, acceptor molecule, acceptor atom, score
      L1  H     7    39       P1  7948  0.96
      P1  H  7989  7998       L1    24  0.08

> <Gold.Chemscore.Hbond.Weighted>
-1.6727

> <Gold.Chemscore.Metal.Weighted>
-0.0000

> <Gold.Chemscore.Lipo.Weighted>
-11.0216

> <Gold.Chemscore.Internal_Hbond.Weighted>
0.0000

> <Gold.Chemscore.DEClash.Weighted>
0.4968

> <Gold.Chemscore.DEInternal.Weighted>
2.4332

> <Gold.Chemscore.Rot.Weighted>
8.7028

> <Gold.Chemscore.Internal.Correction.Weighted>
   9.000000E+99

> <Gold.Protein.RotatedTorsions>
[ 6907 6896 6895 6894 ] final   26.12 input  -60.11 | X-H torsion
[ 7974 7965 7964 7962 ] final  -74.95 input  175.53 | X-H torsion
[ 8008 7997 7996 7995 ] final    9.33 input   59.86 | X-H torsion
[ 10167 10162 10161 10158 ] final   22.27 input  -65.29 | X-H torsion
[ 10718 10713 10712 10709 ] final  170.56 input   66.30 | X-H torsion
[ 10763 10752 10751 10750 ] final  -77.42 input  -60.55 | X-H torsion
[ 11005 11000 10999 10996 ] final   70.20 input  -57.11 | X-H torsion

> <Gold.Protein.ActiveResidues>
 VAL166  LYS551  ARG553  GLY616  TRP617  ASP618  TYR619  PRO620  LYS621  CYS622 
 ASP623  PHE694  ASN695  SER759  ASP760  ASP761  ALA762  ILE779  LEU786  VAL792 
 PHE793  MET794  SER795  GLU796  ALA797  LYS798  CYS799  TRP800  GLU811  SER814 

> <Gold.Protein.RotatedAtoms>
  151.9828  135.0020  160.0557 H   0  0  0  0  0  0  0  0  0  0  0  0  # atno 6907 bound_to 6896
  152.1681  133.4620  159.4903 H   0  0  0  0  0  0  0  0  0  0  0  0  # atno 6908 bound_to 6896
  150.6897  134.1905  159.4326 H   0  0  0  0  0  0  0  0  0  0  0  0  # atno 6909 bound_to 6896
  145.6325  140.9334  143.1079 H   0  0  0  0  0  0  0  0  0  0  0  0  # atno 7974 bound_to 7965
  154.7787  140.2815  155.6081 H   0  0  0  0  0  0  0  0  0  0  0  0  # atno 8008 bound_to 7997
  156.2946  140.2627  156.2535 H   0  0  0  0  0  0  0  0  0  0  0  0  # atno 8009 bound_to 7997
  154.9811  140.0375  157.2268 H   0  0  0  0  0  0  0  0  0  0  0  0  # atno 8010 bound_to 7997
  140.5361  143.9757  150.6492 H   0  0  0  0  0  0  0  0  0  0  0  0  # atno 10167 bound_to 10162
  157.0063  131.0191  151.2816 H   0  0  0  0  0  0  0  0  0  0  0  0  # atno 10718 bound_to 10713
  154.5126  135.5764  153.6617 H   0  0  0  0  0  0  0  0  0  0  0  0  # atno 10763 bound_to 10752
  152.9900  135.6162  154.2858 H   0  0  0  0  0  0  0  0  0  0  0  0  # atno 10764 bound_to 10752
  154.2774  135.2852  155.2691 H   0  0  0  0  0  0  0  0  0  0  0  0  # atno 10765 bound_to 10752
  139.9611  134.7060  156.0645 H   0  0  0  0  0  0  0  0  0  0  0  0  # atno 11005 bound_to 11000
  144.7188  139.8101  143.7389 LP  0  0  0  0  0  0  0  0  0  0  0  0  # atno 17320 bound_to 7965
  146.1345  139.4388  143.0147 LP  0  0  0  0  0  0  0  0  0  0  0  0  # atno 17321 bound_to 7965
  140.3145  143.3176  152.0846 LP  0  0  0  0  0  0  0  0  0  0  0  0  # atno 17342 bound_to 10162
  139.4971  144.6614  151.6455 LP  0  0  0  0  0  0  0  0  0  0  0  0  # atno 17343 bound_to 10162
  157.5353  130.8085  149.7964 LP  0  0  0  0  0  0  0  0  0  0  0  0  # atno 17370 bound_to 10713
  156.0152  130.3816  150.2133 LP  0  0  0  0  0  0  0  0  0  0  0  0  # atno 17371 bound_to 10713
  141.1287  133.6592  156.3407 LP  0  0  0  0  0  0  0  0  0  0  0  0  # atno 17394 bound_to 11000
  140.5499  134.6037  157.5405 LP  0  0  0  0  0  0  0  0  0  0  0  0  # atno 17395 bound_to 11000

$$$$
