AV-unprocessed.smi:83|AV-procd|sdf|803|dock7
  -GOLD-   2262017193D 1   1.00000     0.00000
 Structure written by MMmdl.
 56 59  0  0  0  0  0  0  0  0  1 V2000
  153.7984  141.9004  160.0928 C   0  0  0  0  0  0  0  0  0  0  0  0
  153.1225  141.0375  159.0267 C   0  0  0  0  0  0  0  0  0  0  0  0
  153.6807  140.0066  158.6508 O   0  0  0  0  0  0  0  0  0  0  0  0
  151.9372  141.4441  158.5289 N   0  0  0  0  0  0  0  0  0  0  0  0
  151.1808  142.6164  158.9630 C   0  0  0  0  0  0  0  0  0  0  0  0
  149.8016  142.4709  158.3167 C   0  0  0  0  0  0  0  0  0  0  0  0
  150.0602  141.6479  157.0586 C   0  0  2  0  0  0  0  0  0  0  0  0
  148.8043  140.9228  156.5218 C   0  0  0  0  0  0  0  0  0  0  0  0
  148.9784  140.3666  155.1781 N   0  0  0  0  0  0  0  0  0  0  0  0
  148.8987  141.2810  154.0465 C   0  0  0  0  0  0  0  0  0  0  0  0
  149.7697  139.2679  155.0756 C   0  0  0  0  0  0  0  0  0  0  0  0
  151.0303  139.4443  154.5993 N   0  0  0  0  0  0  0  0  0  0  0  0
  151.8273  138.3944  154.3844 C   0  0  0  0  0  0  0  0  0  0  0  0
  151.5637  137.0991  154.5588 N   0  0  0  0  0  0  0  0  0  0  0  0
  150.3049  136.9140  155.0479 C   0  0  0  0  0  0  0  0  0  0  0  0
  149.3561  137.9309  155.3553 C   0  0  0  0  0  0  0  0  0  0  0  0
  148.1848  137.3462  155.8276 N   0  0  0  0  0  0  0  0  0  0  0  0
  148.4220  136.0644  155.7875 C   0  0  0  0  0  0  0  0  0  0  0  0
  149.6602  135.7176  155.2999 N   0  0  0  0  0  0  0  0  0  0  0  0
  150.1611  134.3773  155.0654 C   0  0  0  0  0  0  0  0  0  0  0  0
  150.9859  133.8429  156.2573 C   0  0  1  0  0  0  0  0  0  0  0  0
  150.1058  133.7199  157.3563 O   0  0  0  0  0  0  0  0  0  0  0  0
  151.6639  132.4768  156.0031 C   0  0  2  0  0  0  0  0  0  0  0  0
  150.7066  131.3572  155.5844 C   0  0  0  0  0  0  0  0  0  0  0  0
  151.4173  130.0822  156.0177 C   0  0  0  0  0  0  0  0  0  0  0  0
  152.5515  130.5783  156.9156 C   0  0  0  0  0  0  0  0  0  0  0  0
  152.2154  131.9283  157.1916 O   0  0  0  0  0  0  0  0  0  0  0  0
  151.2126  140.7264  157.4859 C   0  0  0  0  0  0  0  0  0  0  0  0
  153.9110  142.9275  159.7456 H   0  0  0  0  0  0  0  0  0  0  0  0
  154.7913  141.5150  160.3265 H   0  0  0  0  0  0  0  0  0  0  0  0
  153.2130  141.9030  161.0125 H   0  0  0  0  0  0  0  0  0  0  0  0
  151.0997  142.6814  160.0488 H   0  0  0  0  0  0  0  0  0  0  0  0
  151.6800  143.5165  158.6013 H   0  0  0  0  0  0  0  0  0  0  0  0
  149.1412  141.9225  158.9901 H   0  0  0  0  0  0  0  0  0  0  0  0
  149.3349  143.4328  158.1032 H   0  0  0  0  0  0  0  0  0  0  0  0
  150.4351  142.3331  156.2965 H   0  0  0  0  0  0  0  0  0  0  0  0
  148.4815  140.1507  157.2210 H   0  0  0  0  0  0  0  0  0  0  0  0
  147.9797  141.6349  156.4768 H   0  0  0  0  0  0  0  0  0  0  0  0
  148.8405  140.7347  153.1043 H   0  0  0  0  0  0  0  0  0  0  0  0
  149.7649  141.9423  154.0162 H   0  0  0  0  0  0  0  0  0  0  0  0
  148.0048  141.9001  154.1248 H   0  0  0  0  0  0  0  0  0  0  0  0
  152.8102  138.6244  154.0009 H   0  0  0  0  0  0  0  0  0  0  0  0
  147.6815  135.3322  156.0752 H   0  0  0  0  0  0  0  0  0  0  0  0
  149.3073  133.7268  154.8709 H   0  0  0  0  0  0  0  0  0  0  0  0
  150.7643  134.3847  154.1565 H   0  0  0  0  0  0  0  0  0  0  0  0
  151.7475  134.5753  156.5286 H   0  0  0  0  0  0  0  0  0  0  0  0
  149.6954  132.8695  157.3168 H   0  0  0  0  0  0  0  0  0  0  0  0
  152.4573  132.5831  155.2605 H   0  0  0  0  0  0  0  0  0  0  0  0
  149.7629  131.4474  156.1244 H   0  0  0  0  0  0  0  0  0  0  0  0
  150.4847  131.3749  154.5168 H   0  0  0  0  0  0  0  0  0  0  0  0
  150.7352  129.4274  156.5606 H   0  0  0  0  0  0  0  0  0  0  0  0
  151.8114  129.5270  155.1662 H   0  0  0  0  0  0  0  0  0  0  0  0
  152.6544  129.9967  157.8315 H   0  0  0  0  0  0  0  0  0  0  0  0
  153.5044  130.5475  156.3854 H   0  0  0  0  0  0  0  0  0  0  0  0
  151.8640  140.4854  156.6447 H   0  0  0  0  0  0  0  0  0  0  0  0
  150.8361  139.7922  157.9047 H   0  0  0  0  0  0  0  0  0  0  0  0
  1  2  1  0  0  0  0
  1 29  1  0  0  0  0
  1 30  1  0  0  0  0
  1 31  1  0  0  0  0
  2  3  2  0  0  0  0
  2  4  1  0  0  0  0
  4 28  1  0  0  0  0
  4  5  1  0  0  0  0
  5  6  1  0  0  0  0
  5 32  1  0  0  0  0
  5 33  1  0  0  0  0
  6  7  1  0  0  0  0
  6 34  1  0  0  0  0
  6 35  1  0  0  0  0
  7  8  1  0  0  0  0
  7 28  1  0  0  0  0
  7 36  1  0  0  0  0
  8  9  1  0  0  0  0
  8 37  1  0  0  0  0
  8 38  1  0  0  0  0
  9 10  1  0  0  0  0
  9 11  1  0  0  0  0
 10 39  1  0  0  0  0
 10 40  1  0  0  0  0
 10 41  1  0  0  0  0
 11 16  1  0  0  0  0
 11 12  2  0  0  0  0
 12 13  1  0  0  0  0
 13 14  2  0  0  0  0
 13 42  1  0  0  0  0
 14 15  1  0  0  0  0
 15 19  1  0  0  0  0
 15 16  2  0  0  0  0
 16 17  1  0  0  0  0
 17 18  2  0  0  0  0
 18 19  1  0  0  0  0
 18 43  1  0  0  0  0
 19 20  1  0  0  0  0
 20 21  1  0  0  0  0
 20 44  1  0  0  0  0
 20 45  1  0  0  0  0
 21 22  1  0  0  0  0
 21 23  1  0  0  0  0
 21 46  1  0  0  0  0
 22 47  1  0  0  0  0
 23 27  1  0  0  0  0
 23 24  1  0  0  0  0
 23 48  1  0  0  0  0
 24 25  1  0  0  0  0
 24 49  1  0  0  0  0
 24 50  1  0  0  0  0
 25 26  1  0  0  0  0
 25 51  1  0  0  0  0
 25 52  1  0  0  0  0
 26 27  1  0  0  0  0
 26 53  1  0  0  0  0
 26 54  1  0  0  0  0
 28 55  1  0  0  0  0
 28 56  1  0  0  0  0
M  END
> <s_m_source_file>
AV-unprocessed.smi

> <i_m_source_file_index>
83

> <i_lp_mmshare_version>
43012

> <i_f3d_flags>
0

> <s_epik_input>
W0NIM11DKD1PKU4xW0NIMl1bQ0gyXVtDQEhdKFtDSDJdMSlbQ0gyXU4oW0NIM10pYyhuW2NIXW4yKWMoYzIzKW5bY0hdbjNbQ0gyXVtDQEhdKFtPSF0pW0NAQEhdNFtDSDJdW0NIMl1bQ0gyXU80

> <s_epik_cmdline>
J2VwaWtfcHl0aG9uJywgJy1waCcsICc3LjAnLCAnLXRuJywgJzgnLCAnLW1hJywgJzIwMCcsICctbWV0YWxfYmluZGluZycsICctaW1hZScsICc8aW5maWxlLm1hZT4nLCAnLW9tYWUnLCAnPG91dGZpbGUubWFlPic=

> <r_lp_tautomer_probability>
1

> <r_epik_Ionization_Penalty>
0.00109752

> <r_epik_Ionization_Penalty_Charging>
0

> <r_epik_Ionization_Penalty_Neutral>
0.00109752

> <r_epik_State_Penalty>
0.000634803

> <r_epik_Charging_Adjusted_Penalty>
0.000634803

> <i_epik_Tot_Q>
0

> <i_epik_Tot_abs_Q>
0

> <r_epik_Metal_State_Penalty>
-0

> <b_epik_Metal_Only>
0

> <s_lp_Force_Field>
OPLS_2005

> <r_lp_Energy>
52.1505

> <b_lp_Chiralities_Consistent>
1

> <s_lp_Variant>
AV-unprocessed.smi:83-4

> <Gold.Version>
5.8.1

> <Gold.Id.Protein>
6NUR|6NUR_protein|mol2

> <Gold.PLP.Fitness>
50.4314

> <Gold.PLP.PLP>
-41.4960

> <Gold.PLP.part.hbond>
-4.0000

> <Gold.PLP.part.metal>
0.0000

> <Gold.PLP.part.buried>
-5.1370

> <Gold.PLP.part.nonpolar>
-31.6873

> <Gold.PLP.part.repulsive>
0.2936

> <Gold.PLP.ligand.clash>
0.0000

> <Gold.PLP.ligand.torsion>
1.8632

> <Gold.PLP.Chemscore.Hbond>
4.0000

> <Gold.PLP.Chemscore.CHOScore>
0.0000

> <Gold.PLP.Chemscore.Metal>
0.0000

> <Gold.Chemscore.Hbonds>
donor molecule, donor type, donor heavy atom, donor atom, acceptor molecule, acceptor atom, score
      P1  H  6896  6907       L1    22  0.99
      P1  H  7989  7998       L1    12  1.00
      P1  H  7997  8009       L1     3  1.00
      P1  H 10752 10763       L1    14  1.00

> <Gold.PLP.Chemscore.Internal.Correction>
0.6617

> <Gold.Rescore>
     Score         DG    S(hbond)    S(metal)    S(lipo)     H(rot)  DE(clash)    DE(int)     intcor
     17.59     -19.98       3.63        0.00      77.39       2.62       0.54       1.85       ----

> <Gold.Chemscore.Fitness>
17.5859

> <Gold.Chemscore.DG>
-19.9764

> <Gold.Chemscore.ZeroCoef>
-5.4800

> <Gold.Chemscore.Hbond>
3.6337

> <Gold.Chemscore.Metal>
0.0000

> <Gold.Chemscore.Lipo>
77.3923

> <Gold.Chemscore.Internal_Hbond>
0.0000

> <Gold.Chemscore.DEClash>
0.5401

> <Gold.Chemscore.DEInternal>
1.8504

> <Gold.Chemscore.Rot>
2.6152

> <Gold.Chemscore.Internal.Correction>
   9.000000E+99

> <Gold.Chemscore.Hbonds>
donor molecule, donor type, donor heavy atom, donor atom, acceptor molecule, acceptor atom, score
      P1  H  6896  6907       L1    22  0.30
      P1  H  7989  7998       L1    12  0.60
      P1  H  7997  8009       L1     3  0.94
      P1  H 10752 10763       L1    14  0.89

> <Gold.Chemscore.Hbond.Weighted>
-12.1364

> <Gold.Chemscore.Metal.Weighted>
-0.0000

> <Gold.Chemscore.Lipo.Weighted>
-9.0549

> <Gold.Chemscore.Internal_Hbond.Weighted>
0.0000

> <Gold.Chemscore.DEClash.Weighted>
0.5401

> <Gold.Chemscore.DEInternal.Weighted>
1.8504

> <Gold.Chemscore.Rot.Weighted>
6.6949

> <Gold.Chemscore.Internal.Correction.Weighted>
   9.000000E+99

> <Gold.Protein.RotatedTorsions>
[ 6907 6896 6895 6894 ] final -124.18 input  -60.11 | X-H torsion
[ 7974 7965 7964 7962 ] final   50.17 input  175.53 | X-H torsion
[ 8008 7997 7996 7995 ] final  139.40 input   59.86 | X-H torsion
[ 10167 10162 10161 10158 ] final  120.97 input  -65.29 | X-H torsion
[ 10718 10713 10712 10709 ] final   66.11 input   66.30 | X-H torsion
[ 10763 10752 10751 10750 ] final   59.02 input  -60.55 | X-H torsion
[ 11005 11000 10999 10996 ] final  -53.35 input  -57.11 | X-H torsion

> <Gold.Protein.ActiveResidues>
 VAL166  LYS551  ARG553  GLY616  TRP617  ASP618  TYR619  PRO620  LYS621  CYS622 
 ASP623  PHE694  ASN695  SER759  ASP760  ASP761  ALA762  ILE779  LEU786  VAL792 
 PHE793  MET794  SER795  GLU796  ALA797  LYS798  CYS799  TRP800  GLU811  SER814 

> <Gold.Protein.RotatedAtoms>
  150.8743  133.7461  159.2951 H   0  0  0  0  0  0  0  0  0  0  0  0  # atno 6907 bound_to 6896
  151.5062  135.1062  159.9851 H   0  0  0  0  0  0  0  0  0  0  0  0  # atno 6908 bound_to 6896
  152.4717  133.7999  159.7003 H   0  0  0  0  0  0  0  0  0  0  0  0  # atno 6909 bound_to 6896
  146.0038  139.4468  142.9998 H   0  0  0  0  0  0  0  0  0  0  0  0  # atno 7974 bound_to 7965
  156.2990  140.2368  156.4232 H   0  0  0  0  0  0  0  0  0  0  0  0  # atno 8008 bound_to 7997
  154.8337  140.0431  157.1514 H   0  0  0  0  0  0  0  0  0  0  0  0  # atno 8009 bound_to 7997
  154.9179  140.2999  155.5235 H   0  0  0  0  0  0  0  0  0  0  0  0  # atno 8010 bound_to 7997
  139.5949  144.7038  151.3201 H   0  0  0  0  0  0  0  0  0  0  0  0  # atno 10167 bound_to 10162
  157.6148  130.9250  150.0066 H   0  0  0  0  0  0  0  0  0  0  0  0  # atno 10718 bound_to 10713
  152.9884  135.5586  154.5646 H   0  0  0  0  0  0  0  0  0  0  0  0  # atno 10763 bound_to 10752
  154.5058  135.2799  155.1385 H   0  0  0  0  0  0  0  0  0  0  0  0  # atno 10764 bound_to 10752
  154.2797  135.6347  153.5395 H   0  0  0  0  0  0  0  0  0  0  0  0  # atno 10765 bound_to 10752
  141.0971  133.6623  156.4159 H   0  0  0  0  0  0  0  0  0  0  0  0  # atno 11005 bound_to 11000
  145.7446  140.9995  143.1282 LP  0  0  0  0  0  0  0  0  0  0  0  0  # atno 17320 bound_to 7965
  144.6928  139.9141  143.7465 LP  0  0  0  0  0  0  0  0  0  0  0  0  # atno 17321 bound_to 7965
  140.7203  143.7153  150.7738 LP  0  0  0  0  0  0  0  0  0  0  0  0  # atno 17342 bound_to 10162
  140.0717  143.5055  152.2576 LP  0  0  0  0  0  0  0  0  0  0  0  0  # atno 17343 bound_to 10162
  156.1266  130.3644  149.9799 LP  0  0  0  0  0  0  0  0  0  0  0  0  # atno 17370 bound_to 10713
  156.7869  130.9242  151.3646 LP  0  0  0  0  0  0  0  0  0  0  0  0  # atno 17371 bound_to 10713
  140.5113  134.6392  157.5285 LP  0  0  0  0  0  0  0  0  0  0  0  0  # atno 17394 bound_to 11000
  139.9811  134.7136  155.9858 LP  0  0  0  0  0  0  0  0  0  0  0  0  # atno 17395 bound_to 11000

$$$$
