#       Name:                AV-unprocessed.smi:2528
#       Creating user name   scv26
#       Creation time:       Fri Mar 27 13:59:39 2020


#       File generated by GOLD software.
#

@<TRIPOS>MOLECULE
AV-unprocessed.smi:2528
    49    51     1
SMALL
NO_CHARGES


@<TRIPOS>ATOM
      1 ****        -0.6115   2.3813   1.7817 O.2            1 S1                 0.0000
      2 ****        -1.1268   1.3039   2.0818 C.2            1 S1                 0.0000
      3 ****        -0.4245   0.1766   2.2652 N.am           1 S1                 0.0000
      4 ****         1.0266   0.0701   2.1520 C.3            1 S1                 0.0000
      5 ****         1.5056   0.0352   0.6890 C.3            1 S1                 0.0000
      6 ****         0.9713  -1.1797  -0.0969 C.3            1 S1                 0.0000
      7 ****         1.5112  -1.2337  -1.4499 N.3            1 S1                 0.0000
      8 ****         1.0100  -2.3995  -2.1760 C.3            1 S1                 0.0000
      9 ****         1.5381  -2.4652  -3.6181 C.3            1 S1                 0.0000
     10 ****         3.0733  -2.4538  -3.6248 C.3            1 S1                 0.0000
     11 ****         3.5943  -1.2550  -2.8173 C.3            1 S1                 0.0000
     12 ****         2.9766  -1.2314  -1.4038 C.3            1 S1                 0.0000
     13 ****         3.4993  -0.0218  -0.6031 C.3            1 S1                 0.0000
     14 ****         2.9287  -0.0218   0.7010 O.3            1 S1                 0.0000
     15 ****        -2.4417   1.0962   2.2719 N.am           1 S1                 0.0000
     16 ****        -3.5009   2.0381   2.1747 C.ar           1 S1                 0.0000
     17 ****        -4.7828   1.5347   2.4932 C.ar           1 S1                 0.0000
     18 ****        -5.8992   2.3908   2.4276 C.ar           1 S1                 0.0000
     19 ****        -5.7054   3.7293   2.0425 C.ar           1 S1                 0.0000
     20 ****        -4.3972   4.1497   1.7407 C.ar           1 S1                 0.0000
     21 ****        -3.3259   3.3314   1.8040 N.ar           1 S1                 0.0000
     22 ****        -0.9252  -0.6650   2.5106 H              1 S1                 0.0000
     23 ****         1.4954   0.9021   2.6802 H              1 S1                 0.0000
     24 ****         1.3428  -0.8371   2.6676 H              1 S1                 0.0000
     25 ****         1.2014   0.9561   0.1881 H              1 S1                 0.0000
     26 ****         1.2251  -2.0959   0.4387 H              1 S1                 0.0000
     27 ****        -0.1173  -1.1370  -0.1419 H              1 S1                 0.0000
     28 ****         1.2892  -3.3125  -1.6478 H              1 S1                 0.0000
     29 ****        -0.0801  -2.3762  -2.1971 H              1 S1                 0.0000
     30 ****         1.1672  -3.3623  -4.1143 H              1 S1                 0.0000
     31 ****         1.1605  -1.6141  -4.1866 H              1 S1                 0.0000
     32 ****         3.4481  -3.3802  -3.1879 H              1 S1                 0.0000
     33 ****         3.4489  -2.4152  -4.6476 H              1 S1                 0.0000
     34 ****         4.6820  -1.2991  -2.7540 H              1 S1                 0.0000
     35 ****         3.3508  -0.3301  -3.3421 H              1 S1                 0.0000
     36 ****         3.3064  -2.1327  -0.8842 H              1 S1                 0.0000
     37 ****         4.5846  -0.0660  -0.5093 H              1 S1                 0.0000
     38 ****         3.2606   0.9152  -1.1092 H              1 S1                 0.0000
     39 ****        -2.7158   0.1585   2.5249 H              1 S1                 0.0000
     40 ****        -4.9138   0.5035   2.7878 H              1 S1                 0.0000
     41 ****        -6.8867   2.0261   2.6687 H              1 S1                 0.0000
     42 ****        -6.5368   4.4157   1.9798 H              1 S1                 0.0000
     43 ****        -4.2050   5.1692   1.4408 H              1 S1                 0.0000
     44 ****         0.3793   2.4458   1.6627 LP             1 S1                 0.0000
     45 ****        -1.1839   3.1918   1.6569 LP             1 S1                 0.0000
     46 ****         1.2046  -0.4211  -1.9457 LP             1 S1                 0.0000
     47 ****         3.2096  -0.8584   1.1711 LP             1 S1                 0.0000
     48 ****         3.2747   0.7730   1.1996 LP             1 S1                 0.0000
     49 ****        -2.4136   3.6744   1.5802 LP             1 S1                 0.0000
@<TRIPOS>BOND
    1    1    2 2     
    2    2    3 am    
    3    2   15 am    
    4    3    4 1     
    5    3   22 1     
    6    4    5 1     
    7    4   23 1     
    8    4   24 1     
    9    5   14 1     
   10    5    6 1     
   11    5   25 1     
   12    6    7 1     
   13    6   26 1     
   14    6   27 1     
   15    7   12 1     
   16    7    8 1     
   17    8    9 1     
   18    8   28 1     
   19    8   29 1     
   20    9   10 1     
   21    9   30 1     
   22    9   31 1     
   23   10   11 1     
   24   10   32 1     
   25   10   33 1     
   26   11   12 1     
   27   11   34 1     
   28   11   35 1     
   29   12   13 1     
   30   12   36 1     
   31   13   14 1     
   32   13   37 1     
   33   13   38 1     
   34   15   16 1     
   35   15   39 1     
   36   16   21 ar    
   37   16   17 ar    
   38   17   18 ar    
   39   17   40 1     
   40   18   19 ar    
   41   18   41 1     
   42   19   20 ar    
   43   19   42 1     
   44   20   21 ar    
   45   20   43 1     
   46    1   44 1     
   47    1   45 1     
   48    7   46 1     
   49   14   47 1     
   50   14   48 1     
   51   21   49 1     
@<TRIPOS>SUBSTRUCTURE
      1 S1             1
@<TRIPOS>SET
LONE_PAIRS      STATIC     ATOMS    <user>   **** ""
6 44 45 46 47 48 49
DONOR_HYDROGENS      STATIC     ATOMS    <user>   **** ""
2 22 39
ATOM$BLUE        STATIC     ATOMS    COLORGROUP SYSTEM
6 44 45 46 47 48 49
ATOM$RED        STATIC     ATOMS    COLORGROUP SYSTEM
2 22 39
