AV-unprocessed.smi:2194|AV-procd|sdf|8903|dock7
  -GOLD-   2272012113D 1   1.00000     0.00000
 Structure written by MMmdl.
 45 47  0  0  0  0  0  0  0  0  1 V2000
  150.8798  143.1961  159.8536 C   0  0  0  0  0  0  0  0  0  0  0  0
  150.9677  142.3128  158.6261 C   0  0  0  0  0  0  0  0  0  0  0  0
  150.2158  142.6193  157.4747 C   0  0  0  0  0  0  0  0  0  0  0  0
  150.3017  141.7962  156.3354 C   0  0  0  0  0  0  0  0  0  0  0  0
  151.1365  140.6598  156.3259 C   0  0  0  0  0  0  0  0  0  0  0  0
  151.1599  139.9104  155.1691 O   0  0  0  0  0  0  0  0  0  0  0  0
  152.1075  138.8556  155.0698 C   0  0  0  0  0  0  0  0  0  0  0  0
  151.4043  137.5998  154.5339 C   0  0  1  0  0  0  0  0  0  0  0  0
  152.2243  137.0227  153.5370 O   0  0  0  0  0  0  0  0  0  0  0  0
  151.1063  136.5737  155.6462 C   0  0  0  0  0  0  0  0  0  0  0  0
  150.5562  135.3301  155.1275 N   0  0  0  0  0  0  0  0  0  0  0  0
  149.5495  135.2207  154.2373 C   0  0  0  0  0  0  0  0  0  0  0  0
  149.2148  133.9759  153.8969 N   0  0  0  0  0  0  0  0  0  0  0  0
  150.1032  133.2181  154.6525 C   0  0  0  0  0  0  0  0  0  0  0  0
  150.9141  134.0091  155.3974 C   0  0  0  0  0  0  0  0  0  0  0  0
  151.9544  133.4752  156.2834 C   0  0  0  0  0  0  0  0  0  0  0  0
  152.6827  134.2185  156.9425 O   0  0  0  0  0  0  0  0  0  0  0  0
  152.0304  132.1077  156.2925 N   0  0  0  0  0  0  0  0  0  0  0  0
  153.0638  131.5132  157.1619 C   0  0  0  0  0  0  0  0  0  0  0  0
  151.2432  131.2605  155.5305 C   0  0  0  0  0  0  0  0  0  0  0  0
  151.4045  130.0373  155.5536 O   0  0  0  0  0  0  0  0  0  0  0  0
  150.2706  131.8115  154.7335 N   0  0  0  0  0  0  0  0  0  0  0  0
  149.4050  130.9445  153.9289 C   0  0  0  0  0  0  0  0  0  0  0  0
  151.8930  140.3591  157.4870 C   0  0  0  0  0  0  0  0  0  0  0  0
  151.8072  141.1815  158.6272 C   0  0  0  0  0  0  0  0  0  0  0  0
  149.9215  143.7150  159.8938 H   0  0  0  0  0  0  0  0  0  0  0  0
  151.6747  143.9420  159.8379 H   0  0  0  0  0  0  0  0  0  0  0  0
  150.9813  142.6047  160.7643 H   0  0  0  0  0  0  0  0  0  0  0  0
  149.5711  143.4860  157.4606 H   0  0  0  0  0  0  0  0  0  0  0  0
  149.7202  142.0402  155.4584 H   0  0  0  0  0  0  0  0  0  0  0  0
  152.9032  139.1507  154.3835 H   0  0  0  0  0  0  0  0  0  0  0  0
  152.5587  138.6460  156.0413 H   0  0  0  0  0  0  0  0  0  0  0  0
  150.4704  137.8937  154.0530 H   0  0  0  0  0  0  0  0  0  0  0  0
  151.6690  136.6085  152.8941 H   0  0  0  0  0  0  0  0  0  0  0  0
  151.9983  136.3618  156.2342 H   0  0  0  0  0  0  0  0  0  0  0  0
  150.3830  136.9919  156.3472 H   0  0  0  0  0  0  0  0  0  0  0  0
  149.0486  136.0828  153.8218 H   0  0  0  0  0  0  0  0  0  0  0  0
  152.8711  130.4744  157.4321 H   0  0  0  0  0  0  0  0  0  0  0  0
  153.1558  132.0427  158.1119 H   0  0  0  0  0  0  0  0  0  0  0  0
  154.0334  131.5498  156.6636 H   0  0  0  0  0  0  0  0  0  0  0  0
  148.9232  130.1905  154.5533 H   0  0  0  0  0  0  0  0  0  0  0  0
  149.9879  130.4318  153.1627 H   0  0  0  0  0  0  0  0  0  0  0  0
  148.6108  131.4939  153.4236 H   0  0  0  0  0  0  0  0  0  0  0  0
  152.5485  139.5027  157.5288 H   0  0  0  0  0  0  0  0  0  0  0  0
  152.3901  140.9403  159.5042 H   0  0  0  0  0  0  0  0  0  0  0  0
  1  2  1  0  0  0  0
  1 26  1  0  0  0  0
  1 27  1  0  0  0  0
  1 28  1  0  0  0  0
  2 25  1  0  0  0  0
  2  3  2  0  0  0  0
  3  4  1  0  0  0  0
  3 29  1  0  0  0  0
  4  5  2  0  0  0  0
  4 30  1  0  0  0  0
  5  6  1  0  0  0  0
  5 24  1  0  0  0  0
  6  7  1  0  0  0  0
  7  8  1  0  0  0  0
  7 31  1  0  0  0  0
  7 32  1  0  0  0  0
  8  9  1  0  0  0  0
  8 10  1  0  0  0  0
  8 33  1  0  0  0  0
  9 34  1  0  0  0  0
 10 11  1  0  0  0  0
 10 35  1  0  0  0  0
 10 36  1  0  0  0  0
 11 15  1  0  0  0  0
 11 12  1  0  0  0  0
 12 13  2  0  0  0  0
 12 37  1  0  0  0  0
 13 14  1  0  0  0  0
 14 22  1  0  0  0  0
 14 15  2  0  0  0  0
 15 16  1  0  0  0  0
 16 17  2  0  0  0  0
 16 18  1  0  0  0  0
 18 19  1  0  0  0  0
 18 20  1  0  0  0  0
 19 38  1  0  0  0  0
 19 39  1  0  0  0  0
 19 40  1  0  0  0  0
 20 21  2  0  0  0  0
 20 22  1  0  0  0  0
 22 23  1  0  0  0  0
 23 41  1  0  0  0  0
 23 42  1  0  0  0  0
 23 43  1  0  0  0  0
 24 25  2  0  0  0  0
 24 44  1  0  0  0  0
 25 45  1  0  0  0  0
M  END
> <s_m_source_file>
AV-unprocessed.smi

> <i_m_source_file_index>
2194

> <i_lp_mmshare_version>
43012

> <i_f3d_flags>
0

> <s_epik_input>
W0NIM11jMVtjSF1bY0hdYyhbY0hdW2NIXTEpT1tDSDJdW0NASF0oW09IXSlbQ0gyXW4oW2NIXW4yKWMoYzIzKWMoPU8pbihbQ0gzXSljKD1PKW4zW0NIM10=

> <s_epik_cmdline>
J2VwaWtfcHl0aG9uJywgJy1waCcsICc3LjAnLCAnLXRuJywgJzgnLCAnLW1hJywgJzIwMCcsICctbWV0YWxfYmluZGluZycsICctaW1hZScsICc8aW5maWxlLm1hZT4nLCAnLW9tYWUnLCAnPG91dGZpbGUubWFlPic=

> <r_lp_tautomer_probability>
1

> <r_epik_Ionization_Penalty>
1.06124e-06

> <r_epik_Ionization_Penalty_Charging>
3.25921e-09

> <r_epik_Ionization_Penalty_Neutral>
1.05798e-06

> <r_epik_State_Penalty>
-0

> <r_epik_Charging_Adjusted_Penalty>
3.25921e-09

> <i_epik_Tot_Q>
0

> <i_epik_Tot_abs_Q>
0

> <r_epik_Metal_State_Penalty>
-0

> <b_epik_Metal_Only>
0

> <s_lp_Force_Field>
OPLS_2005

> <r_lp_Energy>
38.6758

> <b_lp_Chiralities_Consistent>
1

> <s_lp_Variant>
AV-unprocessed.smi:2194-2

> <Gold.Version>
5.8.1

> <Gold.Id.Protein>
6NUR|6NUR_protein|mol2

> <Gold.PLP.Fitness>
51.3388

> <Gold.PLP.PLP>
-42.6821

> <Gold.PLP.part.hbond>
-4.2794

> <Gold.PLP.part.metal>
0.0000

> <Gold.PLP.part.buried>
-2.2796

> <Gold.PLP.part.nonpolar>
-35.6121

> <Gold.PLP.part.repulsive>
0.5367

> <Gold.PLP.ligand.clash>
0.0000

> <Gold.PLP.ligand.torsion>
1.1506

> <Gold.PLP.Chemscore.Hbond>
3.0000

> <Gold.PLP.Chemscore.CHOScore>
0.6466

> <Gold.PLP.Chemscore.Metal>
0.0000

> <Gold.Chemscore.Hbonds>
donor molecule, donor type, donor heavy atom, donor atom, acceptor molecule, acceptor atom, score
      L1  H     9    34       P1  7949  1.00
      P1  H  7989  7998       L1     6  0.90
      P1  H 10752 10763       L1     9  0.95
      P1  H 10752 10764       L1    17  0.13
      L1  C    12    37       P1  7948  0.58

> <Gold.PLP.Chemscore.Internal.Correction>
0.0179

> <Gold.Rescore>
     Score         DG    S(hbond)    S(metal)    S(lipo)     H(rot)  DE(clash)    DE(int)     intcor
     14.55     -16.92       2.24        0.00      92.54       2.69       1.33       1.04       ----

> <Gold.Chemscore.Fitness>
14.5531

> <Gold.Chemscore.DG>
-16.9195

> <Gold.Chemscore.ZeroCoef>
-5.4800

> <Gold.Chemscore.Hbond>
2.2439

> <Gold.Chemscore.Metal>
0.0000

> <Gold.Chemscore.Lipo>
92.5424

> <Gold.Chemscore.Internal_Hbond>
0.0000

> <Gold.Chemscore.DEClash>
1.3277

> <Gold.Chemscore.DEInternal>
1.0387

> <Gold.Chemscore.Rot>
2.6885

> <Gold.Chemscore.Internal.Correction>
   9.000000E+99

> <Gold.Chemscore.Hbonds>
donor molecule, donor type, donor heavy atom, donor atom, acceptor molecule, acceptor atom, score
      L1  H     9    34       P1  7949  0.97
      P1  H  7989  7998       L1     6  0.16
      P1  H 10752 10763       L1     9  0.17
      P1  H 10752 10764       L1    17  0.07

> <Gold.Chemscore.Hbond.Weighted>
-7.4945

> <Gold.Chemscore.Metal.Weighted>
-0.0000

> <Gold.Chemscore.Lipo.Weighted>
-10.8275

> <Gold.Chemscore.Internal_Hbond.Weighted>
0.0000

> <Gold.Chemscore.DEClash.Weighted>
1.3277

> <Gold.Chemscore.DEInternal.Weighted>
1.0387

> <Gold.Chemscore.Rot.Weighted>
6.8825

> <Gold.Chemscore.Internal.Correction.Weighted>
   9.000000E+99

> <Gold.Protein.RotatedTorsions>
[ 6907 6896 6895 6894 ] final -142.04 input  -60.11 | X-H torsion
[ 7974 7965 7964 7962 ] final  -86.59 input  175.53 | X-H torsion
[ 8008 7997 7996 7995 ] final  -97.74 input   59.86 | X-H torsion
[ 10167 10162 10161 10158 ] final   99.09 input  -65.29 | X-H torsion
[ 10718 10713 10712 10709 ] final  129.65 input   66.30 | X-H torsion
[ 10763 10752 10751 10750 ] final   29.67 input  -60.55 | X-H torsion
[ 11005 11000 10999 10996 ] final  -59.67 input  -57.11 | X-H torsion

> <Gold.Protein.ActiveResidues>
 VAL166  LYS551  ARG553  GLY616  TRP617  ASP618  TYR619  PRO620  LYS621  CYS622 
 ASP623  PHE694  ASN695  SER759  ASP760  ASP761  ALA762  ILE779  LEU786  VAL792 
 PHE793  MET794  SER795  GLU796  ALA797  LYS798  CYS799  TRP800  GLU811  SER814 

> <Gold.Protein.RotatedAtoms>
  151.0817  133.5385  159.2620 H   0  0  0  0  0  0  0  0  0  0  0  0  # atno 6907 bound_to 6896
  151.2285  135.0545  159.8988 H   0  0  0  0  0  0  0  0  0  0  0  0  # atno 6908 bound_to 6896
  152.5424  134.0609  159.8205 H   0  0  0  0  0  0  0  0  0  0  0  0  # atno 6909 bound_to 6896
  145.4778  140.9558  143.1881 H   0  0  0  0  0  0  0  0  0  0  0  0  # atno 7974 bound_to 7965
  154.7918  140.0460  157.1206 H   0  0  0  0  0  0  0  0  0  0  0  0  # atno 8008 bound_to 7997
  154.9582  140.3074  155.5023 H   0  0  0  0  0  0  0  0  0  0  0  0  # atno 8009 bound_to 7997
  156.2951  140.2275  156.4665 H   0  0  0  0  0  0  0  0  0  0  0  0  # atno 8010 bound_to 7997
  139.7649  144.6942  151.0239 H   0  0  0  0  0  0  0  0  0  0  0  0  # atno 10167 bound_to 10162
  157.5135  131.1097  150.9259 H   0  0  0  0  0  0  0  0  0  0  0  0  # atno 10718 bound_to 10713
  153.0417  135.6483  154.0926 H   0  0  0  0  0  0  0  0  0  0  0  0  # atno 10763 bound_to 10752
  154.0631  135.2886  155.3323 H   0  0  0  0  0  0  0  0  0  0  0  0  # atno 10764 bound_to 10752
  154.6644  135.5379  153.8124 H   0  0  0  0  0  0  0  0  0  0  0  0  # atno 10765 bound_to 10752
  141.1257  133.6617  156.5107 H   0  0  0  0  0  0  0  0  0  0  0  0  # atno 11005 bound_to 11000
  144.7907  139.6335  143.7114 LP  0  0  0  0  0  0  0  0  0  0  0  0  # atno 17320 bound_to 7965
  146.2359  139.5904  142.9524 LP  0  0  0  0  0  0  0  0  0  0  0  0  # atno 17321 bound_to 7965
  140.7810  143.4654  151.0219 LP  0  0  0  0  0  0  0  0  0  0  0  0  # atno 17342 bound_to 10162
  139.8340  143.7653  152.3180 LP  0  0  0  0  0  0  0  0  0  0  0  0  # atno 17343 bound_to 10162
  156.9892  130.5556  149.5302 LP  0  0  0  0  0  0  0  0  0  0  0  0  # atno 17370 bound_to 10713
  156.0304  130.5396  150.8520 LP  0  0  0  0  0  0  0  0  0  0  0  0  # atno 17371 bound_to 10713
  140.4371  134.7049  157.4972 LP  0  0  0  0  0  0  0  0  0  0  0  0  # atno 17394 bound_to 11000
  140.0254  134.6485  155.9180 LP  0  0  0  0  0  0  0  0  0  0  0  0  # atno 17395 bound_to 11000

$$$$
