AV-unprocessed.smi:1697|AV-procd|sdf|6806|dock3
  -GOLD-   22720 7583D 1   1.00000     0.00000
 Structure written by MMmdl.
 54 56  0  0  0  0  0  0  0  0  2 V2000
  145.6692  134.0965  157.1462 C   0  0  0  0  0  0  0  0  0  0  0  0
  147.0615  134.5059  157.6309 C   0  0  0  0  0  0  0  0  0  0  0  0
  148.0156  134.1073  156.6576 O   0  0  0  0  0  0  0  0  0  0  0  0
  147.6953  134.4830  155.3230 C   0  0  2  0  0  0  0  0  0  0  0  0
  148.8443  134.1523  154.3519 C   0  0  0  0  0  0  0  0  0  0  0  0
  150.1022  134.9788  154.6679 C   0  0  0  0  0  0  0  0  0  0  0  0
  149.8076  136.4366  154.6408 N   0  3  2  0  0  0  0  0  0  0  0  0
  151.0165  137.2831  154.8125 C   0  0  0  0  0  0  0  0  0  0  0  0
  151.4942  137.3357  156.2771 C   0  0  1  0  0  0  0  0  0  0  0  0
  152.1059  136.1011  156.6002 O   0  0  0  0  0  0  0  0  0  0  0  0
  152.4964  138.4816  156.5146 C   0  0  0  0  0  0  0  0  0  0  0  0
  151.8549  139.7843  156.5224 N   0  0  0  0  0  0  0  0  0  0  0  0
  150.9814  140.2602  155.6143 C   0  0  0  0  0  0  0  0  0  0  0  0
  150.5036  141.4849  155.8117 N   0  0  0  0  0  0  0  0  0  0  0  0
  151.1434  141.8481  156.9844 C   0  0  0  0  0  0  0  0  0  0  0  0
  151.0693  143.0404  157.7371 C   0  0  0  0  0  0  0  0  0  0  0  0
  151.8215  143.1968  158.9227 C   0  0  0  0  0  0  0  0  0  0  0  0
  151.7107  144.4960  159.7011 C   0  0  0  0  0  0  0  0  0  0  0  0
  152.6653  142.1497  159.3724 C   0  0  0  0  0  0  0  0  0  0  0  0
  153.4831  142.2964  160.6433 C   0  0  0  0  0  0  0  0  0  0  0  0
  152.7504  140.9511  158.6333 C   0  0  0  0  0  0  0  0  0  0  0  0
  151.9971  140.8073  157.4545 C   0  0  0  0  0  0  0  0  0  0  0  0
  148.7270  136.7933  155.5960 C   0  0  0  0  0  0  0  0  0  0  0  0
  147.4409  135.9979  155.3085 C   0  0  0  0  0  0  0  0  0  0  0  0
  144.9055  134.3774  157.8717 H   0  0  0  0  0  0  0  0  0  0  0  0
  145.6083  133.0182  156.9976 H   0  0  0  0  0  0  0  0  0  0  0  0
  145.4260  134.5801  156.1997 H   0  0  0  0  0  0  0  0  0  0  0  0
  147.0913  135.5838  157.7890 H   0  0  0  0  0  0  0  0  0  0  0  0
  147.2753  134.0254  158.5867 H   0  0  0  0  0  0  0  0  0  0  0  0
  146.7816  133.9758  155.0086 H   0  0  0  0  0  0  0  0  0  0  0  0
  149.0807  133.0890  154.3706 H   0  0  0  0  0  0  0  0  0  0  0  0
  148.5232  134.3670  153.3317 H   0  0  0  0  0  0  0  0  0  0  0  0
  150.4956  134.7026  155.6478 H   0  0  0  0  0  0  0  0  0  0  0  0
  150.8750  134.7330  153.9411 H   0  0  0  0  0  0  0  0  0  0  0  0
  151.8321  136.8986  154.1978 H   0  0  0  0  0  0  0  0  0  0  0  0
  150.8065  138.2871  154.4403 H   0  0  0  0  0  0  0  0  0  0  0  0
  150.6461  137.4764  156.9464 H   0  0  0  0  0  0  0  0  0  0  0  0
  152.4782  136.1637  157.4670 H   0  0  0  0  0  0  0  0  0  0  0  0
  153.0238  138.3439  157.4595 H   0  0  0  0  0  0  0  0  0  0  0  0
  153.2571  138.4836  155.7327 H   0  0  0  0  0  0  0  0  0  0  0  0
  150.6763  139.6721  154.7610 H   0  0  0  0  0  0  0  0  0  0  0  0
  150.4259  143.8376  157.3948 H   0  0  0  0  0  0  0  0  0  0  0  0
  152.6835  144.9830  159.7725 H   0  0  0  0  0  0  0  0  0  0  0  0
  151.3425  144.3065  160.7094 H   0  0  0  0  0  0  0  0  0  0  0  0
  151.0231  145.1918  159.2193 H   0  0  0  0  0  0  0  0  0  0  0  0
  154.0798  141.4048  160.8380 H   0  0  0  0  0  0  0  0  0  0  0  0
  152.8303  142.4563  161.5015 H   0  0  0  0  0  0  0  0  0  0  0  0
  154.1648  143.1434  160.5632 H   0  0  0  0  0  0  0  0  0  0  0  0
  153.3880  140.1460  158.9667 H   0  0  0  0  0  0  0  0  0  0  0  0
  149.0667  136.6104  156.6168 H   0  0  0  0  0  0  0  0  0  0  0  0
  148.5075  137.8591  155.5223 H   0  0  0  0  0  0  0  0  0  0  0  0
  147.0478  136.2892  154.3335 H   0  0  0  0  0  0  0  0  0  0  0  0
  146.6714  136.2544  156.0375 H   0  0  0  0  0  0  0  0  0  0  0  0
  149.4478  136.6481  153.7206 H   0  0  0  0  0  0  0  0  0  0  0  0
  1  2  1  0  0  0  0
  1 25  1  0  0  0  0
  1 26  1  0  0  0  0
  1 27  1  0  0  0  0
  2  3  1  0  0  0  0
  2 28  1  0  0  0  0
  2 29  1  0  0  0  0
  3  4  1  0  0  0  0
  4 24  1  0  0  0  0
  4  5  1  0  0  0  0
  4 30  1  0  0  0  0
  5  6  1  0  0  0  0
  5 31  1  0  0  0  0
  5 32  1  0  0  0  0
  6  7  1  0  0  0  0
  6 33  1  0  0  0  0
  6 34  1  0  0  0  0
  7  8  1  0  0  0  0
  7 23  1  0  0  0  0
  7 54  1  0  0  0  0
  8  9  1  0  0  0  0
  8 35  1  0  0  0  0
  8 36  1  0  0  0  0
  9 10  1  0  0  0  0
  9 11  1  0  0  0  0
  9 37  1  0  0  0  0
 10 38  1  0  0  0  0
 11 12  1  0  0  0  0
 11 39  1  0  0  0  0
 11 40  1  0  0  0  0
 12 22  1  0  0  0  0
 12 13  1  0  0  0  0
 13 14  2  0  0  0  0
 13 41  1  0  0  0  0
 14 15  1  0  0  0  0
 15 22  2  0  0  0  0
 15 16  1  0  0  0  0
 16 17  2  0  0  0  0
 16 42  1  0  0  0  0
 17 18  1  0  0  0  0
 17 19  1  0  0  0  0
 18 43  1  0  0  0  0
 18 44  1  0  0  0  0
 18 45  1  0  0  0  0
 19 20  1  0  0  0  0
 19 21  2  0  0  0  0
 20 46  1  0  0  0  0
 20 47  1  0  0  0  0
 20 48  1  0  0  0  0
 21 22  1  0  0  0  0
 21 49  1  0  0  0  0
 23 24  1  0  0  0  0
 23 50  1  0  0  0  0
 23 51  1  0  0  0  0
 24 52  1  0  0  0  0
 24 53  1  0  0  0  0
M  CHG  1   7   1
M  END
> <s_m_source_file>
AV-unprocessed.smi

> <i_m_source_file_index>
1697

> <i_lp_mmshare_version>
43012

> <i_f3d_flags>
0

> <s_epik_input>
W0NIM11bQ0gyXU9bQ0hdMVtDSDJdW0NIMl1OKFtDSDJdW0NIMl0xKVtDSDJdW0NASF0oW09IXSlbQ0gyXW4oW2NIXW4yKWMoYzIzKVtjSF1jKFtDSDNdKWMoW2NIXTMpW0NIM10=

> <s_epik_cmdline>
J2VwaWtfcHl0aG9uJywgJy1waCcsICc3LjAnLCAnLXRuJywgJzgnLCAnLW1hJywgJzIwMCcsICctbWV0YWxfYmluZGluZycsICctaW1hZScsICc8aW5maWxlLm1hZT4nLCAnLW9tYWUnLCAnPG91dGZpbGUubWFlPic=

> <r_epik_Ionization_Penalty>
0.112476

> <r_epik_Ionization_Penalty_Charging>
0.0244612

> <r_epik_Ionization_Penalty_Neutral>
0.0880147

> <r_epik_State_Penalty>
0.0961447

> <r_epik_Charging_Adjusted_Penalty>
0.120606

> <i_epik_Tot_Q>
1

> <i_epik_Tot_abs_Q>
1

> <r_epik_Metal_State_Penalty>
0.0206204

> <b_epik_Metal_Only>
0

> <s_lp_Force_Field>
OPLS_2005

> <r_lp_Energy>
22.8638

> <b_lp_Chiralities_Consistent>
1

> <s_lp_Variant>
AV-unprocessed.smi:1697-4

> <Gold.Version>
5.8.1

> <Gold.Id.Protein>
6NUR|6NUR_protein|mol2

> <Gold.PLP.Fitness>
47.4588

> <Gold.PLP.PLP>
-39.1144

> <Gold.PLP.part.hbond>
-2.1029

> <Gold.PLP.part.metal>
0.0000

> <Gold.PLP.part.buried>
-4.9510

> <Gold.PLP.part.nonpolar>
-32.8490

> <Gold.PLP.part.repulsive>
0.1184

> <Gold.PLP.ligand.clash>
0.0000

> <Gold.PLP.ligand.torsion>
0.4517

> <Gold.PLP.Chemscore.Hbond>
3.0000

> <Gold.PLP.Chemscore.CHOScore>
0.0000

> <Gold.PLP.Chemscore.Metal>
0.0000

> <Gold.Chemscore.Hbonds>
donor molecule, donor type, donor heavy atom, donor atom, acceptor molecule, acceptor atom, score
      L1  H     7    54       P1  7948  2.00
      P1  H 10752 10764       L1    10  1.00

> <Gold.PLP.Chemscore.Internal.Correction>
0.2478

> <Gold.Rescore>
     Score         DG    S(hbond)    S(metal)    S(lipo)     H(rot)  DE(clash)    DE(int)     intcor
     17.66     -18.37       1.75        0.00     110.04       2.27       0.02       0.70       ----

> <Gold.Chemscore.Fitness>
17.6579

> <Gold.Chemscore.DG>
-18.3716

> <Gold.Chemscore.ZeroCoef>
-5.4800

> <Gold.Chemscore.Hbond>
1.7457

> <Gold.Chemscore.Metal>
0.0000

> <Gold.Chemscore.Lipo>
110.0403

> <Gold.Chemscore.Internal_Hbond>
0.0000

> <Gold.Chemscore.DEClash>
0.0156

> <Gold.Chemscore.DEInternal>
0.6981

> <Gold.Chemscore.Rot>
2.2710

> <Gold.Chemscore.Internal.Correction>
   9.000000E+99

> <Gold.Chemscore.Hbonds>
donor molecule, donor type, donor heavy atom, donor atom, acceptor molecule, acceptor atom, score
      L1  H     7    54       P1  7948  0.83
      P1  H 10752 10764       L1    10  0.65

> <Gold.Chemscore.Hbond.Weighted>
-5.8305

> <Gold.Chemscore.Metal.Weighted>
-0.0000

> <Gold.Chemscore.Lipo.Weighted>
-12.8747

> <Gold.Chemscore.Internal_Hbond.Weighted>
0.0000

> <Gold.Chemscore.DEClash.Weighted>
0.0156

> <Gold.Chemscore.DEInternal.Weighted>
0.6981

> <Gold.Chemscore.Rot.Weighted>
5.8137

> <Gold.Chemscore.Internal.Correction.Weighted>
   9.000000E+99

> <Gold.Protein.RotatedTorsions>
[ 6907 6896 6895 6894 ] final   69.67 input  -60.11 | X-H torsion
[ 7974 7965 7964 7962 ] final  -92.04 input  175.53 | X-H torsion
[ 8008 7997 7996 7995 ] final  123.46 input   59.86 | X-H torsion
[ 10167 10162 10161 10158 ] final  -83.95 input  -65.29 | X-H torsion
[ 10718 10713 10712 10709 ] final    2.88 input   66.30 | X-H torsion
[ 10763 10752 10751 10750 ] final   -2.42 input  -60.55 | X-H torsion
[ 11005 11000 10999 10996 ] final  164.44 input  -57.11 | X-H torsion

> <Gold.Protein.ActiveResidues>
 VAL166  LYS551  ARG553  GLY616  TRP617  ASP618  TYR619  PRO620  LYS621  CYS622 
 ASP623  PHE694  ASN695  SER759  ASP760  ASP761  ALA762  ILE779  LEU786  VAL792 
 PHE793  MET794  SER795  GLU796  ALA797  LYS798  CYS799  TRP800  GLU811  SER814 

> <Gold.Protein.RotatedAtoms>
  152.4701  134.4981  159.9715 H   0  0  0  0  0  0  0  0  0  0  0  0  # atno 6907 bound_to 6896
  151.5010  133.3498  159.2877 H   0  0  0  0  0  0  0  0  0  0  0  0  # atno 6908 bound_to 6896
  150.8706  134.8107  159.7214 H   0  0  0  0  0  0  0  0  0  0  0  0  # atno 6909 bound_to 6896
  145.4051  140.9540  143.2265 H   0  0  0  0  0  0  0  0  0  0  0  0  # atno 7974 bound_to 7965
  156.2767  140.2762  156.1631 H   0  0  0  0  0  0  0  0  0  0  0  0  # atno 8008 bound_to 7997
  155.0733  140.0387  157.2633 H   0  0  0  0  0  0  0  0  0  0  0  0  # atno 8009 bound_to 7997
  154.7023  140.2651  155.6713 H   0  0  0  0  0  0  0  0  0  0  0  0  # atno 8010 bound_to 7997
  140.4179  143.2596  151.8930 H   0  0  0  0  0  0  0  0  0  0  0  0  # atno 10167 bound_to 10162
  156.8696  130.5615  149.5658 H   0  0  0  0  0  0  0  0  0  0  0  0  # atno 10718 bound_to 10713
  153.3578  135.6989  153.6736 H   0  0  0  0  0  0  0  0  0  0  0  0  # atno 10763 bound_to 10752
  153.5437  135.3567  155.2730 H   0  0  0  0  0  0  0  0  0  0  0  0  # atno 10764 bound_to 10752
  154.8663  135.4210  154.2828 H   0  0  0  0  0  0  0  0  0  0  0  0  # atno 10765 bound_to 10752
  140.2459  134.8014  157.3456 H   0  0  0  0  0  0  0  0  0  0  0  0  # atno 11005 bound_to 11000
  144.8347  139.5570  143.6928 LP  0  0  0  0  0  0  0  0  0  0  0  0  # atno 17320 bound_to 7965
  146.2732  139.6688  142.9281 LP  0  0  0  0  0  0  0  0  0  0  0  0  # atno 17321 bound_to 7965
  139.4782  144.5469  151.8445 LP  0  0  0  0  0  0  0  0  0  0  0  0  # atno 17342 bound_to 10162
  140.4566  144.1780  150.5902 LP  0  0  0  0  0  0  0  0  0  0  0  0  # atno 17343 bound_to 10162
  156.0733  130.5761  150.9426 LP  0  0  0  0  0  0  0  0  0  0  0  0  # atno 17370 bound_to 10713
  157.6203  131.0930  150.8634 LP  0  0  0  0  0  0  0  0  0  0  0  0  # atno 17371 bound_to 10713
  140.1606  134.4733  155.7897 LP  0  0  0  0  0  0  0  0  0  0  0  0  # atno 17394 bound_to 11000
  141.2206  133.6900  156.7538 LP  0  0  0  0  0  0  0  0  0  0  0  0  # atno 17395 bound_to 11000

$$$$
