AV-unprocessed.smi:3350|AV-procd|sdf|12942|dock1
  -GOLD-   2272019373D 1   1.00000     0.00000
 Structure written by MMmdl.
 41 42  0  0  0  0  0  0  0  0  1 V2000
  144.7155  137.0820  153.0910 C   0  0  0  0  0  0  0  0  0  0  0  0
  145.3413  135.7602  152.6263 C   0  0  1  0  0  0  0  0  0  0  0  0
  145.1530  135.5526  151.1091 C   0  0  0  0  0  0  0  0  0  0  0  0
  145.1616  134.1503  150.7301 N   0  0  0  0  0  0  0  0  0  0  0  0
  144.1691  133.4259  150.1041 C   0  0  0  0  0  0  0  0  0  0  0  0
  144.6273  132.1477  149.9620 C   0  0  0  0  0  0  0  0  0  0  0  0
  145.9279  132.1890  150.5379 C   0  0  0  0  0  0  0  0  0  0  0  0
  146.2462  133.3894  150.9940 N   0  0  0  0  0  0  0  0  0  0  0  0
  146.7599  135.7567  152.9810 N   0  0  0  0  0  0  0  0  0  0  0  0
  147.2543  135.6503  154.2231 C   0  0  0  0  0  0  0  0  0  0  0  0
  146.5630  135.5478  155.2367 O   0  0  0  0  0  0  0  0  0  0  0  0
  148.5946  135.6622  154.2227 N   0  0  0  0  0  0  0  0  0  0  0  0
  149.4455  135.5562  155.4054 C   0  0  1  0  0  0  0  0  0  0  0  0
  150.2429  134.2461  155.3131 C   0  0  0  0  0  0  0  0  0  0  0  0
  150.3616  136.7936  155.5068 C   0  0  2  0  0  0  0  0  0  0  0  0
  149.6550  138.1326  155.2841 C   0  0  0  0  0  0  0  0  0  0  0  0
  150.7598  139.0501  154.7813 C   0  0  0  0  0  0  0  0  0  0  0  0
  151.9068  138.0978  154.4354 C   0  0  0  0  0  0  0  0  0  0  0  0
  151.3278  136.8017  154.4665 O   0  0  0  0  0  0  0  0  0  0  0  0
  143.6466  137.1063  152.8771 H   0  0  0  0  0  0  0  0  0  0  0  0
  145.1736  137.9365  152.5918 H   0  0  0  0  0  0  0  0  0  0  0  0
  144.8384  137.2184  154.1661 H   0  0  0  0  0  0  0  0  0  0  0  0
  144.8237  134.9570  153.1541 H   0  0  0  0  0  0  0  0  0  0  0  0
  144.1992  135.9750  150.7910 H   0  0  0  0  0  0  0  0  0  0  0  0
  145.9271  136.0816  150.5502 H   0  0  0  0  0  0  0  0  0  0  0  0
  143.2285  133.8744  149.8201 H   0  0  0  0  0  0  0  0  0  0  0  0
  144.1115  131.3102  149.5164 H   0  0  0  0  0  0  0  0  0  0  0  0
  146.6461  131.3884  150.6358 H   0  0  0  0  0  0  0  0  0  0  0  0
  147.4162  135.8292  152.2176 H   0  0  0  0  0  0  0  0  0  0  0  0
  149.0657  135.7508  153.3345 H   0  0  0  0  0  0  0  0  0  0  0  0
  148.8243  135.5021  156.3015 H   0  0  0  0  0  0  0  0  0  0  0  0
  150.8480  134.0849  156.2053 H   0  0  0  0  0  0  0  0  0  0  0  0
  150.9127  134.2481  154.4526 H   0  0  0  0  0  0  0  0  0  0  0  0
  149.5764  133.3885  155.2147 H   0  0  0  0  0  0  0  0  0  0  0  0
  150.8811  136.8050  156.4673 H   0  0  0  0  0  0  0  0  0  0  0  0
  148.8896  138.0312  154.5133 H   0  0  0  0  0  0  0  0  0  0  0  0
  149.1735  138.5081  156.1875 H   0  0  0  0  0  0  0  0  0  0  0  0
  150.4273  139.6119  153.9078 H   0  0  0  0  0  0  0  0  0  0  0  0
  151.0682  139.7665  155.5434 H   0  0  0  0  0  0  0  0  0  0  0  0
  152.3498  138.3097  153.4620 H   0  0  0  0  0  0  0  0  0  0  0  0
  152.6943  138.1560  155.1883 H   0  0  0  0  0  0  0  0  0  0  0  0
  1  2  1  0  0  0  0
  1 20  1  0  0  0  0
  1 21  1  0  0  0  0
  1 22  1  0  0  0  0
  2  3  1  0  0  0  0
  2  9  1  0  0  0  0
  2 23  1  0  0  0  0
  3  4  1  0  0  0  0
  3 24  1  0  0  0  0
  3 25  1  0  0  0  0
  4  8  1  0  0  0  0
  4  5  1  0  0  0  0
  5  6  2  0  0  0  0
  5 26  1  0  0  0  0
  6  7  1  0  0  0  0
  6 27  1  0  0  0  0
  7  8  2  0  0  0  0
  7 28  1  0  0  0  0
  9 10  1  0  0  0  0
  9 29  1  0  0  0  0
 10 11  2  0  0  0  0
 10 12  1  0  0  0  0
 12 13  1  0  0  0  0
 12 30  1  0  0  0  0
 13 14  1  0  0  0  0
 13 15  1  0  0  0  0
 13 31  1  0  0  0  0
 14 32  1  0  0  0  0
 14 33  1  0  0  0  0
 14 34  1  0  0  0  0
 15 19  1  0  0  0  0
 15 16  1  0  0  0  0
 15 35  1  0  0  0  0
 16 17  1  0  0  0  0
 16 36  1  0  0  0  0
 16 37  1  0  0  0  0
 17 18  1  0  0  0  0
 17 38  1  0  0  0  0
 17 39  1  0  0  0  0
 18 19  1  0  0  0  0
 18 40  1  0  0  0  0
 18 41  1  0  0  0  0
M  END
> <s_m_source_file>
AV-unprocessed.smi

> <i_m_source_file_index>
3350

> <i_lp_mmshare_version>
43012

> <i_f3d_flags>
0

> <s_epik_input>
bjFbY0hdW2NIXVtjSF1uMVtDSDJdW0NAQEhdKFtDSDNdKVtOSF1DKD1PKVtOSF1bQ0BIXShbQ0gzXSlbQ0BASF0yW0NIMl1bQ0gyXVtDSDJdTzI=

> <s_epik_cmdline>
J2VwaWtfcHl0aG9uJywgJy1waCcsICc3LjAnLCAnLXRuJywgJzgnLCAnLW1hJywgJzIwMCcsICctbWV0YWxfYmluZGluZycsICctaW1hZScsICc8aW5maWxlLm1hZT4nLCAnLW9tYWUnLCAnPG91dGZpbGUubWFlPic=

> <r_lp_tautomer_probability>
1

> <r_epik_Ionization_Penalty>
6.42349e-05

> <r_epik_Ionization_Penalty_Charging>
0

> <r_epik_Ionization_Penalty_Neutral>
6.42349e-05

> <r_epik_State_Penalty>
-0

> <r_epik_Charging_Adjusted_Penalty>
0

> <i_epik_Tot_Q>
0

> <i_epik_Tot_abs_Q>
0

> <r_epik_Metal_State_Penalty>
-0

> <b_epik_Metal_Only>
0

> <s_lp_Force_Field>
OPLS_2005

> <r_lp_Energy>
15.8996

> <b_lp_Chiralities_Consistent>
1

> <s_lp_Variant>
AV-unprocessed.smi:3350-4

> <Gold.Version>
5.8.1

> <Gold.Id.Protein>
6NUR|6NUR_protein|mol2

> <Gold.PLP.Fitness>
44.9857

> <Gold.PLP.PLP>
-31.3830

> <Gold.PLP.part.hbond>
-2.7017

> <Gold.PLP.part.metal>
0.0000

> <Gold.PLP.part.buried>
-5.1802

> <Gold.PLP.part.nonpolar>
-24.7728

> <Gold.PLP.part.repulsive>
0.6806

> <Gold.PLP.ligand.clash>
0.0000

> <Gold.PLP.ligand.torsion>
0.5592

> <Gold.PLP.Chemscore.Hbond>
2.8560

> <Gold.PLP.Chemscore.CHOScore>
2.0000

> <Gold.PLP.Chemscore.Metal>
0.0000

> <Gold.Chemscore.Hbonds>
donor molecule, donor type, donor heavy atom, donor atom, acceptor molecule, acceptor atom, score
      L1  H     9    29       P1  7948  0.90
      L1  H    12    30       P1  7948  0.95
      P1  H 10752 10764       L1    19  1.00
      L1  C     5    26       P1 10186  1.00
      L1  C     7    28       P1 10747  1.00

> <Gold.PLP.Chemscore.Internal.Correction>
0.1532

> <Gold.Rescore>
     Score         DG    S(hbond)    S(metal)    S(lipo)     H(rot)  DE(clash)    DE(int)     intcor
     16.26     -16.80       2.28        0.00      71.55       1.82       0.07       0.47       ----

> <Gold.Chemscore.Fitness>
16.2570

> <Gold.Chemscore.DG>
-16.8032

> <Gold.Chemscore.ZeroCoef>
-5.4800

> <Gold.Chemscore.Hbond>
2.2784

> <Gold.Chemscore.Metal>
0.0000

> <Gold.Chemscore.Lipo>
71.5541

> <Gold.Chemscore.Internal_Hbond>
0.0000

> <Gold.Chemscore.DEClash>
0.0718

> <Gold.Chemscore.DEInternal>
0.4745

> <Gold.Chemscore.Rot>
1.8197

> <Gold.Chemscore.Internal.Correction>
   9.000000E+99

> <Gold.Chemscore.Hbonds>
donor molecule, donor type, donor heavy atom, donor atom, acceptor molecule, acceptor atom, score
      L1  H     9    29       P1  7948  0.86
      L1  H    12    30       P1  7948  0.67
      P1  H 10752 10764       L1    19  0.38

> <Gold.Chemscore.Hbond.Weighted>
-7.6097

> <Gold.Chemscore.Metal.Weighted>
-0.0000

> <Gold.Chemscore.Lipo.Weighted>
-8.3718

> <Gold.Chemscore.Internal_Hbond.Weighted>
0.0000

> <Gold.Chemscore.DEClash.Weighted>
0.0718

> <Gold.Chemscore.DEInternal.Weighted>
0.4745

> <Gold.Chemscore.Rot.Weighted>
4.6583

> <Gold.Chemscore.Internal.Correction.Weighted>
   9.000000E+99

> <Gold.Protein.RotatedTorsions>
[ 6907 6896 6895 6894 ] final  -44.42 input  -60.11 | X-H torsion
[ 7974 7965 7964 7962 ] final  157.67 input  175.53 | X-H torsion
[ 8008 7997 7996 7995 ] final  -99.21 input   59.86 | X-H torsion
[ 10167 10162 10161 10158 ] final  119.86 input  -65.29 | X-H torsion
[ 10718 10713 10712 10709 ] final -127.38 input   66.30 | X-H torsion
[ 10763 10752 10751 10750 ] final  -62.48 input  -60.55 | X-H torsion
[ 11005 11000 10999 10996 ] final -100.34 input  -57.11 | X-H torsion

> <Gold.Protein.ActiveResidues>
 VAL166  LYS551  ARG553  GLY616  TRP617  ASP618  TYR619  PRO620  LYS621  CYS622 
 ASP623  PHE694  ASN695  SER759  ASP760  ASP761  ALA762  ILE779  LEU786  VAL792 
 PHE793  MET794  SER795  GLU796  ALA797  LYS798  CYS799  TRP800  GLU811  SER814 

> <Gold.Protein.RotatedAtoms>
  150.9330  134.8744  159.7563 H   0  0  0  0  0  0  0  0  0  0  0  0  # atno 6907 bound_to 6896
  152.5046  134.4052  159.9440 H   0  0  0  0  0  0  0  0  0  0  0  0  # atno 6908 bound_to 6896
  151.4077  133.3697  159.2775 H   0  0  0  0  0  0  0  0  0  0  0  0  # atno 6909 bound_to 6896
  144.7890  139.7372  143.6229 H   0  0  0  0  0  0  0  0  0  0  0  0  # atno 7974 bound_to 7965
  154.8117  140.0449  157.1348 H   0  0  0  0  0  0  0  0  0  0  0  0  # atno 8008 bound_to 7997
  154.9360  140.3046  155.5124 H   0  0  0  0  0  0  0  0  0  0  0  0  # atno 8009 bound_to 7997
  156.2972  140.2314  156.4425 H   0  0  0  0  0  0  0  0  0  0  0  0  # atno 8010 bound_to 7997
  139.6019  144.7059  151.3043 H   0  0  0  0  0  0  0  0  0  0  0  0  # atno 10167 bound_to 10162
  156.1852  130.6758  151.0355 H   0  0  0  0  0  0  0  0  0  0  0  0  # atno 10718 bound_to 10713
  154.3005  135.6235  153.5423 H   0  0  0  0  0  0  0  0  0  0  0  0  # atno 10763 bound_to 10752
  152.9841  135.5677  154.5289 H   0  0  0  0  0  0  0  0  0  0  0  0  # atno 10764 bound_to 10752
  154.4918  135.2867  155.1466 H   0  0  0  0  0  0  0  0  0  0  0  0  # atno 10765 bound_to 10752
  141.1274  133.8391  157.1090 H   0  0  0  0  0  0  0  0  0  0  0  0  # atno 11005 bound_to 11000
  146.2134  139.5506  142.9666 LP  0  0  0  0  0  0  0  0  0  0  0  0  # atno 17320 bound_to 7965
  145.5845  141.0378  143.2104 LP  0  0  0  0  0  0  0  0  0  0  0  0  # atno 17321 bound_to 7965
  140.7256  143.7013  150.7842 LP  0  0  0  0  0  0  0  0  0  0  0  0  # atno 17342 bound_to 10162
  140.0591  143.5173  152.2636 LP  0  0  0  0  0  0  0  0  0  0  0  0  # atno 17343 bound_to 10162
  157.6894  131.0815  150.7151 LP  0  0  0  0  0  0  0  0  0  0  0  0  # atno 17370 bound_to 10713
  156.7207  130.4680  149.5523 LP  0  0  0  0  0  0  0  0  0  0  0  0  # atno 17371 bound_to 10713
  140.0287  134.9912  157.0737 LP  0  0  0  0  0  0  0  0  0  0  0  0  # atno 17394 bound_to 11000
  140.4321  134.1770  155.7168 LP  0  0  0  0  0  0  0  0  0  0  0  0  # atno 17395 bound_to 11000

$$$$
