#       Name:                AV-unprocessed.smi:703
#       Creating user name   scv26
#       Creation time:       Fri Mar 27 00:41:50 2020


#       File generated by GOLD software.
#

@<TRIPOS>MOLECULE
AV-unprocessed.smi:703
    42    43     1
SMALL
NO_CHARGES


@<TRIPOS>ATOM
      1 ****        -3.1249  -3.5700   0.0408 C.3            1 S1                 0.0000
      2 ****        -2.2169  -2.4623   0.5919 C.3            1 S1                 0.0000
      3 ****        -2.2462  -1.2426  -0.2493 N.4            1 S1                 1.0000
      4 ****        -1.6779  -1.4014  -1.6044 C.3            1 S1                 0.0000
      5 ****        -1.2464   0.0001  -2.0437 C.3            1 S1                 0.0000
      6 ****        -2.3978   0.7697  -2.7118 C.3            1 S1                 0.0000
      7 ****        -0.7965   0.6518  -0.7291 C.3            1 S1                 0.0000
      8 ****         0.6420   0.4420  -0.5361 N.3            1 S1                 0.0000
      9 ****         1.4973   1.5423   0.4816 S.o2           1 S1                 0.0000
     10 ****         1.8572   2.7084  -0.3390 O.2            1 S1                 0.0000
     11 ****         0.7083   1.7243   1.7097 O.2            1 S1                 0.0000
     12 ****         3.0248   0.6014   0.8987 C.3            1 S1                 0.0000
     13 ****         3.8712   1.4129   1.8373 C.2            1 S1                 0.0000
     14 ****         4.6989   2.5303   1.5392 C.2            1 S1                 0.0000
     15 ****         5.2243   2.8701   2.7524 C.2            1 S1                 0.0000
     16 ****         4.7671   2.0347   3.7189 O.3            1 S1                 0.0000
     17 ****         3.9047   1.1066   3.1245 N.2            1 S1                 0.0000
     18 ****        -1.6053  -0.0606   0.3711 C.3            1 S1                 0.0000
     19 ****        -3.1291  -4.4316   0.7087 H              1 S1                 0.0000
     20 ****        -2.7899  -3.9170  -0.9368 H              1 S1                 0.0000
     21 ****        -4.1541  -3.2241  -0.0587 H              1 S1                 0.0000
     22 ****        -2.5554  -2.2013   1.5955 H              1 S1                 0.0000
     23 ****        -1.1921  -2.8235   0.6904 H              1 S1                 0.0000
     24 ****        -0.7996  -2.0474  -1.5556 H              1 S1                 0.0000
     25 ****        -2.3890  -1.8619  -2.2912 H              1 S1                 0.0000
     26 ****        -0.4269  -0.0618  -2.7619 H              1 S1                 0.0000
     27 ****        -3.2568   0.8662  -2.0470 H              1 S1                 0.0000
     28 ****        -2.7329   0.2640  -3.6178 H              1 S1                 0.0000
     29 ****        -2.0830   1.7746  -2.9949 H              1 S1                 0.0000
     30 ****        -0.9902   1.7257  -0.7353 H              1 S1                 0.0000
     31 ****         1.1178   0.3355  -1.4320 H              1 S1                 0.0000
     32 ****         2.7322  -0.3489   1.3460 H              1 S1                 0.0000
     33 ****         3.5623   0.3851  -0.0241 H              1 S1                 0.0000
     34 ****         4.8749   3.0094   0.5875 H              1 S1                 0.0000
     35 ****         5.9049   3.6438   3.0760 H              1 S1                 0.0000
     36 ****        -2.3869   0.5920   0.7609 H              1 S1                 0.0000
     37 ****        -0.9746  -0.3447   1.2154 H              1 S1                 0.0000
     38 ****        -3.2158  -0.9902  -0.3767 H              1 S1                 0.0000
     39 ****         0.6656  -0.4072  -0.0085 LP             1 S1                 0.0000
     40 ****         4.2737   2.5585   4.4132 LP             1 S1                 0.0000
     41 ****         5.5357   1.5576   4.1450 LP             1 S1                 0.0000
     42 ****         3.4139   0.3635   3.5794 LP             1 S1                 0.0000
@<TRIPOS>BOND
    1    1    2 1     
    2    1   19 1     
    3    1   20 1     
    4    1   21 1     
    5    2    3 1     
    6    2   22 1     
    7    2   23 1     
    8    3   18 1     
    9    3    4 1     
   10    3   38 1     
   11    4    5 1     
   12    4   24 1     
   13    4   25 1     
   14    5    6 1     
   15    5    7 1     
   16    5   26 1     
   17    6   27 1     
   18    6   28 1     
   19    6   29 1     
   20    7    8 1     
   21    7   18 1     
   22    7   30 1     
   23    8    9 1     
   24    8   31 1     
   25    9   10 2     
   26    9   11 2     
   27    9   12 1     
   28   12   13 1     
   29   12   32 1     
   30   12   33 1     
   31   13   17 2     
   32   13   14 1     
   33   14   15 2     
   34   14   34 1     
   35   15   16 1     
   36   15   35 1     
   37   16   17 1     
   38   18   36 1     
   39   18   37 1     
   40    8   39 1     
   41   16   40 1     
   42   16   41 1     
   43   17   42 1     
@<TRIPOS>SUBSTRUCTURE
      1 S1             1
@<TRIPOS>SET
LONE_PAIRS      STATIC     ATOMS    <user>   **** ""
6 39 10 11 40 41 42
DONOR_HYDROGENS      STATIC     ATOMS    <user>   **** ""
2 38 31
ATOM$BLUE        STATIC     ATOMS    COLORGROUP SYSTEM
6 39 10 11 40 41 42
ATOM$RED        STATIC     ATOMS    COLORGROUP SYSTEM
2 38 31
