#       Name:                AV-unprocessed.smi:1116
#       Creating user name   scv26
#       Creation time:       Fri Mar 27 03:35:53 2020


#       File generated by GOLD software.
#

@<TRIPOS>MOLECULE
AV-unprocessed.smi:1116
    43    44     1
SMALL
NO_CHARGES


@<TRIPOS>ATOM
      1 ****        -6.8191   0.6434  -1.1390 C.3            1 S1                 0.0000
      2 ****        -5.7946   1.1435  -0.1789 C.2            1 S1                 0.0000
      3 ****        -4.4786   1.0215  -0.3712 N.2            1 S1                 0.0000
      4 ****        -3.7281   1.5742   0.6714 C.2            1 S1                 0.0000
      5 ****        -2.2308   1.5271   0.6234 C.3            1 S1                 0.0000
      6 ****        -1.6775   0.1448   1.0090 C.3            1 S1                 0.0000
      7 ****        -0.2189   0.1321   1.0132 N.am           1 S1                 0.0000
      8 ****         0.5553   0.0072  -0.0755 C.2            1 S1                 0.0000
      9 ****         0.1016  -0.1230  -1.2127 O.2            1 S1                 0.0000
     10 ****         2.0681   0.0494   0.1654 C.3            1 S1                 0.0000
     11 ****         2.8788  -0.7088  -0.9044 C.3            1 S1                 0.0000
     12 ****         4.4014  -0.6261  -0.6805 C.3            1 S1                 0.0000
     13 ****         4.8269  -1.2591   0.5565 N.am           1 S1                 0.0000
     14 ****         5.6940  -2.2593   0.3485 C.2            1 S1                 0.0000
     15 ****         6.2132  -2.9562   1.2169 O.2            1 S1                 0.0000
     16 ****         5.8940  -2.3649  -0.9695 N.am           1 S1                 0.0000
     17 ****         5.1876  -1.4748  -1.6642 C.2            1 S1                 0.0000
     18 ****         5.1585  -1.3442  -2.8863 O.2            1 S1                 0.0000
     19 ****        -4.5027   2.1199   1.6648 C.2            1 S1                 0.0000
     20 ****        -6.2039   1.9584   1.3255 S.3            1 S1                 0.0000
     21 ****        -6.3434   0.1569  -1.9911 H              1 S1                 0.0000
     22 ****        -7.4242   1.4737  -1.5034 H              1 S1                 0.0000
     23 ****        -7.4719  -0.0766  -0.6454 H              1 S1                 0.0000
     24 ****        -1.8873   1.7957  -0.3765 H              1 S1                 0.0000
     25 ****        -1.8163   2.2817   1.2928 H              1 S1                 0.0000
     26 ****        -2.0185  -0.1240   2.0091 H              1 S1                 0.0000
     27 ****        -2.0580  -0.6243   0.3344 H              1 S1                 0.0000
     28 ****         0.2353   0.2333   1.9093 H              1 S1                 0.0000
     29 ****         2.3789   1.0943   0.1929 H              1 S1                 0.0000
     30 ****         2.2794  -0.3663   1.1516 H              1 S1                 0.0000
     31 ****         2.5623  -1.7534  -0.9288 H              1 S1                 0.0000
     32 ****         2.6513  -0.2990  -1.8900 H              1 S1                 0.0000
     33 ****         4.7531   0.4059  -0.7132 H              1 S1                 0.0000
     34 ****         4.5056  -0.9613   1.4662 H              1 S1                 0.0000
     35 ****         6.5050  -3.0486  -1.3915 H              1 S1                 0.0000
     36 ****        -4.1769   2.6054   2.5727 H              1 S1                 0.0000
     37 ****        -4.0739   0.5827  -1.1735 LP             1 S1                 0.0000
     38 ****        -0.8877  -0.1393  -1.3575 LP             1 S1                 0.0000
     39 ****         0.7225  -0.2123  -1.9916 LP             1 S1                 0.0000
     40 ****         5.9977  -2.7975   2.1804 LP             1 S1                 0.0000
     41 ****         6.8514  -3.6820   0.9602 LP             1 S1                 0.0000
     42 ****         4.5856  -0.6366  -3.3001 LP             1 S1                 0.0000
     43 ****         5.7077  -1.9455  -3.4667 LP             1 S1                 0.0000
@<TRIPOS>BOND
    1    1    2 1     
    2    1   21 1     
    3    1   22 1     
    4    1   23 1     
    5    2   20 1     
    6    2    3 2     
    7    3    4 1     
    8    4    5 1     
    9    4   19 2     
   10    5    6 1     
   11    5   24 1     
   12    5   25 1     
   13    6    7 1     
   14    6   26 1     
   15    6   27 1     
   16    7    8 am    
   17    7   28 1     
   18    8    9 2     
   19    8   10 1     
   20   10   11 1     
   21   10   29 1     
   22   10   30 1     
   23   11   12 1     
   24   11   31 1     
   25   11   32 1     
   26   12   17 1     
   27   12   13 1     
   28   12   33 1     
   29   13   14 am    
   30   13   34 1     
   31   14   15 2     
   32   14   16 am    
   33   16   17 am    
   34   16   35 1     
   35   17   18 2     
   36   19   20 1     
   37   19   36 1     
   38    3   37 1     
   39    9   38 1     
   40    9   39 1     
   41   15   40 1     
   42   15   41 1     
   43   18   42 1     
   44   18   43 1     
@<TRIPOS>SUBSTRUCTURE
      1 S1             1
@<TRIPOS>SET
LONE_PAIRS      STATIC     ATOMS    <user>   **** ""
7 37 38 39 40 41 42 43
DONOR_HYDROGENS      STATIC     ATOMS    <user>   **** ""
3 28 34 35
ATOM$BLUE        STATIC     ATOMS    COLORGROUP SYSTEM
7 37 38 39 40 41 42 43
ATOM$RED        STATIC     ATOMS    COLORGROUP SYSTEM
3 28 34 35
