AV-unprocessed.smi:2441|AV-procd|sdf|9620|dock2
  -GOLD-   2272013253D 1   1.00000     0.00000
 Structure written by MMmdl.
 40 41  0  0  0  0  0  0  0  0  1 V2000
  143.5161  136.9408  152.5985 C   0  0  0  0  0  0  0  0  0  0  0  0
  144.0854  135.5443  152.2944 C   0  0  1  0  0  0  0  0  0  0  0  0
  144.4678  135.3982  150.8068 C   0  0  0  0  0  0  0  0  0  0  0  0
  144.9887  133.9867  150.4916 C   0  0  0  0  0  0  0  0  0  0  0  0
  146.1688  133.6079  151.3989 C   0  0  0  0  0  0  0  0  0  0  0  0
  145.7976  133.7504  152.8852 C   0  0  0  0  0  0  0  0  0  0  0  0
  145.2656  135.1583  153.2218 C   0  0  1  0  0  0  0  0  0  0  0  0
  146.3551  136.1341  153.1432 N   0  0  0  0  0  0  0  0  0  0  0  0
  146.3767  137.3481  153.7124 C   0  0  0  0  0  0  0  0  0  0  0  0
  145.4488  137.8018  154.3814 O   0  0  0  0  0  0  0  0  0  0  0  0
  147.5441  137.9688  153.4605 N   0  0  0  0  0  0  0  0  0  0  0  0
  147.9800  139.2478  153.8493 C   0  0  0  0  0  0  0  0  0  0  0  0
  147.3073  140.4002  153.6032 C   0  0  0  0  0  0  0  0  0  0  0  0
  147.8346  141.6725  154.0334 C   0  0  0  0  0  0  0  0  0  0  0  0
  149.0120  141.6896  154.6730 C   0  0  0  0  0  0  0  0  0  0  0  0
  149.7331  140.5122  154.9282 N   0  0  0  0  0  0  0  0  0  0  0  0
  151.0048  140.6854  155.6363 C   0  0  0  0  0  0  0  0  0  0  0  0
  149.2801  139.2784  154.5490 C   0  0  0  0  0  0  0  0  0  0  0  0
  149.9261  138.2544  154.7835 O   0  0  0  0  0  0  0  0  0  0  0  0
  144.2346  137.7290  152.3723 H   0  0  0  0  0  0  0  0  0  0  0  0
  143.2423  137.0313  153.6499 H   0  0  0  0  0  0  0  0  0  0  0  0
  142.6200  137.1341  152.0086 H   0  0  0  0  0  0  0  0  0  0  0  0
  143.2820  134.8321  152.4901 H   0  0  0  0  0  0  0  0  0  0  0  0
  143.6025  135.6126  150.1786 H   0  0  0  0  0  0  0  0  0  0  0  0
  145.2269  136.1356  150.5426 H   0  0  0  0  0  0  0  0  0  0  0  0
  144.1825  133.2636  150.6223 H   0  0  0  0  0  0  0  0  0  0  0  0
  145.2910  133.9274  149.4456 H   0  0  0  0  0  0  0  0  0  0  0  0
  146.4801  132.5836  151.1926 H   0  0  0  0  0  0  0  0  0  0  0  0
  147.0268  134.2407  151.1686 H   0  0  0  0  0  0  0  0  0  0  0  0
  145.0336  133.0120  153.1320 H   0  0  0  0  0  0  0  0  0  0  0  0
  146.6596  133.5132  153.5104 H   0  0  0  0  0  0  0  0  0  0  0  0
  144.8857  135.1220  154.2443 H   0  0  0  0  0  0  0  0  0  0  0  0
  147.1661  135.8523  152.6124 H   0  0  0  0  0  0  0  0  0  0  0  0
  148.2307  137.4341  152.9483 H   0  0  0  0  0  0  0  0  0  0  0  0
  146.3711  140.4121  153.0697 H   0  0  0  0  0  0  0  0  0  0  0  0
  147.2931  142.5879  153.8454 H   0  0  0  0  0  0  0  0  0  0  0  0
  149.4779  142.5971  155.0301 H   0  0  0  0  0  0  0  0  0  0  0  0
  151.5889  139.7704  155.7407 H   0  0  0  0  0  0  0  0  0  0  0  0
  150.8217  141.0719  156.6396 H   0  0  0  0  0  0  0  0  0  0  0  0
  151.6318  141.4060  155.1097 H   0  0  0  0  0  0  0  0  0  0  0  0
  1  2  1  0  0  0  0
  1 20  1  0  0  0  0
  1 21  1  0  0  0  0
  1 22  1  0  0  0  0
  2  7  1  0  0  0  0
  2  3  1  0  0  0  0
  2 23  1  0  0  0  0
  3  4  1  0  0  0  0
  3 24  1  0  0  0  0
  3 25  1  0  0  0  0
  4  5  1  0  0  0  0
  4 26  1  0  0  0  0
  4 27  1  0  0  0  0
  5  6  1  0  0  0  0
  5 28  1  0  0  0  0
  5 29  1  0  0  0  0
  6  7  1  0  0  0  0
  6 30  1  0  0  0  0
  6 31  1  0  0  0  0
  7  8  1  0  0  0  0
  7 32  1  0  0  0  0
  8  9  1  0  0  0  0
  8 33  1  0  0  0  0
  9 10  2  0  0  0  0
  9 11  1  0  0  0  0
 11 12  1  0  0  0  0
 11 34  1  0  0  0  0
 12 18  1  0  0  0  0
 12 13  2  0  0  0  0
 13 14  1  0  0  0  0
 13 35  1  0  0  0  0
 14 15  2  0  0  0  0
 14 36  1  0  0  0  0
 15 16  1  0  0  0  0
 15 37  1  0  0  0  0
 16 17  1  0  0  0  0
 16 18  1  0  0  0  0
 17 38  1  0  0  0  0
 17 39  1  0  0  0  0
 17 40  1  0  0  0  0
 18 19  2  0  0  0  0
M  END
> <s_m_source_file>
AV-unprocessed.smi

> <i_m_source_file_index>
2441

> <i_lp_mmshare_version>
43012

> <i_f3d_flags>
0

> <s_epik_input>
W0NIM11bQ0BASF0xW0NIMl1bQ0gyXVtDSDJdW0NIMl1bQ0BIXTFbTkhdQyg9TylbTkhdYzJbY0hdW2NIXVtjSF1uKFtDSDNdKWMyPU8=

> <s_epik_cmdline>
J2VwaWtfcHl0aG9uJywgJy1waCcsICc3LjAnLCAnLXRuJywgJzgnLCAnLW1hJywgJzIwMCcsICctbWV0YWxfYmluZGluZycsICctaW1hZScsICc8aW5maWxlLm1hZT4nLCAnLW9tYWUnLCAnPG91dGZpbGUubWFlPic=

> <r_lp_tautomer_probability>
1

> <r_epik_Ionization_Penalty>
2.64999e-05

> <r_epik_Ionization_Penalty_Charging>
5.09663e-06

> <r_epik_Ionization_Penalty_Neutral>
2.14032e-05

> <r_epik_State_Penalty>
-0

> <r_epik_Charging_Adjusted_Penalty>
5.09663e-06

> <i_epik_Tot_Q>
0

> <i_epik_Tot_abs_Q>
0

> <r_epik_Metal_State_Penalty>
-0

> <b_epik_Metal_Only>
0

> <s_lp_Force_Field>
OPLS_2005

> <r_lp_Energy>
23.2252

> <b_lp_Chiralities_Consistent>
1

> <s_lp_Variant>
AV-unprocessed.smi:2441-2

> <Gold.Version>
5.8.1

> <Gold.Id.Protein>
6NUR|6NUR_protein|mol2

> <Gold.PLP.Fitness>
39.9953

> <Gold.PLP.PLP>
-32.4703

> <Gold.PLP.part.hbond>
-2.0000

> <Gold.PLP.part.metal>
0.0000

> <Gold.PLP.part.buried>
-1.1181

> <Gold.PLP.part.nonpolar>
-28.5892

> <Gold.PLP.part.repulsive>
0.2737

> <Gold.PLP.ligand.clash>
0.0000

> <Gold.PLP.ligand.torsion>
0.7413

> <Gold.PLP.Chemscore.Hbond>
2.0000

> <Gold.PLP.Chemscore.CHOScore>
1.0000

> <Gold.PLP.Chemscore.Metal>
0.0000

> <Gold.Chemscore.Hbonds>
donor molecule, donor type, donor heavy atom, donor atom, acceptor molecule, acceptor atom, score
      L1  H     8    33       P1  7948  1.00
      L1  H    11    34       P1  7948  1.00
      L1  C    15    37       P1  8028  1.00

> <Gold.PLP.Chemscore.Internal.Correction>
0.0076

> <Gold.Rescore>
     Score         DG    S(hbond)    S(metal)    S(lipo)     H(rot)  DE(clash)    DE(int)     intcor
     16.49     -17.63       1.98        0.00      69.26       1.00       0.29       0.84       ----

> <Gold.Chemscore.Fitness>
16.4942

> <Gold.Chemscore.DG>
-17.6274

> <Gold.Chemscore.ZeroCoef>
-5.4800

> <Gold.Chemscore.Hbond>
1.9772

> <Gold.Chemscore.Metal>
0.0000

> <Gold.Chemscore.Lipo>
69.2614

> <Gold.Chemscore.Internal_Hbond>
0.0000

> <Gold.Chemscore.DEClash>
0.2894

> <Gold.Chemscore.DEInternal>
0.8438

> <Gold.Chemscore.Rot>
1.0000

> <Gold.Chemscore.Internal.Correction>
   9.000000E+99

> <Gold.Chemscore.Hbonds>
donor molecule, donor type, donor heavy atom, donor atom, acceptor molecule, acceptor atom, score
      L1  H     8    33       P1  7948  0.95
      L1  H    11    34       P1  7948  1.00

> <Gold.Chemscore.Hbond.Weighted>
-6.6038

> <Gold.Chemscore.Metal.Weighted>
-0.0000

> <Gold.Chemscore.Lipo.Weighted>
-8.1036

> <Gold.Chemscore.Internal_Hbond.Weighted>
0.0000

> <Gold.Chemscore.DEClash.Weighted>
0.2894

> <Gold.Chemscore.DEInternal.Weighted>
0.8438

> <Gold.Chemscore.Rot.Weighted>
2.5600

> <Gold.Chemscore.Internal.Correction.Weighted>
   9.000000E+99

> <Gold.Protein.RotatedTorsions>
[ 6907 6896 6895 6894 ] final -141.63 input  -60.11 | X-H torsion
[ 7974 7965 7964 7962 ] final -142.20 input  175.53 | X-H torsion
[ 8008 7997 7996 7995 ] final  -89.77 input   59.86 | X-H torsion
[ 10167 10162 10161 10158 ] final   55.24 input  -65.29 | X-H torsion
[ 10718 10713 10712 10709 ] final   97.35 input   66.30 | X-H torsion
[ 10763 10752 10751 10750 ] final  -88.95 input  -60.55 | X-H torsion
[ 11005 11000 10999 10996 ] final   71.83 input  -57.11 | X-H torsion

> <Gold.Protein.ActiveResidues>
 VAL166  LYS551  ARG553  GLY616  TRP617  ASP618  TYR619  PRO620  LYS621  CYS622 
 ASP623  PHE694  ASN695  SER759  ASP760  ASP761  ALA762  ILE779  LEU786  VAL792 
 PHE793  MET794  SER795  GLU796  ALA797  LYS798  CYS799  TRP800  GLU811  SER814 

> <Gold.Protein.RotatedAtoms>
  151.0764  133.5425  159.2623 H   0  0  0  0  0  0  0  0  0  0  0  0  # atno 6907 bound_to 6896
  151.2345  135.0566  159.9010 H   0  0  0  0  0  0  0  0  0  0  0  0  # atno 6908 bound_to 6896
  152.5418  134.0548  159.8179 H   0  0  0  0  0  0  0  0  0  0  0  0  # atno 6909 bound_to 6896
  144.8461  140.5987  143.5420 H   0  0  0  0  0  0  0  0  0  0  0  0  # atno 7974 bound_to 7965
  154.6906  140.0538  157.0359 H   0  0  0  0  0  0  0  0  0  0  0  0  # atno 8008 bound_to 7997
  155.0822  140.3211  155.4579 H   0  0  0  0  0  0  0  0  0  0  0  0  # atno 8009 bound_to 7997
  156.2727  140.2063  156.5950 H   0  0  0  0  0  0  0  0  0  0  0  0  # atno 8010 bound_to 7997
  140.2216  144.3782  150.6448 H   0  0  0  0  0  0  0  0  0  0  0  0  # atno 10167 bound_to 10162
  157.6914  131.0606  150.4630 H   0  0  0  0  0  0  0  0  0  0  0  0  # atno 10718 bound_to 10713
  154.6501  135.5358  153.7891 H   0  0  0  0  0  0  0  0  0  0  0  0  # atno 10763 bound_to 10752
  153.0381  135.6480  154.1030 H   0  0  0  0  0  0  0  0  0  0  0  0  # atno 10764 bound_to 10752
  154.0948  135.2937  155.3244 H   0  0  0  0  0  0  0  0  0  0  0  0  # atno 10765 bound_to 10752
  139.9523  134.7206  156.0834 H   0  0  0  0  0  0  0  0  0  0  0  0  # atno 11005 bound_to 11000
  145.4594  139.1514  143.3875 LP  0  0  0  0  0  0  0  0  0  0  0  0  # atno 17320 bound_to 7965
  146.2745  140.4723  142.8801 LP  0  0  0  0  0  0  0  0  0  0  0  0  # atno 17321 bound_to 7965
  140.6251  143.2180  151.6614 LP  0  0  0  0  0  0  0  0  0  0  0  0  # atno 17342 bound_to 10162
  139.5142  144.3418  152.0733 LP  0  0  0  0  0  0  0  0  0  0  0  0  # atno 17343 bound_to 10162
  156.4973  130.4109  149.6373 LP  0  0  0  0  0  0  0  0  0  0  0  0  # atno 17370 bound_to 10713
  156.3361  130.7357  151.2295 LP  0  0  0  0  0  0  0  0  0  0  0  0  # atno 17371 bound_to 10713
  141.1188  133.6619  156.3161 LP  0  0  0  0  0  0  0  0  0  0  0  0  # atno 17394 bound_to 11000
  140.5691  134.5858  157.5453 LP  0  0  0  0  0  0  0  0  0  0  0  0  # atno 17395 bound_to 11000

$$$$
