AV-unprocessed.smi:655|AV-procd|sdf|3217|dock8
  -GOLD-   22720 0153D 1   1.00000     0.00000
 Structure written by MMmdl.
 34 35  0  0  0  0  0  0  0  0  2 V2000
  152.0116  144.1680  161.5979 C   0  0  0  0  0  0  0  0  0  0  0  0
  152.9952  143.2003  160.9246 C   0  0  2  0  0  0  0  0  0  0  0  0
  152.4601  142.7075  159.5683 C   0  0  0  0  0  0  0  0  0  0  0  0
  153.4344  141.7273  158.8883 C   0  0  0  0  0  0  0  0  0  0  0  0
  153.7930  140.5189  159.7876 C   0  0  2  0  0  0  0  0  0  0  0  0
  154.9054  139.8657  159.2058 O   0  0  0  0  0  0  0  0  0  0  0  0
  152.6635  139.4576  159.9571 C   0  0  0  0  0  0  0  0  0  0  0  0
  152.4593  138.5746  158.7908 N   0  0  0  0  0  0  0  0  0  0  0  0
  152.0515  139.1849  157.5906 C   0  0  0  0  0  0  0  0  0  0  0  0
  151.8381  138.4832  156.4611 C   0  0  0  0  0  0  0  0  0  0  0  0
  151.3326  139.2669  155.0067 Cl  0  0  0  0  0  0  0  0  0  0  0  0
  152.0505  137.0387  156.5026 C   0  0  0  0  0  0  0  0  0  0  0  0
  151.8480  136.3635  155.4944 O   0  0  0  0  0  0  0  0  0  0  0  0
  152.4747  136.4957  157.6804 N   0  5  0  0  0  0  0  0  0  0  0  0
  152.6984  137.2280  158.8148 C   0  0  0  0  0  0  0  0  0  0  0  0
  153.1078  136.7095  159.8523 O   0  0  0  0  0  0  0  0  0  0  0  0
  154.2970  141.0279  161.1594 C   0  0  0  0  0  0  0  0  0  0  0  0
  153.3177  142.0028  161.8360 C   0  0  0  0  0  0  0  0  0  0  0  0
  151.0562  143.6834  161.8020 H   0  0  0  0  0  0  0  0  0  0  0  0
  151.8167  145.0340  160.9647 H   0  0  0  0  0  0  0  0  0  0  0  0
  152.4078  144.5348  162.5451 H   0  0  0  0  0  0  0  0  0  0  0  0
  153.9222  143.7461  160.7435 H   0  0  0  0  0  0  0  0  0  0  0  0
  151.4921  142.2327  159.7167 H   0  0  0  0  0  0  0  0  0  0  0  0
  152.2831  143.5568  158.9078 H   0  0  0  0  0  0  0  0  0  0  0  0
  153.0305  141.3985  157.9309 H   0  0  0  0  0  0  0  0  0  0  0  0
  154.3461  142.2758  158.6460 H   0  0  0  0  0  0  0  0  0  0  0  0
  154.8269  138.9394  159.3760 H   0  0  0  0  0  0  0  0  0  0  0  0
  152.8789  138.8372  160.8288 H   0  0  0  0  0  0  0  0  0  0  0  0
  151.7278  139.9541  160.2143 H   0  0  0  0  0  0  0  0  0  0  0  0
  151.9245  140.2563  157.6443 H   0  0  0  0  0  0  0  0  0  0  0  0
  154.5003  140.1877  161.8248 H   0  0  0  0  0  0  0  0  0  0  0  0
  155.2504  141.5434  161.0298 H   0  0  0  0  0  0  0  0  0  0  0  0
  153.7508  142.3569  162.7721 H   0  0  0  0  0  0  0  0  0  0  0  0
  152.3988  141.4823  162.1062 H   0  0  0  0  0  0  0  0  0  0  0  0
  1  2  1  0  0  0  0
  1 19  1  0  0  0  0
  1 20  1  0  0  0  0
  1 21  1  0  0  0  0
  2 18  1  0  0  0  0
  2  3  1  0  0  0  0
  2 22  1  0  0  0  0
  3  4  1  0  0  0  0
  3 23  1  0  0  0  0
  3 24  1  0  0  0  0
  4  5  1  0  0  0  0
  4 25  1  0  0  0  0
  4 26  1  0  0  0  0
  5  6  1  0  0  0  0
  5  7  1  0  0  0  0
  5 17  1  0  0  0  0
  6 27  1  0  0  0  0
  7  8  1  0  0  0  0
  7 28  1  0  0  0  0
  7 29  1  0  0  0  0
  8 15  1  0  0  0  0
  8  9  1  0  0  0  0
  9 10  2  0  0  0  0
  9 30  1  0  0  0  0
 10 11  1  0  0  0  0
 10 12  1  0  0  0  0
 12 13  2  0  0  0  0
 12 14  1  0  0  0  0
 14 15  1  0  0  0  0
 15 16  2  0  0  0  0
 17 18  1  0  0  0  0
 17 31  1  0  0  0  0
 17 32  1  0  0  0  0
 18 33  1  0  0  0  0
 18 34  1  0  0  0  0
M  CHG  1  14  -1
M  END
> <s_m_source_file>
AV-unprocessed.smi

> <i_m_source_file_index>
655

> <i_lp_mmshare_version>
43012

> <i_f3d_flags>
0

> <s_epik_input>
W0NIMl0xW0NIMl1bQ0BIXShbQ0gzXSlbQ0gyXVtDSDJdW0NAQF0xKFtPSF0pW0NIMl1uMltjSF1jKENsKWMoPU8pW25IXWMyPU8=

> <s_epik_cmdline>
J2VwaWtfcHl0aG9uJywgJy1waCcsICc3LjAnLCAnLXRuJywgJzgnLCAnLW1hJywgJzIwMCcsICctbWV0YWxfYmluZGluZycsICctaW1hZScsICc8aW5maWxlLm1hZT4nLCAnLW9tYWUnLCAnPG91dGZpbGUubWFlPic=

> <r_epik_Ionization_Penalty>
2.34257

> <r_epik_Ionization_Penalty_Charging>
1.00552e-07

> <r_epik_Ionization_Penalty_Neutral>
2.34257

> <r_epik_State_Penalty>
2.4963

> <r_epik_Charging_Adjusted_Penalty>
2.4963

> <i_epik_Tot_Q>
-1

> <i_epik_Tot_abs_Q>
1

> <r_epik_Metal_State_Penalty>
0.0381881

> <b_epik_Metal_Only>
0

> <s_lp_Force_Field>
OPLS_2005

> <r_lp_Energy>
26.7084

> <b_lp_Chiralities_Consistent>
1

> <s_lp_Variant>
AV-unprocessed.smi:655-4

> <Gold.Version>
5.8.1

> <Gold.Id.Protein>
6NUR|6NUR_protein|mol2

> <Gold.PLP.Fitness>
40.2658

> <Gold.PLP.PLP>
-31.6687

> <Gold.PLP.part.hbond>
-3.0000

> <Gold.PLP.part.metal>
0.0000

> <Gold.PLP.part.buried>
-2.6129

> <Gold.PLP.part.nonpolar>
-24.9646

> <Gold.PLP.part.repulsive>
0.0680

> <Gold.PLP.ligand.clash>
0.0000

> <Gold.PLP.ligand.torsion>
0.2410

> <Gold.PLP.Chemscore.Hbond>
3.0000

> <Gold.PLP.Chemscore.CHOScore>
0.0000

> <Gold.PLP.Chemscore.Metal>
0.0000

> <Gold.Chemscore.Hbonds>
donor molecule, donor type, donor heavy atom, donor atom, acceptor molecule, acceptor atom, score
      P1  H  6896  6909       L1    16  1.00
      P1  H  7997  8010       L1     6  1.00
      P1  H 10752 10765       L1    13  1.00

> <Gold.PLP.Chemscore.Internal.Correction>
0.0791

> <Gold.Rescore>
     Score         DG    S(hbond)    S(metal)    S(lipo)     H(rot)  DE(clash)    DE(int)     intcor
     19.94     -20.62       2.55        0.00      96.31       1.81       0.44       0.23       ----

> <Gold.Chemscore.Fitness>
19.9427

> <Gold.Chemscore.DG>
-20.6167

> <Gold.Chemscore.ZeroCoef>
-5.4800

> <Gold.Chemscore.Hbond>
2.5450

> <Gold.Chemscore.Metal>
0.0000

> <Gold.Chemscore.Lipo>
96.3063

> <Gold.Chemscore.Internal_Hbond>
0.0000

> <Gold.Chemscore.DEClash>
0.4433

> <Gold.Chemscore.DEInternal>
0.2307

> <Gold.Chemscore.Rot>
1.8092

> <Gold.Chemscore.Internal.Correction>
   9.000000E+99

> <Gold.Chemscore.Hbonds>
donor molecule, donor type, donor heavy atom, donor atom, acceptor molecule, acceptor atom, score
      P1  H  6896  6909       L1    16  0.59
      P1  H  7997  8010       L1     6  0.53
      P1  H 10752 10765       L1    13  0.95

> <Gold.Chemscore.Hbond.Weighted>
-8.5005

> <Gold.Chemscore.Metal.Weighted>
-0.0000

> <Gold.Chemscore.Lipo.Weighted>
-11.2678

> <Gold.Chemscore.Internal_Hbond.Weighted>
0.0000

> <Gold.Chemscore.DEClash.Weighted>
0.4433

> <Gold.Chemscore.DEInternal.Weighted>
0.2307

> <Gold.Chemscore.Rot.Weighted>
4.6316

> <Gold.Chemscore.Internal.Correction.Weighted>
   9.000000E+99

> <Gold.Protein.RotatedTorsions>
[ 6907 6896 6895 6894 ] final  154.73 input  -60.11 | X-H torsion
[ 7974 7965 7964 7962 ] final   65.15 input  175.53 | X-H torsion
[ 8008 7997 7996 7995 ] final  -13.65 input   59.86 | X-H torsion
[ 10167 10162 10161 10158 ] final   98.89 input  -65.29 | X-H torsion
[ 10718 10713 10712 10709 ] final    8.73 input   66.30 | X-H torsion
[ 10763 10752 10751 10750 ] final -166.50 input  -60.55 | X-H torsion
[ 11005 11000 10999 10996 ] final -142.11 input  -57.11 | X-H torsion

> <Gold.Protein.ActiveResidues>
 VAL166  LYS551  ARG553  GLY616  TRP617  ASP618  TYR619  PRO620  LYS621  CYS622 
 ASP623  PHE694  ASN695  SER759  ASP760  ASP761  ALA762  ILE779  LEU786  VAL792 
 PHE793  MET794  SER795  GLU796  ALA797  LYS798  CYS799  TRP800  GLU811  SER814 

> <Gold.Protein.RotatedAtoms>
  152.0543  133.4033  159.4390 H   0  0  0  0  0  0  0  0  0  0  0  0  # atno 6907 bound_to 6896
  150.6869  134.3273  159.4821 H   0  0  0  0  0  0  0  0  0  0  0  0  # atno 6908 bound_to 6896
  152.1086  134.9290  160.0618 H   0  0  0  0  0  0  0  0  0  0  0  0  # atno 6909 bound_to 6896
  145.8418  139.3200  143.0927 H   0  0  0  0  0  0  0  0  0  0  0  0  # atno 7974 bound_to 7965
  154.5275  140.2244  155.8863 H   0  0  0  0  0  0  0  0  0  0  0  0  # atno 8008 bound_to 7997
  156.1729  140.3118  155.8970 H   0  0  0  0  0  0  0  0  0  0  0  0  # atno 8009 bound_to 7997
  155.3521  140.0456  157.3037 H   0  0  0  0  0  0  0  0  0  0  0  0  # atno 8010 bound_to 7997
  139.7667  144.6936  151.0214 H   0  0  0  0  0  0  0  0  0  0  0  0  # atno 10167 bound_to 10162
  156.9560  130.5915  149.5659 H   0  0  0  0  0  0  0  0  0  0  0  0  # atno 10718 bound_to 10713
  154.6826  135.2957  154.9591 H   0  0  0  0  0  0  0  0  0  0  0  0  # atno 10763 bound_to 10752
  154.0581  135.6635  153.4812 H   0  0  0  0  0  0  0  0  0  0  0  0  # atno 10764 bound_to 10752
  153.0558  135.5146  154.7877 H   0  0  0  0  0  0  0  0  0  0  0  0  # atno 10765 bound_to 10752
  140.8258  134.2576  157.4879 H   0  0  0  0  0  0  0  0  0  0  0  0  # atno 11005 bound_to 11000
  145.9456  140.8947  143.0285 LP  0  0  0  0  0  0  0  0  0  0  0  0  # atno 17320 bound_to 7965
  144.6733  140.1609  143.7422 LP  0  0  0  0  0  0  0  0  0  0  0  0  # atno 17321 bound_to 7965
  140.7811  143.4635  151.0245 LP  0  0  0  0  0  0  0  0  0  0  0  0  # atno 17342 bound_to 10162
  139.8320  143.7679  152.3180 LP  0  0  0  0  0  0  0  0  0  0  0  0  # atno 17343 bound_to 10162
  156.0342  130.5431  150.8612 LP  0  0  0  0  0  0  0  0  0  0  0  0  # atno 17370 bound_to 10713
  157.5690  131.0946  150.9446 LP  0  0  0  0  0  0  0  0  0  0  0  0  # atno 17371 bound_to 10713
  139.8706  134.9560  156.4223 LP  0  0  0  0  0  0  0  0  0  0  0  0  # atno 17394 bound_to 11000
  140.9051  133.7752  155.9725 LP  0  0  0  0  0  0  0  0  0  0  0  0  # atno 17395 bound_to 11000

$$$$
