AV-unprocessed.smi:2990|AV-procd|sdf|11393|dock6
  -GOLD-   2272016313D 1   1.00000     0.00000
 Structure written by MMmdl.
 39 41  0  0  0  0  0  0  0  0  1 V2000
  151.9210  139.3514  156.5416 C   0  0  0  0  0  0  0  0  0  0  0  0
  151.8670  140.6761  157.2342 C   0  0  0  0  0  0  0  0  0  0  0  0
  151.5141  141.7951  156.6015 N   0  0  0  0  0  0  0  0  0  0  0  0
  151.6128  142.7492  157.5958 C   0  0  0  0  0  0  0  0  0  0  0  0
  151.3713  144.1413  157.5600 C   0  0  0  0  0  0  0  0  0  0  0  0
  151.5427  144.9254  158.7197 C   0  0  0  0  0  0  0  0  0  0  0  0
  151.9559  144.3304  159.9293 C   0  0  0  0  0  0  0  0  0  0  0  0
  152.2001  142.9447  159.9872 C   0  0  0  0  0  0  0  0  0  0  0  0
  152.0292  142.1665  158.8266 C   0  0  0  0  0  0  0  0  0  0  0  0
  152.1798  140.8116  158.5464 N   0  0  0  0  0  0  0  0  0  0  0  0
  152.5936  139.7730  159.4804 C   0  0  0  0  0  0  0  0  0  0  0  0
  153.8120  140.1859  160.3312 C   0  0  2  0  0  0  0  0  0  0  0  0
  155.0019  140.0031  159.5898 O   0  0  0  0  0  0  0  0  0  0  0  0
  153.9229  139.3733  161.6296 C   0  0  0  0  0  0  0  0  0  0  0  0
  154.2421  138.0255  161.3090 O   0  0  0  0  0  0  0  0  0  0  0  0
  154.1828  137.0846  162.3147 C   0  0  0  0  0  0  0  0  0  0  0  0
  154.8050  135.8431  162.0675 C   0  0  0  0  0  0  0  0  0  0  0  0
  154.7921  134.8235  163.0388 C   0  0  0  0  0  0  0  0  0  0  0  0
  154.1524  135.0368  164.2738 C   0  0  0  0  0  0  0  0  0  0  0  0
  153.5272  136.2702  164.5340 C   0  0  0  0  0  0  0  0  0  0  0  0
  153.5408  137.2902  163.5625 C   0  0  0  0  0  0  0  0  0  0  0  0
  151.6037  139.4508  155.5030 H   0  0  0  0  0  0  0  0  0  0  0  0
  151.2617  138.6367  157.0334 H   0  0  0  0  0  0  0  0  0  0  0  0
  152.9388  138.9610  156.5523 H   0  0  0  0  0  0  0  0  0  0  0  0
  151.0545  144.6066  156.6385 H   0  0  0  0  0  0  0  0  0  0  0  0
  151.3566  145.9887  158.6808 H   0  0  0  0  0  0  0  0  0  0  0  0
  152.0854  144.9383  160.8127 H   0  0  0  0  0  0  0  0  0  0  0  0
  152.5139  142.4855  160.9129 H   0  0  0  0  0  0  0  0  0  0  0  0
  151.7486  139.5227  160.1221 H   0  0  0  0  0  0  0  0  0  0  0  0
  152.8184  138.8678  158.9150 H   0  0  0  0  0  0  0  0  0  0  0  0
  153.7451  141.2447  160.5828 H   0  0  0  0  0  0  0  0  0  0  0  0
  155.4150  139.2037  159.8791 H   0  0  0  0  0  0  0  0  0  0  0  0
  154.6860  139.8072  162.2782 H   0  0  0  0  0  0  0  0  0  0  0  0
  152.9700  139.4021  162.1612 H   0  0  0  0  0  0  0  0  0  0  0  0
  155.2983  135.6707  161.1222 H   0  0  0  0  0  0  0  0  0  0  0  0
  155.2725  133.8777  162.8359 H   0  0  0  0  0  0  0  0  0  0  0  0
  154.1409  134.2560  165.0198 H   0  0  0  0  0  0  0  0  0  0  0  0
  153.0349  136.4352  165.4809 H   0  0  0  0  0  0  0  0  0  0  0  0
  153.0495  138.2216  163.7993 H   0  0  0  0  0  0  0  0  0  0  0  0
  1  2  1  0  0  0  0
  1 22  1  0  0  0  0
  1 23  1  0  0  0  0
  1 24  1  0  0  0  0
  2 10  1  0  0  0  0
  2  3  2  0  0  0  0
  3  4  1  0  0  0  0
  4  9  2  0  0  0  0
  4  5  1  0  0  0  0
  5  6  2  0  0  0  0
  5 25  1  0  0  0  0
  6  7  1  0  0  0  0
  6 26  1  0  0  0  0
  7  8  2  0  0  0  0
  7 27  1  0  0  0  0
  8  9  1  0  0  0  0
  8 28  1  0  0  0  0
  9 10  1  0  0  0  0
 10 11  1  0  0  0  0
 11 12  1  0  0  0  0
 11 29  1  0  0  0  0
 11 30  1  0  0  0  0
 12 13  1  0  0  0  0
 12 14  1  0  0  0  0
 12 31  1  0  0  0  0
 13 32  1  0  0  0  0
 14 15  1  0  0  0  0
 14 33  1  0  0  0  0
 14 34  1  0  0  0  0
 15 16  1  0  0  0  0
 16 21  1  0  0  0  0
 16 17  2  0  0  0  0
 17 18  1  0  0  0  0
 17 35  1  0  0  0  0
 18 19  2  0  0  0  0
 18 36  1  0  0  0  0
 19 20  1  0  0  0  0
 19 37  1  0  0  0  0
 20 21  2  0  0  0  0
 20 38  1  0  0  0  0
 21 39  1  0  0  0  0
M  END
> <s_m_source_file>
AV-unprocessed.smi

> <i_m_source_file_index>
2990

> <i_lp_mmshare_version>
43012

> <i_f3d_flags>
0

> <s_epik_input>
W2NIXTFbY0hdW2NIXVtjSF1jKGMxMiluKGMobjIpW0NIM10pW0NIMl1bQ0BIXShbT0hdKVtDSDJdT2MzW2NIXVtjSF1bY0hdW2NIXVtjSF0z

> <s_epik_cmdline>
J2VwaWtfcHl0aG9uJywgJy1waCcsICc3LjAnLCAnLXRuJywgJzgnLCAnLW1hJywgJzIwMCcsICctbWV0YWxfYmluZGluZycsICctaW1hZScsICc8aW5maWxlLm1hZT4nLCAnLW9tYWUnLCAnPG91dGZpbGUubWFlPic=

> <r_lp_tautomer_probability>
1

> <r_epik_Ionization_Penalty>
0.119634

> <r_epik_Ionization_Penalty_Charging>
0

> <r_epik_Ionization_Penalty_Neutral>
0.119634

> <r_epik_State_Penalty>
0.10919

> <r_epik_Charging_Adjusted_Penalty>
0.10919

> <i_epik_Tot_Q>
0

> <i_epik_Tot_abs_Q>
0

> <r_epik_Metal_State_Penalty>
0.000119887

> <b_epik_Metal_Only>
0

> <s_lp_Force_Field>
OPLS_2005

> <r_lp_Energy>
14.3575

> <b_lp_Chiralities_Consistent>
1

> <s_lp_Variant>
AV-unprocessed.smi:2990-1

> <Gold.Version>
5.8.1

> <Gold.Id.Protein>
6NUR|6NUR_protein|mol2

> <Gold.PLP.Fitness>
50.0670

> <Gold.PLP.PLP>
-48.2261

> <Gold.PLP.part.hbond>
-1.0000

> <Gold.PLP.part.metal>
0.0000

> <Gold.PLP.part.buried>
-4.6495

> <Gold.PLP.part.nonpolar>
-42.0243

> <Gold.PLP.part.repulsive>
0.0609

> <Gold.PLP.ligand.clash>
0.0000

> <Gold.PLP.ligand.torsion>
0.6185

> <Gold.PLP.Chemscore.Hbond>
1.0000

> <Gold.PLP.Chemscore.CHOScore>
0.0000

> <Gold.PLP.Chemscore.Metal>
0.0000

> <Gold.Chemscore.Hbonds>
donor molecule, donor type, donor heavy atom, donor atom, acceptor molecule, acceptor atom, score
      P1  H  7997  8008       L1    13  0.38

> <Gold.PLP.Chemscore.Internal.Correction>
0.0779

> <Gold.Rescore>
     Score         DG    S(hbond)    S(metal)    S(lipo)     H(rot)  DE(clash)    DE(int)     intcor
     19.01     -19.67       0.93        0.00     139.26       2.04       0.11       0.55       ----

> <Gold.Chemscore.Fitness>
19.0069

> <Gold.Chemscore.DG>
-19.6702

> <Gold.Chemscore.ZeroCoef>
-5.4800

> <Gold.Chemscore.Hbond>
0.9308

> <Gold.Chemscore.Metal>
0.0000

> <Gold.Chemscore.Lipo>
139.2633

> <Gold.Chemscore.Internal_Hbond>
0.0000

> <Gold.Chemscore.DEClash>
0.1133

> <Gold.Chemscore.DEInternal>
0.5499

> <Gold.Chemscore.Rot>
2.0361

> <Gold.Chemscore.Internal.Correction>
   9.000000E+99

> <Gold.Chemscore.Hbonds>
donor molecule, donor type, donor heavy atom, donor atom, acceptor molecule, acceptor atom, score
      P1  H  7997  8008       L1    13  0.24

> <Gold.Chemscore.Hbond.Weighted>
-3.1088

> <Gold.Chemscore.Metal.Weighted>
-0.0000

> <Gold.Chemscore.Lipo.Weighted>
-16.2938

> <Gold.Chemscore.Internal_Hbond.Weighted>
0.0000

> <Gold.Chemscore.DEClash.Weighted>
0.1133

> <Gold.Chemscore.DEInternal.Weighted>
0.5499

> <Gold.Chemscore.Rot.Weighted>
5.2124

> <Gold.Chemscore.Internal.Correction.Weighted>
   9.000000E+99

> <Gold.Protein.RotatedTorsions>
[ 6907 6896 6895 6894 ] final  161.35 input  -60.11 | X-H torsion
[ 7974 7965 7964 7962 ] final  104.05 input  175.53 | X-H torsion
[ 8008 7997 7996 7995 ] final -115.08 input   59.86 | X-H torsion
[ 10167 10162 10161 10158 ] final   44.38 input  -65.29 | X-H torsion
[ 10718 10713 10712 10709 ] final   -7.97 input   66.30 | X-H torsion
[ 10763 10752 10751 10750 ] final  -62.89 input  -60.55 | X-H torsion
[ 11005 11000 10999 10996 ] final    0.40 input  -57.11 | X-H torsion

> <Gold.Protein.ActiveResidues>
 VAL166  LYS551  ARG553  GLY616  TRP617  ASP618  TYR619  PRO620  LYS621  CYS622 
 ASP623  PHE694  ASN695  SER759  ASP760  ASP761  ALA762  ILE779  LEU786  VAL792 
 PHE793  MET794  SER795  GLU796  ALA797  LYS798  CYS799  TRP800  GLU811  SER814 

> <Gold.Protein.RotatedAtoms>
  151.9569  133.3683  159.4020 H   0  0  0  0  0  0  0  0  0  0  0  0  # atno 6907 bound_to 6896
  150.6971  134.4282  159.5245 H   0  0  0  0  0  0  0  0  0  0  0  0  # atno 6908 bound_to 6896
  152.1964  134.8627  160.0563 H   0  0  0  0  0  0  0  0  0  0  0  0  # atno 6909 bound_to 6896
  145.3379  139.2470  143.3625 H   0  0  0  0  0  0  0  0  0  0  0  0  # atno 7974 bound_to 7965
  155.0464  140.0392  157.2528 H   0  0  0  0  0  0  0  0  0  0  0  0  # atno 8008 bound_to 7997
  154.7173  140.2705  155.6549 H   0  0  0  0  0  0  0  0  0  0  0  0  # atno 8009 bound_to 7997
  156.2807  140.2710  156.1834 H   0  0  0  0  0  0  0  0  0  0  0  0  # atno 8010 bound_to 7997
  140.3348  144.2543  150.6163 H   0  0  0  0  0  0  0  0  0  0  0  0  # atno 10167 bound_to 10162
  156.7094  130.5117  149.5896 H   0  0  0  0  0  0  0  0  0  0  0  0  # atno 10718 bound_to 10713
  154.3068  135.6223  153.5448 H   0  0  0  0  0  0  0  0  0  0  0  0  # atno 10763 bound_to 10752
  152.9834  135.5691  154.5222 H   0  0  0  0  0  0  0  0  0  0  0  0  # atno 10764 bound_to 10752
  154.4864  135.2865  155.1507 H   0  0  0  0  0  0  0  0  0  0  0  0  # atno 10765 bound_to 10752
  140.6270  133.9610  155.8254 H   0  0  0  0  0  0  0  0  0  0  0  0  # atno 11005 bound_to 11000
  146.3019  140.3970  142.8701 LP  0  0  0  0  0  0  0  0  0  0  0  0  # atno 17320 bound_to 7965
  144.8813  140.7404  143.5985 LP  0  0  0  0  0  0  0  0  0  0  0  0  # atno 17321 bound_to 7965
  140.5363  143.2232  151.8157 LP  0  0  0  0  0  0  0  0  0  0  0  0  # atno 17342 bound_to 10162
  139.4850  144.4656  151.9487 LP  0  0  0  0  0  0  0  0  0  0  0  0  # atno 17343 bound_to 10162
  156.1672  130.6413  151.0792 LP  0  0  0  0  0  0  0  0  0  0  0  0  # atno 17370 bound_to 10713
  157.6942  131.0800  150.7018 LP  0  0  0  0  0  0  0  0  0  0  0  0  # atno 17371 bound_to 10713
  141.0702  134.0216  157.3536 LP  0  0  0  0  0  0  0  0  0  0  0  0  # atno 17394 bound_to 11000
  139.9131  135.0193  156.7772 LP  0  0  0  0  0  0  0  0  0  0  0  0  # atno 17395 bound_to 11000

$$$$
