AV-unprocessed.smi:438|AV-procd|sdf|2565|dock6
  -GOLD-   2262022543D 1   1.00000     0.00000
 Structure written by MMmdl.
 48 49  0  0  0  0  0  0  0  0  1 V2000
  148.1266  135.2655  162.2887 C   0  0  0  0  0  0  0  0  0  0  0  0
  148.0766  135.9595  160.9392 C   0  0  0  0  0  0  0  0  0  0  0  0
  149.3048  136.4233  160.4512 N   0  0  0  0  0  0  0  0  0  0  0  0
  149.3631  137.0252  159.3066 C   0  0  0  0  0  0  0  0  0  0  0  0
  150.8037  137.7058  158.4381 S   0  0  0  0  0  0  0  0  0  0  0  0
  150.3456  139.4577  158.3061 C   0  0  0  0  0  0  0  0  0  0  0  0
  151.5690  140.3608  158.1901 C   0  0  0  0  0  0  0  0  0  0  0  0
  152.2954  140.2954  157.1990 O   0  0  0  0  0  0  0  0  0  0  0  0
  151.7867  141.1939  159.2190 N   0  0  0  0  0  0  0  0  0  0  0  0
  152.9224  142.1047  159.3580 C   0  0  2  0  0  0  0  0  0  0  0  0
  153.8595  141.6389  160.4937 C   0  0  0  0  0  0  0  0  0  0  0  0
  153.2117  141.7979  161.8803 C   0  0  0  0  0  0  0  0  0  0  0  0
  152.7415  143.2418  162.1114 C   0  0  0  0  0  0  0  0  0  0  0  0
  151.7963  143.7101  160.9932 C   0  0  0  0  0  0  0  0  0  0  0  0
  152.4430  143.5574  159.6001 C   0  0  2  0  0  0  0  0  0  0  0  0
  151.5157  144.0731  158.4860 C   0  0  0  0  0  0  0  0  0  0  0  0
  148.2066  137.2246  158.5519 N   0  0  0  0  0  0  0  0  0  0  0  0
  146.9756  136.8191  158.9347 C   0  0  0  0  0  0  0  0  0  0  0  0
  145.9982  137.0331  158.2196 O   0  0  0  0  0  0  0  0  0  0  0  0
  146.9225  136.1310  160.2354 C   0  0  0  0  0  0  0  0  0  0  0  0
  145.5658  135.6226  160.7149 C   0  0  0  0  0  0  0  0  0  0  0  0
  145.2046  136.1571  162.1084 C   0  0  0  0  0  0  0  0  0  0  0  0
  145.0438  137.5579  162.0554 O   0  0  0  0  0  0  0  0  0  0  0  0
  147.4036  135.7059  162.9755 H   0  0  0  0  0  0  0  0  0  0  0  0
  149.1141  135.3550  162.7434 H   0  0  0  0  0  0  0  0  0  0  0  0
  147.9025  134.2042  162.1796 H   0  0  0  0  0  0  0  0  0  0  0  0
  149.7723  139.7513  159.1862 H   0  0  0  0  0  0  0  0  0  0  0  0
  149.6990  139.5954  157.4385 H   0  0  0  0  0  0  0  0  0  0  0  0
  151.1292  141.1754  159.9851 H   0  0  0  0  0  0  0  0  0  0  0  0
  153.4855  142.0908  158.4229 H   0  0  0  0  0  0  0  0  0  0  0  0
  154.1613  140.6021  160.3405 H   0  0  0  0  0  0  0  0  0  0  0  0
  154.7781  142.2258  160.4611 H   0  0  0  0  0  0  0  0  0  0  0  0
  152.3648  141.1168  161.9735 H   0  0  0  0  0  0  0  0  0  0  0  0
  153.9221  141.5110  162.6560 H   0  0  0  0  0  0  0  0  0  0  0  0
  152.2417  143.3198  163.0773 H   0  0  0  0  0  0  0  0  0  0  0  0
  153.6071  143.9040  162.1580 H   0  0  0  0  0  0  0  0  0  0  0  0
  150.8676  143.1396  161.0388 H   0  0  0  0  0  0  0  0  0  0  0  0
  151.5227  144.7519  161.1639 H   0  0  0  0  0  0  0  0  0  0  0  0
  153.3303  144.1924  159.5858 H   0  0  0  0  0  0  0  0  0  0  0  0
  150.5681  143.5339  158.4645 H   0  0  0  0  0  0  0  0  0  0  0  0
  151.9828  143.9654  157.5068 H   0  0  0  0  0  0  0  0  0  0  0  0
  151.2885  145.1301  158.6264 H   0  0  0  0  0  0  0  0  0  0  0  0
  148.2865  137.7021  157.6659 H   0  0  0  0  0  0  0  0  0  0  0  0
  145.5547  134.5329  160.7283 H   0  0  0  0  0  0  0  0  0  0  0  0
  144.7975  135.9060  159.9939 H   0  0  0  0  0  0  0  0  0  0  0  0
  144.2782  135.7066  162.4658 H   0  0  0  0  0  0  0  0  0  0  0  0
  145.9851  135.9179  162.8312 H   0  0  0  0  0  0  0  0  0  0  0  0
  145.8124  137.9631  162.4271 H   0  0  0  0  0  0  0  0  0  0  0  0
  1 24  1  0  0  0  0
  1 25  1  0  0  0  0
  1 26  1  0  0  0  0
  1  2  1  0  0  0  0
  2 20  2  0  0  0  0
  2  3  1  0  0  0  0
  3  4  2  0  0  0  0
  4  5  1  0  0  0  0
  4 17  1  0  0  0  0
  5  6  1  0  0  0  0
  6  7  1  0  0  0  0
  6 27  1  0  0  0  0
  6 28  1  0  0  0  0
  7  8  2  0  0  0  0
  7  9  1  0  0  0  0
  9 10  1  0  0  0  0
  9 29  1  0  0  0  0
 10 15  1  0  0  0  0
 10 11  1  0  0  0  0
 10 30  1  0  0  0  0
 11 12  1  0  0  0  0
 11 31  1  0  0  0  0
 11 32  1  0  0  0  0
 12 13  1  0  0  0  0
 12 33  1  0  0  0  0
 12 34  1  0  0  0  0
 13 14  1  0  0  0  0
 13 35  1  0  0  0  0
 13 36  1  0  0  0  0
 14 15  1  0  0  0  0
 14 37  1  0  0  0  0
 14 38  1  0  0  0  0
 15 16  1  0  0  0  0
 15 39  1  0  0  0  0
 16 40  1  0  0  0  0
 16 41  1  0  0  0  0
 16 42  1  0  0  0  0
 17 43  1  0  0  0  0
 17 18  1  0  0  0  0
 18 19  2  0  0  0  0
 18 20  1  0  0  0  0
 20 21  1  0  0  0  0
 21 22  1  0  0  0  0
 21 44  1  0  0  0  0
 21 45  1  0  0  0  0
 22 23  1  0  0  0  0
 22 46  1  0  0  0  0
 22 47  1  0  0  0  0
 23 48  1  0  0  0  0
M  END
> <s_m_source_file>
AV-unprocessed.smi

> <i_m_source_file_index>
438

> <i_lp_mmshare_version>
43012

> <i_f3d_flags>
0

> <s_epik_input>
W09IXVtDSDJdW0NIMl1jMWMoW09IXSluYyhuYzFbQ0gzXSlTW0NIMl1DKD1PKVtOSF1bQ0BASF0yW0NIMl1bQ0gyXVtDSDJdW0NIMl1bQ0BIXTJbQ0gzXQ==

> <s_epik_cmdline>
J2VwaWtfcHl0aG9uJywgJy1waCcsICc3LjAnLCAnLXRuJywgJzgnLCAnLW1hJywgJzIwMCcsICctbWV0YWxfYmluZGluZycsICctaW1hZScsICc8aW5maWxlLm1hZT4nLCAnLW9tYWUnLCAnPG91dGZpbGUubWFlPic=

> <r_lp_tautomer_probability>
0.660323

> <r_epik_Ionization_Penalty>
0.00860626

> <r_epik_Ionization_Penalty_Charging>
0.00860522

> <r_epik_Ionization_Penalty_Neutral>
1.04215e-06

> <r_epik_State_Penalty>
0.156825

> <r_epik_Charging_Adjusted_Penalty>
0.16543

> <i_epik_Tot_Q>
0

> <i_epik_Tot_abs_Q>
0

> <r_epik_Metal_State_Penalty>
0.752038

> <b_epik_Metal_Only>
0

> <s_lp_Force_Field>
OPLS_2005

> <r_lp_Energy>
12.4019

> <b_lp_Chiralities_Consistent>
1

> <s_lp_Variant>
AV-unprocessed.smi:438-3

> <Gold.Version>
5.8.1

> <Gold.Id.Protein>
6NUR|6NUR_protein|mol2

> <Gold.PLP.Fitness>
50.7595

> <Gold.PLP.PLP>
-45.3280

> <Gold.PLP.part.hbond>
-2.4679

> <Gold.PLP.part.metal>
0.0000

> <Gold.PLP.part.buried>
-4.5764

> <Gold.PLP.part.nonpolar>
-40.1821

> <Gold.PLP.part.repulsive>
0.2911

> <Gold.PLP.ligand.clash>
0.0000

> <Gold.PLP.ligand.torsion>
0.2593

> <Gold.PLP.Chemscore.Hbond>
1.9760

> <Gold.PLP.Chemscore.CHOScore>
0.0000

> <Gold.PLP.Chemscore.Metal>
0.0000

> <Gold.Chemscore.Hbonds>
donor molecule, donor type, donor heavy atom, donor atom, acceptor molecule, acceptor atom, score
      P1  H  6896  6908       L1     3  0.13
      P1  H  6931  6943       L1     3  0.08
      P1  H  7997  8009       L1     8  0.68

> <Gold.PLP.Chemscore.Internal.Correction>
0.0222

> <Gold.Rescore>
     Score         DG    S(hbond)    S(metal)    S(lipo)     H(rot)  DE(clash)    DE(int)     intcor
     16.21     -16.75       1.74        0.00     109.29       2.86       0.00       0.54       ----

> <Gold.Chemscore.Fitness>
16.2106

> <Gold.Chemscore.DG>
-16.7544

> <Gold.Chemscore.ZeroCoef>
-5.4800

> <Gold.Chemscore.Hbond>
1.7429

> <Gold.Chemscore.Metal>
0.0000

> <Gold.Chemscore.Lipo>
109.2855

> <Gold.Chemscore.Internal_Hbond>
0.0000

> <Gold.Chemscore.DEClash>
0.0000

> <Gold.Chemscore.DEInternal>
0.5439

> <Gold.Chemscore.Rot>
2.8645

> <Gold.Chemscore.Internal.Correction>
   9.000000E+99

> <Gold.Chemscore.Hbonds>
donor molecule, donor type, donor heavy atom, donor atom, acceptor molecule, acceptor atom, score
      P1  H  6896  6908       L1     3  0.01
      P1  H  7997  8009       L1     8  0.65

> <Gold.Chemscore.Hbond.Weighted>
-5.8211

> <Gold.Chemscore.Metal.Weighted>
-0.0000

> <Gold.Chemscore.Lipo.Weighted>
-12.7864

> <Gold.Chemscore.Internal_Hbond.Weighted>
0.0000

> <Gold.Chemscore.DEClash.Weighted>
0.0000

> <Gold.Chemscore.DEInternal.Weighted>
0.5439

> <Gold.Chemscore.Rot.Weighted>
7.3331

> <Gold.Chemscore.Internal.Correction.Weighted>
   9.000000E+99

> <Gold.Protein.RotatedTorsions>
[ 6907 6896 6895 6894 ] final -176.25 input  -60.11 | X-H torsion
[ 7974 7965 7964 7962 ] final  116.64 input  175.53 | X-H torsion
[ 8008 7997 7996 7995 ] final  178.91 input   59.86 | X-H torsion
[ 10167 10162 10161 10158 ] final -132.56 input  -65.29 | X-H torsion
[ 10718 10713 10712 10709 ] final  -66.18 input   66.30 | X-H torsion
[ 10763 10752 10751 10750 ] final  119.78 input  -60.55 | X-H torsion
[ 11005 11000 10999 10996 ] final  110.73 input  -57.11 | X-H torsion

> <Gold.Protein.ActiveResidues>
 VAL166  LYS551  ARG553  GLY616  TRP617  ASP618  TYR619  PRO620  LYS621  CYS622 
 ASP623  PHE694  ASN695  SER759  ASP760  ASP761  ALA762  ILE779  LEU786  VAL792 
 PHE793  MET794  SER795  GLU796  ALA797  LYS798  CYS799  TRP800  GLU811  SER814 

> <Gold.Protein.RotatedAtoms>
  151.6017  133.3356  159.3048 H   0  0  0  0  0  0  0  0  0  0  0  0  # atno 6907 bound_to 6896
  150.8204  134.7412  159.6779 H   0  0  0  0  0  0  0  0  0  0  0  0  # atno 6908 bound_to 6896
  152.4298  134.5805  159.9998 H   0  0  0  0  0  0  0  0  0  0  0  0  # atno 6909 bound_to 6896
  145.1771  139.3070  143.4437 H   0  0  0  0  0  0  0  0  0  0  0  0  # atno 7974 bound_to 7965
  156.0493  140.1321  157.0068 H   0  0  0  0  0  0  0  0  0  0  0  0  # atno 8008 bound_to 7997
  154.4427  140.1014  156.6423 H   0  0  0  0  0  0  0  0  0  0  0  0  # atno 8009 bound_to 7997
  155.5547  140.3463  155.4479 H   0  0  0  0  0  0  0  0  0  0  0  0  # atno 8010 bound_to 7997
  139.9073  143.6536  152.2583 H   0  0  0  0  0  0  0  0  0  0  0  0  # atno 10167 bound_to 10162
  156.0627  130.4258  150.1672 H   0  0  0  0  0  0  0  0  0  0  0  0  # atno 10718 bound_to 10713
  153.5884  135.3470  155.2901 H   0  0  0  0  0  0  0  0  0  0  0  0  # atno 10763 bound_to 10752
  154.8656  135.4199  154.2543 H   0  0  0  0  0  0  0  0  0  0  0  0  # atno 10764 bound_to 10752
  153.3345  135.7046  153.6990 H   0  0  0  0  0  0  0  0  0  0  0  0  # atno 10765 bound_to 10752
  139.8888  134.9491  156.6323 H   0  0  0  0  0  0  0  0  0  0  0  0  # atno 11005 bound_to 11000
  146.3459  140.1937  142.8589 LP  0  0  0  0  0  0  0  0  0  0  0  0  # atno 17320 bound_to 7965
  145.0174  140.8765  143.5187 LP  0  0  0  0  0  0  0  0  0  0  0  0  # atno 17321 bound_to 7965
  139.6973  144.7639  151.1334 LP  0  0  0  0  0  0  0  0  0  0  0  0  # atno 17342 bound_to 10162
  140.7693  143.5506  150.9209 LP  0  0  0  0  0  0  0  0  0  0  0  0  # atno 17343 bound_to 10162
  156.9737  130.9842  151.3453 LP  0  0  0  0  0  0  0  0  0  0  0  0  # atno 17370 bound_to 10713
  157.5647  130.8269  149.8311 LP  0  0  0  0  0  0  0  0  0  0  0  0  # atno 17371 bound_to 10713
  140.7657  133.8780  155.8452 LP  0  0  0  0  0  0  0  0  0  0  0  0  # atno 17394 bound_to 11000
  140.9885  134.1311  157.4430 LP  0  0  0  0  0  0  0  0  0  0  0  0  # atno 17395 bound_to 11000

$$$$
