#       Name:                AV-unprocessed.smi:2975
#       Creating user name   scv26
#       Creation time:       Fri Mar 27 16:27:36 2020


#       File generated by GOLD software.
#

@<TRIPOS>MOLECULE
AV-unprocessed.smi:2975
    44    46     1
SMALL
NO_CHARGES


@<TRIPOS>ATOM
      1 ****        -1.4877   3.1804   0.1355 C.3            1 S1                 0.0000
      2 ****        -1.2721   2.5389   1.5125 C.3            1 S1                 0.0000
      3 ****        -1.9710   3.2985   2.4765 O.3            1 S1                 0.0000
      4 ****        -1.7082   1.1060   1.5048 C.2            1 S1                 0.0000
      5 ****        -2.9990   0.6728   1.5819 N.pl3          1 S1                 1.0000
      6 ****        -3.0387  -0.7192   1.5106 C.ar           1 S1                 0.0000
      7 ****        -4.1133  -1.6024   1.5445 C.ar           1 S1                 0.0000
      8 ****        -3.8076  -2.9750   1.4381 C.ar           1 S1                 0.0000
      9 ****        -2.4772  -3.4220   1.3028 C.ar           1 S1                 0.0000
     10 ****        -1.3959  -2.5164   1.2707 C.ar           1 S1                 0.0000
     11 ****        -1.7064  -1.1608   1.3802 C.ar           1 S1                 0.0000
     12 ****        -0.9189  -0.0029   1.3885 N.pl3          1 S1                 0.0000
     13 ****         0.5403  -0.1320   1.2628 C.3            1 S1                 0.0000
     14 ****         0.9903  -0.1225  -0.2027 C.3            1 S1                 0.0000
     15 ****         2.4049  -0.2423  -0.2413 O.3            1 S1                 0.0000
     16 ****         3.0299  -0.2113  -1.4702 C.ar           1 S1                 0.0000
     17 ****         2.3459  -0.0943  -2.7073 C.ar           1 S1                 0.0000
     18 ****         3.0629  -0.0654  -3.9195 C.ar           1 S1                 0.0000
     19 ****         4.4668  -0.1554  -3.9128 C.ar           1 S1                 0.0000
     20 ****         5.1541  -0.2753  -2.6911 C.ar           1 S1                 0.0000
     21 ****         4.4385  -0.3029  -1.4783 C.ar           1 S1                 0.0000
     22 ****         5.1128  -0.4177  -0.3091 F              1 S1                 0.0000
     23 ****        -0.9298   2.6505  -0.6367 H              1 S1                 0.0000
     24 ****        -1.1531   4.2182   0.1279 H              1 S1                 0.0000
     25 ****        -2.5403   3.1683  -0.1494 H              1 S1                 0.0000
     26 ****        -0.2140   2.5931   1.7662 H              1 S1                 0.0000
     27 ****        -1.7380   2.9815   3.3359 H              1 S1                 0.0000
     28 ****        -5.1335  -1.2614   1.6448 H              1 S1                 0.0000
     29 ****        -4.6094  -3.6990   1.4590 H              1 S1                 0.0000
     30 ****        -2.2815  -4.4814   1.2212 H              1 S1                 0.0000
     31 ****        -0.3817  -2.8713   1.1637 H              1 S1                 0.0000
     32 ****         1.0025   0.6920   1.8057 H              1 S1                 0.0000
     33 ****         0.8640  -1.0433   1.7659 H              1 S1                 0.0000
     34 ****         0.5273  -0.9518  -0.7398 H              1 S1                 0.0000
     35 ****         0.6782   0.8094  -0.6759 H              1 S1                 0.0000
     36 ****         1.2699  -0.0246  -2.7547 H              1 S1                 0.0000
     37 ****         2.5338   0.0263  -4.8567 H              1 S1                 0.0000
     38 ****         5.0156  -0.1333  -4.8429 H              1 S1                 0.0000
     39 ****         6.2317  -0.3454  -2.6832 H              1 S1                 0.0000
     40 ****        -3.7935   1.2930   1.6730 H              1 S1                 0.0000
     41 ****        -2.9559   3.1978   2.3356 LP             1 S1                 0.0000
     42 ****        -1.7192   4.2627   2.3931 LP             1 S1                 0.0000
     43 ****         2.6402  -1.1139   0.1887 LP             1 S1                 0.0000
     44 ****         2.7807   0.5091   0.3011 LP             1 S1                 0.0000
@<TRIPOS>BOND
    1    1    2 1     
    2    1   23 1     
    3    1   24 1     
    4    1   25 1     
    5    2    3 1     
    6    2    4 1     
    7    2   26 1     
    8    3   27 1     
    9    4   12 1     
   10    4    5 2     
   11    5    6 1     
   12    5   40 1     
   13    6   11 ar    
   14    6    7 ar    
   15    7    8 ar    
   16    7   28 1     
   17    8    9 ar    
   18    8   29 1     
   19    9   10 ar    
   20    9   30 1     
   21   10   11 ar    
   22   10   31 1     
   23   11   12 1     
   24   12   13 1     
   25   13   14 1     
   26   13   32 1     
   27   13   33 1     
   28   14   15 1     
   29   14   34 1     
   30   14   35 1     
   31   15   16 1     
   32   16   21 ar    
   33   16   17 ar    
   34   17   18 ar    
   35   17   36 1     
   36   18   19 ar    
   37   18   37 1     
   38   19   20 ar    
   39   19   38 1     
   40   20   21 ar    
   41   20   39 1     
   42   21   22 1     
   43    3   41 1     
   44    3   42 1     
   45   15   43 1     
   46   15   44 1     
@<TRIPOS>SUBSTRUCTURE
      1 S1             1
@<TRIPOS>SET
LONE_PAIRS      STATIC     ATOMS    <user>   **** ""
4 41 42 43 44
DONOR_HYDROGENS      STATIC     ATOMS    <user>   **** ""
2 27 40
ATOM$BLUE        STATIC     ATOMS    COLORGROUP SYSTEM
4 41 42 43 44
ATOM$RED        STATIC     ATOMS    COLORGROUP SYSTEM
2 27 40
