AV-unprocessed.smi:613|AV-procd|sdf|3064|dock9
  -GOLD-   2262023593D 1   1.00000     0.00000
 Structure written by MMmdl.
 38 39  0  0  0  0  0  0  0  0  1 V2000
  148.8537  141.5698  157.5905 C   0  0  0  0  0  0  0  0  0  0  0  0
  150.1882  142.1262  157.3990 N   0  0  0  0  0  0  0  0  0  0  0  0
  150.9987  141.6284  156.2860 C   0  0  0  0  0  0  0  0  0  0  0  0
  150.8300  140.1150  156.0535 C   0  0  2  0  0  0  0  0  0  0  0  0
  151.4040  139.2918  157.2238 C   0  0  0  0  0  0  0  0  0  0  0  0
  151.3154  137.8536  156.9831 N   0  0  0  0  0  0  0  0  0  0  0  0
  151.8176  137.0838  158.1288 C   0  0  0  0  0  0  0  0  0  0  0  0
  150.8968  137.0955  159.3555 C   0  0  0  0  0  0  0  0  0  0  0  0
  151.4167  137.5319  160.5054 N   0  0  0  0  0  0  0  0  0  0  0  0
  149.7327  136.7109  159.2660 O   0  0  0  0  0  0  0  0  0  0  0  0
  151.9651  137.5256  155.7113 C   0  0  0  0  0  0  0  0  0  0  0  0
  151.4087  138.3686  154.5516 C   0  0  0  0  0  0  0  0  0  0  0  0
  151.5295  139.7513  154.8656 O   0  0  0  0  0  0  0  0  0  0  0  0
  150.7986  142.8270  158.4672 C   0  0  0  0  0  0  0  0  0  0  0  0
  152.0848  143.4061  158.3360 C   0  0  0  0  0  0  0  0  0  0  0  0
  152.6227  144.0851  159.4428 C   0  0  0  0  0  0  0  0  0  0  0  0
  151.8418  144.1408  160.6093 C   0  0  0  0  0  0  0  0  0  0  0  0
  150.6204  143.5714  160.6917 N   0  0  0  0  0  0  0  0  0  0  0  0
  150.1128  142.9254  159.6366 N   0  0  0  0  0  0  0  0  0  0  0  0
  148.1196  142.3652  157.7212 H   0  0  0  0  0  0  0  0  0  0  0  0
  148.8276  140.9182  158.4646 H   0  0  0  0  0  0  0  0  0  0  0  0
  148.5485  140.9792  156.7262 H   0  0  0  0  0  0  0  0  0  0  0  0
  150.7296  142.1700  155.3785 H   0  0  0  0  0  0  0  0  0  0  0  0
  152.0481  141.8681  156.4601 H   0  0  0  0  0  0  0  0  0  0  0  0
  149.7709  139.8772  155.9374 H   0  0  0  0  0  0  0  0  0  0  0  0
  152.4442  139.5766  157.3928 H   0  0  0  0  0  0  0  0  0  0  0  0
  150.8617  139.5460  158.1358 H   0  0  0  0  0  0  0  0  0  0  0  0
  152.0103  136.0525  157.8269 H   0  0  0  0  0  0  0  0  0  0  0  0
  152.7781  137.4902  158.4486 H   0  0  0  0  0  0  0  0  0  0  0  0
  150.8473  137.5584  161.3386 H   0  0  0  0  0  0  0  0  0  0  0  0
  152.3793  137.8355  160.5360 H   0  0  0  0  0  0  0  0  0  0  0  0
  153.0411  137.6889  155.7915 H   0  0  0  0  0  0  0  0  0  0  0  0
  151.8274  136.4730  155.4635 H   0  0  0  0  0  0  0  0  0  0  0  0
  151.9593  138.1616  153.6339 H   0  0  0  0  0  0  0  0  0  0  0  0
  150.3633  138.1216  154.3603 H   0  0  0  0  0  0  0  0  0  0  0  0
  152.6603  143.3422  157.4252 H   0  0  0  0  0  0  0  0  0  0  0  0
  153.5984  144.5456  159.3986 H   0  0  0  0  0  0  0  0  0  0  0  0
  152.2017  144.6483  161.4920 H   0  0  0  0  0  0  0  0  0  0  0  0
  1  2  1  0  0  0  0
  1 20  1  0  0  0  0
  1 21  1  0  0  0  0
  1 22  1  0  0  0  0
  2  3  1  0  0  0  0
  2 14  1  0  0  0  0
  3  4  1  0  0  0  0
  3 23  1  0  0  0  0
  3 24  1  0  0  0  0
  4 13  1  0  0  0  0
  4  5  1  0  0  0  0
  4 25  1  0  0  0  0
  5  6  1  0  0  0  0
  5 26  1  0  0  0  0
  5 27  1  0  0  0  0
  6  7  1  0  0  0  0
  6 11  1  0  0  0  0
  7  8  1  0  0  0  0
  7 28  1  0  0  0  0
  7 29  1  0  0  0  0
  8  9  1  0  0  0  0
  8 10  2  0  0  0  0
  9 30  1  0  0  0  0
  9 31  1  0  0  0  0
 11 12  1  0  0  0  0
 11 32  1  0  0  0  0
 11 33  1  0  0  0  0
 12 13  1  0  0  0  0
 12 34  1  0  0  0  0
 12 35  1  0  0  0  0
 14 19  1  0  0  0  0
 14 15  2  0  0  0  0
 15 16  1  0  0  0  0
 15 36  1  0  0  0  0
 16 17  2  0  0  0  0
 16 37  1  0  0  0  0
 17 18  1  0  0  0  0
 17 38  1  0  0  0  0
 18 19  2  0  0  0  0
M  END
> <s_m_source_file>
AV-unprocessed.smi

> <i_m_source_file_index>
613

> <i_lp_mmshare_version>
43012

> <i_f3d_flags>
0

> <s_epik_input>
bjFuW2NIXVtjSF1bY0hdYzFOKFtDSDNdKVtDSDJdW0NAQEhdMltDSDJdTihbQ0gyXVtDSDJdTzIpW0NIMl1DKD1PKVtOSDJd

> <s_epik_cmdline>
J2VwaWtfcHl0aG9uJywgJy1waCcsICc3LjAnLCAnLXRuJywgJzgnLCAnLW1hJywgJzIwMCcsICctbWV0YWxfYmluZGluZycsICctaW1hZScsICc8aW5maWxlLm1hZT4nLCAnLW9tYWUnLCAnPG91dGZpbGUubWFlPic=

> <r_lp_tautomer_probability>
1

> <r_epik_Ionization_Penalty>
0.0398875

> <r_epik_Ionization_Penalty_Charging>
0

> <r_epik_Ionization_Penalty_Neutral>
0.0398875

> <r_epik_State_Penalty>
0.0543012

> <r_epik_Charging_Adjusted_Penalty>
0.0543012

> <i_epik_Tot_Q>
0

> <i_epik_Tot_abs_Q>
0

> <r_epik_Metal_State_Penalty>
0.0489294

> <b_epik_Metal_Only>
0

> <s_lp_Force_Field>
OPLS_2005

> <r_lp_Energy>
27.5025

> <b_lp_Chiralities_Consistent>
1

> <s_lp_Variant>
AV-unprocessed.smi:613-1

> <Gold.Version>
5.8.1

> <Gold.Id.Protein>
6NUR|6NUR_protein|mol2

> <Gold.PLP.Fitness>
43.6252

> <Gold.PLP.PLP>
-38.1368

> <Gold.PLP.part.hbond>
-2.9403

> <Gold.PLP.part.metal>
0.0000

> <Gold.PLP.part.buried>
-6.5736

> <Gold.PLP.part.nonpolar>
-29.6091

> <Gold.PLP.part.repulsive>
0.3173

> <Gold.PLP.ligand.clash>
0.0000

> <Gold.PLP.ligand.torsion>
0.3905

> <Gold.PLP.Chemscore.Hbond>
2.0000

> <Gold.PLP.Chemscore.CHOScore>
0.0000

> <Gold.PLP.Chemscore.Metal>
0.0000

> <Gold.Chemscore.Hbonds>
donor molecule, donor type, donor heavy atom, donor atom, acceptor molecule, acceptor atom, score
      P1  H  7989  7998       L1    13  1.00

> <Gold.PLP.Chemscore.Internal.Correction>
0.2694

> <Gold.Rescore>
     Score         DG    S(hbond)    S(metal)    S(lipo)     H(rot)  DE(clash)    DE(int)     intcor
     15.20     -15.78       1.98        0.00      79.13       2.18       0.07       0.51       ----

> <Gold.Chemscore.Fitness>
15.2042

> <Gold.Chemscore.DG>
-15.7798

> <Gold.Chemscore.ZeroCoef>
-5.4800

> <Gold.Chemscore.Hbond>
1.9847

> <Gold.Chemscore.Metal>
0.0000

> <Gold.Chemscore.Lipo>
79.1259

> <Gold.Chemscore.Internal_Hbond>
0.0000

> <Gold.Chemscore.DEClash>
0.0654

> <Gold.Chemscore.DEInternal>
0.5102

> <Gold.Chemscore.Rot>
2.1823

> <Gold.Chemscore.Internal.Correction>
   9.000000E+99

> <Gold.Chemscore.Hbonds>
donor molecule, donor type, donor heavy atom, donor atom, acceptor molecule, acceptor atom, score
      P1  H  7989  7998       L1    13  0.92

> <Gold.Chemscore.Hbond.Weighted>
-6.6288

> <Gold.Chemscore.Metal.Weighted>
-0.0000

> <Gold.Chemscore.Lipo.Weighted>
-9.2577

> <Gold.Chemscore.Internal_Hbond.Weighted>
0.0000

> <Gold.Chemscore.DEClash.Weighted>
0.0654

> <Gold.Chemscore.DEInternal.Weighted>
0.5102

> <Gold.Chemscore.Rot.Weighted>
5.5867

> <Gold.Chemscore.Internal.Correction.Weighted>
   9.000000E+99

> <Gold.Protein.RotatedTorsions>
[ 6907 6896 6895 6894 ] final  118.89 input  -60.11 | X-H torsion
[ 7974 7965 7964 7962 ] final  -29.96 input  175.53 | X-H torsion
[ 8008 7997 7996 7995 ] final   76.92 input   59.86 | X-H torsion
[ 10167 10162 10161 10158 ] final  -50.83 input  -65.29 | X-H torsion
[ 10718 10713 10712 10709 ] final  -58.27 input   66.30 | X-H torsion
[ 10763 10752 10751 10750 ] final -117.83 input  -60.55 | X-H torsion
[ 11005 11000 10999 10996 ] final -150.64 input  -57.11 | X-H torsion

> <Gold.Protein.ActiveResidues>
 VAL166  LYS551  ARG553  GLY616  TRP617  ASP618  TYR619  PRO620  LYS621  CYS622 
 ASP623  PHE694  ASN695  SER759  ASP760  ASP761  ALA762  ILE779  LEU786  VAL792 
 PHE793  MET794  SER795  GLU796  ALA797  LYS798  CYS799  TRP800  GLU811  SER814 

> <Gold.Protein.RotatedAtoms>
  152.4511  133.7630  159.6756 H   0  0  0  0  0  0  0  0  0  0  0  0  # atno 6907 bound_to 6896
  150.8423  133.7907  159.3062 H   0  0  0  0  0  0  0  0  0  0  0  0  # atno 6908 bound_to 6896
  151.5528  135.1070  160.0005 H   0  0  0  0  0  0  0  0  0  0  0  0  # atno 6909 bound_to 6896
  146.1178  140.5479  142.8749 H   0  0  0  0  0  0  0  0  0  0  0  0  # atno 7974 bound_to 7965
  155.8343  140.3465  155.5591 H   0  0  0  0  0  0  0  0  0  0  0  0  # atno 8008 bound_to 7997
  155.8209  140.0912  157.1869 H   0  0  0  0  0  0  0  0  0  0  0  0  # atno 8009 bound_to 7997
  154.4004  140.1430  156.3486 H   0  0  0  0  0  0  0  0  0  0  0  0  # atno 8010 bound_to 7997
  140.6618  143.2642  151.4416 H   0  0  0  0  0  0  0  0  0  0  0  0  # atno 10167 bound_to 10162
  156.1147  130.4171  150.0555 H   0  0  0  0  0  0  0  0  0  0  0  0  # atno 10718 bound_to 10713
  154.8568  135.4295  154.2043 H   0  0  0  0  0  0  0  0  0  0  0  0  # atno 10763 bound_to 10752
  153.3083  135.6974  153.7145 H   0  0  0  0  0  0  0  0  0  0  0  0  # atno 10764 bound_to 10752
  153.6248  135.3495  155.2997 H   0  0  0  0  0  0  0  0  0  0  0  0  # atno 10765 bound_to 10752
  140.7381  134.3545  157.5153 H   0  0  0  0  0  0  0  0  0  0  0  0  # atno 11005 bound_to 11000
  144.7569  140.5329  143.6762 LP  0  0  0  0  0  0  0  0  0  0  0  0  # atno 17320 bound_to 7965
  145.5529  139.1477  143.3384 LP  0  0  0  0  0  0  0  0  0  0  0  0  # atno 17321 bound_to 7965
  139.5854  144.1615  152.2022 LP  0  0  0  0  0  0  0  0  0  0  0  0  # atno 17342 bound_to 10162
  140.0953  144.5585  150.7026 LP  0  0  0  0  0  0  0  0  0  0  0  0  # atno 17343 bound_to 10162
  156.8509  130.9458  151.3625 LP  0  0  0  0  0  0  0  0  0  0  0  0  # atno 17370 bound_to 10713
  157.6330  130.8744  149.9308 LP  0  0  0  0  0  0  0  0  0  0  0  0  # atno 17371 bound_to 10713
  139.8812  134.9062  156.2918 LP  0  0  0  0  0  0  0  0  0  0  0  0  # atno 17394 bound_to 11000
  140.9861  133.7237  156.0744 LP  0  0  0  0  0  0  0  0  0  0  0  0  # atno 17395 bound_to 11000

$$$$
