#       Name:                AV-unprocessed.smi:749
#       Creating user name   scv26
#       Creation time:       Fri Mar 27 00:58:09 2020


#       File generated by GOLD software.
#

@<TRIPOS>MOLECULE
AV-unprocessed.smi:749
    50    51     1
SMALL
NO_CHARGES


@<TRIPOS>ATOM
      1 ****        -5.5786   0.0500  -1.1513 C.3            1 S1                 0.0000
      2 ****        -4.7987   0.2775   0.0664 N.am           1 S1                 0.0000
      3 ****        -3.3724   0.5590  -0.1584 C.3            1 S1                 0.0000
      4 ****        -2.6441   1.1433   1.0643 C.3            1 S1                 0.0000
      5 ****        -1.2022   1.0847   0.8519 N.am           1 S1                 0.0000
      6 ****        -0.2917   1.8954   1.4162 C.2            1 S1                 0.0000
      7 ****        -0.5958   2.8049   2.1862 O.2            1 S1                 0.0000
      8 ****         0.9969   1.6580   1.0922 N.am           1 S1                 0.0000
      9 ****         2.1961   2.3097   1.4981 C.2            1 S1                 0.0000
     10 ****         3.4530   1.8608   1.0140 C.2            1 S1                 0.0000
     11 ****         4.3454   2.7137   1.6047 C.2            1 S1                 0.0000
     12 ****         5.8423   2.8413   1.5555 C.3            1 S1                 0.0000
     13 ****         6.4546   1.7536   0.6508 C.3            1 S1                 0.0000
     14 ****         6.4315   2.6848   2.9700 C.3            1 S1                 0.0000
     15 ****         6.2353   4.2198   0.9921 C.3            1 S1                 0.0000
     16 ****         3.6804   3.6120   2.3837 O.3            1 S1                 0.0000
     17 ****         2.3086   3.3484   2.3122 N.2            1 S1                 0.0000
     18 ****        -3.0375   0.3616   2.3215 C.3            1 S1                 0.0000
     19 ****        -4.5519   0.4368   2.5470 C.3            1 S1                 0.0000
     20 ****        -5.3794   0.1515   1.2843 C.2            1 S1                 0.0000
     21 ****        -6.5638  -0.1546   1.4244 O.2            1 S1                 0.0000
     22 ****        -6.3585   0.8063  -1.2510 H              1 S1                 0.0000
     23 ****        -6.0547  -0.9317  -1.1298 H              1 S1                 0.0000
     24 ****        -4.9607   0.0903  -2.0494 H              1 S1                 0.0000
     25 ****        -2.9016  -0.3801  -0.4539 H              1 S1                 0.0000
     26 ****        -3.2569   1.2426  -1.0010 H              1 S1                 0.0000
     27 ****        -2.9511   2.1846   1.1828 H              1 S1                 0.0000
     28 ****        -0.8646   0.3635   0.2300 H              1 S1                 0.0000
     29 ****         1.1323   0.9044   0.4342 H              1 S1                 0.0000
     30 ****         3.6663   1.0439   0.3410 H              1 S1                 0.0000
     31 ****         7.5416   1.8332   0.6110 H              1 S1                 0.0000
     32 ****         6.0846   1.8316  -0.3722 H              1 S1                 0.0000
     33 ****         6.2142   0.7530   1.0128 H              1 S1                 0.0000
     34 ****         6.1778   1.7148   3.3987 H              1 S1                 0.0000
     35 ****         6.0540   3.4513   3.6477 H              1 S1                 0.0000
     36 ****         7.5190   2.7663   2.9608 H              1 S1                 0.0000
     37 ****         7.3187   4.3335   0.9355 H              1 S1                 0.0000
     38 ****         5.8552   5.0305   1.6148 H              1 S1                 0.0000
     39 ****         5.8367   4.3645  -0.0128 H              1 S1                 0.0000
     40 ****        -2.7289  -0.6809   2.2279 H              1 S1                 0.0000
     41 ****        -2.5204   0.7607   3.1949 H              1 S1                 0.0000
     42 ****        -4.8433  -0.2568   3.3366 H              1 S1                 0.0000
     43 ****        -4.8180   1.4350   2.8962 H              1 S1                 0.0000
     44 ****        -1.5557   2.9656   2.4159 LP             1 S1                 0.0000
     45 ****         0.1168   3.3837   2.5826 LP             1 S1                 0.0000
     46 ****         3.8613   4.5391   2.0555 LP             1 S1                 0.0000
     47 ****         3.9892   3.5275   3.3311 LP             1 S1                 0.0000
     48 ****         1.5709   3.8389   2.7762 LP             1 S1                 0.0000
     49 ****        -7.1357  -0.3206   0.6211 LP             1 S1                 0.0000
     50 ****        -6.9538  -0.2371   2.3415 LP             1 S1                 0.0000
@<TRIPOS>BOND
    1    1    2 1     
    2    1   22 1     
    3    1   23 1     
    4    1   24 1     
    5    2   20 am    
    6    2    3 1     
    7    3    4 1     
    8    3   25 1     
    9    3   26 1     
   10    4    5 1     
   11    4   18 1     
   12    4   27 1     
   13    5    6 am    
   14    5   28 1     
   15    6    7 2     
   16    6    8 am    
   17    8    9 1     
   18    8   29 1     
   19    9   17 2     
   20    9   10 1     
   21   10   11 2     
   22   10   30 1     
   23   11   12 1     
   24   11   16 1     
   25   12   13 1     
   26   12   14 1     
   27   12   15 1     
   28   13   31 1     
   29   13   32 1     
   30   13   33 1     
   31   14   34 1     
   32   14   35 1     
   33   14   36 1     
   34   15   37 1     
   35   15   38 1     
   36   15   39 1     
   37   16   17 1     
   38   18   19 1     
   39   18   40 1     
   40   18   41 1     
   41   19   20 1     
   42   19   42 1     
   43   19   43 1     
   44   20   21 2     
   45    7   44 1     
   46    7   45 1     
   47   16   46 1     
   48   16   47 1     
   49   17   48 1     
   50   21   49 1     
   51   21   50 1     
@<TRIPOS>SUBSTRUCTURE
      1 S1             1
@<TRIPOS>SET
LONE_PAIRS      STATIC     ATOMS    <user>   **** ""
7 44 45 46 47 48 49 50
DONOR_HYDROGENS      STATIC     ATOMS    <user>   **** ""
2 28 29
ATOM$BLUE        STATIC     ATOMS    COLORGROUP SYSTEM
7 44 45 46 47 48 49 50
ATOM$RED        STATIC     ATOMS    COLORGROUP SYSTEM
2 28 29
