AV-unprocessed.smi:227|AV-procd|sdf|1729|dock10
  -GOLD-   2262020223D 1   1.00000     0.00000
 Structure written by MMmdl.
 54 58  0  0  0  0  0  0  0  0  1 V2000
  152.1559  136.9798  153.6531 O   0  0  0  0  0  0  0  0  0  0  0  0
  151.1154  137.7424  154.2280 C   0  0  0  0  0  0  0  0  0  0  0  0
  150.9327  137.4239  155.7344 C   0  0  2  0  0  0  0  0  0  0  0  0
  152.0885  138.0177  156.5800 C   0  0  0  0  0  0  0  0  0  0  0  0
  151.8064  139.3434  157.1029 N   0  0  0  0  0  0  0  0  0  0  0  0
  151.0520  140.3242  156.5023 C   0  0  0  0  0  0  0  0  0  0  0  0
  150.9502  141.4353  157.1778 N   0  0  0  0  0  0  0  0  0  0  0  0
  151.6945  141.2113  158.3313 C   0  0  0  0  0  0  0  0  0  0  0  0
  152.0079  141.9842  159.4890 C   0  0  0  0  0  0  0  0  0  0  0  0
  151.5700  143.2549  159.7119 N   0  0  0  0  0  0  0  0  0  0  0  0
  152.4932  144.3785  159.7153 C   0  0  1  0  0  0  0  0  0  0  0  0
  152.8409  144.5818  158.2274 C   0  0  0  0  0  0  0  0  0  0  0  0
  151.5083  144.2136  157.5556 C   0  0  0  0  0  0  0  0  0  0  0  0
  150.6340  143.8776  158.7834 C   0  0  2  0  0  0  0  0  0  0  0  0
  150.2566  145.1918  159.4985 C   0  0  1  0  0  0  0  0  0  0  0  0
  149.0816  145.0207  160.4780 C   0  0  0  0  0  0  0  0  0  0  0  0
  148.8175  146.2393  161.1403 O   0  0  0  0  0  0  0  0  0  0  0  0
  151.5938  145.5327  160.1880 C   0  0  0  0  0  0  0  0  0  0  0  0
  152.8219  141.4098  160.4146 N   0  0  0  0  0  0  0  0  0  0  0  0
  153.2776  140.1662  160.2438 C   0  0  0  0  0  0  0  0  0  0  0  0
  153.0534  139.3287  159.2312 N   0  0  0  0  0  0  0  0  0  0  0  0
  152.2515  139.8999  158.2886 C   0  0  0  0  0  0  0  0  0  0  0  0
  150.8066  135.8993  156.0051 C   0  0  2  0  0  0  0  0  0  0  0  0
  149.8177  135.1478  155.1302 C   0  0  0  0  0  0  0  0  0  0  0  0
  149.5937  133.8629  155.9191 C   0  0  0  0  0  0  0  0  0  0  0  0
  149.7207  134.2271  157.2882 O   0  0  0  0  0  0  0  0  0  0  0  0
  150.2616  135.5399  157.3929 C   0  0  0  0  0  0  0  0  0  0  0  0
  151.9169  136.7661  152.7641 H   0  0  0  0  0  0  0  0  0  0  0  0
  151.3128  138.8041  154.0779 H   0  0  0  0  0  0  0  0  0  0  0  0
  150.2202  137.5064  153.6548 H   0  0  0  0  0  0  0  0  0  0  0  0
  150.0115  137.9055  156.0665 H   0  0  0  0  0  0  0  0  0  0  0  0
  152.3115  137.3789  157.4345 H   0  0  0  0  0  0  0  0  0  0  0  0
  153.0013  138.0669  155.9847 H   0  0  0  0  0  0  0  0  0  0  0  0
  150.5710  140.1868  155.5449 H   0  0  0  0  0  0  0  0  0  0  0  0
  153.3692  144.2721  160.3522 H   0  0  0  0  0  0  0  0  0  0  0  0
  153.1617  145.6002  158.0060 H   0  0  0  0  0  0  0  0  0  0  0  0
  153.6320  143.9002  157.9124 H   0  0  0  0  0  0  0  0  0  0  0  0
  151.0987  145.0230  156.9505 H   0  0  0  0  0  0  0  0  0  0  0  0
  151.6322  143.3429  156.9106 H   0  0  0  0  0  0  0  0  0  0  0  0
  149.7607  143.2740  158.5326 H   0  0  0  0  0  0  0  0  0  0  0  0
  149.9910  145.9549  158.7650 H   0  0  0  0  0  0  0  0  0  0  0  0
  148.1821  144.7201  159.9399 H   0  0  0  0  0  0  0  0  0  0  0  0
  149.2902  144.2441  161.2146 H   0  0  0  0  0  0  0  0  0  0  0  0
  148.7571  146.0692  162.0680 H   0  0  0  0  0  0  0  0  0  0  0  0
  151.4984  145.5170  161.2748 H   0  0  0  0  0  0  0  0  0  0  0  0
  151.9795  146.5115  159.9011 H   0  0  0  0  0  0  0  0  0  0  0  0
  153.9128  139.7884  161.0315 H   0  0  0  0  0  0  0  0  0  0  0  0
  151.7864  135.4328  155.8891 H   0  0  0  0  0  0  0  0  0  0  0  0
  148.8827  135.7038  155.0469 H   0  0  0  0  0  0  0  0  0  0  0  0
  150.1922  134.9517  154.1255 H   0  0  0  0  0  0  0  0  0  0  0  0
  148.6238  133.4098  155.7133 H   0  0  0  0  0  0  0  0  0  0  0  0
  150.3674  133.1317  155.6821 H   0  0  0  0  0  0  0  0  0  0  0  0
  151.0279  135.5803  158.1673 H   0  0  0  0  0  0  0  0  0  0  0  0
  149.4562  136.2179  157.6789 H   0  0  0  0  0  0  0  0  0  0  0  0
  1  2  1  0  0  0  0
  1 28  1  0  0  0  0
  2  3  1  0  0  0  0
  2 29  1  0  0  0  0
  2 30  1  0  0  0  0
  3  4  1  0  0  0  0
  3 23  1  0  0  0  0
  3 31  1  0  0  0  0
  4  5  1  0  0  0  0
  4 32  1  0  0  0  0
  4 33  1  0  0  0  0
  5 22  1  0  0  0  0
  5  6  1  0  0  0  0
  6  7  2  0  0  0  0
  6 34  1  0  0  0  0
  7  8  1  0  0  0  0
  8 22  2  0  0  0  0
  8  9  1  0  0  0  0
  9 10  1  0  0  0  0
  9 19  2  0  0  0  0
 10 14  1  0  0  0  0
 10 11  1  0  0  0  0
 11 18  1  0  0  0  0
 11 12  1  0  0  0  0
 11 35  1  0  0  0  0
 12 13  1  0  0  0  0
 12 36  1  0  0  0  0
 12 37  1  0  0  0  0
 13 14  1  0  0  0  0
 13 38  1  0  0  0  0
 13 39  1  0  0  0  0
 14 15  1  0  0  0  0
 14 40  1  0  0  0  0
 15 16  1  0  0  0  0
 15 18  1  0  0  0  0
 15 41  1  0  0  0  0
 16 17  1  0  0  0  0
 16 42  1  0  0  0  0
 16 43  1  0  0  0  0
 17 44  1  0  0  0  0
 18 45  1  0  0  0  0
 18 46  1  0  0  0  0
 19 20  1  0  0  0  0
 20 21  2  0  0  0  0
 20 47  1  0  0  0  0
 21 22  1  0  0  0  0
 23 27  1  0  0  0  0
 23 24  1  0  0  0  0
 23 48  1  0  0  0  0
 24 25  1  0  0  0  0
 24 49  1  0  0  0  0
 24 50  1  0  0  0  0
 25 26  1  0  0  0  0
 25 51  1  0  0  0  0
 25 52  1  0  0  0  0
 26 27  1  0  0  0  0
 27 53  1  0  0  0  0
 27 54  1  0  0  0  0
M  END
> <s_m_source_file>
AV-unprocessed.smi

> <i_m_source_file_index>
227

> <i_lp_mmshare_version>
43012

> <i_f3d_flags>
0

> <s_epik_input>
W0NIMl0xT1tDSDJdW0NIMl1bQ0BIXTFbQ0BIXShbQ0gyXVtPSF0pW0NIMl1uKFtjSF1uMiljKGMyMyluW2NIXW5jM04oW0NASF00NSlbQ0BASF0oW0NIMl1bQ0gyXTQpW0NASF0oW0NIMl01KVtDSDJdW09IXQ==

> <s_epik_cmdline>
J2VwaWtfcHl0aG9uJywgJy1waCcsICc3LjAnLCAnLXRuJywgJzgnLCAnLW1hJywgJzIwMCcsICctbWV0YWxfYmluZGluZycsICctaW1hZScsICc8aW5maWxlLm1hZT4nLCAnLW9tYWUnLCAnPG91dGZpbGUubWFlPic=

> <r_lp_tautomer_probability>
1

> <r_epik_Ionization_Penalty>
0.0055791

> <r_epik_Ionization_Penalty_Charging>
0

> <r_epik_Ionization_Penalty_Neutral>
0.0055791

> <r_epik_State_Penalty>
0.00401299

> <r_epik_Charging_Adjusted_Penalty>
0.00401299

> <i_epik_Tot_Q>
0

> <i_epik_Tot_abs_Q>
0

> <r_epik_Metal_State_Penalty>
-0

> <b_epik_Metal_Only>
0

> <s_lp_Force_Field>
OPLS_2005

> <r_lp_Energy>
88.7609

> <b_lp_Chiralities_Consistent>
1

> <s_lp_Variant>
AV-unprocessed.smi:227-3

> <Gold.Version>
5.8.1

> <Gold.Id.Protein>
6NUR|6NUR_protein|mol2

> <Gold.PLP.Fitness>
55.4401

> <Gold.PLP.PLP>
-53.2859

> <Gold.PLP.part.hbond>
-5.8613

> <Gold.PLP.part.metal>
0.0000

> <Gold.PLP.part.buried>
-6.2170

> <Gold.PLP.part.nonpolar>
-41.5324

> <Gold.PLP.part.repulsive>
0.0480

> <Gold.PLP.ligand.clash>
0.0000

> <Gold.PLP.ligand.torsion>
1.1088

> <Gold.PLP.Chemscore.Hbond>
1.4256

> <Gold.PLP.Chemscore.CHOScore>
0.0000

> <Gold.PLP.Chemscore.Metal>
0.0000

> <Gold.Chemscore.Hbonds>
donor molecule, donor type, donor heavy atom, donor atom, acceptor molecule, acceptor atom, score
      L1  H     1    28       P1  7949  1.00
      P1  H 10752 10764       L1     1  0.22

> <Gold.PLP.Chemscore.Internal.Correction>
0.0949

> <Gold.Rescore>
     Score         DG    S(hbond)    S(metal)    S(lipo)     H(rot)  DE(clash)    DE(int)     intcor
      9.66     -13.09       0.99        0.00     115.66       3.61       0.55       2.89       ----

> <Gold.Chemscore.Fitness>
9.6565

> <Gold.Chemscore.DG>
-13.0918

> <Gold.Chemscore.ZeroCoef>
-5.4800

> <Gold.Chemscore.Hbond>
0.9922

> <Gold.Chemscore.Metal>
0.0000

> <Gold.Chemscore.Lipo>
115.6573

> <Gold.Chemscore.Internal_Hbond>
0.0000

> <Gold.Chemscore.DEClash>
0.5465

> <Gold.Chemscore.DEInternal>
2.8888

> <Gold.Chemscore.Rot>
3.6071

> <Gold.Chemscore.Internal.Correction>
   9.000000E+99

> <Gold.Chemscore.Hbonds>
donor molecule, donor type, donor heavy atom, donor atom, acceptor molecule, acceptor atom, score
      L1  H     1    28       P1  7949  0.99
      P1  H 10752 10764       L1     1  0.01

> <Gold.Chemscore.Hbond.Weighted>
-3.3140

> <Gold.Chemscore.Metal.Weighted>
-0.0000

> <Gold.Chemscore.Lipo.Weighted>
-13.5319

> <Gold.Chemscore.Internal_Hbond.Weighted>
0.0000

> <Gold.Chemscore.DEClash.Weighted>
0.5465

> <Gold.Chemscore.DEInternal.Weighted>
2.8888

> <Gold.Chemscore.Rot.Weighted>
9.2342

> <Gold.Chemscore.Internal.Correction.Weighted>
   9.000000E+99

> <Gold.Protein.RotatedTorsions>
[ 6907 6896 6895 6894 ] final  153.47 input  -60.11 | X-H torsion
[ 7974 7965 7964 7962 ] final  -41.94 input  175.53 | X-H torsion
[ 8008 7997 7996 7995 ] final  106.72 input   59.86 | X-H torsion
[ 10167 10162 10161 10158 ] final -129.63 input  -65.29 | X-H torsion
[ 10718 10713 10712 10709 ] final   10.01 input   66.30 | X-H torsion
[ 10763 10752 10751 10750 ] final -135.08 input  -60.55 | X-H torsion
[ 11005 11000 10999 10996 ] final  -58.85 input  -57.11 | X-H torsion

> <Gold.Protein.ActiveResidues>
 VAL166  LYS551  ARG553  GLY616  TRP617  ASP618  TYR619  PRO620  LYS621  CYS622 
 ASP623  PHE694  ASN695  SER759  ASP760  ASP761  ALA762  ILE779  LEU786  VAL792 
 PHE793  MET794  SER795  GLU796  ALA797  LYS798  CYS799  TRP800  GLU811  SER814 

> <Gold.Protein.RotatedAtoms>
  152.0722  133.4112  159.4463 H   0  0  0  0  0  0  0  0  0  0  0  0  # atno 6907 bound_to 6896
  150.6863  134.3079  159.4743 H   0  0  0  0  0  0  0  0  0  0  0  0  # atno 6908 bound_to 6896
  152.0912  134.9405  160.0622 H   0  0  0  0  0  0  0  0  0  0  0  0  # atno 6909 bound_to 6896
  146.0163  140.6903  142.9200 H   0  0  0  0  0  0  0  0  0  0  0  0  # atno 7974 bound_to 7965
  156.1766  140.3107  155.9071 H   0  0  0  0  0  0  0  0  0  0  0  0  # atno 8008 bound_to 7997
  155.3473  140.0469  157.3063 H   0  0  0  0  0  0  0  0  0  0  0  0  # atno 8009 bound_to 7997
  154.5297  140.2226  155.8836 H   0  0  0  0  0  0  0  0  0  0  0  0  # atno 8010 bound_to 7997
  139.9378  143.6198  152.2512 H   0  0  0  0  0  0  0  0  0  0  0  0  # atno 10167 bound_to 10162
  156.9748  130.5983  149.5671 H   0  0  0  0  0  0  0  0  0  0  0  0  # atno 10718 bound_to 10713
  154.8709  135.3714  154.4841 H   0  0  0  0  0  0  0  0  0  0  0  0  # atno 10763 bound_to 10752
  153.5492  135.7025  153.5604 H   0  0  0  0  0  0  0  0  0  0  0  0  # atno 10764 bound_to 10752
  153.3731  135.4016  155.1767 H   0  0  0  0  0  0  0  0  0  0  0  0  # atno 10765 bound_to 10752
  141.1224  133.6614  156.4982 H   0  0  0  0  0  0  0  0  0  0  0  0  # atno 11005 bound_to 11000
  144.6972  140.3487  143.7185 LP  0  0  0  0  0  0  0  0  0  0  0  0  # atno 17320 bound_to 7965
  145.7263  139.1723  143.2456 LP  0  0  0  0  0  0  0  0  0  0  0  0  # atno 17321 bound_to 7965
  139.6729  144.7660  151.1749 LP  0  0  0  0  0  0  0  0  0  0  0  0  # atno 17342 bound_to 10162
  140.7619  143.5838  150.8867 LP  0  0  0  0  0  0  0  0  0  0  0  0  # atno 17343 bound_to 10162
  156.0268  130.5361  150.8428 LP  0  0  0  0  0  0  0  0  0  0  0  0  # atno 17370 bound_to 10713
  157.5567  131.0945  150.9617 LP  0  0  0  0  0  0  0  0  0  0  0  0  # atno 17371 bound_to 10713
  140.4467  134.6966  157.5019 LP  0  0  0  0  0  0  0  0  0  0  0  0  # atno 17394 bound_to 11000
  140.0193  134.6572  155.9264 LP  0  0  0  0  0  0  0  0  0  0  0  0  # atno 17395 bound_to 11000

$$$$
