AV-unprocessed.smi:1600|AV-procd|sdf|6430|dock3
  -GOLD-   22720 7 73D 1   1.00000     0.00000
 Structure written by MMmdl.
 46 47  0  0  0  0  0  0  0  0  2 V2000
  153.8809  141.3404  160.4207 C   0  0  0  0  0  0  0  0  0  0  0  0
  152.9324  142.0546  159.5038 C   0  0  0  0  0  0  0  0  0  0  0  0
  152.1521  141.5026  158.4464 C   0  0  0  0  0  0  0  0  0  0  0  0
  151.4870  142.5954  157.9612 C   0  0  0  0  0  0  0  0  0  0  0  0
  150.5902  142.6677  156.9418 N   0  0  0  0  0  0  0  0  0  0  0  0
  150.3110  141.7478  156.0018 C   0  0  0  0  0  0  0  0  0  0  0  0
  150.8442  140.6427  155.9037 O   0  0  0  0  0  0  0  0  0  0  0  0
  149.3582  142.1845  155.1651 N   0  0  0  0  0  0  0  0  0  0  0  0
  148.8281  141.4466  154.0220 C   0  0  0  0  0  0  0  0  0  0  0  0
  147.8760  140.3153  154.4548 C   0  0  1  0  0  0  0  0  0  0  0  0
  146.6492  140.7995  155.2205 C   0  0  0  0  0  0  0  0  0  0  0  0
  145.6889  139.6239  155.0787 C   0  0  0  0  0  0  0  0  0  0  0  0
  145.8897  139.1224  153.7008 N   0  3  2  0  0  0  0  0  0  0  0  0
  145.5133  137.6990  153.4695 C   0  0  0  0  0  0  0  0  0  0  0  0
  145.8707  137.2568  152.0376 C   0  0  0  0  0  0  0  0  0  0  0  0
  144.0116  137.4577  153.7183 C   0  0  0  0  0  0  0  0  0  0  0  0
  147.2749  139.4861  153.3062 C   0  0  0  0  0  0  0  0  0  0  0  0
  151.8594  143.7030  158.6903 N   0  0  0  0  0  0  0  0  0  0  0  0
  151.4274  145.0810  158.5589 C   0  0  0  0  0  0  0  0  0  0  0  0
  152.7539  143.3635  159.6434 N   0  0  0  0  0  0  0  0  0  0  0  0
  153.7634  140.2592  160.3438 H   0  0  0  0  0  0  0  0  0  0  0  0
  153.7099  141.6183  161.4613 H   0  0  0  0  0  0  0  0  0  0  0  0
  154.9159  141.5802  160.1760 H   0  0  0  0  0  0  0  0  0  0  0  0
  152.1041  140.4753  158.1184 H   0  0  0  0  0  0  0  0  0  0  0  0
  150.0740  143.5333  156.8856 H   0  0  0  0  0  0  0  0  0  0  0  0
  148.9794  143.1075  155.3215 H   0  0  0  0  0  0  0  0  0  0  0  0
  148.2858  142.1573  153.3979 H   0  0  0  0  0  0  0  0  0  0  0  0
  149.6359  141.0544  153.4020 H   0  0  0  0  0  0  0  0  0  0  0  0
  148.4201  139.6342  155.1117 H   0  0  0  0  0  0  0  0  0  0  0  0
  146.8666  141.0435  156.2608 H   0  0  0  0  0  0  0  0  0  0  0  0
  146.2260  141.6858  154.7449 H   0  0  0  0  0  0  0  0  0  0  0  0
  145.9568  138.8478  155.7980 H   0  0  0  0  0  0  0  0  0  0  0  0
  144.6530  139.9134  155.2587 H   0  0  0  0  0  0  0  0  0  0  0  0
  146.0755  137.0817  154.1719 H   0  0  0  0  0  0  0  0  0  0  0  0
  145.5761  136.2210  151.8650 H   0  0  0  0  0  0  0  0  0  0  0  0
  146.9405  137.3172  151.8393 H   0  0  0  0  0  0  0  0  0  0  0  0
  145.3605  137.8717  151.2952 H   0  0  0  0  0  0  0  0  0  0  0  0
  143.7405  136.4254  153.4947 H   0  0  0  0  0  0  0  0  0  0  0  0
  143.3967  138.1028  153.0896 H   0  0  0  0  0  0  0  0  0  0  0  0
  143.7332  137.6366  154.7568 H   0  0  0  0  0  0  0  0  0  0  0  0
  147.2130  140.0641  152.3842 H   0  0  0  0  0  0  0  0  0  0  0  0
  147.9008  138.6147  153.1100 H   0  0  0  0  0  0  0  0  0  0  0  0
  150.3834  145.1666  158.8610 H   0  0  0  0  0  0  0  0  0  0  0  0
  151.5260  145.4000  157.5210 H   0  0  0  0  0  0  0  0  0  0  0  0
  152.0337  145.7353  159.1866 H   0  0  0  0  0  0  0  0  0  0  0  0
  145.2842  139.6815  153.1168 H   0  0  0  0  0  0  0  0  0  0  0  0
  1  2  1  0  0  0  0
  1 21  1  0  0  0  0
  1 22  1  0  0  0  0
  1 23  1  0  0  0  0
  2 20  2  0  0  0  0
  2  3  1  0  0  0  0
  3  4  2  0  0  0  0
  3 24  1  0  0  0  0
  4  5  1  0  0  0  0
  4 18  1  0  0  0  0
  5  6  1  0  0  0  0
  5 25  1  0  0  0  0
  6  7  2  0  0  0  0
  6  8  1  0  0  0  0
  8  9  1  0  0  0  0
  8 26  1  0  0  0  0
  9 10  1  0  0  0  0
  9 27  1  0  0  0  0
  9 28  1  0  0  0  0
 10 17  1  0  0  0  0
 10 11  1  0  0  0  0
 10 29  1  0  0  0  0
 11 12  1  0  0  0  0
 11 30  1  0  0  0  0
 11 31  1  0  0  0  0
 12 13  1  0  0  0  0
 12 32  1  0  0  0  0
 12 33  1  0  0  0  0
 13 14  1  0  0  0  0
 13 17  1  0  0  0  0
 13 46  1  0  0  0  0
 14 15  1  0  0  0  0
 14 16  1  0  0  0  0
 14 34  1  0  0  0  0
 15 35  1  0  0  0  0
 15 36  1  0  0  0  0
 15 37  1  0  0  0  0
 16 38  1  0  0  0  0
 16 39  1  0  0  0  0
 16 40  1  0  0  0  0
 17 41  1  0  0  0  0
 17 42  1  0  0  0  0
 18 19  1  0  0  0  0
 18 20  1  0  0  0  0
 19 43  1  0  0  0  0
 19 44  1  0  0  0  0
 19 45  1  0  0  0  0
M  CHG  1  13   1
M  END
> <s_m_source_file>
AV-unprocessed.smi

> <i_m_source_file_index>
1600

> <i_lp_mmshare_version>
43012

> <i_f3d_flags>
0

> <s_epik_input>
W0NIM11jMVtjSF1jKG4objEpW0NIM10pW05IXUMoPU8pW05IXVtDSDJdW0NAQEhdMltDSDJdW0NIMl1OKFtDSDJdMilbQ0hdKFtDSDNdKVtDSDNd

> <s_epik_cmdline>
J2VwaWtfcHl0aG9uJywgJy1waCcsICc3LjAnLCAnLXRuJywgJzgnLCAnLW1hJywgJzIwMCcsICctbWV0YWxfYmluZGluZycsICctaW1hZScsICc8aW5maWxlLm1hZT4nLCAnLW9tYWUnLCAnPG91dGZpbGUubWFlPic=

> <r_lp_tautomer_probability>
1

> <r_epik_Ionization_Penalty>
0.000297652

> <r_epik_Ionization_Penalty_Charging>
0.000213653

> <r_epik_Ionization_Penalty_Neutral>
8.3999e-05

> <r_epik_State_Penalty>
-0

> <r_epik_Charging_Adjusted_Penalty>
0.000213653

> <i_epik_Tot_Q>
1

> <i_epik_Tot_abs_Q>
1

> <r_epik_Metal_State_Penalty>
-0

> <b_epik_Metal_Only>
0

> <s_lp_Force_Field>
OPLS_2005

> <r_lp_Energy>
32.7515

> <b_lp_Chiralities_Consistent>
1

> <s_lp_Variant>
AV-unprocessed.smi:1600-4

> <Gold.Version>
5.8.1

> <Gold.Id.Protein>
6NUR|6NUR_protein|mol2

> <Gold.PLP.Fitness>
48.0009

> <Gold.PLP.PLP>
-36.8388

> <Gold.PLP.part.hbond>
-3.0000

> <Gold.PLP.part.metal>
0.0000

> <Gold.PLP.part.buried>
-3.3122

> <Gold.PLP.part.nonpolar>
-30.7854

> <Gold.PLP.part.repulsive>
0.2585

> <Gold.PLP.ligand.clash>
0.0000

> <Gold.PLP.ligand.torsion>
0.1838

> <Gold.PLP.Chemscore.Hbond>
3.8299

> <Gold.PLP.Chemscore.CHOScore>
0.0000

> <Gold.PLP.Chemscore.Metal>
0.0000

> <Gold.Chemscore.Hbonds>
donor molecule, donor type, donor heavy atom, donor atom, acceptor molecule, acceptor atom, score
      L1  H     5    25       P1  8028  0.83
      L1  H     8    26       P1  8028  1.00
      L1  H    13    46       P1 10175  2.00

> <Gold.PLP.Chemscore.Internal.Correction>
0.0400

> <Gold.Rescore>
     Score         DG    S(hbond)    S(metal)    S(lipo)     H(rot)  DE(clash)    DE(int)     intcor
     19.23     -20.69       2.93        0.00      77.78       1.44       0.23       1.24       ----

> <Gold.Chemscore.Fitness>
19.2254

> <Gold.Chemscore.DG>
-20.6935

> <Gold.Chemscore.ZeroCoef>
-5.4800

> <Gold.Chemscore.Hbond>
2.9318

> <Gold.Chemscore.Metal>
0.0000

> <Gold.Chemscore.Lipo>
77.7754

> <Gold.Chemscore.Internal_Hbond>
0.0000

> <Gold.Chemscore.DEClash>
0.2325

> <Gold.Chemscore.DEInternal>
1.2355

> <Gold.Chemscore.Rot>
1.4369

> <Gold.Chemscore.Internal.Correction>
   9.000000E+99

> <Gold.Chemscore.Hbonds>
donor molecule, donor type, donor heavy atom, donor atom, acceptor molecule, acceptor atom, score
      L1  H     5    25       P1  8028  0.77
      L1  H     8    26       P1  8028  0.99
      L1  H    13    46       P1 10175  0.99

> <Gold.Chemscore.Hbond.Weighted>
-9.7923

> <Gold.Chemscore.Metal.Weighted>
-0.0000

> <Gold.Chemscore.Lipo.Weighted>
-9.0997

> <Gold.Chemscore.Internal_Hbond.Weighted>
0.0000

> <Gold.Chemscore.DEClash.Weighted>
0.2325

> <Gold.Chemscore.DEInternal.Weighted>
1.2355

> <Gold.Chemscore.Rot.Weighted>
3.6785

> <Gold.Chemscore.Internal.Correction.Weighted>
   9.000000E+99

> <Gold.Protein.RotatedTorsions>
[ 6907 6896 6895 6894 ] final -169.31 input  -60.11 | X-H torsion
[ 7974 7965 7964 7962 ] final  124.81 input  175.53 | X-H torsion
[ 8008 7997 7996 7995 ] final  -19.09 input   59.86 | X-H torsion
[ 10167 10162 10161 10158 ] final   75.05 input  -65.29 | X-H torsion
[ 10718 10713 10712 10709 ] final  -31.38 input   66.30 | X-H torsion
[ 10763 10752 10751 10750 ] final -174.66 input  -60.55 | X-H torsion
[ 11005 11000 10999 10996 ] final -176.88 input  -57.11 | X-H torsion

> <Gold.Protein.ActiveResidues>
 VAL166  LYS551  ARG553  GLY616  TRP617  ASP618  TYR619  PRO620  LYS621  CYS622 
 ASP623  PHE694  ASN695  SER759  ASP760  ASP761  ALA762  ILE779  LEU786  VAL792 
 PHE793  MET794  SER795  GLU796  ALA797  LYS798  CYS799  TRP800  GLU811  SER814 

> <Gold.Protein.RotatedAtoms>
  151.4895  133.3528  159.2850 H   0  0  0  0  0  0  0  0  0  0  0  0  # atno 6907 bound_to 6896
  150.8844  134.8242  159.7259 H   0  0  0  0  0  0  0  0  0  0  0  0  # atno 6908 bound_to 6896
  152.4783  134.4797  159.9713 H   0  0  0  0  0  0  0  0  0  0  0  0  # atno 6909 bound_to 6896
  145.0802  139.3663  143.4913 H   0  0  0  0  0  0  0  0  0  0  0  0  # atno 7974 bound_to 7965
  154.4861  140.2098  155.9653 H   0  0  0  0  0  0  0  0  0  0  0  0  # atno 8008 bound_to 7997
  156.1238  140.3209  155.8215 H   0  0  0  0  0  0  0  0  0  0  0  0  # atno 8009 bound_to 7997
  155.4421  140.0511  157.3000 H   0  0  0  0  0  0  0  0  0  0  0  0  # atno 8010 bound_to 7997
  140.0071  144.5642  150.7689 H   0  0  0  0  0  0  0  0  0  0  0  0  # atno 10167 bound_to 10162
  156.3881  130.4368  149.7416 H   0  0  0  0  0  0  0  0  0  0  0  0  # atno 10718 bound_to 10713
  154.5936  135.2847  155.0610 H   0  0  0  0  0  0  0  0  0  0  0  0  # atno 10763 bound_to 10752
  154.1901  135.6442  153.5061 H   0  0  0  0  0  0  0  0  0  0  0  0  # atno 10764 bound_to 10752
  153.0130  135.5444  154.6630 H   0  0  0  0  0  0  0  0  0  0  0  0  # atno 10765 bound_to 10752
  140.4472  134.6377  157.4785 H   0  0  0  0  0  0  0  0  0  0  0  0  # atno 11005 bound_to 11000
  146.3531  140.0588  142.8630 LP  0  0  0  0  0  0  0  0  0  0  0  0  # atno 17320 bound_to 7965
  145.1187  140.9449  143.4613 LP  0  0  0  0  0  0  0  0  0  0  0  0  # atno 17321 bound_to 7965
  140.7396  143.2793  151.3646 LP  0  0  0  0  0  0  0  0  0  0  0  0  # atno 17342 bound_to 10162
  139.6231  144.0868  152.2409 LP  0  0  0  0  0  0  0  0  0  0  0  0  # atno 17343 bound_to 10162
  156.4481  130.7893  151.2914 LP  0  0  0  0  0  0  0  0  0  0  0  0  # atno 17370 bound_to 10713
  157.7497  131.0104  150.3305 LP  0  0  0  0  0  0  0  0  0  0  0  0  # atno 17371 bound_to 10713
  140.0031  134.6806  155.9499 LP  0  0  0  0  0  0  0  0  0  0  0  0  # atno 17394 bound_to 11000
  141.1680  133.6537  156.4548 LP  0  0  0  0  0  0  0  0  0  0  0  0  # atno 17395 bound_to 11000

$$$$
