AV-unprocessed.smi:1180|AV-procd|sdf|4965|dock5
  -GOLD-   22720 3553D 1   1.00000     0.00000
 Structure written by MMmdl.
 37 38  0  0  0  0  0  0  0  0  2 V2000
  149.2800  141.1132  154.3330 C   0  0  0  0  0  0  0  0  0  0  0  0
  150.2165  140.3169  155.2165 C   0  0  0  0  0  0  0  0  0  0  0  0
  149.8264  139.9603  156.3807 N   0  0  0  0  0  0  0  0  0  0  0  0
  150.6922  139.2210  157.2045 C   0  0  0  0  0  0  0  0  0  0  0  0
  150.1443  138.8386  158.5684 C   0  0  0  0  0  0  0  0  0  0  0  0
  151.9436  138.8776  156.7848 C   0  0  0  0  0  0  0  0  0  0  0  0
  152.9232  138.0747  157.6406 C   0  0  0  0  0  0  0  0  0  0  0  0
  153.2554  138.6789  159.0056 C   0  0  0  0  0  0  0  0  0  0  0  0
  153.0267  138.0417  160.0336 O   0  0  0  0  0  0  0  0  0  0  0  0
  153.8040  139.9038  158.9994 N   0  0  0  0  0  0  0  0  0  0  0  0
  154.1888  140.6696  160.1799 C   0  0  0  0  0  0  0  0  0  0  0  0
  153.1435  141.7437  160.5349 C   0  0  1  0  0  0  0  0  0  0  0  0
  153.4721  142.5239  161.7912 C   0  0  0  0  0  0  0  0  0  0  0  0
  152.5812  143.7539  161.6428 C   0  0  0  0  0  0  0  0  0  0  0  0
  152.4615  143.9819  160.2414 O   0  0  0  0  0  0  0  0  0  0  0  0
  153.0035  142.8799  159.5194 C   0  0  0  0  0  0  0  0  0  0  0  0
  152.3580  139.3159  155.4397 C   0  0  0  0  0  0  0  0  0  0  0  0
  153.4848  139.0523  155.0212 O   0  0  0  0  0  0  0  0  0  0  0  0
  151.4581  140.0235  154.6990 N   0  5  0  0  0  0  0  0  0  0  0  0
  148.2905  141.1990  154.7844 H   0  0  0  0  0  0  0  0  0  0  0  0
  149.1703  140.6289  153.3621 H   0  0  0  0  0  0  0  0  0  0  0  0
  149.6735  142.1180  154.1766 H   0  0  0  0  0  0  0  0  0  0  0  0
  150.7927  139.2110  159.3615 H   0  0  0  0  0  0  0  0  0  0  0  0
  150.0686  137.7552  158.6597 H   0  0  0  0  0  0  0  0  0  0  0  0
  149.1502  139.2582  158.7263 H   0  0  0  0  0  0  0  0  0  0  0  0
  152.5118  137.0775  157.7979 H   0  0  0  0  0  0  0  0  0  0  0  0
  153.8555  137.9022  157.1021 H   0  0  0  0  0  0  0  0  0  0  0  0
  153.9524  140.3452  158.1025 H   0  0  0  0  0  0  0  0  0  0  0  0
  154.2838  139.9678  161.0087 H   0  0  0  0  0  0  0  0  0  0  0  0
  155.1749  141.1180  160.0476 H   0  0  0  0  0  0  0  0  0  0  0  0
  152.1689  141.2709  160.6691 H   0  0  0  0  0  0  0  0  0  0  0  0
  153.2751  141.9658  162.7072 H   0  0  0  0  0  0  0  0  0  0  0  0
  154.5221  142.8211  161.7912 H   0  0  0  0  0  0  0  0  0  0  0  0
  151.5877  143.5555  162.0465 H   0  0  0  0  0  0  0  0  0  0  0  0
  152.9875  144.6256  162.1564 H   0  0  0  0  0  0  0  0  0  0  0  0
  153.9797  143.1739  159.1312 H   0  0  0  0  0  0  0  0  0  0  0  0
  152.3712  142.6095  158.6734 H   0  0  0  0  0  0  0  0  0  0  0  0
  1  2  1  0  0  0  0
  1 20  1  0  0  0  0
  1 21  1  0  0  0  0
  1 22  1  0  0  0  0
  2 19  1  0  0  0  0
  2  3  2  0  0  0  0
  3  4  1  0  0  0  0
  4  5  1  0  0  0  0
  4  6  2  0  0  0  0
  5 23  1  0  0  0  0
  5 24  1  0  0  0  0
  5 25  1  0  0  0  0
  6  7  1  0  0  0  0
  6 17  1  0  0  0  0
  7  8  1  0  0  0  0
  7 26  1  0  0  0  0
  7 27  1  0  0  0  0
  8  9  2  0  0  0  0
  8 10  1  0  0  0  0
 10 11  1  0  0  0  0
 10 28  1  0  0  0  0
 11 12  1  0  0  0  0
 11 29  1  0  0  0  0
 11 30  1  0  0  0  0
 12 16  1  0  0  0  0
 12 13  1  0  0  0  0
 12 31  1  0  0  0  0
 13 14  1  0  0  0  0
 13 32  1  0  0  0  0
 13 33  1  0  0  0  0
 14 15  1  0  0  0  0
 14 34  1  0  0  0  0
 14 35  1  0  0  0  0
 15 16  1  0  0  0  0
 16 36  1  0  0  0  0
 16 37  1  0  0  0  0
 17 18  2  0  0  0  0
 17 19  1  0  0  0  0
M  CHG  1  19  -1
M  END
> <s_m_source_file>
AV-unprocessed.smi

> <i_m_source_file_index>
1180

> <i_lp_mmshare_version>
43012

> <i_f3d_flags>
0

> <s_epik_input>
W0NIM11jMW5jKFtDSDNdKWMoYyg9TylbbkhdMSlbQ0gyXUMoPU8pW05IXVtDSDJdW0NAQEhdMltDSDJdW0NIMl1PW0NIMl0y

> <s_epik_cmdline>
J2VwaWtfcHl0aG9uJywgJy1waCcsICc3LjAnLCAnLXRuJywgJzgnLCAnLW1hJywgJzIwMCcsICctbWV0YWxfYmluZGluZycsICctaW1hZScsICc8aW5maWxlLm1hZT4nLCAnLW9tYWUnLCAnPG91dGZpbGUubWFlPic=

> <r_lp_tautomer_probability>
0.839158

> <r_epik_Ionization_Penalty>
6.60319

> <r_epik_Ionization_Penalty_Charging>
6.85407e-08

> <r_epik_Ionization_Penalty_Neutral>
6.60319

> <r_epik_State_Penalty>
4.42883

> <r_epik_Charging_Adjusted_Penalty>
4.42883

> <i_epik_Tot_Q>
-1

> <i_epik_Tot_abs_Q>
1

> <r_epik_Metal_State_Penalty>
0.797578

> <b_epik_Metal_Only>
1

> <s_lp_Force_Field>
OPLS_2005

> <r_lp_Energy>
23.195

> <b_lp_Chiralities_Consistent>
1

> <s_lp_Variant>
AV-unprocessed.smi:1180-6

> <Gold.Version>
5.8.1

> <Gold.Id.Protein>
6NUR|6NUR_protein|mol2

> <Gold.PLP.Fitness>
42.4282

> <Gold.PLP.PLP>
-36.7292

> <Gold.PLP.part.hbond>
-1.9413

> <Gold.PLP.part.metal>
0.0000

> <Gold.PLP.part.buried>
-6.3805

> <Gold.PLP.part.nonpolar>
-28.6843

> <Gold.PLP.part.repulsive>
0.6842

> <Gold.PLP.ligand.clash>
0.0000

> <Gold.PLP.ligand.torsion>
0.1574

> <Gold.PLP.Chemscore.Hbond>
2.0000

> <Gold.PLP.Chemscore.CHOScore>
0.0000

> <Gold.PLP.Chemscore.Metal>
0.0000

> <Gold.Chemscore.Hbonds>
donor molecule, donor type, donor heavy atom, donor atom, acceptor molecule, acceptor atom, score
      P1  H  7989  7998       L1    19  0.86
      P1  H  7997  8009       L1    18  1.00

> <Gold.PLP.Chemscore.Internal.Correction>
0.0137

> <Gold.Rescore>
     Score         DG    S(hbond)    S(metal)    S(lipo)     H(rot)  DE(clash)    DE(int)     intcor
     16.26     -16.39       1.87        0.00      78.49       1.76       0.00       0.14       ----

> <Gold.Chemscore.Fitness>
16.2557

> <Gold.Chemscore.DG>
-16.3934

> <Gold.Chemscore.ZeroCoef>
-5.4800

> <Gold.Chemscore.Hbond>
1.8651

> <Gold.Chemscore.Metal>
0.0000

> <Gold.Chemscore.Lipo>
78.4926

> <Gold.Chemscore.Internal_Hbond>
0.0000

> <Gold.Chemscore.DEClash>
0.0000

> <Gold.Chemscore.DEInternal>
0.1378

> <Gold.Chemscore.Rot>
1.7577

> <Gold.Chemscore.Internal.Correction>
   9.000000E+99

> <Gold.Chemscore.Hbonds>
donor molecule, donor type, donor heavy atom, donor atom, acceptor molecule, acceptor atom, score
      P1  H  7989  7998       L1    19  0.55
      P1  H  7997  8009       L1    18  0.34

> <Gold.Chemscore.Hbond.Weighted>
-6.2296

> <Gold.Chemscore.Metal.Weighted>
-0.0000

> <Gold.Chemscore.Lipo.Weighted>
-9.1836

> <Gold.Chemscore.Internal_Hbond.Weighted>
0.0000

> <Gold.Chemscore.DEClash.Weighted>
0.0000

> <Gold.Chemscore.DEInternal.Weighted>
0.1378

> <Gold.Chemscore.Rot.Weighted>
4.4998

> <Gold.Chemscore.Internal.Correction.Weighted>
   9.000000E+99

> <Gold.Protein.RotatedTorsions>
[ 6907 6896 6895 6894 ] final  -54.81 input  -60.11 | X-H torsion
[ 7974 7965 7964 7962 ] final  -95.57 input  175.53 | X-H torsion
[ 8008 7997 7996 7995 ] final -135.36 input   59.86 | X-H torsion
[ 10167 10162 10161 10158 ] final  131.33 input  -65.29 | X-H torsion
[ 10718 10713 10712 10709 ] final  148.91 input   66.30 | X-H torsion
[ 10763 10752 10751 10750 ] final   22.35 input  -60.55 | X-H torsion
[ 11005 11000 10999 10996 ] final -150.03 input  -57.11 | X-H torsion

> <Gold.Protein.ActiveResidues>
 VAL166  LYS551  ARG553  GLY616  TRP617  ASP618  TYR619  PRO620  LYS621  CYS622 
 ASP623  PHE694  ASN695  SER759  ASP760  ASP761  ALA762  ILE779  LEU786  VAL792 
 PHE793  MET794  SER795  GLU796  ALA797  LYS798  CYS799  TRP800  GLU811  SER814 

> <Gold.Protein.RotatedAtoms>
  150.8306  134.7557  159.6849 H   0  0  0  0  0  0  0  0  0  0  0  0  # atno 6907 bound_to 6896
  152.4411  134.5586  159.9897 H   0  0  0  0  0  0  0  0  0  0  0  0  # atno 6908 bound_to 6896
  151.5748  133.3347  159.3032 H   0  0  0  0  0  0  0  0  0  0  0  0  # atno 6909 bound_to 6896
  145.3583  140.9488  143.2515 H   0  0  0  0  0  0  0  0  0  0  0  0  # atno 7974 bound_to 7965
  155.3774  140.0492  157.3044 H   0  0  0  0  0  0  0  0  0  0  0  0  # atno 8008 bound_to 7997
  154.5099  140.2188  155.9138 H   0  0  0  0  0  0  0  0  0  0  0  0  # atno 8009 bound_to 7997
  156.1571  140.3124  155.8749 H   0  0  0  0  0  0  0  0  0  0  0  0  # atno 8010 bound_to 7997
  139.5389  144.6710  151.4692 H   0  0  0  0  0  0  0  0  0  0  0  0  # atno 10167 bound_to 10162
  157.3027  131.0873  151.1377 H   0  0  0  0  0  0  0  0  0  0  0  0  # atno 10718 bound_to 10713
  153.0922  135.6650  153.9831 H   0  0  0  0  0  0  0  0  0  0  0  0  # atno 10763 bound_to 10752
  153.9425  135.2992  155.3443 H   0  0  0  0  0  0  0  0  0  0  0  0  # atno 10764 bound_to 10752
  154.7338  135.5111  153.9081 H   0  0  0  0  0  0  0  0  0  0  0  0  # atno 10765 bound_to 10752
  140.7445  134.3476  157.5140 H   0  0  0  0  0  0  0  0  0  0  0  0  # atno 11005 bound_to 11000
  144.8665  139.5100  143.6787 LP  0  0  0  0  0  0  0  0  0  0  0  0  # atno 17320 bound_to 7965
  146.2938  139.7218  142.9141 LP  0  0  0  0  0  0  0  0  0  0  0  0  # atno 17321 bound_to 7965
  140.6609  143.8500  150.6887 LP  0  0  0  0  0  0  0  0  0  0  0  0  # atno 17342 bound_to 10162
  140.1895  143.4048  152.1874 LP  0  0  0  0  0  0  0  0  0  0  0  0  # atno 17343 bound_to 10162
  157.2730  130.6713  149.6029 LP  0  0  0  0  0  0  0  0  0  0  0  0  # atno 17370 bound_to 10713
  155.9672  130.4473  150.5575 LP  0  0  0  0  0  0  0  0  0  0  0  0  # atno 17371 bound_to 10713
  139.8799  134.9102  156.3009 LP  0  0  0  0  0  0  0  0  0  0  0  0  # atno 17394 bound_to 11000
  140.9806  133.7269  156.0667 LP  0  0  0  0  0  0  0  0  0  0  0  0  # atno 17395 bound_to 11000

$$$$
