AV-unprocessed.smi:2429|AV-procd|sdf|9582|dock9
  -GOLD-   2272013213D 1   1.00000     0.00000
 Structure written by MMmdl.
 34 35  0  0  0  0  0  0  0  0  1 V2000
  148.5021  140.3283  153.9742 C   0  0  0  0  0  0  0  0  0  0  0  0
  147.7304  141.3820  154.7974 C   0  0  0  0  0  0  0  0  0  0  0  0
  148.6660  142.1508  155.6323 N   0  0  0  0  0  0  0  0  0  0  0  0
  149.5435  141.6966  156.5430 C   0  0  0  0  0  0  0  0  0  0  0  0
  149.6969  140.5071  156.8178 O   0  0  0  0  0  0  0  0  0  0  0  0
  150.2336  142.7129  157.0880 N   0  0  0  0  0  0  0  0  0  0  0  0
  151.2400  142.6717  158.0912 C   0  0  0  0  0  0  0  0  0  0  0  0
  151.4566  141.5724  158.9571 C   0  0  0  0  0  0  0  0  0  0  0  0
  152.4786  141.6657  159.9232 C   0  0  0  0  0  0  0  0  0  0  0  0
  153.2617  142.7547  160.0757 N   0  0  0  0  0  0  0  0  0  0  0  0
  153.0423  143.8062  159.2585 C   0  0  0  0  0  0  0  0  0  0  0  0
  152.0475  143.8163  158.2603 C   0  0  0  0  0  0  0  0  0  0  0  0
  151.8768  144.9084  157.4763 F   0  0  0  0  0  0  0  0  0  0  0  0
  146.8991  142.3021  153.8702 C   0  0  0  0  0  0  0  0  0  0  0  0
  145.9489  143.2149  154.6659 C   0  0  0  0  0  0  0  0  0  0  0  0
  145.0862  142.4248  155.4754 O   0  0  0  0  0  0  0  0  0  0  0  0
  145.7870  141.6500  156.4412 C   0  0  0  0  0  0  0  0  0  0  0  0
  146.7396  140.6636  155.7390 C   0  0  0  0  0  0  0  0  0  0  0  0
  147.8200  139.6884  153.4136 H   0  0  0  0  0  0  0  0  0  0  0  0
  149.1004  139.6824  154.6180 H   0  0  0  0  0  0  0  0  0  0  0  0
  149.1749  140.7863  153.2490 H   0  0  0  0  0  0  0  0  0  0  0  0
  148.6413  143.1504  155.4937 H   0  0  0  0  0  0  0  0  0  0  0  0
  150.0553  143.6275  156.6995 H   0  0  0  0  0  0  0  0  0  0  0  0
  150.8605  140.6742  158.9109 H   0  0  0  0  0  0  0  0  0  0  0  0
  152.6676  140.8436  160.5975 H   0  0  0  0  0  0  0  0  0  0  0  0
  153.6774  144.6674  159.4050 H   0  0  0  0  0  0  0  0  0  0  0  0
  147.5392  142.9030  153.2248 H   0  0  0  0  0  0  0  0  0  0  0  0
  146.2995  141.6871  153.1976 H   0  0  0  0  0  0  0  0  0  0  0  0
  146.5041  143.9217  155.2843 H   0  0  0  0  0  0  0  0  0  0  0  0
  145.3407  143.8057  153.9809 H   0  0  0  0  0  0  0  0  0  0  0  0
  146.3288  142.3056  157.1244 H   0  0  0  0  0  0  0  0  0  0  0  0
  145.0616  141.1018  157.0425 H   0  0  0  0  0  0  0  0  0  0  0  0
  146.1399  139.9538  155.1671 H   0  0  0  0  0  0  0  0  0  0  0  0
  147.2775  140.0741  156.4827 H   0  0  0  0  0  0  0  0  0  0  0  0
  1  2  1  0  0  0  0
  1 19  1  0  0  0  0
  1 20  1  0  0  0  0
  1 21  1  0  0  0  0
  2 18  1  0  0  0  0
  2  3  1  0  0  0  0
  2 14  1  0  0  0  0
  3  4  1  0  0  0  0
  3 22  1  0  0  0  0
  4  5  2  0  0  0  0
  4  6  1  0  0  0  0
  6  7  1  0  0  0  0
  6 23  1  0  0  0  0
  7 12  1  0  0  0  0
  7  8  2  0  0  0  0
  8  9  1  0  0  0  0
  8 24  1  0  0  0  0
  9 10  2  0  0  0  0
  9 25  1  0  0  0  0
 10 11  1  0  0  0  0
 11 12  2  0  0  0  0
 11 26  1  0  0  0  0
 12 13  1  0  0  0  0
 14 15  1  0  0  0  0
 14 27  1  0  0  0  0
 14 28  1  0  0  0  0
 15 16  1  0  0  0  0
 15 29  1  0  0  0  0
 15 30  1  0  0  0  0
 16 17  1  0  0  0  0
 17 18  1  0  0  0  0
 17 31  1  0  0  0  0
 17 32  1  0  0  0  0
 18 33  1  0  0  0  0
 18 34  1  0  0  0  0
M  END
> <s_m_source_file>
AV-unprocessed.smi

> <i_m_source_file_index>
2429

> <i_lp_mmshare_version>
43012

> <i_f3d_flags>
0

> <s_epik_input>
W0NIMl0xW0NIMl1PW0NIMl1bQ0gyXUMxKFtDSDNdKVtOSF1DKD1PKVtOSF1jMltjSF1bY0hdbltjSF1jMkY=

> <s_epik_cmdline>
J2VwaWtfcHl0aG9uJywgJy1waCcsICc3LjAnLCAnLXRuJywgJzgnLCAnLW1hJywgJzIwMCcsICctbWV0YWxfYmluZGluZycsICctaW1hZScsICc8aW5maWxlLm1hZT4nLCAnLW9tYWUnLCAnPG91dGZpbGUubWFlPic=

> <r_epik_Ionization_Penalty>
0.00367474

> <r_epik_Ionization_Penalty_Charging>
0

> <r_epik_Ionization_Penalty_Neutral>
0.00367474

> <r_epik_State_Penalty>
0.00258877

> <r_epik_Charging_Adjusted_Penalty>
0.00258877

> <i_epik_Tot_Q>
0

> <i_epik_Tot_abs_Q>
0

> <r_epik_Metal_State_Penalty>
-0

> <b_epik_Metal_Only>
0

> <s_lp_Force_Field>
OPLS_2005

> <r_lp_Energy>
14.8008

> <b_lp_Chiralities_Consistent>
1

> <s_lp_Variant>
AV-unprocessed.smi:2429-1

> <Gold.Version>
5.8.1

> <Gold.Id.Protein>
6NUR|6NUR_protein|mol2

> <Gold.PLP.Fitness>
39.8916

> <Gold.PLP.PLP>
-34.1486

> <Gold.PLP.part.hbond>
-2.0000

> <Gold.PLP.part.metal>
0.0000

> <Gold.PLP.part.buried>
-4.9098

> <Gold.PLP.part.nonpolar>
-26.6715

> <Gold.PLP.part.repulsive>
0.3022

> <Gold.PLP.ligand.clash>
0.0000

> <Gold.PLP.ligand.torsion>
0.0722

> <Gold.PLP.Chemscore.Hbond>
1.9600

> <Gold.PLP.Chemscore.CHOScore>
0.0000

> <Gold.PLP.Chemscore.Metal>
0.0000

> <Gold.Chemscore.Hbonds>
donor molecule, donor type, donor heavy atom, donor atom, acceptor molecule, acceptor atom, score
      L1  H     3    22       P1  8028  1.00
      L1  H     6    23       P1  8028  0.96

> <Gold.PLP.Chemscore.Internal.Correction>
0.0074

> <Gold.Rescore>
     Score         DG    S(hbond)    S(metal)    S(lipo)     H(rot)  DE(clash)    DE(int)     intcor
     16.94     -19.16       1.96        0.00      82.83       1.00       1.02       1.20       ----

> <Gold.Chemscore.Fitness>
16.9365

> <Gold.Chemscore.DG>
-19.1563

> <Gold.Chemscore.ZeroCoef>
-5.4800

> <Gold.Chemscore.Hbond>
1.9595

> <Gold.Chemscore.Metal>
0.0000

> <Gold.Chemscore.Lipo>
82.8347

> <Gold.Chemscore.Internal_Hbond>
0.0000

> <Gold.Chemscore.DEClash>
1.0182

> <Gold.Chemscore.DEInternal>
1.2016

> <Gold.Chemscore.Rot>
1.0000

> <Gold.Chemscore.Internal.Correction>
   9.000000E+99

> <Gold.Chemscore.Hbonds>
donor molecule, donor type, donor heavy atom, donor atom, acceptor molecule, acceptor atom, score
      L1  H     3    22       P1  8028  0.98
      L1  H     6    23       P1  8028  0.92

> <Gold.Chemscore.Hbond.Weighted>
-6.5447

> <Gold.Chemscore.Metal.Weighted>
-0.0000

> <Gold.Chemscore.Lipo.Weighted>
-9.6917

> <Gold.Chemscore.Internal_Hbond.Weighted>
0.0000

> <Gold.Chemscore.DEClash.Weighted>
1.0182

> <Gold.Chemscore.DEInternal.Weighted>
1.2016

> <Gold.Chemscore.Rot.Weighted>
2.5600

> <Gold.Chemscore.Internal.Correction.Weighted>
   9.000000E+99

> <Gold.Protein.RotatedTorsions>
[ 6907 6896 6895 6894 ] final -168.96 input  -60.11 | X-H torsion
[ 7974 7965 7964 7962 ] final  173.89 input  175.53 | X-H torsion
[ 8008 7997 7996 7995 ] final   34.59 input   59.86 | X-H torsion
[ 10167 10162 10161 10158 ] final -111.65 input  -65.29 | X-H torsion
[ 10718 10713 10712 10709 ] final -105.34 input   66.30 | X-H torsion
[ 10763 10752 10751 10750 ] final  -11.02 input  -60.55 | X-H torsion
[ 11005 11000 10999 10996 ] final  157.56 input  -57.11 | X-H torsion

> <Gold.Protein.ActiveResidues>
 VAL166  LYS551  ARG553  GLY616  TRP617  ASP618  TYR619  PRO620  LYS621  CYS622 
 ASP623  PHE694  ASN695  SER759  ASP760  ASP761  ALA762  ILE779  LEU786  VAL792 
 PHE793  MET794  SER795  GLU796  ALA797  LYS798  CYS799  TRP800  GLU811  SER814 

> <Gold.Protein.RotatedAtoms>
  151.4840  133.3540  159.2842 H   0  0  0  0  0  0  0  0  0  0  0  0  # atno 6907 bound_to 6896
  150.8878  134.8280  159.7282 H   0  0  0  0  0  0  0  0  0  0  0  0  # atno 6908 bound_to 6896
  152.4804  134.4746  159.9698 H   0  0  0  0  0  0  0  0  0  0  0  0  # atno 6909 bound_to 6896
  144.7233  139.9715  143.6437 H   0  0  0  0  0  0  0  0  0  0  0  0  # atno 7974 bound_to 7965
  155.1574  140.3280  155.4418 H   0  0  0  0  0  0  0  0  0  0  0  0  # atno 8008 bound_to 7997
  156.2554  140.1966  156.6633 H   0  0  0  0  0  0  0  0  0  0  0  0  # atno 8009 bound_to 7997
  154.6430  140.0568  156.9853 H   0  0  0  0  0  0  0  0  0  0  0  0  # atno 8010 bound_to 7997
  140.1313  143.4358  152.1626 H   0  0  0  0  0  0  0  0  0  0  0  0  # atno 10167 bound_to 10162
  156.0342  130.5559  150.7525 H   0  0  0  0  0  0  0  0  0  0  0  0  # atno 10718 bound_to 10713
  153.4777  135.7017  153.5956 H   0  0  0  0  0  0  0  0  0  0  0  0  # atno 10763 bound_to 10752
  153.4183  135.3831  155.2095 H   0  0  0  0  0  0  0  0  0  0  0  0  # atno 10764 bound_to 10752
  154.8723  135.3921  154.4223 H   0  0  0  0  0  0  0  0  0  0  0  0  # atno 10765 bound_to 10752
  140.1781  134.8495  157.2771 H   0  0  0  0  0  0  0  0  0  0  0  0  # atno 11005 bound_to 11000
  146.0559  139.3556  143.0611 LP  0  0  0  0  0  0  0  0  0  0  0  0  # atno 17320 bound_to 7965
  145.8156  140.9705  143.0926 LP  0  0  0  0  0  0  0  0  0  0  0  0  # atno 17321 bound_to 7965
  139.5518  144.7343  151.4411 LP  0  0  0  0  0  0  0  0  0  0  0  0  # atno 17342 bound_to 10162
  140.6815  143.8070  150.7128 LP  0  0  0  0  0  0  0  0  0  0  0  0  # atno 17343 bound_to 10162
  157.5065  131.0922  151.0250 LP  0  0  0  0  0  0  0  0  0  0  0  0  # atno 17370 bound_to 10713
  157.0617  130.5828  149.5387 LP  0  0  0  0  0  0  0  0  0  0  0  0  # atno 17371 bound_to 10713
  140.2299  134.3922  155.7527 LP  0  0  0  0  0  0  0  0  0  0  0  0  # atno 17394 bound_to 11000
  141.2221  133.7209  156.8623 LP  0  0  0  0  0  0  0  0  0  0  0  0  # atno 17395 bound_to 11000

$$$$
