AV-unprocessed.smi:707|AV-procd|sdf|3453|dock3
  -GOLD-   22720 0443D 1   1.00000     0.00000
 Structure written by MMmdl.
 44 45  0  0  0  0  0  0  0  0  1 V2000
  143.8703  143.9249  162.6882 C   0  0  0  0  0  0  0  0  0  0  0  0
  143.3493  142.9412  161.6913 C   0  0  0  0  0  0  0  0  0  0  0  0
  142.1276  142.3980  161.7497 N   0  0  0  0  0  0  0  0  0  0  0  0
  142.0431  141.5563  160.6579 N   0  0  0  0  0  0  0  0  0  0  0  0
  143.2231  141.6756  160.0502 C   0  0  0  0  0  0  0  0  0  0  0  0
  144.0822  142.5205  160.6404 N   0  0  0  0  0  0  0  0  0  0  0  0
  145.4293  142.8728  160.2321 C   0  0  0  0  0  0  0  0  0  0  0  0
  145.5187  144.3403  159.7926 C   0  0  0  0  0  0  0  0  0  0  0  0
  146.8993  144.7089  159.5134 N   0  0  0  0  0  0  0  0  0  0  0  0
  147.9072  144.5826  160.3884 C   0  0  0  0  0  0  0  0  0  0  0  0
  147.7649  144.1375  161.5270 O   0  0  0  0  0  0  0  0  0  0  0  0
  149.2884  145.0162  159.9064 C   0  0  0  0  0  0  0  0  0  0  0  0
  150.2428  144.0960  160.4141 O   0  0  0  0  0  0  0  0  0  0  0  0
  151.5300  144.6485  160.6664 C   0  0  2  0  0  0  0  0  0  0  0  0
  152.1397  145.0509  159.3117 C   0  0  0  0  0  0  0  0  0  0  0  0
  152.4580  143.8239  158.4405 C   0  0  0  0  0  0  0  0  0  0  0  0
  153.3631  142.8282  159.1823 C   0  0  0  0  0  0  0  0  0  0  0  0
  152.7508  142.4030  160.5304 C   0  0  1  0  0  0  0  0  0  0  0  0
  153.6562  141.4081  161.2702 C   0  0  0  0  0  0  0  0  0  0  0  0
  152.4485  143.6428  161.3953 C   0  0  0  0  0  0  0  0  0  0  0  0
  143.1007  144.1688  163.4211 H   0  0  0  0  0  0  0  0  0  0  0  0
  144.1747  144.8446  162.1883 H   0  0  0  0  0  0  0  0  0  0  0  0
  144.7295  143.5079  163.2141 H   0  0  0  0  0  0  0  0  0  0  0  0
  143.4663  141.1323  159.1487 H   0  0  0  0  0  0  0  0  0  0  0  0
  146.1122  142.6751  161.0591 H   0  0  0  0  0  0  0  0  0  0  0  0
  145.7251  142.2132  159.4150 H   0  0  0  0  0  0  0  0  0  0  0  0
  144.9091  144.5002  158.9016 H   0  0  0  0  0  0  0  0  0  0  0  0
  145.1274  144.9951  160.5724 H   0  0  0  0  0  0  0  0  0  0  0  0
  147.1052  145.0756  158.5953 H   0  0  0  0  0  0  0  0  0  0  0  0
  149.3190  145.0373  158.8156 H   0  0  0  0  0  0  0  0  0  0  0  0
  149.4806  146.0280  160.2628 H   0  0  0  0  0  0  0  0  0  0  0  0
  151.4201  145.5503  161.2710 H   0  0  0  0  0  0  0  0  0  0  0  0
  151.4615  145.7196  158.7805 H   0  0  0  0  0  0  0  0  0  0  0  0
  153.0564  145.6168  159.4824 H   0  0  0  0  0  0  0  0  0  0  0  0
  151.5304  143.3283  158.1518 H   0  0  0  0  0  0  0  0  0  0  0  0
  152.9379  144.1415  157.5145 H   0  0  0  0  0  0  0  0  0  0  0  0
  153.5318  141.9520  158.5553 H   0  0  0  0  0  0  0  0  0  0  0  0
  154.3414  143.2816  159.3483 H   0  0  0  0  0  0  0  0  0  0  0  0
  151.8069  141.8949  160.3268 H   0  0  0  0  0  0  0  0  0  0  0  0
  154.6234  141.8524  161.5073 H   0  0  0  0  0  0  0  0  0  0  0  0
  153.8368  140.5184  160.6663 H   0  0  0  0  0  0  0  0  0  0  0  0
  153.1999  141.0831  162.2055 H   0  0  0  0  0  0  0  0  0  0  0  0
  153.3858  144.1410  161.6468 H   0  0  0  0  0  0  0  0  0  0  0  0
  152.0136  143.3399  162.3471 H   0  0  0  0  0  0  0  0  0  0  0  0
  1  2  1  0  0  0  0
  1 21  1  0  0  0  0
  1 22  1  0  0  0  0
  1 23  1  0  0  0  0
  2  6  1  0  0  0  0
  2  3  2  0  0  0  0
  3  4  1  0  0  0  0
  4  5  2  0  0  0  0
  5  6  1  0  0  0  0
  5 24  1  0  0  0  0
  6  7  1  0  0  0  0
  7  8  1  0  0  0  0
  7 25  1  0  0  0  0
  7 26  1  0  0  0  0
  8  9  1  0  0  0  0
  8 27  1  0  0  0  0
  8 28  1  0  0  0  0
  9 10  1  0  0  0  0
  9 29  1  0  0  0  0
 10 11  2  0  0  0  0
 10 12  1  0  0  0  0
 12 13  1  0  0  0  0
 12 30  1  0  0  0  0
 12 31  1  0  0  0  0
 13 14  1  0  0  0  0
 14 20  1  0  0  0  0
 14 15  1  0  0  0  0
 14 32  1  0  0  0  0
 15 16  1  0  0  0  0
 15 33  1  0  0  0  0
 15 34  1  0  0  0  0
 16 17  1  0  0  0  0
 16 35  1  0  0  0  0
 16 36  1  0  0  0  0
 17 18  1  0  0  0  0
 17 37  1  0  0  0  0
 17 38  1  0  0  0  0
 18 19  1  0  0  0  0
 18 20  1  0  0  0  0
 18 39  1  0  0  0  0
 19 40  1  0  0  0  0
 19 41  1  0  0  0  0
 19 42  1  0  0  0  0
 20 43  1  0  0  0  0
 20 44  1  0  0  0  0
M  END
> <s_m_source_file>
AV-unprocessed.smi

> <i_m_source_file_index>
707

> <i_lp_mmshare_version>
43012

> <i_f3d_flags>
0

> <s_epik_input>
W0NIM11jMW5uW2NIXW4xW0NIMl1bQ0gyXVtOSF1DKD1PKVtDSDJdT1tDQEBIXTJbQ0gyXVtDSDJdW0NIMl1bQ0BASF0oW0NIM10pW0NIMl0y

> <s_epik_cmdline>
J2VwaWtfcHl0aG9uJywgJy1waCcsICc3LjAnLCAnLXRuJywgJzgnLCAnLW1hJywgJzIwMCcsICctbWV0YWxfYmluZGluZycsICctaW1hZScsICc8aW5maWxlLm1hZT4nLCAnLW9tYWUnLCAnPG91dGZpbGUubWFlPic=

> <r_lp_tautomer_probability>
1

> <r_epik_Ionization_Penalty>
0.000271783

> <r_epik_Ionization_Penalty_Charging>
0

> <r_epik_Ionization_Penalty_Neutral>
0.000271783

> <r_epik_State_Penalty>
-0

> <r_epik_Charging_Adjusted_Penalty>
0

> <i_epik_Tot_Q>
0

> <i_epik_Tot_abs_Q>
0

> <r_epik_Metal_State_Penalty>
-0

> <b_epik_Metal_Only>
0

> <s_lp_Force_Field>
OPLS_2005

> <r_lp_Energy>
13.9065

> <b_lp_Chiralities_Consistent>
1

> <s_lp_Variant>
AV-unprocessed.smi:707-1

> <Gold.Version>
5.8.1

> <Gold.Id.Protein>
6NUR|6NUR_protein|mol2

> <Gold.PLP.Fitness>
53.3615

> <Gold.PLP.PLP>
-48.4047

> <Gold.PLP.part.hbond>
-5.5060

> <Gold.PLP.part.metal>
0.0000

> <Gold.PLP.part.buried>
-6.2596

> <Gold.PLP.part.nonpolar>
-36.6547

> <Gold.PLP.part.repulsive>
0.3711

> <Gold.PLP.ligand.clash>
0.0000

> <Gold.PLP.ligand.torsion>
0.5807

> <Gold.PLP.Chemscore.Hbond>
2.0000

> <Gold.PLP.Chemscore.CHOScore>
0.0000

> <Gold.PLP.Chemscore.Metal>
0.0000

> <Gold.Chemscore.Hbonds>
donor molecule, donor type, donor heavy atom, donor atom, acceptor molecule, acceptor atom, score
      L1  H     9    29       P1  8029  1.00
      P1  H  6933  6944       L1    11  1.00

> <Gold.PLP.Chemscore.Internal.Correction>
0.1181

> <Gold.Rescore>
     Score         DG    S(hbond)    S(metal)    S(lipo)     H(rot)  DE(clash)    DE(int)     intcor
     17.73     -18.44       1.95        0.00     108.17       2.42       0.08       0.63       ----

> <Gold.Chemscore.Fitness>
17.7265

> <Gold.Chemscore.DG>
-18.4423

> <Gold.Chemscore.ZeroCoef>
-5.4800

> <Gold.Chemscore.Hbond>
1.9459

> <Gold.Chemscore.Metal>
0.0000

> <Gold.Chemscore.Lipo>
108.1694

> <Gold.Chemscore.Internal_Hbond>
0.0000

> <Gold.Chemscore.DEClash>
0.0826

> <Gold.Chemscore.DEInternal>
0.6333

> <Gold.Chemscore.Rot>
2.4191

> <Gold.Chemscore.Internal.Correction>
   9.000000E+99

> <Gold.Chemscore.Hbonds>
donor molecule, donor type, donor heavy atom, donor atom, acceptor molecule, acceptor atom, score
      L1  H     9    29       P1  8029  1.00
      P1  H  6933  6944       L1    11  0.49

> <Gold.Chemscore.Hbond.Weighted>
-6.4994

> <Gold.Chemscore.Metal.Weighted>
-0.0000

> <Gold.Chemscore.Lipo.Weighted>
-12.6558

> <Gold.Chemscore.Internal_Hbond.Weighted>
0.0000

> <Gold.Chemscore.DEClash.Weighted>
0.0826

> <Gold.Chemscore.DEInternal.Weighted>
0.6333

> <Gold.Chemscore.Rot.Weighted>
6.1929

> <Gold.Chemscore.Internal.Correction.Weighted>
   9.000000E+99

> <Gold.Protein.RotatedTorsions>
[ 6907 6896 6895 6894 ] final  -18.28 input  -60.11 | X-H torsion
[ 7974 7965 7964 7962 ] final  -19.39 input  175.53 | X-H torsion
[ 8008 7997 7996 7995 ] final   65.34 input   59.86 | X-H torsion
[ 10167 10162 10161 10158 ] final  131.07 input  -65.29 | X-H torsion
[ 10718 10713 10712 10709 ] final    0.11 input   66.30 | X-H torsion
[ 10763 10752 10751 10750 ] final   78.41 input  -60.55 | X-H torsion
[ 11005 11000 10999 10996 ] final  172.86 input  -57.11 | X-H torsion

> <Gold.Protein.ActiveResidues>
 VAL166  LYS551  ARG553  GLY616  TRP617  ASP618  TYR619  PRO620  LYS621  CYS622 
 ASP623  PHE694  ASN695  SER759  ASP760  ASP761  ALA762  ILE779  LEU786  VAL792 
 PHE793  MET794  SER795  GLU796  ALA797  LYS798  CYS799  TRP800  GLU811  SER814 

> <Gold.Protein.RotatedAtoms>
  151.2806  135.0712  159.9167 H   0  0  0  0  0  0  0  0  0  0  0  0  # atno 6907 bound_to 6896
  152.5334  134.0034  159.7916 H   0  0  0  0  0  0  0  0  0  0  0  0  # atno 6908 bound_to 6896
  151.0288  133.5759  159.2694 H   0  0  0  0  0  0  0  0  0  0  0  0  # atno 6909 bound_to 6896
  146.1844  140.4055  142.8482 H   0  0  0  0  0  0  0  0  0  0  0  0  # atno 7974 bound_to 7965
  155.6602  140.3497  155.4780 H   0  0  0  0  0  0  0  0  0  0  0  0  # atno 8008 bound_to 7997
  155.9775  140.1168  157.0780 H   0  0  0  0  0  0  0  0  0  0  0  0  # atno 8009 bound_to 7997
  154.4182  140.1145  156.5376 H   0  0  0  0  0  0  0  0  0  0  0  0  # atno 8010 bound_to 7997
  139.5400  144.6721  151.4655 H   0  0  0  0  0  0  0  0  0  0  0  0  # atno 10167 bound_to 10162
  156.8286  130.5480  149.5689 H   0  0  0  0  0  0  0  0  0  0  0  0  # atno 10718 bound_to 10713
  153.0872  135.4878  154.8620 H   0  0  0  0  0  0  0  0  0  0  0  0  # atno 10763 bound_to 10752
  154.7225  135.3042  154.9027 H   0  0  0  0  0  0  0  0  0  0  0  0  # atno 10764 bound_to 10752
  153.9686  135.6804  153.4799 H   0  0  0  0  0  0  0  0  0  0  0  0  # atno 10765 bound_to 10752
  140.3342  134.7331  157.4156 H   0  0  0  0  0  0  0  0  0  0  0  0  # atno 11005 bound_to 11000
  144.8370  140.6798  143.6254 LP  0  0  0  0  0  0  0  0  0  0  0  0  # atno 17320 bound_to 7965
  145.3983  139.1602  143.4191 LP  0  0  0  0  0  0  0  0  0  0  0  0  # atno 17321 bound_to 7965
  140.6626  143.8466  150.6905 LP  0  0  0  0  0  0  0  0  0  0  0  0  # atno 17342 bound_to 10162
  140.1865  143.4071  152.1895 LP  0  0  0  0  0  0  0  0  0  0  0  0  # atno 17343 bound_to 10162
  156.0947  130.5923  150.9793 LP  0  0  0  0  0  0  0  0  0  0  0  0  # atno 17370 bound_to 10713
  157.6419  131.0909  150.8234 LP  0  0  0  0  0  0  0  0  0  0  0  0  # atno 17371 bound_to 10713
  140.0835  134.5699  155.8516 LP  0  0  0  0  0  0  0  0  0  0  0  0  # atno 17394 bound_to 11000
  141.2055  133.6648  156.6187 LP  0  0  0  0  0  0  0  0  0  0  0  0  # atno 17395 bound_to 11000

$$$$
