AV-unprocessed.smi:2355|AV-procd|sdf|9388|dock10
  -GOLD-   2272013 23D 1   1.00000     0.00000
 Structure written by MMmdl.
 48 49  0  0  0  0  0  0  0  0  1 V2000
  147.9172  133.2034  161.0617 C   0  0  0  0  0  0  0  0  0  0  0  0
  147.6860  134.6997  161.0408 C   0  0  0  0  0  0  0  0  0  0  0  0
  146.8289  135.3128  161.9748 C   0  0  0  0  0  0  0  0  0  0  0  0
  146.6567  136.7089  161.9020 C   0  0  0  0  0  0  0  0  0  0  0  0
  145.7530  137.4345  162.8765 C   0  0  0  0  0  0  0  0  0  0  0  0
  147.2734  137.4806  160.9815 N   0  0  0  0  0  0  0  0  0  0  0  0
  148.1003  136.9009  160.0761 C   0  0  0  0  0  0  0  0  0  0  0  0
  148.7916  137.6209  159.0659 N   0  0  0  0  0  0  0  0  0  0  0  0
  150.0484  137.4355  158.6254 C   0  0  0  0  0  0  0  0  0  0  0  0
  150.8215  136.5642  159.0252 O   0  0  0  0  0  0  0  0  0  0  0  0
  150.3656  138.3333  157.6812 N   0  0  0  0  0  0  0  0  0  0  0  0
  151.6609  138.4500  157.0110 C   0  0  1  0  0  0  0  0  0  0  0  0
  151.5526  137.9086  155.5741 C   0  0  0  0  0  0  0  0  0  0  0  0
  152.2066  139.9091  157.1174 C   0  0  1  0  0  0  0  0  0  0  0  0
  151.3211  140.8652  156.2765 C   0  0  0  0  0  0  0  0  0  0  0  0
  152.3854  140.3799  158.5146 N   0  0  0  0  0  0  0  0  0  0  0  0
  153.5373  139.7667  159.1879 C   0  0  0  0  0  0  0  0  0  0  0  0
  153.7300  140.2767  160.6263 C   0  0  0  0  0  0  0  0  0  0  0  0
  153.8671  141.6906  160.6189 O   0  0  0  0  0  0  0  0  0  0  0  0
  152.7352  142.3314  160.0478 C   0  0  0  0  0  0  0  0  0  0  0  0
  152.5316  141.8374  158.6051 C   0  0  0  0  0  0  0  0  0  0  0  0
  148.3289  135.5066  160.0805 C   0  0  0  0  0  0  0  0  0  0  0  0
  147.3288  132.7210  161.8428 H   0  0  0  0  0  0  0  0  0  0  0  0
  148.9699  132.9871  161.2442 H   0  0  0  0  0  0  0  0  0  0  0  0
  147.6367  132.7646  160.1039 H   0  0  0  0  0  0  0  0  0  0  0  0
  146.3175  134.7292  162.7265 H   0  0  0  0  0  0  0  0  0  0  0  0
  145.2090  136.7326  163.5093 H   0  0  0  0  0  0  0  0  0  0  0  0
  145.0244  138.0431  162.3399 H   0  0  0  0  0  0  0  0  0  0  0  0
  146.3408  138.0892  163.5202 H   0  0  0  0  0  0  0  0  0  0  0  0
  148.2735  138.3742  158.6387 H   0  0  0  0  0  0  0  0  0  0  0  0
  149.6649  139.0115  157.4209 H   0  0  0  0  0  0  0  0  0  0  0  0
  152.3829  137.7832  157.4799 H   0  0  0  0  0  0  0  0  0  0  0  0
  152.4787  138.0695  155.0216 H   0  0  0  0  0  0  0  0  0  0  0  0
  150.7389  138.3693  155.0147 H   0  0  0  0  0  0  0  0  0  0  0  0
  151.3611  136.8349  155.5834 H   0  0  0  0  0  0  0  0  0  0  0  0
  153.1904  139.9033  156.6456 H   0  0  0  0  0  0  0  0  0  0  0  0
  151.1646  140.5017  155.2628 H   0  0  0  0  0  0  0  0  0  0  0  0
  151.7781  141.8454  156.1499 H   0  0  0  0  0  0  0  0  0  0  0  0
  150.3408  141.0092  156.7317 H   0  0  0  0  0  0  0  0  0  0  0  0
  153.4154  138.6878  159.2570 H   0  0  0  0  0  0  0  0  0  0  0  0
  154.4451  139.9501  158.6115 H   0  0  0  0  0  0  0  0  0  0  0  0
  152.8860  139.9873  161.2546 H   0  0  0  0  0  0  0  0  0  0  0  0
  154.6232  139.8347  161.0679 H   0  0  0  0  0  0  0  0  0  0  0  0
  151.8495  142.1327  160.6535 H   0  0  0  0  0  0  0  0  0  0  0  0
  152.8950  143.4097  160.0594 H   0  0  0  0  0  0  0  0  0  0  0  0
  153.3712  142.1635  157.9892 H   0  0  0  0  0  0  0  0  0  0  0  0
  151.6443  142.3377  158.2219 H   0  0  0  0  0  0  0  0  0  0  0  0
  148.9904  135.0567  159.3540 H   0  0  0  0  0  0  0  0  0  0  0  0
  1  2  1  0  0  0  0
  1 23  1  0  0  0  0
  1 24  1  0  0  0  0
  1 25  1  0  0  0  0
  2 22  1  0  0  0  0
  2  3  2  0  0  0  0
  3  4  1  0  0  0  0
  3 26  1  0  0  0  0
  4  5  1  0  0  0  0
  4  6  2  0  0  0  0
  5 27  1  0  0  0  0
  5 28  1  0  0  0  0
  5 29  1  0  0  0  0
  6  7  1  0  0  0  0
  7  8  1  0  0  0  0
  7 22  2  0  0  0  0
  8  9  1  0  0  0  0
  8 30  1  0  0  0  0
  9 10  2  0  0  0  0
  9 11  1  0  0  0  0
 11 12  1  0  0  0  0
 11 31  1  0  0  0  0
 12 13  1  0  0  0  0
 12 14  1  0  0  0  0
 12 32  1  0  0  0  0
 13 33  1  0  0  0  0
 13 34  1  0  0  0  0
 13 35  1  0  0  0  0
 14 15  1  0  0  0  0
 14 16  1  0  0  0  0
 14 36  1  0  0  0  0
 15 37  1  0  0  0  0
 15 38  1  0  0  0  0
 15 39  1  0  0  0  0
 16 21  1  0  0  0  0
 16 17  1  0  0  0  0
 17 18  1  0  0  0  0
 17 40  1  0  0  0  0
 17 41  1  0  0  0  0
 18 19  1  0  0  0  0
 18 42  1  0  0  0  0
 18 43  1  0  0  0  0
 19 20  1  0  0  0  0
 20 21  1  0  0  0  0
 20 44  1  0  0  0  0
 20 45  1  0  0  0  0
 21 46  1  0  0  0  0
 21 47  1  0  0  0  0
 22 48  1  0  0  0  0
M  END
> <s_m_source_file>
AV-unprocessed.smi

> <i_m_source_file_index>
2355

> <i_lp_mmshare_version>
43012

> <i_f3d_flags>
0

> <s_epik_input>
W0NIM11jMVtjSF1jKFtDSDNdKW5jKFtjSF0xKVtOSF1DKD1PKVtOSF1bQ0BIXShbQ0gzXSlbQ0BIXShbQ0gzXSlOMltDSDJdW0NIMl1PW0NIMl1bQ0gyXTI=

> <s_epik_cmdline>
J2VwaWtfcHl0aG9uJywgJy1waCcsICc3LjAnLCAnLXRuJywgJzgnLCAnLW1hJywgJzIwMCcsICctbWV0YWxfYmluZGluZycsICctaW1hZScsICc8aW5maWxlLm1hZT4nLCAnLW9tYWUnLCAnPG91dGZpbGUubWFlPic=

> <r_epik_Ionization_Penalty>
0.266238

> <r_epik_Ionization_Penalty_Charging>
0

> <r_epik_Ionization_Penalty_Neutral>
0.266238

> <r_epik_State_Penalty>
0.257924

> <r_epik_Charging_Adjusted_Penalty>
0.257924

> <i_epik_Tot_Q>
0

> <i_epik_Tot_abs_Q>
0

> <r_epik_Metal_State_Penalty>
0.257904

> <b_epik_Metal_Only>
0

> <s_lp_Force_Field>
OPLS_2005

> <r_lp_Energy>
36.8304

> <b_lp_Chiralities_Consistent>
1

> <s_lp_Variant>
AV-unprocessed.smi:2355-4

> <Gold.Version>
5.8.1

> <Gold.Id.Protein>
6NUR|6NUR_protein|mol2

> <Gold.PLP.Fitness>
39.8101

> <Gold.PLP.PLP>
-34.6307

> <Gold.PLP.part.hbond>
-2.9070

> <Gold.PLP.part.metal>
0.0000

> <Gold.PLP.part.buried>
-4.0700

> <Gold.PLP.part.nonpolar>
-26.4714

> <Gold.PLP.part.repulsive>
0.2577

> <Gold.PLP.ligand.clash>
0.0000

> <Gold.PLP.ligand.torsion>
0.7325

> <Gold.PLP.Chemscore.Hbond>
2.1839

> <Gold.PLP.Chemscore.CHOScore>
0.0000

> <Gold.PLP.Chemscore.Metal>
0.0000

> <Gold.Chemscore.Hbonds>
donor molecule, donor type, donor heavy atom, donor atom, acceptor molecule, acceptor atom, score
      P1  H  6896  6909       L1    10  1.00
      P1  H  6931  6943       L1     6  0.18
      P1  H  6934  6947       L1     6  1.00

> <Gold.PLP.Chemscore.Internal.Correction>
0.0926

> <Gold.Rescore>
     Score         DG    S(hbond)    S(metal)    S(lipo)     H(rot)  DE(clash)    DE(int)     intcor
     17.89     -19.82       1.88        0.00      99.42       1.40       0.03       1.90       ----

> <Gold.Chemscore.Fitness>
17.8900

> <Gold.Chemscore.DG>
-19.8177

> <Gold.Chemscore.ZeroCoef>
-5.4800

> <Gold.Chemscore.Hbond>
1.8841

> <Gold.Chemscore.Metal>
0.0000

> <Gold.Chemscore.Lipo>
99.4244

> <Gold.Chemscore.Internal_Hbond>
0.0000

> <Gold.Chemscore.DEClash>
0.0290

> <Gold.Chemscore.DEInternal>
1.8987

> <Gold.Chemscore.Rot>
1.4015

> <Gold.Chemscore.Internal.Correction>
   9.000000E+99

> <Gold.Chemscore.Hbonds>
donor molecule, donor type, donor heavy atom, donor atom, acceptor molecule, acceptor atom, score
      P1  H  6896  6909       L1    10  0.96
      P1  H  6934  6947       L1     6  0.86

> <Gold.Chemscore.Hbond.Weighted>
-6.2928

> <Gold.Chemscore.Metal.Weighted>
-0.0000

> <Gold.Chemscore.Lipo.Weighted>
-11.6327

> <Gold.Chemscore.Internal_Hbond.Weighted>
0.0000

> <Gold.Chemscore.DEClash.Weighted>
0.0290

> <Gold.Chemscore.DEInternal.Weighted>
1.8987

> <Gold.Chemscore.Rot.Weighted>
3.5878

> <Gold.Chemscore.Internal.Correction.Weighted>
   9.000000E+99

> <Gold.Protein.RotatedTorsions>
[ 6907 6896 6895 6894 ] final   84.12 input  -60.11 | X-H torsion
[ 7974 7965 7964 7962 ] final  133.50 input  175.53 | X-H torsion
[ 8008 7997 7996 7995 ] final -158.08 input   59.86 | X-H torsion
[ 10167 10162 10161 10158 ] final -165.69 input  -65.29 | X-H torsion
[ 10718 10713 10712 10709 ] final  -94.73 input   66.30 | X-H torsion
[ 10763 10752 10751 10750 ] final  -32.10 input  -60.55 | X-H torsion
[ 11005 11000 10999 10996 ] final   96.10 input  -57.11 | X-H torsion

> <Gold.Protein.ActiveResidues>
 VAL166  LYS551  ARG553  GLY616  TRP617  ASP618  TYR619  PRO620  LYS621  CYS622 
 ASP623  PHE694  ASN695  SER759  ASP760  ASP761  ALA762  ILE779  LEU786  VAL792 
 PHE793  MET794  SER795  GLU796  ALA797  LYS798  CYS799  TRP800  GLU811  SER814 

> <Gold.Protein.RotatedAtoms>
  152.5344  134.2789  159.8999 H   0  0  0  0  0  0  0  0  0  0  0  0  # atno 6907 bound_to 6896
  151.2744  133.4233  159.2631 H   0  0  0  0  0  0  0  0  0  0  0  0  # atno 6908 bound_to 6896
  151.0339  134.9574  159.8182 H   0  0  0  0  0  0  0  0  0  0  0  0  # atno 6909 bound_to 6896
  144.9858  139.4457  143.5363 H   0  0  0  0  0  0  0  0  0  0  0  0  # atno 7974 bound_to 7965
  155.7421  140.0815  157.2241 H   0  0  0  0  0  0  0  0  0  0  0  0  # atno 8008 bound_to 7997
  154.4021  140.1576  156.2683 H   0  0  0  0  0  0  0  0  0  0  0  0  # atno 8009 bound_to 7997
  155.9010  140.3409  155.6029 H   0  0  0  0  0  0  0  0  0  0  0  0  # atno 8010 bound_to 7997
  139.6165  144.0709  152.1892 H   0  0  0  0  0  0  0  0  0  0  0  0  # atno 10167 bound_to 10162
  156.0031  130.5080  150.5970 H   0  0  0  0  0  0  0  0  0  0  0  0  # atno 10718 bound_to 10713
  153.8081  135.6884  153.4845 H   0  0  0  0  0  0  0  0  0  0  0  0  # atno 10763 bound_to 10752
  153.1645  135.4566  154.9817 H   0  0  0  0  0  0  0  0  0  0  0  0  # atno 10764 bound_to 10752
  154.7979  135.3326  154.7564 H   0  0  0  0  0  0  0  0  0  0  0  0  # atno 10765 bound_to 10752
  139.8784  134.8933  156.4109 H   0  0  0  0  0  0  0  0  0  0  0  0  # atno 11005 bound_to 11000
  146.3419  139.9160  142.8773 LP  0  0  0  0  0  0  0  0  0  0  0  0  # atno 17320 bound_to 7965
  145.2355  140.9989  143.3966 LP  0  0  0  0  0  0  0  0  0  0  0  0  # atno 17321 bound_to 7965
  140.0341  144.6058  150.7464 LP  0  0  0  0  0  0  0  0  0  0  0  0  # atno 17342 bound_to 10162
  140.7354  143.2740  151.3798 LP  0  0  0  0  0  0  0  0  0  0  0  0  # atno 17343 bound_to 10162
  157.3826  131.0783  151.1464 LP  0  0  0  0  0  0  0  0  0  0  0  0  # atno 17370 bound_to 10713
  157.2182  130.6469  149.5800 LP  0  0  0  0  0  0  0  0  0  0  0  0  # atno 17371 bound_to 10713
  140.9201  133.7651  155.9896 LP  0  0  0  0  0  0  0  0  0  0  0  0  # atno 17394 bound_to 11000
  140.8449  134.3023  157.5299 LP  0  0  0  0  0  0  0  0  0  0  0  0  # atno 17395 bound_to 11000

$$$$
