AV-unprocessed.smi:2553|AV-procd|sdf|10018|dock7
  -GOLD-   2272014 63D 1   1.00000     0.00000
 Structure written by MMmdl.
 28 29  0  0  0  0  0  0  0  0  2 V2000
  149.1754  135.1016  158.4279 O   0  0  0  0  0  0  0  0  0  0  0  0
  149.8125  135.9680  157.8305 C   0  0  0  0  0  0  0  0  0  0  0  0
  151.1021  135.7836  157.4216 N   0  5  0  0  0  0  0  0  0  0  0  0
  151.8265  136.7341  156.7543 C   0  0  0  0  0  0  0  0  0  0  0  0
  152.9939  136.5500  156.4087 O   0  0  0  0  0  0  0  0  0  0  0  0
  151.2331  137.9298  156.4654 N   0  0  0  0  0  0  0  0  0  0  0  0
  151.9392  139.0131  155.7675 C   0  0  0  0  0  0  0  0  0  0  0  0
  151.8989  140.3203  156.5738 C   0  0  0  0  0  0  0  0  0  0  0  0
  152.7109  140.1629  157.7294 O   0  0  0  0  0  0  0  0  0  0  0  0
  152.6254  141.1043  158.7318 C   0  0  0  0  0  0  0  0  0  0  0  0
  151.7774  142.2396  158.6797 C   0  0  0  0  0  0  0  0  0  0  0  0
  151.7441  143.1550  159.7494 C   0  0  0  0  0  0  0  0  0  0  0  0
  152.5544  142.9492  160.8808 C   0  0  0  0  0  0  0  0  0  0  0  0
  152.5210  143.8300  161.9087 F   0  0  0  0  0  0  0  0  0  0  0  0
  153.3988  141.8257  160.9423 C   0  0  0  0  0  0  0  0  0  0  0  0
  153.4340  140.9086  159.8736 C   0  0  0  0  0  0  0  0  0  0  0  0
  154.4818  139.5383  159.9698 Cl  0  0  0  0  0  0  0  0  0  0  0  0
  149.9101  138.1741  156.8711 C   0  0  0  0  0  0  0  0  0  0  0  0
  149.1845  137.2547  157.5362 C   0  0  0  0  0  0  0  0  0  0  0  0
  147.5640  137.5890  158.0330 Cl  0  0  0  0  0  0  0  0  0  0  0  0
  152.9756  138.7299  155.5773 H   0  0  0  0  0  0  0  0  0  0  0  0
  151.5047  139.1756  154.7801 H   0  0  0  0  0  0  0  0  0  0  0  0
  152.2500  141.1521  155.9608 H   0  0  0  0  0  0  0  0  0  0  0  0
  150.8706  140.5305  156.8708 H   0  0  0  0  0  0  0  0  0  0  0  0
  151.1395  142.4290  157.8299 H   0  0  0  0  0  0  0  0  0  0  0  0
  151.0943  144.0163  159.7013 H   0  0  0  0  0  0  0  0  0  0  0  0
  154.0209  141.6676  161.8109 H   0  0  0  0  0  0  0  0  0  0  0  0
  149.5290  139.1533  156.6196 H   0  0  0  0  0  0  0  0  0  0  0  0
  1  2  2  0  0  0  0
  2 19  1  0  0  0  0
  2  3  1  0  0  0  0
  3  4  1  0  0  0  0
  4  5  2  0  0  0  0
  4  6  1  0  0  0  0
  6  7  1  0  0  0  0
  6 18  1  0  0  0  0
  7  8  1  0  0  0  0
  7 21  1  0  0  0  0
  7 22  1  0  0  0  0
  8  9  1  0  0  0  0
  8 23  1  0  0  0  0
  8 24  1  0  0  0  0
  9 10  1  0  0  0  0
 10 16  1  0  0  0  0
 10 11  2  0  0  0  0
 11 12  1  0  0  0  0
 11 25  1  0  0  0  0
 12 13  2  0  0  0  0
 12 26  1  0  0  0  0
 13 14  1  0  0  0  0
 13 15  1  0  0  0  0
 15 16  2  0  0  0  0
 15 27  1  0  0  0  0
 16 17  1  0  0  0  0
 18 19  2  0  0  0  0
 18 28  1  0  0  0  0
 19 20  1  0  0  0  0
M  CHG  1   3  -1
M  END
> <s_m_source_file>
AV-unprocessed.smi

> <i_m_source_file_index>
2553

> <i_lp_mmshare_version>
43012

> <i_f3d_flags>
0

> <s_epik_input>
Tz1jMVtuSF1jKD1PKW4oW2NIXWMxQ2wpW0NIMl1bQ0gyXU9jMltjSF1bY0hdYyhGKVtjSF1jMkNs

> <s_epik_cmdline>
J2VwaWtfcHl0aG9uJywgJy1waCcsICc3LjAnLCAnLXRuJywgJzgnLCAnLW1hJywgJzIwMCcsICctbWV0YWxfYmluZGluZycsICctaW1hZScsICc8aW5maWxlLm1hZT4nLCAnLW9tYWUnLCAnPG91dGZpbGUubWFlPic=

> <r_lp_tautomer_probability>
1

> <r_epik_Ionization_Penalty>
1.51646

> <r_epik_Ionization_Penalty_Charging>
6.90068e-09

> <r_epik_Ionization_Penalty_Neutral>
1.51646

> <r_epik_State_Penalty>
1.60792

> <r_epik_Charging_Adjusted_Penalty>
1.60792

> <i_epik_Tot_Q>
-1

> <i_epik_Tot_abs_Q>
1

> <r_epik_Metal_State_Penalty>
0.00828827

> <b_epik_Metal_Only>
0

> <s_lp_Force_Field>
OPLS_2005

> <r_lp_Energy>
21.8883

> <b_lp_Chiralities_Consistent>
1

> <s_lp_Variant>
AV-unprocessed.smi:2553-2

> <Gold.Version>
5.8.1

> <Gold.Id.Protein>
6NUR|6NUR_protein|mol2

> <Gold.PLP.Fitness>
42.2905

> <Gold.PLP.PLP>
-33.6364

> <Gold.PLP.part.hbond>
-4.0000

> <Gold.PLP.part.metal>
0.0000

> <Gold.PLP.part.buried>
-3.9110

> <Gold.PLP.part.nonpolar>
-25.7363

> <Gold.PLP.part.repulsive>
0.0000

> <Gold.PLP.ligand.clash>
0.0000

> <Gold.PLP.ligand.torsion>
0.0942

> <Gold.PLP.Chemscore.Hbond>
2.9440

> <Gold.PLP.Chemscore.CHOScore>
0.0000

> <Gold.PLP.Chemscore.Metal>
0.0000

> <Gold.Chemscore.Hbonds>
donor molecule, donor type, donor heavy atom, donor atom, acceptor molecule, acceptor atom, score
      P1  H  6896  6909       L1     1  1.00
      P1  H  7997  8010       L1     9  0.93
      P1  H 10752 10765       L1     5  0.99

> <Gold.PLP.Chemscore.Internal.Correction>
0.0105

> <Gold.Rescore>
     Score         DG    S(hbond)    S(metal)    S(lipo)     H(rot)  DE(clash)    DE(int)     intcor
     17.32     -17.47       2.03        0.00      85.59       1.88       0.03       0.11       ----

> <Gold.Chemscore.Fitness>
17.3218

> <Gold.Chemscore.DG>
-17.4675

> <Gold.Chemscore.ZeroCoef>
-5.4800

> <Gold.Chemscore.Hbond>
2.0329

> <Gold.Chemscore.Metal>
0.0000

> <Gold.Chemscore.Lipo>
85.5890

> <Gold.Chemscore.Internal_Hbond>
0.0000

> <Gold.Chemscore.DEClash>
0.0337

> <Gold.Chemscore.DEInternal>
0.1120

> <Gold.Chemscore.Rot>
1.8814

> <Gold.Chemscore.Internal.Correction>
   9.000000E+99

> <Gold.Chemscore.Hbonds>
donor molecule, donor type, donor heavy atom, donor atom, acceptor molecule, acceptor atom, score
      P1  H  6896  6909       L1     1  0.27
      P1  H  7997  8010       L1     9  0.27
      P1  H 10752 10765       L1     5  0.94

> <Gold.Chemscore.Hbond.Weighted>
-6.7899

> <Gold.Chemscore.Metal.Weighted>
-0.0000

> <Gold.Chemscore.Lipo.Weighted>
-10.0139

> <Gold.Chemscore.Internal_Hbond.Weighted>
0.0000

> <Gold.Chemscore.DEClash.Weighted>
0.0337

> <Gold.Chemscore.DEInternal.Weighted>
0.1120

> <Gold.Chemscore.Rot.Weighted>
4.8163

> <Gold.Chemscore.Internal.Correction.Weighted>
   9.000000E+99

> <Gold.Protein.RotatedTorsions>
[ 6907 6896 6895 6894 ] final   20.45 input  -60.11 | X-H torsion
[ 7974 7965 7964 7962 ] final  -81.87 input  175.53 | X-H torsion
[ 8008 7997 7996 7995 ] final   37.23 input   59.86 | X-H torsion
[ 10167 10162 10161 10158 ] final  -11.88 input  -65.29 | X-H torsion
[ 10718 10713 10712 10709 ] final   -7.75 input   66.30 | X-H torsion
[ 10763 10752 10751 10750 ] final -130.37 input  -60.55 | X-H torsion
[ 11005 11000 10999 10996 ] final   71.32 input  -57.11 | X-H torsion

> <Gold.Protein.ActiveResidues>
 VAL166  LYS551  ARG553  GLY616  TRP617  ASP618  TYR619  PRO620  LYS621  CYS622 
 ASP623  PHE694  ASN695  SER759  ASP760  ASP761  ALA762  ILE779  LEU786  VAL792 
 PHE793  MET794  SER795  GLU796  ALA797  LYS798  CYS799  TRP800  GLU811  SER814 

> <Gold.Protein.RotatedAtoms>
  151.8966  135.0395  160.0502 H   0  0  0  0  0  0  0  0  0  0  0  0  # atno 6907 bound_to 6896
  152.2392  133.5117  159.5269 H   0  0  0  0  0  0  0  0  0  0  0  0  # atno 6908 bound_to 6896
  150.7048  134.1028  159.4014 H   0  0  0  0  0  0  0  0  0  0  0  0  # atno 6909 bound_to 6896
  145.5408  140.9510  143.1552 H   0  0  0  0  0  0  0  0  0  0  0  0  # atno 7974 bound_to 7965
  155.2004  140.3315  155.4344 H   0  0  0  0  0  0  0  0  0  0  0  0  # atno 8008 bound_to 7997
  156.2409  140.1894  156.7041 H   0  0  0  0  0  0  0  0  0  0  0  0  # atno 8009 bound_to 7997
  154.6145  140.0604  156.9523 H   0  0  0  0  0  0  0  0  0  0  0  0  # atno 8010 bound_to 7997
  140.7149  143.5591  150.9215 H   0  0  0  0  0  0  0  0  0  0  0  0  # atno 10167 bound_to 10162
  156.7126  130.5126  149.5888 H   0  0  0  0  0  0  0  0  0  0  0  0  # atno 10718 bound_to 10713
  154.8755  135.3865  154.4072 H   0  0  0  0  0  0  0  0  0  0  0  0  # atno 10763 bound_to 10752
  153.4790  135.7030  153.5954 H   0  0  0  0  0  0  0  0  0  0  0  0  # atno 10764 bound_to 10752
  153.4378  135.3863  155.2177 H   0  0  0  0  0  0  0  0  0  0  0  0  # atno 10765 bound_to 10752
  139.9550  134.7161  156.0775 H   0  0  0  0  0  0  0  0  0  0  0  0  # atno 11005 bound_to 11000
  144.7578  139.7032  143.7247 LP  0  0  0  0  0  0  0  0  0  0  0  0  # atno 17320 bound_to 7965
  146.1982  139.5261  142.9760 LP  0  0  0  0  0  0  0  0  0  0  0  0  # atno 17321 bound_to 7965
  139.9317  143.6486  152.3075 LP  0  0  0  0  0  0  0  0  0  0  0  0  # atno 17342 bound_to 10162
  139.6939  144.7643  151.1391 LP  0  0  0  0  0  0  0  0  0  0  0  0  # atno 17343 bound_to 10162
  156.1650  130.6399  151.0767 LP  0  0  0  0  0  0  0  0  0  0  0  0  # atno 17370 bound_to 10713
  157.6930  131.0803  150.7052 LP  0  0  0  0  0  0  0  0  0  0  0  0  # atno 17371 bound_to 10713
  141.1219  133.6610  156.3237 LP  0  0  0  0  0  0  0  0  0  0  0  0  # atno 17394 bound_to 11000
  140.5631  134.5914  157.5439 LP  0  0  0  0  0  0  0  0  0  0  0  0  # atno 17395 bound_to 11000

$$$$
