AV-unprocessed.smi:2923|AV-procd|sdf|11207|dock8
  -GOLD-   2272016103D 1   1.00000     0.00000
 Structure written by MMmdl.
 47 49  0  0  0  0  0  0  0  0  2 V2000
  145.8059  128.7110  151.8195 C   0  0  0  0  0  0  0  0  0  0  0  0
  146.9966  128.8783  152.6455 N   0  0  0  0  0  0  0  0  0  0  0  0
  147.6069  127.7266  153.2965 C   0  0  0  0  0  0  0  0  0  0  0  0
  147.4974  130.1738  152.8985 C   0  0  0  0  0  0  0  0  0  0  0  0
  148.5378  130.4365  153.8224 C   0  0  0  0  0  0  0  0  0  0  0  0
  148.9818  131.7597  154.0208 C   0  0  0  0  0  0  0  0  0  0  0  0
  148.3904  132.8179  153.2994 C   0  0  0  0  0  0  0  0  0  0  0  0
  148.8781  134.1309  153.5484 N   0  0  0  0  0  0  0  0  0  0  0  0
  149.5590  134.6017  154.6079 C   0  0  0  0  0  0  0  0  0  0  0  0
  149.8805  133.9506  155.6011 O   0  0  0  0  0  0  0  0  0  0  0  0
  149.8489  135.9006  154.4554 N   0  0  0  0  0  0  0  0  0  0  0  0
  150.5812  136.7012  155.4313 C   0  0  1  0  0  0  0  0  0  0  0  0
  150.7370  138.1652  154.9920 C   0  0  2  0  0  0  0  0  0  0  0  0
  152.1052  138.7178  154.6978 C   0  0  0  0  0  0  0  0  0  0  0  0
  152.4964  139.3833  156.0201 C   0  0  0  0  0  0  0  0  0  0  0  0
  151.6851  138.7399  157.0003 O   0  0  0  0  0  0  0  0  0  0  0  0
  150.3957  138.5416  156.4259 C   0  0  2  0  0  0  0  0  0  0  0  0
  149.7420  137.1616  156.6506 C   0  0  0  0  0  0  0  0  0  0  0  0
  148.2137  137.1588  156.5028 C   0  0  0  0  0  0  0  0  0  0  0  0
  150.0573  136.4790  157.9824 C   0  0  0  0  0  0  0  0  0  0  0  0
  147.3548  132.5039  152.3864 C   0  0  0  0  0  0  0  0  0  0  0  0
  146.9607  131.2219  152.2276 N   0  3  0  0  0  0  0  0  0  0  0  0
  145.9688  129.1222  150.8228 H   0  0  0  0  0  0  0  0  0  0  0  0
  144.9531  129.2198  152.2701 H   0  0  0  0  0  0  0  0  0  0  0  0
  145.5458  127.6585  151.7065 H   0  0  0  0  0  0  0  0  0  0  0  0
  147.5575  127.8283  154.3811 H   0  0  0  0  0  0  0  0  0  0  0  0
  148.6521  127.6291  153.0019 H   0  0  0  0  0  0  0  0  0  0  0  0
  147.0982  126.8016  153.0252 H   0  0  0  0  0  0  0  0  0  0  0  0
  149.0060  129.6431  154.3855 H   0  0  0  0  0  0  0  0  0  0  0  0
  149.7751  131.9566  154.7272 H   0  0  0  0  0  0  0  0  0  0  0  0
  148.6847  134.8040  152.8215 H   0  0  0  0  0  0  0  0  0  0  0  0
  149.5479  136.3675  153.6126 H   0  0  0  0  0  0  0  0  0  0  0  0
  151.5383  136.2662  155.7286 H   0  0  0  0  0  0  0  0  0  0  0  0
  149.9568  138.4836  154.2982 H   0  0  0  0  0  0  0  0  0  0  0  0
  152.8021  137.9182  154.4450 H   0  0  0  0  0  0  0  0  0  0  0  0
  152.1015  139.4323  153.8742 H   0  0  0  0  0  0  0  0  0  0  0  0
  153.5578  139.2799  156.2462 H   0  0  0  0  0  0  0  0  0  0  0  0
  152.2528  140.4466  156.0009 H   0  0  0  0  0  0  0  0  0  0  0  0
  149.7387  139.4082  156.5151 H   0  0  0  0  0  0  0  0  0  0  0  0
  147.7354  137.7024  157.3181 H   0  0  0  0  0  0  0  0  0  0  0  0
  147.8094  136.1460  156.5054 H   0  0  0  0  0  0  0  0  0  0  0  0
  147.8958  137.6334  155.5741 H   0  0  0  0  0  0  0  0  0  0  0  0
  149.6358  137.0298  158.8238 H   0  0  0  0  0  0  0  0  0  0  0  0
  151.1317  136.4040  158.1518 H   0  0  0  0  0  0  0  0  0  0  0  0
  149.6579  135.4648  158.0167 H   0  0  0  0  0  0  0  0  0  0  0  0
  146.8179  133.2123  151.7753 H   0  0  0  0  0  0  0  0  0  0  0  0
  146.2114  131.0329  151.5619 H   0  0  0  0  0  0  0  0  0  0  0  0
  1  2  1  0  0  0  0
  1 23  1  0  0  0  0
  1 24  1  0  0  0  0
  1 25  1  0  0  0  0
  2  3  1  0  0  0  0
  2  4  1  0  0  0  0
  3 26  1  0  0  0  0
  3 27  1  0  0  0  0
  3 28  1  0  0  0  0
  4 22  1  0  0  0  0
  4  5  2  0  0  0  0
  5  6  1  0  0  0  0
  5 29  1  0  0  0  0
  6  7  2  0  0  0  0
  6 30  1  0  0  0  0
  7  8  1  0  0  0  0
  7 21  1  0  0  0  0
  8  9  1  0  0  0  0
  8 31  1  0  0  0  0
  9 10  2  0  0  0  0
  9 11  1  0  0  0  0
 11 12  1  0  0  0  0
 11 32  1  0  0  0  0
 12 18  1  0  0  0  0
 12 13  1  0  0  0  0
 12 33  1  0  0  0  0
 13 17  1  0  0  0  0
 13 14  1  0  0  0  0
 13 34  1  0  0  0  0
 14 15  1  0  0  0  0
 14 35  1  0  0  0  0
 14 36  1  0  0  0  0
 15 16  1  0  0  0  0
 15 37  1  0  0  0  0
 15 38  1  0  0  0  0
 16 17  1  0  0  0  0
 17 18  1  0  0  0  0
 17 39  1  0  0  0  0
 18 19  1  0  0  0  0
 18 20  1  0  0  0  0
 19 40  1  0  0  0  0
 19 41  1  0  0  0  0
 19 42  1  0  0  0  0
 20 43  1  0  0  0  0
 20 44  1  0  0  0  0
 20 45  1  0  0  0  0
 21 22  2  0  0  0  0
 21 46  1  0  0  0  0
 22 47  1  0  0  0  0
M  CHG  1  22   1
M  END
> <s_m_source_file>
AV-unprocessed.smi

> <i_m_source_file_index>
2923

> <i_lp_mmshare_version>
43012

> <i_f3d_flags>
0

> <s_epik_input>
W0NIM11OKFtDSDNdKWMxW2NIXVtjSF1jKFtjSF1uMSlbTkhdQyg9TylbTkhdW0NASF0yQyhbQ0gzXSkoW0NIM10pW0NAQEhdKFtDQEhdMjMpT1tDSDJdW0NIMl0z

> <s_epik_cmdline>
J2VwaWtfcHl0aG9uJywgJy1waCcsICc3LjAnLCAnLXRuJywgJzgnLCAnLW1hJywgJzIwMCcsICctbWV0YWxfYmluZGluZycsICctaW1hZScsICc8aW5maWxlLm1hZT4nLCAnLW9tYWUnLCAnPG91dGZpbGUubWFlPic=

> <r_lp_tautomer_probability>
0.999994

> <r_epik_Ionization_Penalty>
0.252205

> <r_epik_Ionization_Penalty_Charging>
0.252185

> <r_epik_Ionization_Penalty_Neutral>
1.99479e-05

> <r_epik_State_Penalty>
0.243573

> <r_epik_Charging_Adjusted_Penalty>
0.495758

> <i_epik_Tot_Q>
1

> <i_epik_Tot_abs_Q>
1

> <r_epik_Metal_State_Penalty>
0.534372

> <b_epik_Metal_Only>
0

> <s_lp_Force_Field>
OPLS_2005

> <r_lp_Energy>
44.3361

> <b_lp_Chiralities_Consistent>
1

> <s_lp_Variant>
AV-unprocessed.smi:2923-6

> <Gold.Version>
5.8.1

> <Gold.Id.Protein>
6NUR|6NUR_protein|mol2

> <Gold.PLP.Fitness>
37.6370

> <Gold.PLP.PLP>
-31.9957

> <Gold.PLP.part.hbond>
-3.1123

> <Gold.PLP.part.metal>
0.0000

> <Gold.PLP.part.buried>
-1.4586

> <Gold.PLP.part.nonpolar>
-27.6638

> <Gold.PLP.part.repulsive>
0.0766

> <Gold.PLP.ligand.clash>
0.0000

> <Gold.PLP.ligand.torsion>
0.2343

> <Gold.PLP.Chemscore.Hbond>
1.9760

> <Gold.PLP.Chemscore.CHOScore>
0.0000

> <Gold.PLP.Chemscore.Metal>
0.0000

> <Gold.Chemscore.Hbonds>
donor molecule, donor type, donor heavy atom, donor atom, acceptor molecule, acceptor atom, score
      L1  H     8    31       P1  7948  0.90
      L1  H    11    32       P1  7948  0.96

> <Gold.PLP.Chemscore.Internal.Correction>
0.1820

> <Gold.Rescore>
     Score         DG    S(hbond)    S(metal)    S(lipo)     H(rot)  DE(clash)    DE(int)     intcor
     14.63     -16.23       1.51        0.00      70.76       1.00       0.07       1.53       ----

> <Gold.Chemscore.Fitness>
14.6269

> <Gold.Chemscore.DG>
-16.2344

> <Gold.Chemscore.ZeroCoef>
-5.4800

> <Gold.Chemscore.Hbond>
1.5075

> <Gold.Chemscore.Metal>
0.0000

> <Gold.Chemscore.Lipo>
70.7647

> <Gold.Chemscore.Internal_Hbond>
0.0000

> <Gold.Chemscore.DEClash>
0.0727

> <Gold.Chemscore.DEInternal>
1.5348

> <Gold.Chemscore.Rot>
1.0000

> <Gold.Chemscore.Internal.Correction>
   9.000000E+99

> <Gold.Chemscore.Hbonds>
donor molecule, donor type, donor heavy atom, donor atom, acceptor molecule, acceptor atom, score
      L1  H     8    31       P1  7948  0.18
      L1  H    11    32       P1  7948  0.56

> <Gold.Chemscore.Hbond.Weighted>
-5.0350

> <Gold.Chemscore.Metal.Weighted>
-0.0000

> <Gold.Chemscore.Lipo.Weighted>
-8.2795

> <Gold.Chemscore.Internal_Hbond.Weighted>
0.0000

> <Gold.Chemscore.DEClash.Weighted>
0.0727

> <Gold.Chemscore.DEInternal.Weighted>
1.5348

> <Gold.Chemscore.Rot.Weighted>
2.5600

> <Gold.Chemscore.Internal.Correction.Weighted>
   9.000000E+99

> <Gold.Protein.RotatedTorsions>
[ 6907 6896 6895 6894 ] final -157.48 input  -60.11 | X-H torsion
[ 7974 7965 7964 7962 ] final  -99.59 input  175.53 | X-H torsion
[ 8008 7997 7996 7995 ] final  151.59 input   59.86 | X-H torsion
[ 10167 10162 10161 10158 ] final  -28.62 input  -65.29 | X-H torsion
[ 10718 10713 10712 10709 ] final  126.86 input   66.30 | X-H torsion
[ 10763 10752 10751 10750 ] final  161.12 input  -60.55 | X-H torsion
[ 11005 11000 10999 10996 ] final  -95.79 input  -57.11 | X-H torsion

> <Gold.Protein.ActiveResidues>
 VAL166  LYS551  ARG553  GLY616  TRP617  ASP618  TYR619  PRO620  LYS621  CYS622 
 ASP623  PHE694  ASN695  SER759  ASP760  ASP761  ALA762  ILE779  LEU786  VAL792 
 PHE793  MET794  SER795  GLU796  ALA797  LYS798  CYS799  TRP800  GLU811  SER814 

> <Gold.Protein.RotatedAtoms>
  151.3035  133.4111  159.2641 H   0  0  0  0  0  0  0  0  0  0  0  0  # atno 6907 bound_to 6896
  151.0175  134.9444  159.8051 H   0  0  0  0  0  0  0  0  0  0  0  0  # atno 6908 bound_to 6896
  152.5316  134.2999  159.9127 H   0  0  0  0  0  0  0  0  0  0  0  0  # atno 6909 bound_to 6896
  145.3056  140.9388  143.2798 H   0  0  0  0  0  0  0  0  0  0  0  0  # atno 7974 bound_to 7965
  156.2667  140.2043  156.6200 H   0  0  0  0  0  0  0  0  0  0  0  0  # atno 8008 bound_to 7997
  154.6764  140.0544  157.0244 H   0  0  0  0  0  0  0  0  0  0  0  0  # atno 8009 bound_to 7997
  155.1063  140.3211  155.4536 H   0  0  0  0  0  0  0  0  0  0  0  0  # atno 8010 bound_to 7997
  140.7268  143.3995  151.1289 H   0  0  0  0  0  0  0  0  0  0  0  0  # atno 10167 bound_to 10162
  157.5382  131.1097  150.8900 H   0  0  0  0  0  0  0  0  0  0  0  0  # atno 10718 bound_to 10713
  154.2580  135.2769  155.2789 H   0  0  0  0  0  0  0  0  0  0  0  0  # atno 10763 bound_to 10752
  154.5408  135.5703  153.6841 H   0  0  0  0  0  0  0  0  0  0  0  0  # atno 10764 bound_to 10752
  152.9967  135.6250  154.2729 H   0  0  0  0  0  0  0  0  0  0  0  0  # atno 10765 bound_to 10752
  141.1431  133.8051  157.0484 H   0  0  0  0  0  0  0  0  0  0  0  0  # atno 11005 bound_to 11000
  144.9057  139.4592  143.6611 LP  0  0  0  0  0  0  0  0  0  0  0  0  # atno 17320 bound_to 7965
  146.3136  139.7837  142.9000 LP  0  0  0  0  0  0  0  0  0  0  0  0  # atno 17321 bound_to 7965
  139.7613  143.8631  152.3101 LP  0  0  0  0  0  0  0  0  0  0  0  0  # atno 17342 bound_to 10162
  139.8518  144.7160  150.9204 LP  0  0  0  0  0  0  0  0  0  0  0  0  # atno 17343 bound_to 10162
  156.9461  130.5402  149.5281 LP  0  0  0  0  0  0  0  0  0  0  0  0  # atno 17370 bound_to 10713
  156.0476  130.5550  150.8916 LP  0  0  0  0  0  0  0  0  0  0  0  0  # atno 17371 bound_to 10713
  140.0648  134.9735  157.1367 LP  0  0  0  0  0  0  0  0  0  0  0  0  # atno 17394 bound_to 11000
  140.3796  134.2301  155.7172 LP  0  0  0  0  0  0  0  0  0  0  0  0  # atno 17395 bound_to 11000

$$$$
