AV-unprocessed.smi:3100|AV-procd|sdf|11807|dock7
  -GOLD-   2272017183D 1   1.00000     0.00000
 Structure written by MMmdl.
 28 29  0  0  0  0  0  0  0  0  1 V2000
  152.9716  142.8183  161.0881 C   0  0  0  0  0  0  0  0  0  0  0  0
  151.9039  142.8471  159.9899 C   0  0  1  0  0  0  0  0  0  0  0  0
  151.0614  144.1164  159.9678 C   0  0  0  0  0  0  0  0  0  0  0  0
  150.5193  144.1309  158.5492 C   0  0  0  0  0  0  0  0  0  0  0  0
  151.5444  143.3057  157.7435 C   0  0  2  0  0  0  0  0  0  0  0  0
  150.9273  142.0997  157.0113 C   0  0  0  0  0  0  0  0  0  0  0  0
  151.3234  140.9642  157.2758 O   0  0  0  0  0  0  0  0  0  0  0  0
  149.9504  142.3726  156.1253 N   0  0  0  0  0  0  0  0  0  0  0  0
  149.2239  141.4666  155.3095 C   0  0  0  0  0  0  0  0  0  0  0  0
  147.8925  141.8414  155.0111 C   0  0  0  0  0  0  0  0  0  0  0  0
  147.0758  141.0845  154.2451 N   0  0  0  0  0  0  0  0  0  0  0  0
  147.5928  139.9327  153.7670 C   0  0  0  0  0  0  0  0  0  0  0  0
  148.9163  139.5431  154.0540 C   0  0  0  0  0  0  0  0  0  0  0  0
  149.7274  140.3048  154.8201 N   0  0  0  0  0  0  0  0  0  0  0  0
  152.5064  142.8632  158.7047 O   0  0  0  0  0  0  0  0  0  0  0  0
  152.5153  142.8433  162.0779 H   0  0  0  0  0  0  0  0  0  0  0  0
  153.6457  143.6716  161.0081 H   0  0  0  0  0  0  0  0  0  0  0  0
  153.5732  141.9116  161.0214 H   0  0  0  0  0  0  0  0  0  0  0  0
  151.2584  141.9706  160.0693 H   0  0  0  0  0  0  0  0  0  0  0  0
  150.2763  144.1194  160.7246 H   0  0  0  0  0  0  0  0  0  0  0  0
  151.6919  144.9919  160.1290 H   0  0  0  0  0  0  0  0  0  0  0  0
  149.5252  143.6811  158.5346 H   0  0  0  0  0  0  0  0  0  0  0  0
  150.4223  145.1482  158.1684 H   0  0  0  0  0  0  0  0  0  0  0  0
  152.0535  143.9312  157.0095 H   0  0  0  0  0  0  0  0  0  0  0  0
  149.7117  143.3478  156.0162 H   0  0  0  0  0  0  0  0  0  0  0  0
  147.4741  142.7621  155.3908 H   0  0  0  0  0  0  0  0  0  0  0  0
  146.9489  139.3198  153.1540 H   0  0  0  0  0  0  0  0  0  0  0  0
  149.3248  138.6207  153.6688 H   0  0  0  0  0  0  0  0  0  0  0  0
  1  2  1  0  0  0  0
  1 16  1  0  0  0  0
  1 17  1  0  0  0  0
  1 18  1  0  0  0  0
  2 15  1  0  0  0  0
  2  3  1  0  0  0  0
  2 19  1  0  0  0  0
  3  4  1  0  0  0  0
  3 20  1  0  0  0  0
  3 21  1  0  0  0  0
  4  5  1  0  0  0  0
  4 22  1  0  0  0  0
  4 23  1  0  0  0  0
  5  6  1  0  0  0  0
  5 15  1  0  0  0  0
  5 24  1  0  0  0  0
  6  7  2  0  0  0  0
  6  8  1  0  0  0  0
  8  9  1  0  0  0  0
  8 25  1  0  0  0  0
  9 14  1  0  0  0  0
  9 10  2  0  0  0  0
 10 11  1  0  0  0  0
 10 26  1  0  0  0  0
 11 12  2  0  0  0  0
 12 13  1  0  0  0  0
 12 27  1  0  0  0  0
 13 14  2  0  0  0  0
 13 28  1  0  0  0  0
M  END
> <s_m_source_file>
AV-unprocessed.smi

> <i_m_source_file_index>
3100

> <i_lp_mmshare_version>
43012

> <i_f3d_flags>
0

> <s_epik_input>
W0NIM11bQ0BASF0xW0NIMl1bQ0gyXVtDQEhdKE8xKUMoPU8pW05IXWMyW2NIXW5bY0hdW2NIXW4y

> <s_epik_cmdline>
J2VwaWtfcHl0aG9uJywgJy1waCcsICc3LjAnLCAnLXRuJywgJzgnLCAnLW1hJywgJzIwMCcsICctbWV0YWxfYmluZGluZycsICctaW1hZScsICc8aW5maWxlLm1hZT4nLCAnLW9tYWUnLCAnPG91dGZpbGUubWFlPic=

> <r_lp_tautomer_probability>
1

> <r_epik_Ionization_Penalty>
2.81186e-06

> <r_epik_Ionization_Penalty_Charging>
0

> <r_epik_Ionization_Penalty_Neutral>
2.81186e-06

> <r_epik_State_Penalty>
-0

> <r_epik_Charging_Adjusted_Penalty>
0

> <i_epik_Tot_Q>
0

> <i_epik_Tot_abs_Q>
0

> <r_epik_Metal_State_Penalty>
-0

> <b_epik_Metal_Only>
0

> <s_lp_Force_Field>
OPLS_2005

> <r_lp_Energy>
25.84

> <b_lp_Chiralities_Consistent>
1

> <s_lp_Variant>
AV-unprocessed.smi:3100-4

> <Gold.Version>
5.8.1

> <Gold.Id.Protein>
6NUR|6NUR_protein|mol2

> <Gold.PLP.Fitness>
36.4332

> <Gold.PLP.PLP>
-28.2327

> <Gold.PLP.part.hbond>
-2.0000

> <Gold.PLP.part.metal>
0.0000

> <Gold.PLP.part.buried>
-1.6099

> <Gold.PLP.part.nonpolar>
-23.5675

> <Gold.PLP.part.repulsive>
0.3151

> <Gold.PLP.ligand.clash>
0.0000

> <Gold.PLP.ligand.torsion>
0.2097

> <Gold.PLP.Chemscore.Hbond>
1.8921

> <Gold.PLP.Chemscore.CHOScore>
0.9789

> <Gold.PLP.Chemscore.Metal>
0.0000

> <Gold.Chemscore.Hbonds>
donor molecule, donor type, donor heavy atom, donor atom, acceptor molecule, acceptor atom, score
      L1  H     8    25       P1  8028  1.00
      P1  H  7989  7998       L1    14  0.12
      L1  C    10    26       P1  8028  0.82
      L1  C    13    28       P1  7957  0.01

> <Gold.PLP.Chemscore.Internal.Correction>
0.0069

> <Gold.Rescore>
     Score         DG    S(hbond)    S(metal)    S(lipo)     H(rot)  DE(clash)    DE(int)     intcor
     13.99     -15.62       1.26        0.00      72.54       1.00       0.37       1.26       ----

> <Gold.Chemscore.Fitness>
13.9928

> <Gold.Chemscore.DG>
-15.6183

> <Gold.Chemscore.ZeroCoef>
-5.4800

> <Gold.Chemscore.Hbond>
1.2607

> <Gold.Chemscore.Metal>
0.0000

> <Gold.Chemscore.Lipo>
72.5428

> <Gold.Chemscore.Internal_Hbond>
0.0000

> <Gold.Chemscore.DEClash>
0.3667

> <Gold.Chemscore.DEInternal>
1.2588

> <Gold.Chemscore.Rot>
1.0000

> <Gold.Chemscore.Internal.Correction>
   9.000000E+99

> <Gold.Chemscore.Hbonds>
donor molecule, donor type, donor heavy atom, donor atom, acceptor molecule, acceptor atom, score
      L1  H     8    25       P1  8028  0.99
      P1  H  7989  7998       L1    14  0.05

> <Gold.Chemscore.Hbond.Weighted>
-4.2108

> <Gold.Chemscore.Metal.Weighted>
-0.0000

> <Gold.Chemscore.Lipo.Weighted>
-8.4875

> <Gold.Chemscore.Internal_Hbond.Weighted>
0.0000

> <Gold.Chemscore.DEClash.Weighted>
0.3667

> <Gold.Chemscore.DEInternal.Weighted>
1.2588

> <Gold.Chemscore.Rot.Weighted>
2.5600

> <Gold.Chemscore.Internal.Correction.Weighted>
   9.000000E+99

> <Gold.Protein.RotatedTorsions>
[ 6907 6896 6895 6894 ] final   71.28 input  -60.11 | X-H torsion
[ 7974 7965 7964 7962 ] final  -79.84 input  175.53 | X-H torsion
[ 8008 7997 7996 7995 ] final   58.80 input   59.86 | X-H torsion
[ 10167 10162 10161 10158 ] final   -3.38 input  -65.29 | X-H torsion
[ 10718 10713 10712 10709 ] final -171.09 input   66.30 | X-H torsion
[ 10763 10752 10751 10750 ] final   66.97 input  -60.55 | X-H torsion
[ 11005 11000 10999 10996 ] final -106.68 input  -57.11 | X-H torsion

> <Gold.Protein.ActiveResidues>
 VAL166  LYS551  ARG553  GLY616  TRP617  ASP618  TYR619  PRO620  LYS621  CYS622 
 ASP623  PHE694  ASN695  SER759  ASP760  ASP761  ALA762  ILE779  LEU786  VAL792 
 PHE793  MET794  SER795  GLU796  ALA797  LYS798  CYS799  TRP800  GLU811  SER814 

> <Gold.Protein.RotatedAtoms>
  152.4801  134.4743  159.9645 H   0  0  0  0  0  0  0  0  0  0  0  0  # atno 6907 bound_to 6896
  151.4751  133.3554  159.2837 H   0  0  0  0  0  0  0  0  0  0  0  0  # atno 6908 bound_to 6896
  150.8866  134.8291  159.7325 H   0  0  0  0  0  0  0  0  0  0  0  0  # atno 6909 bound_to 6896
  145.5678  140.9471  143.1412 H   0  0  0  0  0  0  0  0  0  0  0  0  # atno 7974 bound_to 7965
  155.5559  140.3487  155.4479 H   0  0  0  0  0  0  0  0  0  0  0  0  # atno 8008 bound_to 7997
  156.0550  140.1326  157.0033 H   0  0  0  0  0  0  0  0  0  0  0  0  # atno 8009 bound_to 7997
  154.4452  140.0997  156.6417 H   0  0  0  0  0  0  0  0  0  0  0  0  # atno 8010 bound_to 7997
  140.6888  143.6547  150.8319 H   0  0  0  0  0  0  0  0  0  0  0  0  # atno 10167 bound_to 10162
  156.7358  130.9323  151.3107 H   0  0  0  0  0  0  0  0  0  0  0  0  # atno 10718 bound_to 10713
  153.0164  135.5301  154.6907 H   0  0  0  0  0  0  0  0  0  0  0  0  # atno 10763 bound_to 10752
  154.6043  135.2871  155.0504 H   0  0  0  0  0  0  0  0  0  0  0  0  # atno 10764 bound_to 10752
  154.1550  135.6557  153.5025 H   0  0  0  0  0  0  0  0  0  0  0  0  # atno 10765 bound_to 10752
  141.0992  133.8915  157.1885 H   0  0  0  0  0  0  0  0  0  0  0  0  # atno 11005 bound_to 11000
  144.7452  139.7340  143.7295 LP  0  0  0  0  0  0  0  0  0  0  0  0  # atno 17320 bound_to 7965
  146.1805  139.4996  142.9869 LP  0  0  0  0  0  0  0  0  0  0  0  0  # atno 17321 bound_to 7965
  140.0257  143.5496  152.2781 LP  0  0  0  0  0  0  0  0  0  0  0  0  # atno 17342 bound_to 10162
  139.6270  144.7638  151.2617 LP  0  0  0  0  0  0  0  0  0  0  0  0  # atno 17343 bound_to 10162
  157.6839  130.9167  150.0337 LP  0  0  0  0  0  0  0  0  0  0  0  0  # atno 17370 bound_to 10713
  156.1498  130.3642  149.9456 LP  0  0  0  0  0  0  0  0  0  0  0  0  # atno 17371 bound_to 10713
  139.9838  135.0089  156.9814 LP  0  0  0  0  0  0  0  0  0  0  0  0  # atno 17394 bound_to 11000
  140.5064  134.1046  155.7261 LP  0  0  0  0  0  0  0  0  0  0  0  0  # atno 17395 bound_to 11000

$$$$
