AV-unprocessed.smi:2521|AV-procd|sdf|9918|dock2
  -GOLD-   2272013553D 1   1.00000     0.00000
 Structure written by MMmdl.
 35 36  0  0  0  0  0  0  0  0  2 V2000
  151.8706  144.9430  159.1923 C   0  0  0  0  0  0  0  0  0  0  0  0
  151.4983  143.7284  160.0551 C   0  0  0  0  0  0  0  0  0  0  0  0
  151.9792  143.8508  161.5083 C   0  0  0  0  0  0  0  0  0  0  0  0
  151.9244  142.4384  159.4269 C   0  0  0  0  0  0  0  0  0  0  0  0
  152.6527  141.5189  160.0676 N   0  0  0  0  0  0  0  0  0  0  0  0
  152.9178  140.4128  159.2740 N   0  0  0  0  0  0  0  0  0  0  0  0
  152.3968  140.5120  158.0432 C   0  0  0  0  0  0  0  0  0  0  0  0
  152.5370  139.5456  157.1210 N   0  5  0  0  0  0  0  0  0  0  0  0
  151.8839  139.6381  155.9402 C   0  0  0  0  0  0  0  0  0  0  0  0
  152.3955  139.8264  154.8341 O   0  0  0  0  0  0  0  0  0  0  0  0
  150.5551  139.5079  156.0464 N   0  0  0  0  0  0  0  0  0  0  0  0
  149.6134  139.5699  154.9358 C   0  0  0  0  0  0  0  0  0  0  0  0
  148.8741  140.9175  154.9153 C   0  0  1  0  0  0  0  0  0  0  0  0
  147.8630  141.0486  153.7954 C   0  0  0  0  0  0  0  0  0  0  0  0
  147.0028  142.2082  154.2868 C   0  0  0  0  0  0  0  0  0  0  0  0
  146.9998  142.1122  155.7081 O   0  0  0  0  0  0  0  0  0  0  0  0
  147.9956  141.1877  156.1387 C   0  0  0  0  0  0  0  0  0  0  0  0
  151.5013  142.0073  157.7776 S   0  0  0  0  0  0  0  0  0  0  0  0
  151.4396  144.8609  158.1940 H   0  0  0  0  0  0  0  0  0  0  0  0
  152.9516  145.0348  159.0818 H   0  0  0  0  0  0  0  0  0  0  0  0
  151.5022  145.8681  159.6360 H   0  0  0  0  0  0  0  0  0  0  0  0
  150.4086  143.7047  160.0950 H   0  0  0  0  0  0  0  0  0  0  0  0
  151.6246  143.0134  162.1102 H   0  0  0  0  0  0  0  0  0  0  0  0
  151.6104  144.7678  161.9685 H   0  0  0  0  0  0  0  0  0  0  0  0
  153.0680  143.8645  161.5662 H   0  0  0  0  0  0  0  0  0  0  0  0
  150.1727  139.3530  156.9676 H   0  0  0  0  0  0  0  0  0  0  0  0
  150.1525  139.4325  153.9972 H   0  0  0  0  0  0  0  0  0  0  0  0
  148.9028  138.7464  155.0213 H   0  0  0  0  0  0  0  0  0  0  0  0
  149.6000  141.7270  154.8197 H   0  0  0  0  0  0  0  0  0  0  0  0
  148.3207  141.2409  152.8246 H   0  0  0  0  0  0  0  0  0  0  0  0
  147.2600  140.1427  153.7169 H   0  0  0  0  0  0  0  0  0  0  0  0
  147.4523  143.1611  154.0044 H   0  0  0  0  0  0  0  0  0  0  0  0
  145.9910  142.1779  153.8821 H   0  0  0  0  0  0  0  0  0  0  0  0
  147.4969  140.2743  156.4653 H   0  0  0  0  0  0  0  0  0  0  0  0
  148.5640  141.5807  156.9819 H   0  0  0  0  0  0  0  0  0  0  0  0
  1  2  1  0  0  0  0
  1 19  1  0  0  0  0
  1 20  1  0  0  0  0
  1 21  1  0  0  0  0
  2  3  1  0  0  0  0
  2  4  1  0  0  0  0
  2 22  1  0  0  0  0
  3 23  1  0  0  0  0
  3 24  1  0  0  0  0
  3 25  1  0  0  0  0
  4 18  1  0  0  0  0
  4  5  2  0  0  0  0
  5  6  1  0  0  0  0
  6  7  2  0  0  0  0
  7  8  1  0  0  0  0
  7 18  1  0  0  0  0
  8  9  1  0  0  0  0
  9 10  2  0  0  0  0
  9 11  1  0  0  0  0
 11 12  1  0  0  0  0
 11 26  1  0  0  0  0
 12 13  1  0  0  0  0
 12 27  1  0  0  0  0
 12 28  1  0  0  0  0
 13 17  1  0  0  0  0
 13 14  1  0  0  0  0
 13 29  1  0  0  0  0
 14 15  1  0  0  0  0
 14 30  1  0  0  0  0
 14 31  1  0  0  0  0
 15 16  1  0  0  0  0
 15 32  1  0  0  0  0
 15 33  1  0  0  0  0
 16 17  1  0  0  0  0
 17 34  1  0  0  0  0
 17 35  1  0  0  0  0
M  CHG  1   8  -1
M  END
> <s_m_source_file>
AV-unprocessed.smi

> <i_m_source_file_index>
2521

> <i_lp_mmshare_version>
43012

> <i_f3d_flags>
0

> <s_epik_input>
W0NIM11bQ0hdKFtDSDNdKWMxbm5jKHMxKVtOSF1DKD1PKVtOSF1bQ0gyXVtDQEBIXTJbQ0gyXVtDSDJdT1tDSDJdMg==

> <s_epik_cmdline>
J2VwaWtfcHl0aG9uJywgJy1waCcsICc3LjAnLCAnLXRuJywgJzgnLCAnLW1hJywgJzIwMCcsICctbWV0YWxfYmluZGluZycsICctaW1hZScsICc8aW5maWxlLm1hZT4nLCAnLW9tYWUnLCAnPG91dGZpbGUubWFlPic=

> <r_lp_tautomer_probability>
1

> <r_epik_Ionization_Penalty>
4.4451

> <r_epik_Ionization_Penalty_Charging>
4.28522

> <r_epik_Ionization_Penalty_Neutral>
0.159875

> <r_epik_State_Penalty>
4.28479

> <r_epik_Charging_Adjusted_Penalty>
8.57002

> <i_epik_Tot_Q>
-1

> <i_epik_Tot_abs_Q>
1

> <r_epik_Metal_State_Penalty>
0.721771

> <b_epik_Metal_Only>
1

> <s_lp_Force_Field>
OPLS_2005

> <r_lp_Energy>
10.1938

> <b_lp_Chiralities_Consistent>
1

> <s_lp_Variant>
AV-unprocessed.smi:2521-4

> <Gold.Version>
5.8.1

> <Gold.Id.Protein>
6NUR|6NUR_protein|mol2

> <Gold.PLP.Fitness>
42.0524

> <Gold.PLP.PLP>
-36.7090

> <Gold.PLP.part.hbond>
-2.1716

> <Gold.PLP.part.metal>
0.0000

> <Gold.PLP.part.buried>
-5.2428

> <Gold.PLP.part.nonpolar>
-29.5191

> <Gold.PLP.part.repulsive>
0.7371

> <Gold.PLP.ligand.clash>
0.0000

> <Gold.PLP.ligand.torsion>
0.8236

> <Gold.PLP.Chemscore.Hbond>
2.2920

> <Gold.PLP.Chemscore.CHOScore>
0.0000

> <Gold.PLP.Chemscore.Metal>
0.0000

> <Gold.Chemscore.Hbonds>
donor molecule, donor type, donor heavy atom, donor atom, acceptor molecule, acceptor atom, score
      P1  H  7989  7998       L1    10  0.66
      P1  H  7997  8008       L1     8  1.52

> <Gold.PLP.Chemscore.Internal.Correction>
0.1145

> <Gold.Rescore>
     Score         DG    S(hbond)    S(metal)    S(lipo)     H(rot)  DE(clash)    DE(int)     intcor
     13.71     -14.58       0.84        0.00      84.85       1.42       0.05       0.82       ----

> <Gold.Chemscore.Fitness>
13.7116

> <Gold.Chemscore.DG>
-14.5835

> <Gold.Chemscore.ZeroCoef>
-5.4800

> <Gold.Chemscore.Hbond>
0.8411

> <Gold.Chemscore.Metal>
0.0000

> <Gold.Chemscore.Lipo>
84.8522

> <Gold.Chemscore.Internal_Hbond>
0.0000

> <Gold.Chemscore.DEClash>
0.0502

> <Gold.Chemscore.DEInternal>
0.8217

> <Gold.Chemscore.Rot>
1.4193

> <Gold.Chemscore.Internal.Correction>
   9.000000E+99

> <Gold.Chemscore.Hbonds>
donor molecule, donor type, donor heavy atom, donor atom, acceptor molecule, acceptor atom, score
      P1  H  7989  7998       L1    10  0.66
      P1  H  7997  8008       L1     8  0.02

> <Gold.Chemscore.Hbond.Weighted>
-2.8092

> <Gold.Chemscore.Metal.Weighted>
-0.0000

> <Gold.Chemscore.Lipo.Weighted>
-9.9277

> <Gold.Chemscore.Internal_Hbond.Weighted>
0.0000

> <Gold.Chemscore.DEClash.Weighted>
0.0502

> <Gold.Chemscore.DEInternal.Weighted>
0.8217

> <Gold.Chemscore.Rot.Weighted>
3.6333

> <Gold.Chemscore.Internal.Correction.Weighted>
   9.000000E+99

> <Gold.Protein.RotatedTorsions>
[ 6907 6896 6895 6894 ] final  108.17 input  -60.11 | X-H torsion
[ 7974 7965 7964 7962 ] final   31.25 input  175.53 | X-H torsion
[ 8008 7997 7996 7995 ] final  -51.49 input   59.86 | X-H torsion
[ 10167 10162 10161 10158 ] final -179.73 input  -65.29 | X-H torsion
[ 10718 10713 10712 10709 ] final   60.70 input   66.30 | X-H torsion
[ 10763 10752 10751 10750 ] final  -96.20 input  -60.55 | X-H torsion
[ 11005 11000 10999 10996 ] final -169.54 input  -57.11 | X-H torsion

> <Gold.Protein.ActiveResidues>
 VAL166  LYS551  ARG553  GLY616  TRP617  ASP618  TYR619  PRO620  LYS621  CYS622 
 ASP623  PHE694  ASN695  SER759  ASP760  ASP761  ALA762  ILE779  LEU786  VAL792 
 PHE793  MET794  SER795  GLU796  ALA797  LYS798  CYS799  TRP800  GLU811  SER814 

> <Gold.Protein.RotatedAtoms>
  152.5123  133.9127  159.7495 H   0  0  0  0  0  0  0  0  0  0  0  0  # atno 6907 bound_to 6896
  150.9517  133.6534  159.2777 H   0  0  0  0  0  0  0  0  0  0  0  0  # atno 6908 bound_to 6896
  151.3810  135.0945  159.9549 H   0  0  0  0  0  0  0  0  0  0  0  0  # atno 6909 bound_to 6896
  146.1561  139.6681  142.9065 H   0  0  0  0  0  0  0  0  0  0  0  0  # atno 7974 bound_to 7965
  154.4084  140.1246  156.4838 H   0  0  0  0  0  0  0  0  0  0  0  0  # atno 8008 bound_to 7997
  155.7059  140.3494  155.4933 H   0  0  0  0  0  0  0  0  0  0  0  0  # atno 8009 bound_to 7997
  155.9344  140.1075  157.1096 H   0  0  0  0  0  0  0  0  0  0  0  0  # atno 8010 bound_to 7997
  139.5373  144.2462  152.0821 H   0  0  0  0  0  0  0  0  0  0  0  0  # atno 10167 bound_to 10162
  157.5773  130.8953  149.9369 H   0  0  0  0  0  0  0  0  0  0  0  0  # atno 10718 bound_to 10713
  154.7217  135.5092  153.8823 H   0  0  0  0  0  0  0  0  0  0  0  0  # atno 10763 bound_to 10752
  153.0869  135.6648  153.9941 H   0  0  0  0  0  0  0  0  0  0  0  0  # atno 10764 bound_to 10752
  153.9762  135.3033  155.3403 H   0  0  0  0  0  0  0  0  0  0  0  0  # atno 10765 bound_to 10752
  140.5295  134.5630  157.5071 H   0  0  0  0  0  0  0  0  0  0  0  0  # atno 11005 bound_to 11000
  145.4704  141.0436  143.2702 LP  0  0  0  0  0  0  0  0  0  0  0  0  # atno 17320 bound_to 7965
  144.7966  139.6223  143.7090 LP  0  0  0  0  0  0  0  0  0  0  0  0  # atno 17321 bound_to 7965
  140.1934  144.4729  150.6467 LP  0  0  0  0  0  0  0  0  0  0  0  0  # atno 17342 bound_to 10162
  140.6586  143.2245  151.5910 LP  0  0  0  0  0  0  0  0  0  0  0  0  # atno 17343 bound_to 10162
  156.0817  130.3672  150.0566 LP  0  0  0  0  0  0  0  0  0  0  0  0  # atno 17370 bound_to 10713
  156.8711  130.9524  151.3609 LP  0  0  0  0  0  0  0  0  0  0  0  0  # atno 17371 bound_to 10713
  139.9562  134.7532  156.0338 LP  0  0  0  0  0  0  0  0  0  0  0  0  # atno 17394 bound_to 11000
  141.1289  133.6592  156.3411 LP  0  0  0  0  0  0  0  0  0  0  0  0  # atno 17395 bound_to 11000

$$$$
