#       Name:                AV-unprocessed.smi:2514
#       Creating user name   scv26
#       Creation time:       Fri Mar 27 13:53:03 2020


#       File generated by GOLD software.
#

@<TRIPOS>MOLECULE
AV-unprocessed.smi:2514
    29    30     1
SMALL
NO_CHARGES


@<TRIPOS>ATOM
      1 ****        -3.6514  -1.2813  -0.0808 C.3            1 S1                 0.0000
      2 ****        -2.9689  -0.4677   1.0253 C.3            1 S1                 0.0000
      3 ****        -3.4132   0.8730   0.9653 O.3            1 S1                 0.0000
      4 ****        -1.4718  -0.4498   0.8838 C.2            1 S1                 0.0000
      5 ****        -0.6497   0.4776   0.3040 C.2            1 S1                 0.0000
      6 ****         0.6067  -0.0693   0.4544 N.pl3          1 S1                 0.0000
      7 ****         1.8640   0.5141   0.0929 C.3            1 S1                 0.0000
      8 ****         2.0489   1.1867  -1.2658 C.3            1 S1                 0.0000
      9 ****         3.4300   0.7213  -1.2412 N.4            1 S1                 1.0000
     10 ****         3.0534  -0.3499  -0.3274 C.3            1 S1                 0.0000
     11 ****         0.5628  -1.2422   1.1278 N.2            1 S1                 0.0000
     12 ****        -0.6849  -1.4953   1.3686 N.2            1 S1                 0.0000
     13 ****        -3.3261  -2.3217  -0.0579 H              1 S1                 0.0000
     14 ****        -3.4192  -0.8819  -1.0686 H              1 S1                 0.0000
     15 ****        -4.7354  -1.2714   0.0375 H              1 S1                 0.0000
     16 ****        -3.2515  -0.8724   1.9979 H              1 S1                 0.0000
     17 ****        -3.0693   1.3350   1.7145 H              1 S1                 0.0000
     18 ****        -0.8431   1.4244  -0.1786 H              1 S1                 0.0000
     19 ****         2.1385   1.1903   0.9056 H              1 S1                 0.0000
     20 ****         1.4715   0.7204  -2.0665 H              1 S1                 0.0000
     21 ****         1.9448   2.2722  -1.2605 H              1 S1                 0.0000
     22 ****         3.7722   0.3988  -2.1353 H              1 S1                 0.0000
     23 ****         3.7844  -0.5420   0.4584 H              1 S1                 0.0000
     24 ****         2.7699  -1.2608  -0.8586 H              1 S1                 0.0000
     25 ****         4.0383   1.3925  -0.7939 H              1 S1                 0.0000
     26 ****        -4.4128   0.8986   0.9823 LP             1 S1                 0.0000
     27 ****        -3.0831   1.3008   0.1239 LP             1 S1                 0.0000
     28 ****         1.3453  -1.8069   1.3900 LP             1 S1                 0.0000
     29 ****        -1.0302  -2.3126   1.8300 LP             1 S1                 0.0000
@<TRIPOS>BOND
    1    1    2 1     
    2    1   13 1     
    3    1   14 1     
    4    1   15 1     
    5    2    3 1     
    6    2    4 1     
    7    2   16 1     
    8    3   17 1     
    9    4   12 1     
   10    4    5 2     
   11    5    6 1     
   12    5   18 1     
   13    6    7 1     
   14    6   11 1     
   15    7   10 1     
   16    7    8 1     
   17    7   19 1     
   18    8    9 1     
   19    8   20 1     
   20    8   21 1     
   21    9   10 1     
   22    9   22 1     
   23    9   25 1     
   24   10   23 1     
   25   10   24 1     
   26   11   12 2     
   27    3   26 1     
   28    3   27 1     
   29   11   28 1     
   30   12   29 1     
@<TRIPOS>SUBSTRUCTURE
      1 S1             1
@<TRIPOS>SET
LONE_PAIRS      STATIC     ATOMS    <user>   **** ""
4 26 27 28 29
DONOR_HYDROGENS      STATIC     ATOMS    <user>   **** ""
3 17 22 25
ATOM$BLUE        STATIC     ATOMS    COLORGROUP SYSTEM
4 26 27 28 29
ATOM$RED        STATIC     ATOMS    COLORGROUP SYSTEM
3 17 22 25
