AV-unprocessed.smi:2015|AV-procd|sdf|8164|dock4
  -GOLD-   2272010413D 1   1.00000     0.00000
 Structure written by MMmdl.
 47 48  0  0  0  0  0  0  0  0  1 V2000
  143.7881  134.6188  151.0516 C   0  0  0  0  0  0  0  0  0  0  0  0
  143.9256  135.6849  151.9744 O   0  0  0  0  0  0  0  0  0  0  0  0
  144.9702  136.5772  151.6230 C   0  0  0  0  0  0  0  0  0  0  0  0
  145.0883  137.6704  152.6923 C   0  0  0  0  0  0  0  0  0  0  0  0
  146.1639  138.7184  152.3516 C   0  0  0  0  0  0  0  0  0  0  0  0
  146.8012  139.3436  153.5961 C   0  0  0  0  0  0  0  0  0  0  0  0
  146.0853  139.7204  154.5229 O   0  0  0  0  0  0  0  0  0  0  0  0
  148.1423  139.4546  153.5649 N   0  0  0  0  0  0  0  0  0  0  0  0
  149.0300  139.9818  154.5433 C   0  0  0  0  0  0  0  0  0  0  0  0
  150.3380  139.5045  154.7936 C   0  0  0  0  0  0  0  0  0  0  0  0
  151.1134  140.1286  155.7899 C   0  0  0  0  0  0  0  0  0  0  0  0
  150.5728  141.2208  156.5086 C   0  0  0  0  0  0  0  0  0  0  0  0
  151.3340  141.8602  157.5114 N   0  0  0  0  0  0  0  0  0  0  0  0
  150.8797  143.1910  157.9057 C   0  0  0  0  0  0  0  0  0  0  0  0
  151.9578  143.9216  158.7298 C   0  0  2  0  0  0  0  0  0  0  0  0
  153.1292  144.4424  157.8781 C   0  0  0  0  0  0  0  0  0  0  0  0
  152.3984  143.0962  159.8102 O   0  0  0  0  0  0  0  0  0  0  0  0
  152.8909  141.8145  159.4213 C   0  0  1  0  0  0  0  0  0  0  0  0
  153.3065  141.0622  160.6898 C   0  0  0  0  0  0  0  0  0  0  0  0
  151.8037  141.0578  158.6377 C   0  0  0  0  0  0  0  0  0  0  0  0
  149.3209  141.6779  156.2626 N   0  0  0  0  0  0  0  0  0  0  0  0
  148.5812  141.0769  155.3078 C   0  0  0  0  0  0  0  0  0  0  0  0
  142.9841  133.9577  151.3744 H   0  0  0  0  0  0  0  0  0  0  0  0
  144.7037  134.0296  150.9885 H   0  0  0  0  0  0  0  0  0  0  0  0
  143.5404  134.9892  150.0560 H   0  0  0  0  0  0  0  0  0  0  0  0
  145.9112  136.0298  151.5514 H   0  0  0  0  0  0  0  0  0  0  0  0
  144.7779  137.0243  150.6463 H   0  0  0  0  0  0  0  0  0  0  0  0
  144.1176  138.1504  152.8236 H   0  0  0  0  0  0  0  0  0  0  0  0
  145.3308  137.2019  153.6473 H   0  0  0  0  0  0  0  0  0  0  0  0
  146.9387  138.2574  151.7369 H   0  0  0  0  0  0  0  0  0  0  0  0
  145.7287  139.5196  151.7536 H   0  0  0  0  0  0  0  0  0  0  0  0
  148.5834  139.1502  152.7090 H   0  0  0  0  0  0  0  0  0  0  0  0
  150.7699  138.6824  154.2462 H   0  0  0  0  0  0  0  0  0  0  0  0
  152.1049  139.7546  155.9973 H   0  0  0  0  0  0  0  0  0  0  0  0
  150.6048  143.8040  157.0488 H   0  0  0  0  0  0  0  0  0  0  0  0
  149.9768  143.0764  158.5072 H   0  0  0  0  0  0  0  0  0  0  0  0
  151.4897  144.7937  159.1872 H   0  0  0  0  0  0  0  0  0  0  0  0
  152.7793  145.1731  157.1485 H   0  0  0  0  0  0  0  0  0  0  0  0
  153.6247  143.6461  157.3235 H   0  0  0  0  0  0  0  0  0  0  0  0
  153.8767  144.9322  158.5024 H   0  0  0  0  0  0  0  0  0  0  0  0
  153.7754  141.9352  158.7955 H   0  0  0  0  0  0  0  0  0  0  0  0
  153.6967  140.0728  160.4499 H   0  0  0  0  0  0  0  0  0  0  0  0
  152.4615  140.9332  161.3667 H   0  0  0  0  0  0  0  0  0  0  0  0
  154.0839  141.6047  161.2280 H   0  0  0  0  0  0  0  0  0  0  0  0
  150.9593  140.8278  159.2891 H   0  0  0  0  0  0  0  0  0  0  0  0
  152.2109  140.1095  158.2841 H   0  0  0  0  0  0  0  0  0  0  0  0
  147.5932  141.4851  155.1523 H   0  0  0  0  0  0  0  0  0  0  0  0
  1  2  1  0  0  0  0
  1 23  1  0  0  0  0
  1 24  1  0  0  0  0
  1 25  1  0  0  0  0
  2  3  1  0  0  0  0
  3  4  1  0  0  0  0
  3 26  1  0  0  0  0
  3 27  1  0  0  0  0
  4  5  1  0  0  0  0
  4 28  1  0  0  0  0
  4 29  1  0  0  0  0
  5  6  1  0  0  0  0
  5 30  1  0  0  0  0
  5 31  1  0  0  0  0
  6  7  2  0  0  0  0
  6  8  1  0  0  0  0
  8  9  1  0  0  0  0
  8 32  1  0  0  0  0
  9 22  1  0  0  0  0
  9 10  2  0  0  0  0
 10 11  1  0  0  0  0
 10 33  1  0  0  0  0
 11 12  2  0  0  0  0
 11 34  1  0  0  0  0
 12 13  1  0  0  0  0
 12 21  1  0  0  0  0
 13 20  1  0  0  0  0
 13 14  1  0  0  0  0
 14 15  1  0  0  0  0
 14 35  1  0  0  0  0
 14 36  1  0  0  0  0
 15 16  1  0  0  0  0
 15 17  1  0  0  0  0
 15 37  1  0  0  0  0
 16 38  1  0  0  0  0
 16 39  1  0  0  0  0
 16 40  1  0  0  0  0
 17 18  1  0  0  0  0
 18 19  1  0  0  0  0
 18 20  1  0  0  0  0
 18 41  1  0  0  0  0
 19 42  1  0  0  0  0
 19 43  1  0  0  0  0
 19 44  1  0  0  0  0
 20 45  1  0  0  0  0
 20 46  1  0  0  0  0
 21 22  2  0  0  0  0
 22 47  1  0  0  0  0
M  END
> <s_m_source_file>
AV-unprocessed.smi

> <i_m_source_file_index>
2015

> <i_lp_mmshare_version>
43012

> <i_f3d_flags>
0

> <s_epik_input>
W0NIM11PW0NIMl1bQ0gyXVtDSDJdQyg9TylbTkhdYzFbY0hdW2NIXWMobltjSF0xKU4yW0NIMl1bQ0BASF0oW0NIM10pT1tDQEBIXShbQ0gzXSlbQ0gyXTI=

> <s_epik_cmdline>
J2VwaWtfcHl0aG9uJywgJy1waCcsICc3LjAnLCAnLXRuJywgJzgnLCAnLW1hJywgJzIwMCcsICctbWV0YWxfYmluZGluZycsICctaW1hZScsICc8aW5maWxlLm1hZT4nLCAnLW9tYWUnLCAnPG91dGZpbGUubWFlPic=

> <r_lp_tautomer_probability>
1

> <r_epik_Ionization_Penalty>
0.000816358

> <r_epik_Ionization_Penalty_Charging>
0

> <r_epik_Ionization_Penalty_Neutral>
0.000816358

> <r_epik_State_Penalty>
0.000521115

> <r_epik_Charging_Adjusted_Penalty>
0.000521115

> <i_epik_Tot_Q>
0

> <i_epik_Tot_abs_Q>
0

> <r_epik_Metal_State_Penalty>
-0

> <b_epik_Metal_Only>
0

> <s_lp_Force_Field>
OPLS_2005

> <r_lp_Energy>
24.9806

> <b_lp_Chiralities_Consistent>
1

> <s_lp_Variant>
AV-unprocessed.smi:2015-2

> <Gold.Version>
5.8.1

> <Gold.Id.Protein>
6NUR|6NUR_protein|mol2

> <Gold.PLP.Fitness>
47.2221

> <Gold.PLP.PLP>
-45.8193

> <Gold.PLP.part.hbond>
-1.0000

> <Gold.PLP.part.metal>
0.0000

> <Gold.PLP.part.buried>
-3.6295

> <Gold.PLP.part.nonpolar>
-42.3521

> <Gold.PLP.part.repulsive>
0.5078

> <Gold.PLP.ligand.clash>
0.0000

> <Gold.PLP.ligand.torsion>
0.8552

> <Gold.PLP.Chemscore.Hbond>
0.9120

> <Gold.PLP.Chemscore.CHOScore>
0.0000

> <Gold.PLP.Chemscore.Metal>
0.0000

> <Gold.Chemscore.Hbonds>
donor molecule, donor type, donor heavy atom, donor atom, acceptor molecule, acceptor atom, score
      L1  H     8    32       P1  7957  0.72

> <Gold.PLP.Chemscore.Internal.Correction>
0.3773

> <Gold.Rescore>
     Score         DG    S(hbond)    S(metal)    S(lipo)     H(rot)  DE(clash)    DE(int)     intcor
     15.32     -17.69       0.98        0.00     113.37       1.68       0.32       2.05       ----

> <Gold.Chemscore.Fitness>
15.3215

> <Gold.Chemscore.DG>
-17.6943

> <Gold.Chemscore.ZeroCoef>
-5.4800

> <Gold.Chemscore.Hbond>
0.9755

> <Gold.Chemscore.Metal>
0.0000

> <Gold.Chemscore.Lipo>
113.3677

> <Gold.Chemscore.Internal_Hbond>
0.0000

> <Gold.Chemscore.DEClash>
0.3190

> <Gold.Chemscore.DEInternal>
2.0538

> <Gold.Chemscore.Rot>
1.6827

> <Gold.Chemscore.Internal.Correction>
   9.000000E+99

> <Gold.Chemscore.Hbonds>
donor molecule, donor type, donor heavy atom, donor atom, acceptor molecule, acceptor atom, score
      L1  H     8    32       P1  7957  0.66

> <Gold.Chemscore.Hbond.Weighted>
-3.2581

> <Gold.Chemscore.Metal.Weighted>
-0.0000

> <Gold.Chemscore.Lipo.Weighted>
-13.2640

> <Gold.Chemscore.Internal_Hbond.Weighted>
0.0000

> <Gold.Chemscore.DEClash.Weighted>
0.3190

> <Gold.Chemscore.DEInternal.Weighted>
2.0538

> <Gold.Chemscore.Rot.Weighted>
4.3078

> <Gold.Chemscore.Internal.Correction.Weighted>
   9.000000E+99

> <Gold.Protein.RotatedTorsions>
[ 6907 6896 6895 6894 ] final  -66.62 input  -60.11 | X-H torsion
[ 7974 7965 7964 7962 ] final   62.39 input  175.53 | X-H torsion
[ 8008 7997 7996 7995 ] final -148.25 input   59.86 | X-H torsion
[ 10167 10162 10161 10158 ] final -130.19 input  -65.29 | X-H torsion
[ 10718 10713 10712 10709 ] final   44.85 input   66.30 | X-H torsion
[ 10763 10752 10751 10750 ] final   91.96 input  -60.55 | X-H torsion
[ 11005 11000 10999 10996 ] final  127.14 input  -57.11 | X-H torsion

> <Gold.Protein.ActiveResidues>
 VAL166  LYS551  ARG553  GLY616  TRP617  ASP618  TYR619  PRO620  LYS621  CYS622 
 ASP623  PHE694  ASN695  SER759  ASP760  ASP761  ALA762  ILE779  LEU786  VAL792 
 PHE793  MET794  SER795  GLU796  ALA797  LYS798  CYS799  TRP800  GLU811  SER814 

> <Gold.Protein.RotatedAtoms>
  150.7455  134.5996  159.6029 H   0  0  0  0  0  0  0  0  0  0  0  0  # atno 6907 bound_to 6896
  152.3361  134.7193  160.0285 H   0  0  0  0  0  0  0  0  0  0  0  0  # atno 6908 bound_to 6896
  151.7661  133.3301  159.3468 H   0  0  0  0  0  0  0  0  0  0  0  0  # atno 6909 bound_to 6896
  145.8739  139.3397  143.0746 H   0  0  0  0  0  0  0  0  0  0  0  0  # atno 7974 bound_to 7965
  155.5886  140.0650  157.2764 H   0  0  0  0  0  0  0  0  0  0  0  0  # atno 8008 bound_to 7997
  154.4311  140.1839  156.1098 H   0  0  0  0  0  0  0  0  0  0  0  0  # atno 8009 bound_to 7997
  156.0250  140.3312  155.7082 H   0  0  0  0  0  0  0  0  0  0  0  0  # atno 8010 bound_to 7997
  139.9319  143.6262  152.2527 H   0  0  0  0  0  0  0  0  0  0  0  0  # atno 10167 bound_to 10162
  157.4312  130.8026  149.7605 H   0  0  0  0  0  0  0  0  0  0  0  0  # atno 10718 bound_to 10713
  153.2139  135.4379  155.0412 H   0  0  0  0  0  0  0  0  0  0  0  0  # atno 10763 bound_to 10752
  154.8215  135.3340  154.7027 H   0  0  0  0  0  0  0  0  0  0  0  0  # atno 10764 bound_to 10752
  153.7463  135.7001  153.5011 H   0  0  0  0  0  0  0  0  0  0  0  0  # atno 10765 bound_to 10752
  139.9492  134.9625  156.8811 H   0  0  0  0  0  0  0  0  0  0  0  0  # atno 11005 bound_to 11000
  145.9104  140.9184  143.0457 LP  0  0  0  0  0  0  0  0  0  0  0  0  # atno 17320 bound_to 7965
  144.6726  140.1152  143.7453 LP  0  0  0  0  0  0  0  0  0  0  0  0  # atno 17321 bound_to 7965
  139.6775  144.7657  151.1668 LP  0  0  0  0  0  0  0  0  0  0  0  0  # atno 17342 bound_to 10162
  140.7635  143.5773  150.8932 LP  0  0  0  0  0  0  0  0  0  0  0  0  # atno 17343 bound_to 10162
  155.9914  130.3938  150.2986 LP  0  0  0  0  0  0  0  0  0  0  0  0  # atno 17370 bound_to 10713
  157.1143  131.0230  151.3035 LP  0  0  0  0  0  0  0  0  0  0  0  0  # atno 17371 bound_to 10713
  140.5760  134.0398  155.7447 LP  0  0  0  0  0  0  0  0  0  0  0  0  # atno 17394 bound_to 11000
  141.1151  133.9554  157.2838 LP  0  0  0  0  0  0  0  0  0  0  0  0  # atno 17395 bound_to 11000

$$$$
