AV-unprocessed.smi:2192|AV-procd|sdf|8896|dock8
  -GOLD-   2272012103D 1   1.00000     0.00000
 Structure written by MMmdl.
 42 44  0  0  0  0  0  0  0  0  1 V2000
  152.3826  138.1691  155.0956 C   0  0  0  0  0  0  0  0  0  0  0  0
  151.3911  139.2606  155.1290 N   0  0  0  0  0  0  0  0  0  0  0  0
  150.3383  139.2056  154.2537 C   0  0  0  0  0  0  0  0  0  0  0  0
  150.1476  138.3078  153.4323 O   0  0  0  0  0  0  0  0  0  0  0  0
  149.4159  140.3387  154.3660 C   0  0  0  0  0  0  0  0  0  0  0  0
  149.5870  141.3452  155.2562 C   0  0  0  0  0  0  0  0  0  0  0  0
  148.5714  142.2893  155.1549 N   0  0  0  0  0  0  0  0  0  0  0  0
  147.8188  141.7835  154.1767 C   0  0  0  0  0  0  0  0  0  0  0  0
  148.2559  140.6217  153.6484 N   0  0  0  0  0  0  0  0  0  0  0  0
  147.6271  139.8670  152.5759 C   0  0  0  0  0  0  0  0  0  0  0  0
  146.7707  138.6959  153.0980 C   0  0  2  0  0  0  0  0  0  0  0  0
  147.5828  137.7919  153.8215 O   0  0  0  0  0  0  0  0  0  0  0  0
  146.0761  137.9285  151.9643 C   0  0  0  0  0  0  0  0  0  0  0  0
  145.0379  137.1323  152.5202 O   0  0  0  0  0  0  0  0  0  0  0  0
  144.7761  135.9063  151.9480 C   0  0  0  0  0  0  0  0  0  0  0  0
  143.6772  135.1845  152.4588 C   0  0  0  0  0  0  0  0  0  0  0  0
  143.3355  133.9234  151.9334 C   0  0  0  0  0  0  0  0  0  0  0  0
  144.0955  133.3682  150.8876 C   0  0  0  0  0  0  0  0  0  0  0  0
  143.7695  132.1554  150.3813 F   0  0  0  0  0  0  0  0  0  0  0  0
  145.1957  134.0764  150.3693 C   0  0  0  0  0  0  0  0  0  0  0  0
  145.5363  135.3386  150.8939 C   0  0  0  0  0  0  0  0  0  0  0  0
  150.7100  141.3049  156.1192 N   0  0  0  0  0  0  0  0  0  0  0  0
  150.8626  142.4105  157.0697 C   0  0  0  0  0  0  0  0  0  0  0  0
  151.6089  140.2671  156.0554 C   0  0  0  0  0  0  0  0  0  0  0  0
  152.5872  140.2347  156.8069 O   0  0  0  0  0  0  0  0  0  0  0  0
  152.1827  137.3884  154.3609 H   0  0  0  0  0  0  0  0  0  0  0  0
  152.4362  137.6731  156.0662 H   0  0  0  0  0  0  0  0  0  0  0  0
  153.3736  138.5639  154.8652 H   0  0  0  0  0  0  0  0  0  0  0  0
  146.9225  142.2768  153.8298 H   0  0  0  0  0  0  0  0  0  0  0  0
  147.0238  140.5522  151.9797 H   0  0  0  0  0  0  0  0  0  0  0  0
  148.4072  139.4948  151.9101 H   0  0  0  0  0  0  0  0  0  0  0  0
  146.0108  139.0700  153.7847 H   0  0  0  0  0  0  0  0  0  0  0  0
  147.9212  137.1451  153.2212 H   0  0  0  0  0  0  0  0  0  0  0  0
  145.6771  138.6280  151.2275 H   0  0  0  0  0  0  0  0  0  0  0  0
  146.7985  137.2824  151.4626 H   0  0  0  0  0  0  0  0  0  0  0  0
  143.0890  135.6036  153.2620 H   0  0  0  0  0  0  0  0  0  0  0  0
  142.4904  133.3827  152.3335 H   0  0  0  0  0  0  0  0  0  0  0  0
  145.7807  133.6512  149.5673 H   0  0  0  0  0  0  0  0  0  0  0  0
  146.3867  135.8506  150.4701 H   0  0  0  0  0  0  0  0  0  0  0  0
  151.7487  142.3435  157.7016 H   0  0  0  0  0  0  0  0  0  0  0  0
  149.9960  142.4542  157.7301 H   0  0  0  0  0  0  0  0  0  0  0  0
  150.9205  143.3579  156.5325 H   0  0  0  0  0  0  0  0  0  0  0  0
  1  2  1  0  0  0  0
  1 26  1  0  0  0  0
  1 27  1  0  0  0  0
  1 28  1  0  0  0  0
  2 24  1  0  0  0  0
  2  3  1  0  0  0  0
  3  4  2  0  0  0  0
  3  5  1  0  0  0  0
  5  9  1  0  0  0  0
  5  6  2  0  0  0  0
  6  7  1  0  0  0  0
  6 22  1  0  0  0  0
  7  8  2  0  0  0  0
  8  9  1  0  0  0  0
  8 29  1  0  0  0  0
  9 10  1  0  0  0  0
 10 11  1  0  0  0  0
 10 30  1  0  0  0  0
 10 31  1  0  0  0  0
 11 12  1  0  0  0  0
 11 13  1  0  0  0  0
 11 32  1  0  0  0  0
 12 33  1  0  0  0  0
 13 14  1  0  0  0  0
 13 34  1  0  0  0  0
 13 35  1  0  0  0  0
 14 15  1  0  0  0  0
 15 21  1  0  0  0  0
 15 16  2  0  0  0  0
 16 17  1  0  0  0  0
 16 36  1  0  0  0  0
 17 18  2  0  0  0  0
 17 37  1  0  0  0  0
 18 19  1  0  0  0  0
 18 20  1  0  0  0  0
 20 21  2  0  0  0  0
 20 38  1  0  0  0  0
 21 39  1  0  0  0  0
 22 23  1  0  0  0  0
 22 24  1  0  0  0  0
 23 40  1  0  0  0  0
 23 41  1  0  0  0  0
 23 42  1  0  0  0  0
 24 25  2  0  0  0  0
M  END
> <s_m_source_file>
AV-unprocessed.smi

> <i_m_source_file_index>
2192

> <i_lp_mmshare_version>
43012

> <i_f3d_flags>
0

> <s_epik_input>
Tz1jMW4oW0NIM10pYyg9TyluKFtDSDNdKWMoYzEyKW5bY0hdbjJbQ0gyXVtDQEhdKFtPSF0pW0NIMl1PYzNbY0hdW2NIXWMoRilbY0hdW2NIXTM=

> <s_epik_cmdline>
J2VwaWtfcHl0aG9uJywgJy1waCcsICc3LjAnLCAnLXRuJywgJzgnLCAnLW1hJywgJzIwMCcsICctbWV0YWxfYmluZGluZycsICctaW1hZScsICc8aW5maWxlLm1hZT4nLCAnLW9tYWUnLCAnPG91dGZpbGUubWFlPic=

> <r_lp_tautomer_probability>
1

> <r_epik_Ionization_Penalty>
1.0344e-06

> <r_epik_Ionization_Penalty_Charging>
3.2247e-09

> <r_epik_Ionization_Penalty_Neutral>
1.03118e-06

> <r_epik_State_Penalty>
-0

> <r_epik_Charging_Adjusted_Penalty>
3.2247e-09

> <i_epik_Tot_Q>
0

> <i_epik_Tot_abs_Q>
0

> <r_epik_Metal_State_Penalty>
-0

> <b_epik_Metal_Only>
0

> <s_lp_Force_Field>
OPLS_2005

> <r_lp_Energy>
38.6998

> <b_lp_Chiralities_Consistent>
1

> <s_lp_Variant>
AV-unprocessed.smi:2192-1

> <Gold.Version>
5.8.1

> <Gold.Id.Protein>
6NUR|6NUR_protein|mol2

> <Gold.PLP.Fitness>
48.6967

> <Gold.PLP.PLP>
-44.0116

> <Gold.PLP.part.hbond>
-2.0000

> <Gold.PLP.part.metal>
0.0000

> <Gold.PLP.part.buried>
2.3485

> <Gold.PLP.part.nonpolar>
-50.9626

> <Gold.PLP.part.repulsive>
6.6542

> <Gold.PLP.ligand.clash>
0.0000

> <Gold.PLP.ligand.torsion>
0.6698

> <Gold.PLP.Chemscore.Hbond>
2.0000

> <Gold.PLP.Chemscore.CHOScore>
0.0000

> <Gold.PLP.Chemscore.Metal>
0.0000

> <Gold.Chemscore.Hbonds>
donor molecule, donor type, donor heavy atom, donor atom, acceptor molecule, acceptor atom, score
      L1  H    12    33       P1  7948  1.00
      P1  H  7997  8009       L1    25  1.00

> <Gold.PLP.Chemscore.Internal.Correction>
0.0248

> <Gold.Rescore>
     Score         DG    S(hbond)    S(metal)    S(lipo)     H(rot)  DE(clash)    DE(int)     intcor
      8.71     -14.05       1.98        0.00      79.61       2.88       4.63       0.71       ----

> <Gold.Chemscore.Fitness>
8.7070

> <Gold.Chemscore.DG>
-14.0467

> <Gold.Chemscore.ZeroCoef>
-5.4800

> <Gold.Chemscore.Hbond>
1.9806

> <Gold.Chemscore.Metal>
0.0000

> <Gold.Chemscore.Lipo>
79.6124

> <Gold.Chemscore.Internal_Hbond>
0.0000

> <Gold.Chemscore.DEClash>
4.6292

> <Gold.Chemscore.DEInternal>
0.7105

> <Gold.Chemscore.Rot>
2.8762

> <Gold.Chemscore.Internal.Correction>
   9.000000E+99

> <Gold.Chemscore.Hbonds>
donor molecule, donor type, donor heavy atom, donor atom, acceptor molecule, acceptor atom, score
      L1  H    12    33       P1  7948  0.99
      P1  H  7997  8009       L1    25  0.97

> <Gold.Chemscore.Hbond.Weighted>
-6.6152

> <Gold.Chemscore.Metal.Weighted>
-0.0000

> <Gold.Chemscore.Lipo.Weighted>
-9.3146

> <Gold.Chemscore.Internal_Hbond.Weighted>
0.0000

> <Gold.Chemscore.DEClash.Weighted>
4.6292

> <Gold.Chemscore.DEInternal.Weighted>
0.7105

> <Gold.Chemscore.Rot.Weighted>
7.3631

> <Gold.Chemscore.Internal.Correction.Weighted>
   9.000000E+99

> <Gold.Protein.RotatedTorsions>
[ 6907 6896 6895 6894 ] final  163.28 input  -60.11 | X-H torsion
[ 7974 7965 7964 7962 ] final  -41.63 input  175.53 | X-H torsion
[ 8008 7997 7996 7995 ] final -173.07 input   59.86 | X-H torsion
[ 10167 10162 10161 10158 ] final   32.65 input  -65.29 | X-H torsion
[ 10718 10713 10712 10709 ] final -155.54 input   66.30 | X-H torsion
[ 10763 10752 10751 10750 ] final  -24.57 input  -60.55 | X-H torsion
[ 11005 11000 10999 10996 ] final -171.43 input  -57.11 | X-H torsion

> <Gold.Protein.ActiveResidues>
 VAL166  LYS551  ARG553  GLY616  TRP617  ASP618  TYR619  PRO620  LYS621  CYS622 
 ASP623  PHE694  ASN695  SER759  ASP760  ASP761  ALA762  ILE779  LEU786  VAL792 
 PHE793  MET794  SER795  GLU796  ALA797  LYS798  CYS799  TRP800  GLU811  SER814 

> <Gold.Protein.RotatedAtoms>
  151.9276  133.3602  159.3918 H   0  0  0  0  0  0  0  0  0  0  0  0  # atno 6907 bound_to 6896
  150.7024  134.4571  159.5372 H   0  0  0  0  0  0  0  0  0  0  0  0  # atno 6908 bound_to 6896
  152.2205  134.8417  160.0537 H   0  0  0  0  0  0  0  0  0  0  0  0  # atno 6909 bound_to 6896
  146.0193  140.6870  142.9186 H   0  0  0  0  0  0  0  0  0  0  0  0  # atno 7974 bound_to 7965
  155.9527  140.1129  157.0963 H   0  0  0  0  0  0  0  0  0  0  0  0  # atno 8008 bound_to 7997
  154.4113  140.1197  156.5140 H   0  0  0  0  0  0  0  0  0  0  0  0  # atno 8009 bound_to 7997
  155.6821  140.3473  155.4862 H   0  0  0  0  0  0  0  0  0  0  0  0  # atno 8010 bound_to 7997
  140.4479  144.1091  150.6186 H   0  0  0  0  0  0  0  0  0  0  0  0  # atno 10167 bound_to 10162
  156.5142  130.8449  151.2658 H   0  0  0  0  0  0  0  0  0  0  0  0  # atno 10718 bound_to 10713
  153.6859  135.6964  153.5104 H   0  0  0  0  0  0  0  0  0  0  0  0  # atno 10763 bound_to 10752
  153.2450  135.4293  155.0737 H   0  0  0  0  0  0  0  0  0  0  0  0  # atno 10764 bound_to 10752
  154.8387  135.3517  154.6401 H   0  0  0  0  0  0  0  0  0  0  0  0  # atno 10765 bound_to 10752
  140.5083  134.5826  157.5010 H   0  0  0  0  0  0  0  0  0  0  0  0  # atno 11005 bound_to 11000
  144.6983  140.3537  143.7177 LP  0  0  0  0  0  0  0  0  0  0  0  0  # atno 17320 bound_to 7965
  145.7219  139.1712  143.2480 LP  0  0  0  0  0  0  0  0  0  0  0  0  # atno 17321 bound_to 7965
  140.4241  143.2598  151.9678 LP  0  0  0  0  0  0  0  0  0  0  0  0  # atno 17342 bound_to 10162
  139.4794  144.5804  151.7942 LP  0  0  0  0  0  0  0  0  0  0  0  0  # atno 17343 bound_to 10162
  157.7446  130.9939  150.2689 LP  0  0  0  0  0  0  0  0  0  0  0  0  # atno 17370 bound_to 10713
  156.3211  130.3786  149.7574 LP  0  0  0  0  0  0  0  0  0  0  0  0  # atno 17371 bound_to 10713
  139.9673  134.7351  156.0111 LP  0  0  0  0  0  0  0  0  0  0  0  0  # atno 17394 bound_to 11000
  141.1399  133.6567  156.3700 LP  0  0  0  0  0  0  0  0  0  0  0  0  # atno 17395 bound_to 11000

$$$$
