AV-unprocessed.smi:1325|AV-procd|sdf|5472|dock7
  -GOLD-   22720 5 43D 1   1.00000     0.00000
 Structure written by MMmdl.
 35 36  0  0  0  0  0  0  0  0  1 V2000
  151.2707  145.0296  160.3630 C   0  0  0  0  0  0  0  0  0  0  0  0
  151.6471  143.7311  159.7018 C   0  0  0  0  0  0  0  0  0  0  0  0
  151.2450  143.5612  158.4853 N   0  0  0  0  0  0  0  0  0  0  0  0
  151.5325  142.4044  157.7868 N   0  0  0  0  0  0  0  0  0  0  0  0
  150.9801  142.3758  156.4265 C   0  0  0  0  0  0  0  0  0  0  0  0
  150.1245  141.1150  156.1738 C   0  0  2  0  0  0  0  0  0  0  0  0
  150.7284  140.3433  155.1543 O   0  0  0  0  0  0  0  0  0  0  0  0
  148.6974  141.4899  155.8034 C   0  0  0  0  0  0  0  0  0  0  0  0
  147.7797  141.8542  156.8122 C   0  0  0  0  0  0  0  0  0  0  0  0
  146.4586  142.2095  156.4761 C   0  0  0  0  0  0  0  0  0  0  0  0
  146.0481  142.2048  155.1293 C   0  0  0  0  0  0  0  0  0  0  0  0
  146.9597  141.8460  154.1181 C   0  0  0  0  0  0  0  0  0  0  0  0
  148.2806  141.4905  154.4536 C   0  0  0  0  0  0  0  0  0  0  0  0
  152.2465  141.3546  158.2842 C   0  0  0  0  0  0  0  0  0  0  0  0
  152.4800  140.3385  157.6281 O   0  0  0  0  0  0  0  0  0  0  0  0
  152.7000  141.5543  159.6625 C   0  0  0  0  0  0  0  0  0  0  0  0
  153.4506  140.4775  160.2232 C   0  0  0  0  0  0  0  0  0  0  0  0
  154.0771  139.6161  160.6768 N   0  0  0  0  0  0  0  0  0  0  0  0
  152.4238  142.6852  160.3590 C   0  0  0  0  0  0  0  0  0  0  0  0
  152.8705  142.9407  161.7919 C   0  0  0  0  0  0  0  0  0  0  0  0
  152.1603  145.5851  160.6609 H   0  0  0  0  0  0  0  0  0  0  0  0
  150.6687  144.8497  161.2537 H   0  0  0  0  0  0  0  0  0  0  0  0
  150.6894  145.6708  159.6985 H   0  0  0  0  0  0  0  0  0  0  0  0
  150.3466  143.2586  156.3183 H   0  0  0  0  0  0  0  0  0  0  0  0
  151.7482  142.4912  155.6594 H   0  0  0  0  0  0  0  0  0  0  0  0
  150.0937  140.5025  157.0759 H   0  0  0  0  0  0  0  0  0  0  0  0
  150.9513  139.4973  155.5113 H   0  0  0  0  0  0  0  0  0  0  0  0
  148.0850  141.8640  157.8482 H   0  0  0  0  0  0  0  0  0  0  0  0
  145.7603  142.4863  157.2522 H   0  0  0  0  0  0  0  0  0  0  0  0
  145.0354  142.4778  154.8719 H   0  0  0  0  0  0  0  0  0  0  0  0
  146.6464  141.8443  153.0845 H   0  0  0  0  0  0  0  0  0  0  0  0
  148.9742  141.2198  153.6709 H   0  0  0  0  0  0  0  0  0  0  0  0
  153.4465  142.1105  162.1994 H   0  0  0  0  0  0  0  0  0  0  0  0
  152.0068  143.0895  162.4409 H   0  0  0  0  0  0  0  0  0  0  0  0
  153.4980  143.8310  161.8448 H   0  0  0  0  0  0  0  0  0  0  0  0
  1  2  1  0  0  0  0
  1 21  1  0  0  0  0
  1 22  1  0  0  0  0
  1 23  1  0  0  0  0
  2 19  1  0  0  0  0
  2  3  2  0  0  0  0
  3  4  1  0  0  0  0
  4  5  1  0  0  0  0
  4 14  1  0  0  0  0
  5  6  1  0  0  0  0
  5 24  1  0  0  0  0
  5 25  1  0  0  0  0
  6  7  1  0  0  0  0
  6  8  1  0  0  0  0
  6 26  1  0  0  0  0
  7 27  1  0  0  0  0
  8 13  1  0  0  0  0
  8  9  2  0  0  0  0
  9 10  1  0  0  0  0
  9 28  1  0  0  0  0
 10 11  2  0  0  0  0
 10 29  1  0  0  0  0
 11 12  1  0  0  0  0
 11 30  1  0  0  0  0
 12 13  2  0  0  0  0
 12 31  1  0  0  0  0
 13 32  1  0  0  0  0
 14 15  2  0  0  0  0
 14 16  1  0  0  0  0
 16 17  1  0  0  0  0
 16 19  2  0  0  0  0
 17 18  3  0  0  0  0
 19 20  1  0  0  0  0
 20 33  1  0  0  0  0
 20 34  1  0  0  0  0
 20 35  1  0  0  0  0
M  END
> <s_m_source_file>
AV-unprocessed.smi

> <i_m_source_file_index>
1325

> <i_lp_mmshare_version>
43012

> <i_f3d_flags>
0

> <s_epik_input>
TiNDYyhjMVtDSDNdKWMoPU8pbihuYzFbQ0gzXSlbQ0gyXVtDQEhdKFtPSF0pYzJbY0hdW2NIXVtjSF1bY0hdW2NIXTI=

> <s_epik_cmdline>
J2VwaWtfcHl0aG9uJywgJy1waCcsICc3LjAnLCAnLXRuJywgJzgnLCAnLW1hJywgJzIwMCcsICctbWV0YWxfYmluZGluZycsICctaW1hZScsICc8aW5maWxlLm1hZT4nLCAnLW9tYWUnLCAnPG91dGZpbGUubWFlPic=

> <r_lp_tautomer_probability>
1

> <r_epik_Ionization_Penalty>
7.1854e-08

> <r_epik_Ionization_Penalty_Charging>
1.40848e-10

> <r_epik_Ionization_Penalty_Neutral>
7.17131e-08

> <r_epik_State_Penalty>
-0

> <r_epik_Charging_Adjusted_Penalty>
1.40848e-10

> <i_epik_Tot_Q>
0

> <i_epik_Tot_abs_Q>
0

> <r_epik_Metal_State_Penalty>
-0

> <b_epik_Metal_Only>
0

> <s_lp_Force_Field>
OPLS_2005

> <r_lp_Energy>
27.9871

> <b_lp_Chiralities_Consistent>
1

> <s_lp_Variant>
AV-unprocessed.smi:1325-1

> <Gold.Version>
5.8.1

> <Gold.Id.Protein>
6NUR|6NUR_protein|mol2

> <Gold.PLP.Fitness>
46.1457

> <Gold.PLP.PLP>
-43.0045

> <Gold.PLP.part.hbond>
-2.0000

> <Gold.PLP.part.metal>
0.0000

> <Gold.PLP.part.buried>
-6.8748

> <Gold.PLP.part.nonpolar>
-33.6757

> <Gold.PLP.part.repulsive>
0.0913

> <Gold.PLP.ligand.clash>
0.0000

> <Gold.PLP.ligand.torsion>
1.3724

> <Gold.PLP.Chemscore.Hbond>
1.9600

> <Gold.PLP.Chemscore.CHOScore>
0.0000

> <Gold.PLP.Chemscore.Metal>
0.0000

> <Gold.Chemscore.Hbonds>
donor molecule, donor type, donor heavy atom, donor atom, acceptor molecule, acceptor atom, score
      P1  H  7989  7998       L1     7  1.00
      P1  H  7997  8009       L1    15  0.65

> <Gold.PLP.Chemscore.Internal.Correction>
0.0060

> <Gold.Rescore>
     Score         DG    S(hbond)    S(metal)    S(lipo)     H(rot)  DE(clash)    DE(int)     intcor
     15.83     -18.06       1.86        0.00      96.13       1.90       0.31       1.92       ----

> <Gold.Chemscore.Fitness>
15.8350

> <Gold.Chemscore.DG>
-18.0589

> <Gold.Chemscore.ZeroCoef>
-5.4800

> <Gold.Chemscore.Hbond>
1.8586

> <Gold.Chemscore.Metal>
0.0000

> <Gold.Chemscore.Lipo>
96.1295

> <Gold.Chemscore.Internal_Hbond>
0.0000

> <Gold.Chemscore.DEClash>
0.3082

> <Gold.Chemscore.DEInternal>
1.9157

> <Gold.Chemscore.Rot>
1.9047

> <Gold.Chemscore.Internal.Correction>
   9.000000E+99

> <Gold.Chemscore.Hbonds>
donor molecule, donor type, donor heavy atom, donor atom, acceptor molecule, acceptor atom, score
      P1  H  7989  7998       L1     7  0.91
      P1  H  7997  8009       L1    15  0.61

> <Gold.Chemscore.Hbond.Weighted>
-6.2077

> <Gold.Chemscore.Metal.Weighted>
-0.0000

> <Gold.Chemscore.Lipo.Weighted>
-11.2472

> <Gold.Chemscore.Internal_Hbond.Weighted>
0.0000

> <Gold.Chemscore.DEClash.Weighted>
0.3082

> <Gold.Chemscore.DEInternal.Weighted>
1.9157

> <Gold.Chemscore.Rot.Weighted>
4.8760

> <Gold.Chemscore.Internal.Correction.Weighted>
   9.000000E+99

> <Gold.Protein.RotatedTorsions>
[ 6907 6896 6895 6894 ] final   72.17 input  -60.11 | X-H torsion
[ 7974 7965 7964 7962 ] final  -74.54 input  175.53 | X-H torsion
[ 8008 7997 7996 7995 ] final  165.18 input   59.86 | X-H torsion
[ 10167 10162 10161 10158 ] final  144.77 input  -65.29 | X-H torsion
[ 10718 10713 10712 10709 ] final  -94.43 input   66.30 | X-H torsion
[ 10763 10752 10751 10750 ] final   96.94 input  -60.55 | X-H torsion
[ 11005 11000 10999 10996 ] final -102.52 input  -57.11 | X-H torsion

> <Gold.Protein.ActiveResidues>
 VAL166  LYS551  ARG553  GLY616  TRP617  ASP618  TYR619  PRO620  LYS621  CYS622 
 ASP623  PHE694  ASN695  SER759  ASP760  ASP761  ALA762  ILE779  LEU786  VAL792 
 PHE793  MET794  SER795  GLU796  ALA797  LYS798  CYS799  TRP800  GLU811  SER814 

> <Gold.Protein.RotatedAtoms>
  152.4853  134.4611  159.9605 H   0  0  0  0  0  0  0  0  0  0  0  0  # atno 6907 bound_to 6896
  151.4608  133.3587  159.2817 H   0  0  0  0  0  0  0  0  0  0  0  0  # atno 6908 bound_to 6896
  150.8957  134.8391  159.7386 H   0  0  0  0  0  0  0  0  0  0  0  0  # atno 6909 bound_to 6896
  145.6377  140.9320  143.1052 H   0  0  0  0  0  0  0  0  0  0  0  0  # atno 7974 bound_to 7965
  156.1821  140.1677  156.8255 H   0  0  0  0  0  0  0  0  0  0  0  0  # atno 8008 bound_to 7997
  154.5372  140.0744  156.8480 H   0  0  0  0  0  0  0  0  0  0  0  0  # atno 8009 bound_to 7997
  155.3288  140.3378  155.4242 H   0  0  0  0  0  0  0  0  0  0  0  0  # atno 8010 bound_to 7997
  139.4940  144.5949  151.6604 H   0  0  0  0  0  0  0  0  0  0  0  0  # atno 10167 bound_to 10162
  156.0027  130.5067  150.5926 H   0  0  0  0  0  0  0  0  0  0  0  0  # atno 10718 bound_to 10713
  153.2709  135.4201  155.0987 H   0  0  0  0  0  0  0  0  0  0  0  0  # atno 10763 bound_to 10752
  154.8455  135.3472  154.6245 H   0  0  0  0  0  0  0  0  0  0  0  0  # atno 10764 bound_to 10752
  153.6665  135.7046  153.5218 H   0  0  0  0  0  0  0  0  0  0  0  0  # atno 10765 bound_to 10752
  141.1185  133.8565  157.1370 H   0  0  0  0  0  0  0  0  0  0  0  0  # atno 11005 bound_to 11000
  144.7169  139.8165  143.7395 LP  0  0  0  0  0  0  0  0  0  0  0  0  # atno 17320 bound_to 7965
  146.1306  139.4340  143.0171 LP  0  0  0  0  0  0  0  0  0  0  0  0  # atno 17321 bound_to 7965
  140.5584  144.0309  150.6158 LP  0  0  0  0  0  0  0  0  0  0  0  0  # atno 17342 bound_to 10162
  140.3387  143.3033  152.0611 LP  0  0  0  0  0  0  0  0  0  0  0  0  # atno 17343 bound_to 10162
  157.3788  131.0777  151.1494 LP  0  0  0  0  0  0  0  0  0  0  0  0  # atno 17370 bound_to 10713
  157.2224  130.6487  149.5816 LP  0  0  0  0  0  0  0  0  0  0  0  0  # atno 17371 bound_to 10713
  140.0125  134.9982  157.0425 LP  0  0  0  0  0  0  0  0  0  0  0  0  # atno 17394 bound_to 11000
  140.4575  134.1518  155.7188 LP  0  0  0  0  0  0  0  0  0  0  0  0  # atno 17395 bound_to 11000

$$$$
