AV-unprocessed.smi:1074|AV-procd|sdf|4692|dock4
  -GOLD-   22720 3213D 1   1.00000     0.00000
 Structure written by MMmdl.
 44 45  0  0  0  0  0  0  0  0  1 V2000
  146.2091  131.5174  153.9314 C   0  0  0  0  0  0  0  0  0  0  0  0
  145.1528  132.1761  153.1784 N   0  0  0  0  0  0  0  0  0  0  0  0
  145.3137  132.7123  151.9595 C   0  0  0  0  0  0  0  0  0  0  0  0
  146.3885  132.6888  151.3598 O   0  0  0  0  0  0  0  0  0  0  0  0
  144.0702  133.3726  151.3343 C   0  0  2  0  0  0  0  0  0  0  0  0
  144.4211  134.3482  150.1862 C   0  0  0  0  0  0  0  0  0  0  0  0
  144.9565  135.7095  150.6696 C   0  0  0  0  0  0  0  0  0  0  0  0
  143.9998  136.3655  151.6842 C   0  0  2  0  0  0  0  0  0  0  0  0
  144.5580  137.6181  152.1839 N   0  0  0  0  0  0  0  0  0  0  0  0
  145.7285  137.7462  152.8247 C   0  0  0  0  0  0  0  0  0  0  0  0
  146.4651  136.7959  153.0853 O   0  0  0  0  0  0  0  0  0  0  0  0
  145.9644  139.0317  153.1398 N   0  0  0  0  0  0  0  0  0  0  0  0
  147.0975  139.6172  153.7698 C   0  0  0  0  0  0  0  0  0  0  0  0
  147.2213  140.9863  154.1100 C   0  0  0  0  0  0  0  0  0  0  0  0
  148.3974  141.4261  154.7469 C   0  0  0  0  0  0  0  0  0  0  0  0
  149.4127  140.4909  155.0284 C   0  0  0  0  0  0  0  0  0  0  0  0
  150.5604  140.9303  155.6559 O   0  0  0  0  0  0  0  0  0  0  0  0
  151.4266  139.9610  156.2361 C   0  0  0  0  0  0  0  0  0  0  0  0
  149.3009  139.1782  154.7081 N   0  0  0  0  0  0  0  0  0  0  0  0
  148.1712  138.7634  154.0976 C   0  0  0  0  0  0  0  0  0  0  0  0
  143.7222  135.4207  152.8663 C   0  0  0  0  0  0  0  0  0  0  0  0
  143.1737  134.0641  152.3875 C   0  0  0  0  0  0  0  0  0  0  0  0
  145.8275  131.1919  154.8990 H   0  0  0  0  0  0  0  0  0  0  0  0
  147.0443  132.1970  154.1053 H   0  0  0  0  0  0  0  0  0  0  0  0
  146.5782  130.6410  153.3974 H   0  0  0  0  0  0  0  0  0  0  0  0
  144.2425  132.2329  153.6121 H   0  0  0  0  0  0  0  0  0  0  0  0
  143.4796  132.5669  150.8946 H   0  0  0  0  0  0  0  0  0  0  0  0
  145.1444  133.8905  149.5099 H   0  0  0  0  0  0  0  0  0  0  0  0
  143.5254  134.5191  149.5878 H   0  0  0  0  0  0  0  0  0  0  0  0
  145.9445  135.5881  151.1137 H   0  0  0  0  0  0  0  0  0  0  0  0
  145.0939  136.3657  149.8093 H   0  0  0  0  0  0  0  0  0  0  0  0
  143.0494  136.5719  151.1880 H   0  0  0  0  0  0  0  0  0  0  0  0
  144.0136  138.4520  152.0193 H   0  0  0  0  0  0  0  0  0  0  0  0
  145.2329  139.6819  152.8922 H   0  0  0  0  0  0  0  0  0  0  0  0
  146.4471  141.7089  153.9090 H   0  0  0  0  0  0  0  0  0  0  0  0
  148.5168  142.4648  155.0182 H   0  0  0  0  0  0  0  0  0  0  0  0
  152.2802  140.4654  156.6885 H   0  0  0  0  0  0  0  0  0  0  0  0
  151.8107  139.2694  155.4850 H   0  0  0  0  0  0  0  0  0  0  0  0
  150.9233  139.3945  157.0211 H   0  0  0  0  0  0  0  0  0  0  0  0
  148.1241  137.7097  153.8638 H   0  0  0  0  0  0  0  0  0  0  0  0
  144.6326  135.2722  153.4478 H   0  0  0  0  0  0  0  0  0  0  0  0
  143.0035  135.8805  153.5458 H   0  0  0  0  0  0  0  0  0  0  0  0
  142.1828  134.2178  151.9583 H   0  0  0  0  0  0  0  0  0  0  0  0
  143.0254  133.4072  153.2457 H   0  0  0  0  0  0  0  0  0  0  0  0
  1  2  1  0  0  0  0
  1 23  1  0  0  0  0
  1 24  1  0  0  0  0
  1 25  1  0  0  0  0
  2  3  1  0  0  0  0
  2 26  1  0  0  0  0
  3  4  2  0  0  0  0
  3  5  1  0  0  0  0
  5 22  1  0  0  0  0
  5  6  1  0  0  0  0
  5 27  1  0  0  0  0
  6  7  1  0  0  0  0
  6 28  1  0  0  0  0
  6 29  1  0  0  0  0
  7  8  1  0  0  0  0
  7 30  1  0  0  0  0
  7 31  1  0  0  0  0
  8  9  1  0  0  0  0
  8 21  1  0  0  0  0
  8 32  1  0  0  0  0
  9 10  1  0  0  0  0
  9 33  1  0  0  0  0
 10 11  2  0  0  0  0
 10 12  1  0  0  0  0
 12 13  1  0  0  0  0
 12 34  1  0  0  0  0
 13 20  1  0  0  0  0
 13 14  2  0  0  0  0
 14 15  1  0  0  0  0
 14 35  1  0  0  0  0
 15 16  2  0  0  0  0
 15 36  1  0  0  0  0
 16 17  1  0  0  0  0
 16 19  1  0  0  0  0
 17 18  1  0  0  0  0
 18 37  1  0  0  0  0
 18 38  1  0  0  0  0
 18 39  1  0  0  0  0
 19 20  2  0  0  0  0
 20 40  1  0  0  0  0
 21 22  1  0  0  0  0
 21 41  1  0  0  0  0
 21 42  1  0  0  0  0
 22 43  1  0  0  0  0
 22 44  1  0  0  0  0
M  END
> <s_m_source_file>
AV-unprocessed.smi

> <i_m_source_file_index>
1074

> <i_lp_mmshare_version>
43012

> <i_f3d_flags>
0

> <s_epik_input>
W0NIM11bTkhdQyg9TylbQ0BASF0xW0NIMl1bQ0gyXVtDQEhdKFtDSDJdW0NIMl0xKVtOSF1DKD1PKVtOSF1jMltjSF1bY0hdYyhPW0NIM10pbltjSF0y

> <s_epik_cmdline>
J2VwaWtfcHl0aG9uJywgJy1waCcsICc3LjAnLCAnLXRuJywgJzgnLCAnLW1hJywgJzIwMCcsICctbWV0YWxfYmluZGluZycsICctaW1hZScsICc8aW5maWxlLm1hZT4nLCAnLW9tYWUnLCAnPG91dGZpbGUubWFlPic=

> <r_lp_tautomer_probability>
1

> <r_epik_Ionization_Penalty>
9.85099e-05

> <r_epik_Ionization_Penalty_Charging>
0

> <r_epik_Ionization_Penalty_Neutral>
9.85099e-05

> <r_epik_State_Penalty>
-0

> <r_epik_Charging_Adjusted_Penalty>
0

> <i_epik_Tot_Q>
0

> <i_epik_Tot_abs_Q>
0

> <r_epik_Metal_State_Penalty>
-0

> <b_epik_Metal_Only>
0

> <s_lp_Force_Field>
OPLS_2005

> <r_lp_Energy>
10.6819

> <b_lp_Chiralities_Consistent>
1

> <s_lp_Variant>
AV-unprocessed.smi:1074-2

> <Gold.Version>
5.8.1

> <Gold.Id.Protein>
6NUR|6NUR_protein|mol2

> <Gold.PLP.Fitness>
43.9384

> <Gold.PLP.PLP>
-33.0790

> <Gold.PLP.part.hbond>
-5.0000

> <Gold.PLP.part.metal>
0.0000

> <Gold.PLP.part.buried>
-0.6731

> <Gold.PLP.part.nonpolar>
-30.5569

> <Gold.PLP.part.repulsive>
2.9148

> <Gold.PLP.ligand.clash>
0.0000

> <Gold.PLP.ligand.torsion>
0.8133

> <Gold.PLP.Chemscore.Hbond>
3.1448

> <Gold.PLP.Chemscore.CHOScore>
1.0000

> <Gold.PLP.Chemscore.Metal>
0.0000

> <Gold.Chemscore.Hbonds>
donor molecule, donor type, donor heavy atom, donor atom, acceptor molecule, acceptor atom, score
      L1  H     2    26       P1 10957  0.75
      L1  H     9    33       P1 10175  0.92
      L1  H    12    34       P1 10175  1.00
      P1  H  7989  7998       L1    17  0.02
      L1  C    20    40       P1  7948  0.79

> <Gold.PLP.Chemscore.Internal.Correction>
0.0517

> <Gold.Rescore>
     Score         DG    S(hbond)    S(metal)    S(lipo)     H(rot)  DE(clash)    DE(int)     intcor
     13.37     -16.80       2.61        0.00      57.73       1.62       0.35       3.07       ----

> <Gold.Chemscore.Fitness>
13.3710

> <Gold.Chemscore.DG>
-16.7983

> <Gold.Chemscore.ZeroCoef>
-5.4800

> <Gold.Chemscore.Hbond>
2.6118

> <Gold.Chemscore.Metal>
0.0000

> <Gold.Chemscore.Lipo>
57.7286

> <Gold.Chemscore.Internal_Hbond>
0.0000

> <Gold.Chemscore.DEClash>
0.3542

> <Gold.Chemscore.DEInternal>
3.0731

> <Gold.Chemscore.Rot>
1.6248

> <Gold.Chemscore.Internal.Correction>
   9.000000E+99

> <Gold.Chemscore.Hbonds>
donor molecule, donor type, donor heavy atom, donor atom, acceptor molecule, acceptor atom, score
      L1  H     2    26       P1 10957  0.09
      L1  H     9    33       P1 10175  0.83
      L1  H    12    34       P1 10175  1.00

> <Gold.Chemscore.Hbond.Weighted>
-8.7236

> <Gold.Chemscore.Metal.Weighted>
-0.0000

> <Gold.Chemscore.Lipo.Weighted>
-6.7542

> <Gold.Chemscore.Internal_Hbond.Weighted>
0.0000

> <Gold.Chemscore.DEClash.Weighted>
0.3542

> <Gold.Chemscore.DEInternal.Weighted>
3.0731

> <Gold.Chemscore.Rot.Weighted>
4.1595

> <Gold.Chemscore.Internal.Correction.Weighted>
   9.000000E+99

> <Gold.Protein.RotatedTorsions>
[ 6907 6896 6895 6894 ] final   31.71 input  -60.11 | X-H torsion
[ 7974 7965 7964 7962 ] final    7.22 input  175.53 | X-H torsion
[ 8008 7997 7996 7995 ] final  178.13 input   59.86 | X-H torsion
[ 10167 10162 10161 10158 ] final  -48.17 input  -65.29 | X-H torsion
[ 10718 10713 10712 10709 ] final   56.98 input   66.30 | X-H torsion
[ 10763 10752 10751 10750 ] final   81.12 input  -60.55 | X-H torsion
[ 11005 11000 10999 10996 ] final  164.90 input  -57.11 | X-H torsion

> <Gold.Protein.ActiveResidues>
 VAL166  LYS551  ARG553  GLY616  TRP617  ASP618  TYR619  PRO620  LYS621  CYS622 
 ASP623  PHE694  ASN695  SER759  ASP760  ASP761  ALA762  ILE779  LEU786  VAL792 
 PHE793  MET794  SER795  GLU796  ALA797  LYS798  CYS799  TRP800  GLU811  SER814 

> <Gold.Protein.RotatedAtoms>
  152.0641  134.9575  160.0574 H   0  0  0  0  0  0  0  0  0  0  0  0  # atno 6907 bound_to 6896
  152.0927  133.4204  159.4559 H   0  0  0  0  0  0  0  0  0  0  0  0  # atno 6908 bound_to 6896
  150.6837  134.2772  159.4656 H   0  0  0  0  0  0  0  0  0  0  0  0  # atno 6909 bound_to 6896
  146.2428  140.0116  142.8406 H   0  0  0  0  0  0  0  0  0  0  0  0  # atno 7974 bound_to 7965
  156.0581  140.1341  156.9973 H   0  0  0  0  0  0  0  0  0  0  0  0  # atno 8008 bound_to 7997
  154.4468  140.0997  156.6546 H   0  0  0  0  0  0  0  0  0  0  0  0  # atno 8009 bound_to 7997
  155.5420  140.3461  155.4451 H   0  0  0  0  0  0  0  0  0  0  0  0  # atno 8010 bound_to 7997
  140.6743  143.2752  151.4032 H   0  0  0  0  0  0  0  0  0  0  0  0  # atno 10167 bound_to 10162
  157.5477  130.8742  149.8915 H   0  0  0  0  0  0  0  0  0  0  0  0  # atno 10718 bound_to 10713
  153.1090  135.4777  154.9002 H   0  0  0  0  0  0  0  0  0  0  0  0  # atno 10763 bound_to 10752
  154.7461  135.3094  154.8645 H   0  0  0  0  0  0  0  0  0  0  0  0  # atno 10764 bound_to 10752
  153.9240  135.6852  153.4800 H   0  0  0  0  0  0  0  0  0  0  0  0  # atno 10765 bound_to 10752
  140.2506  134.7979  157.3498 H   0  0  0  0  0  0  0  0  0  0  0  0  # atno 11005 bound_to 11000
  145.1322  140.9524  143.4537 LP  0  0  0  0  0  0  0  0  0  0  0  0  # atno 17320 bound_to 7965
  145.0376  139.3287  143.5993 LP  0  0  0  0  0  0  0  0  0  0  0  0  # atno 17321 bound_to 7965
  139.6027  144.1262  152.2215 LP  0  0  0  0  0  0  0  0  0  0  0  0  # atno 17342 bound_to 10162
  140.0651  144.5825  150.7233 LP  0  0  0  0  0  0  0  0  0  0  0  0  # atno 17343 bound_to 10162
  156.0549  130.3710  150.1114 LP  0  0  0  0  0  0  0  0  0  0  0  0  # atno 17370 bound_to 10713
  156.9289  130.9707  151.3536 LP  0  0  0  0  0  0  0  0  0  0  0  0  # atno 17371 bound_to 10713
  140.1561  134.4787  155.7927 LP  0  0  0  0  0  0  0  0  0  0  0  0  # atno 17394 bound_to 11000
  141.2201  133.6882  156.7464 LP  0  0  0  0  0  0  0  0  0  0  0  0  # atno 17395 bound_to 11000

$$$$
