AV-unprocessed.smi:2131|AV-procd|sdf|8688|dock7
  -GOLD-   2272011443D 1   1.00000     0.00000
 Structure written by MMmdl.
 40 42  0  0  0  0  0  0  0  0  1 V2000
  143.7353  147.4370  155.3613 N   0  0  0  0  0  0  0  0  0  0  0  0
  143.3540  146.3587  155.1864 C   0  0  0  0  0  0  0  0  0  0  0  0
  142.8697  144.9879  154.9637 C   0  0  0  0  0  0  0  0  0  0  0  0
  143.9912  143.9722  155.0273 C   0  0  0  0  0  0  0  0  0  0  0  0
  144.0844  143.0874  156.1190 C   0  0  0  0  0  0  0  0  0  0  0  0
  145.1290  142.1450  156.1763 C   0  0  0  0  0  0  0  0  0  0  0  0
  146.0917  142.0695  155.1488 C   0  0  0  0  0  0  0  0  0  0  0  0
  147.0781  141.1166  155.2854 O   0  0  0  0  0  0  0  0  0  0  0  0
  148.0855  141.0410  154.2849 C   0  0  0  0  0  0  0  0  0  0  0  0
  149.3953  140.5694  154.9332 C   0  0  1  0  0  0  0  0  0  0  0  0
  150.2232  140.0186  153.9279 O   0  0  0  0  0  0  0  0  0  0  0  0
  150.1390  141.7114  155.6533 C   0  0  0  0  0  0  0  0  0  0  0  0
  151.0672  141.2234  156.6571 N   0  0  0  0  0  0  0  0  0  0  0  0
  151.7938  140.0900  156.6120 C   0  0  0  0  0  0  0  0  0  0  0  0
  152.5886  139.8347  157.6473 N   0  0  0  0  0  0  0  0  0  0  0  0
  152.3536  140.9324  158.4574 C   0  0  0  0  0  0  0  0  0  0  0  0
  152.8917  141.2737  159.7189 C   0  0  0  0  0  0  0  0  0  0  0  0
  152.4956  142.4623  160.3666 C   0  0  0  0  0  0  0  0  0  0  0  0
  151.5593  143.3277  159.7640 C   0  0  0  0  0  0  0  0  0  0  0  0
  151.0107  143.0099  158.5066 C   0  0  0  0  0  0  0  0  0  0  0  0
  151.4072  141.8218  157.8651 C   0  0  0  0  0  0  0  0  0  0  0  0
  145.9916  142.9635  154.0527 C   0  0  0  0  0  0  0  0  0  0  0  0
  144.9485  143.9084  153.9961 C   0  0  0  0  0  0  0  0  0  0  0  0
  142.1149  144.7613  155.7171 H   0  0  0  0  0  0  0  0  0  0  0  0
  142.3829  144.9475  153.9891 H   0  0  0  0  0  0  0  0  0  0  0  0
  143.3560  143.1296  156.9156 H   0  0  0  0  0  0  0  0  0  0  0  0
  145.1923  141.4724  157.0191 H   0  0  0  0  0  0  0  0  0  0  0  0
  147.7783  140.3281  153.5175 H   0  0  0  0  0  0  0  0  0  0  0  0
  148.2324  142.0113  153.8072 H   0  0  0  0  0  0  0  0  0  0  0  0
  149.1710  139.7726  155.6434 H   0  0  0  0  0  0  0  0  0  0  0  0
  149.7698  140.0794  153.1008 H   0  0  0  0  0  0  0  0  0  0  0  0
  150.6886  142.3219  154.9350 H   0  0  0  0  0  0  0  0  0  0  0  0
  149.4275  142.3751  156.1459 H   0  0  0  0  0  0  0  0  0  0  0  0
  151.7335  139.4122  155.7728 H   0  0  0  0  0  0  0  0  0  0  0  0
  153.6105  140.6191  160.1893 H   0  0  0  0  0  0  0  0  0  0  0  0
  152.9125  142.7117  161.3311 H   0  0  0  0  0  0  0  0  0  0  0  0
  151.2622  144.2356  160.2681 H   0  0  0  0  0  0  0  0  0  0  0  0
  150.2936  143.6702  158.0414 H   0  0  0  0  0  0  0  0  0  0  0  0
  146.7031  142.9457  153.2412 H   0  0  0  0  0  0  0  0  0  0  0  0
  144.8852  144.5855  153.1569 H   0  0  0  0  0  0  0  0  0  0  0  0
  1  2  3  0  0  0  0
  2  3  1  0  0  0  0
  3  4  1  0  0  0  0
  3 24  1  0  0  0  0
  3 25  1  0  0  0  0
  4 23  1  0  0  0  0
  4  5  2  0  0  0  0
  5  6  1  0  0  0  0
  5 26  1  0  0  0  0
  6  7  2  0  0  0  0
  6 27  1  0  0  0  0
  7  8  1  0  0  0  0
  7 22  1  0  0  0  0
  8  9  1  0  0  0  0
  9 10  1  0  0  0  0
  9 28  1  0  0  0  0
  9 29  1  0  0  0  0
 10 11  1  0  0  0  0
 10 12  1  0  0  0  0
 10 30  1  0  0  0  0
 11 31  1  0  0  0  0
 12 13  1  0  0  0  0
 12 32  1  0  0  0  0
 12 33  1  0  0  0  0
 13 21  1  0  0  0  0
 13 14  1  0  0  0  0
 14 15  2  0  0  0  0
 14 34  1  0  0  0  0
 15 16  1  0  0  0  0
 16 21  2  0  0  0  0
 16 17  1  0  0  0  0
 17 18  2  0  0  0  0
 17 35  1  0  0  0  0
 18 19  1  0  0  0  0
 18 36  1  0  0  0  0
 19 20  2  0  0  0  0
 19 37  1  0  0  0  0
 20 21  1  0  0  0  0
 20 38  1  0  0  0  0
 22 23  2  0  0  0  0
 22 39  1  0  0  0  0
 23 40  1  0  0  0  0
M  END
> <s_m_source_file>
AV-unprocessed.smi

> <i_m_source_file_index>
2131

> <i_lp_mmshare_version>
43012

> <i_f3d_flags>
0

> <s_epik_input>
TiNDW0NIMl1jMVtjSF1bY0hdYyhbY0hdW2NIXTEpT1tDSDJdW0NASF0oW09IXSlbQ0gyXW4oW2NIXW4yKWMoYzIzKVtjSF1bY0hdW2NIXVtjSF0z

> <s_epik_cmdline>
J2VwaWtfcHl0aG9uJywgJy1waCcsICc3LjAnLCAnLXRuJywgJzgnLCAnLW1hJywgJzIwMCcsICctbWV0YWxfYmluZGluZycsICctaW1hZScsICc8aW5maWxlLm1hZT4nLCAnLW9tYWUnLCAnPG91dGZpbGUubWFlPic=

> <r_lp_tautomer_probability>
1

> <r_epik_Ionization_Penalty>
0.0609831

> <r_epik_Ionization_Penalty_Charging>
0

> <r_epik_Ionization_Penalty_Neutral>
0.0609831

> <r_epik_State_Penalty>
0.0529032

> <r_epik_Charging_Adjusted_Penalty>
0.0529032

> <i_epik_Tot_Q>
0

> <i_epik_Tot_abs_Q>
0

> <r_epik_Metal_State_Penalty>
5.53344e-05

> <b_epik_Metal_Only>
0

> <s_lp_Force_Field>
OPLS_2005

> <r_lp_Energy>
14.7938

> <b_lp_Chiralities_Consistent>
1

> <s_lp_Variant>
AV-unprocessed.smi:2131-2

> <Gold.Version>
5.8.1

> <Gold.Id.Protein>
6NUR|6NUR_protein|mol2

> <Gold.PLP.Fitness>
56.6197

> <Gold.PLP.PLP>
-49.9510

> <Gold.PLP.part.hbond>
-3.7123

> <Gold.PLP.part.metal>
0.0000

> <Gold.PLP.part.buried>
-7.5660

> <Gold.PLP.part.nonpolar>
-38.9238

> <Gold.PLP.part.repulsive>
0.1194

> <Gold.PLP.ligand.clash>
0.0000

> <Gold.PLP.ligand.torsion>
1.0887

> <Gold.PLP.Chemscore.Hbond>
2.9280

> <Gold.PLP.Chemscore.CHOScore>
0.0000

> <Gold.PLP.Chemscore.Metal>
0.0000

> <Gold.Chemscore.Hbonds>
donor molecule, donor type, donor heavy atom, donor atom, acceptor molecule, acceptor atom, score
      L1  H    11    31       P1  7957  1.00
      P1  H  7989  7998       L1    11  0.80
      P1  H  7997  8010       L1    15  0.96

> <Gold.PLP.Chemscore.Internal.Correction>
0.0622

> <Gold.Rescore>
     Score         DG    S(hbond)    S(metal)    S(lipo)     H(rot)  DE(clash)    DE(int)     intcor
     16.78     -17.97       2.15        0.00     104.93       2.72       0.16       1.03       ----

> <Gold.Chemscore.Fitness>
16.7813

> <Gold.Chemscore.DG>
-17.9714

> <Gold.Chemscore.ZeroCoef>
-5.4800

> <Gold.Chemscore.Hbond>
2.1479

> <Gold.Chemscore.Metal>
0.0000

> <Gold.Chemscore.Lipo>
104.9267

> <Gold.Chemscore.Internal_Hbond>
0.0000

> <Gold.Chemscore.DEClash>
0.1602

> <Gold.Chemscore.DEInternal>
1.0299

> <Gold.Chemscore.Rot>
2.7183

> <Gold.Chemscore.Internal.Correction>
   9.000000E+99

> <Gold.Chemscore.Hbonds>
donor molecule, donor type, donor heavy atom, donor atom, acceptor molecule, acceptor atom, score
      L1  H    11    31       P1  7957  0.97
      P1  H  7989  7998       L1    11  0.13
      P1  H  7997  8010       L1    15  0.19

> <Gold.Chemscore.Hbond.Weighted>
-7.1738

> <Gold.Chemscore.Metal.Weighted>
-0.0000

> <Gold.Chemscore.Lipo.Weighted>
-12.2764

> <Gold.Chemscore.Internal_Hbond.Weighted>
0.0000

> <Gold.Chemscore.DEClash.Weighted>
0.1602

> <Gold.Chemscore.DEInternal.Weighted>
1.0299

> <Gold.Chemscore.Rot.Weighted>
6.9588

> <Gold.Chemscore.Internal.Correction.Weighted>
   9.000000E+99

> <Gold.Protein.RotatedTorsions>
[ 6907 6896 6895 6894 ] final   57.30 input  -60.11 | X-H torsion
[ 7974 7965 7964 7962 ] final   10.54 input  175.53 | X-H torsion
[ 8008 7997 7996 7995 ] final   47.90 input   59.86 | X-H torsion
[ 10167 10162 10161 10158 ] final   69.97 input  -65.29 | X-H torsion
[ 10718 10713 10712 10709 ] final  -74.24 input   66.30 | X-H torsion
[ 10763 10752 10751 10750 ] final  -55.73 input  -60.55 | X-H torsion
[ 11005 11000 10999 10996 ] final  -45.13 input  -57.11 | X-H torsion

> <Gold.Protein.ActiveResidues>
 VAL166  LYS551  ARG553  GLY616  TRP617  ASP618  TYR619  PRO620  LYS621  CYS622 
 ASP623  PHE694  ASN695  SER759  ASP760  ASP761  ALA762  ILE779  LEU786  VAL792 
 PHE793  MET794  SER795  GLU796  ALA797  LYS798  CYS799  TRP800  GLU811  SER814 

> <Gold.Protein.RotatedAtoms>
  152.3718  134.6722  160.0173 H   0  0  0  0  0  0  0  0  0  0  0  0  # atno 6907 bound_to 6896
  151.7013  133.3306  159.3275 H   0  0  0  0  0  0  0  0  0  0  0  0  # atno 6908 bound_to 6896
  150.7679  134.6548  159.6352 H   0  0  0  0  0  0  0  0  0  0  0  0  # atno 6909 bound_to 6896
  146.2386  139.9619  142.8457 H   0  0  0  0  0  0  0  0  0  0  0  0  # atno 7974 bound_to 7965
  155.3766  140.3426  155.4245 H   0  0  0  0  0  0  0  0  0  0  0  0  # atno 8008 bound_to 7997
  156.1633  140.1608  156.8608 H   0  0  0  0  0  0  0  0  0  0  0  0  # atno 8009 bound_to 7997
  154.5161  140.0778  156.8065 H   0  0  0  0  0  0  0  0  0  0  0  0  # atno 8010 bound_to 7997
  140.0620  144.5225  150.7287 H   0  0  0  0  0  0  0  0  0  0  0  0  # atno 10167 bound_to 10162
  156.0250  130.4412  150.2863 H   0  0  0  0  0  0  0  0  0  0  0  0  # atno 10718 bound_to 10713
  154.1954  135.6420  153.5071 H   0  0  0  0  0  0  0  0  0  0  0  0  # atno 10763 bound_to 10752
  153.0025  135.5438  154.6372 H   0  0  0  0  0  0  0  0  0  0  0  0  # atno 10764 bound_to 10752
  154.5771  135.2922  155.0743 H   0  0  0  0  0  0  0  0  0  0  0  0  # atno 10765 bound_to 10752
  141.0496  133.6748  156.2970 H   0  0  0  0  0  0  0  0  0  0  0  0  # atno 11005 bound_to 11000
  145.1763  140.9745  143.4292 LP  0  0  0  0  0  0  0  0  0  0  0  0  # atno 17320 bound_to 7965
  144.9982  139.3623  143.6180 LP  0  0  0  0  0  0  0  0  0  0  0  0  # atno 17321 bound_to 7965
  140.7167  143.2551  151.4410 LP  0  0  0  0  0  0  0  0  0  0  0  0  # atno 17342 bound_to 10162
  139.5888  144.1545  152.2062 LP  0  0  0  0  0  0  0  0  0  0  0  0  # atno 17343 bound_to 10162
  157.0966  131.0184  151.3101 LP  0  0  0  0  0  0  0  0  0  0  0  0  # atno 17370 bound_to 10713
  157.4812  130.7766  149.7416 LP  0  0  0  0  0  0  0  0  0  0  0  0  # atno 17371 bound_to 10713
  140.6081  134.5486  157.5529 LP  0  0  0  0  0  0  0  0  0  0  0  0  # atno 17394 bound_to 11000
  139.9339  134.7911  156.0855 LP  0  0  0  0  0  0  0  0  0  0  0  0  # atno 17395 bound_to 11000

$$$$
