AV-unprocessed.smi:484|AV-procd|sdf|2689|dock5
  -GOLD-   2262023123D 1   1.00000     0.00000
 Structure written by MMmdl.
 47 49  0  0  0  0  0  0  0  0  2 V2000
  155.1073  142.3455  164.3639 C   0  0  0  0  0  0  0  0  0  0  0  0
  154.1153  143.3959  163.8526 C   0  0  0  0  0  0  0  0  0  0  0  0
  153.5201  143.0185  162.5093 C   0  0  0  0  0  0  0  0  0  0  0  0
  152.5858  143.8674  161.8832 C   0  0  0  0  0  0  0  0  0  0  0  0
  152.0360  143.5154  160.6357 C   0  0  0  0  0  0  0  0  0  0  0  0
  152.4069  142.3154  159.9954 C   0  0  0  0  0  0  0  0  0  0  0  0
  151.8172  142.0490  158.7785 O   0  0  0  0  0  0  0  0  0  0  0  0
  152.2496  140.9037  158.0546 C   0  0  0  0  0  0  0  0  0  0  0  0
  151.5059  140.8274  156.7117 C   0  0  2  0  0  0  0  0  0  0  0  0
  151.2282  142.1377  156.2604 O   0  0  0  0  0  0  0  0  0  0  0  0
  150.2357  139.9534  156.7595 C   0  0  0  0  0  0  0  0  0  0  0  0
  149.7613  139.5653  155.4218 N   0  0  0  0  0  0  0  0  0  0  0  0
  150.2084  138.5846  154.5862 C   0  0  0  0  0  0  0  0  0  0  0  0
  151.3328  137.6351  154.8540 C   0  0  0  0  0  0  0  0  0  0  0  0
  151.2123  136.4144  154.1536 O   0  0  0  0  0  0  0  0  0  0  0  0
  149.4347  138.6293  153.4639 N   0  3  0  0  0  0  0  0  0  0  0  0
  148.4881  139.6473  153.5807 C   0  0  0  0  0  0  0  0  0  0  0  0
  147.4950  140.0724  152.7035 C   0  0  0  0  0  0  0  0  0  0  0  0
  146.6909  141.1488  153.1318 C   0  0  0  0  0  0  0  0  0  0  0  0
  146.8900  141.7596  154.3869 C   0  0  0  0  0  0  0  0  0  0  0  0
  147.9005  141.3200  155.2672 C   0  0  0  0  0  0  0  0  0  0  0  0
  148.6908  140.2539  154.8374 C   0  0  0  0  0  0  0  0  0  0  0  0
  153.3490  141.4662  160.6289 C   0  0  0  0  0  0  0  0  0  0  0  0
  153.9003  141.8182  161.8763 C   0  0  0  0  0  0  0  0  0  0  0  0
  155.5195  142.6386  165.3295 H   0  0  0  0  0  0  0  0  0  0  0  0
  155.9397  142.2200  163.6708 H   0  0  0  0  0  0  0  0  0  0  0  0
  154.6246  141.3757  164.4884 H   0  0  0  0  0  0  0  0  0  0  0  0
  153.3107  143.5280  164.5772 H   0  0  0  0  0  0  0  0  0  0  0  0
  154.6122  144.3632  163.7670 H   0  0  0  0  0  0  0  0  0  0  0  0
  152.2884  144.7915  162.3571 H   0  0  0  0  0  0  0  0  0  0  0  0
  151.3206  144.1738  160.1653 H   0  0  0  0  0  0  0  0  0  0  0  0
  153.3287  140.9254  157.8920 H   0  0  0  0  0  0  0  0  0  0  0  0
  152.0181  140.0081  158.6334 H   0  0  0  0  0  0  0  0  0  0  0  0
  152.1910  140.3991  155.9794 H   0  0  0  0  0  0  0  0  0  0  0  0
  150.5315  142.4940  156.7902 H   0  0  0  0  0  0  0  0  0  0  0  0
  150.4411  139.0339  157.3087 H   0  0  0  0  0  0  0  0  0  0  0  0
  149.4264  140.4487  157.2958 H   0  0  0  0  0  0  0  0  0  0  0  0
  152.2756  138.1070  154.5769 H   0  0  0  0  0  0  0  0  0  0  0  0
  151.3761  137.4268  155.9233 H   0  0  0  0  0  0  0  0  0  0  0  0
  151.2141  136.5986  153.2264 H   0  0  0  0  0  0  0  0  0  0  0  0
  147.3424  139.6066  151.7409 H   0  0  0  0  0  0  0  0  0  0  0  0
  145.9068  141.5141  152.4844 H   0  0  0  0  0  0  0  0  0  0  0  0
  146.2556  142.5833  154.6810 H   0  0  0  0  0  0  0  0  0  0  0  0
  148.0455  141.7998  156.2236 H   0  0  0  0  0  0  0  0  0  0  0  0
  153.6663  140.5380  160.1790 H   0  0  0  0  0  0  0  0  0  0  0  0
  154.6184  141.1620  162.3460 H   0  0  0  0  0  0  0  0  0  0  0  0
  149.5532  138.0045  152.6767 H   0  0  0  0  0  0  0  0  0  0  0  0
  1  2  1  0  0  0  0
  1 25  1  0  0  0  0
  1 26  1  0  0  0  0
  1 27  1  0  0  0  0
  2  3  1  0  0  0  0
  2 28  1  0  0  0  0
  2 29  1  0  0  0  0
  3 24  1  0  0  0  0
  3  4  2  0  0  0  0
  4  5  1  0  0  0  0
  4 30  1  0  0  0  0
  5  6  2  0  0  0  0
  5 31  1  0  0  0  0
  6  7  1  0  0  0  0
  6 23  1  0  0  0  0
  7  8  1  0  0  0  0
  8  9  1  0  0  0  0
  8 32  1  0  0  0  0
  8 33  1  0  0  0  0
  9 10  1  0  0  0  0
  9 11  1  0  0  0  0
  9 34  1  0  0  0  0
 10 35  1  0  0  0  0
 11 12  1  0  0  0  0
 11 36  1  0  0  0  0
 11 37  1  0  0  0  0
 12 22  1  0  0  0  0
 12 13  1  0  0  0  0
 13 14  1  0  0  0  0
 13 16  2  0  0  0  0
 14 15  1  0  0  0  0
 14 38  1  0  0  0  0
 14 39  1  0  0  0  0
 15 40  1  0  0  0  0
 16 17  1  0  0  0  0
 16 47  1  0  0  0  0
 17 22  2  0  0  0  0
 17 18  1  0  0  0  0
 18 19  2  0  0  0  0
 18 41  1  0  0  0  0
 19 20  1  0  0  0  0
 19 42  1  0  0  0  0
 20 21  2  0  0  0  0
 20 43  1  0  0  0  0
 21 22  1  0  0  0  0
 21 44  1  0  0  0  0
 23 24  2  0  0  0  0
 23 45  1  0  0  0  0
 24 46  1  0  0  0  0
M  CHG  1  16   1
M  END
> <s_m_source_file>
AV-unprocessed.smi

> <i_m_source_file_index>
484

> <i_lp_mmshare_version>
43012

> <i_f3d_flags>
0

> <s_epik_input>
W0NIM11bQ0gyXWMxW2NIXVtjSF1jKFtjSF1bY0hdMSlPW0NIMl1bQ0BIXShbT0hdKVtDSDJdbihjKG4yKVtDSDJdW09IXSljKGMyMylbY0hdW2NIXVtjSF1bY0hdMw==

> <s_epik_cmdline>
J2VwaWtfcHl0aG9uJywgJy1waCcsICc3LjAnLCAnLXRuJywgJzgnLCAnLW1hJywgJzIwMCcsICctbWV0YWxfYmluZGluZycsICctaW1hZScsICc8aW5maWxlLm1hZT4nLCAnLW9tYWUnLCAnPG91dGZpbGUubWFlPic=

> <r_lp_tautomer_probability>
1

> <r_epik_Ionization_Penalty>
1.43166

> <r_epik_Ionization_Penalty_Charging>
1.43081

> <r_epik_Ionization_Penalty_Neutral>
0.000858184

> <r_epik_State_Penalty>
1.51538

> <r_epik_Charging_Adjusted_Penalty>
2.94618

> <i_epik_Tot_Q>
1

> <i_epik_Tot_abs_Q>
1

> <r_epik_Metal_State_Penalty>
5.56039

> <b_epik_Metal_Only>
0

> <s_lp_Force_Field>
OPLS_2005

> <r_lp_Energy>
18.7475

> <b_lp_Chiralities_Consistent>
1

> <s_lp_Variant>
AV-unprocessed.smi:484-3

> <Gold.Version>
5.8.1

> <Gold.Id.Protein>
6NUR|6NUR_protein|mol2

> <Gold.PLP.Fitness>
59.3705

> <Gold.PLP.PLP>
-50.3141

> <Gold.PLP.part.hbond>
-4.7645

> <Gold.PLP.part.metal>
0.0000

> <Gold.PLP.part.buried>
3.4071

> <Gold.PLP.part.nonpolar>
-47.6626

> <Gold.PLP.part.repulsive>
0.0830

> <Gold.PLP.ligand.clash>
0.0000

> <Gold.PLP.ligand.torsion>
1.1584

> <Gold.PLP.Chemscore.Hbond>
3.7320

> <Gold.PLP.Chemscore.CHOScore>
0.0000

> <Gold.PLP.Chemscore.Metal>
0.0000

> <Gold.Chemscore.Hbonds>
donor molecule, donor type, donor heavy atom, donor atom, acceptor molecule, acceptor atom, score
      L1  H    15    40       P1  7949  0.98
      L1  H    16    47       P1  7948  1.86
      P1  H 10752 10764       L1    15  1.00

> <Gold.PLP.Chemscore.Internal.Correction>
0.1771

> <Gold.Rescore>
     Score         DG    S(hbond)    S(metal)    S(lipo)     H(rot)  DE(clash)    DE(int)     intcor
     15.17     -20.47       1.43        0.00     156.96       3.18       4.06       1.24       ----

> <Gold.Chemscore.Fitness>
15.1667

> <Gold.Chemscore.DG>
-20.4693

> <Gold.Chemscore.ZeroCoef>
-5.4800

> <Gold.Chemscore.Hbond>
1.4268

> <Gold.Chemscore.Metal>
0.0000

> <Gold.Chemscore.Lipo>
156.9633

> <Gold.Chemscore.Internal_Hbond>
0.0000

> <Gold.Chemscore.DEClash>
4.0598

> <Gold.Chemscore.DEInternal>
1.2428

> <Gold.Chemscore.Rot>
3.1801

> <Gold.Chemscore.Internal.Correction>
   9.000000E+99

> <Gold.Chemscore.Hbonds>
donor molecule, donor type, donor heavy atom, donor atom, acceptor molecule, acceptor atom, score
      L1  H    15    40       P1  7949  0.52
      L1  H    16    47       P1  7948  0.61
      P1  H 10752 10764       L1    15  0.11

> <Gold.Chemscore.Hbond.Weighted>
-4.7655

> <Gold.Chemscore.Metal.Weighted>
-0.0000

> <Gold.Chemscore.Lipo.Weighted>
-18.3647

> <Gold.Chemscore.Internal_Hbond.Weighted>
0.0000

> <Gold.Chemscore.DEClash.Weighted>
4.0598

> <Gold.Chemscore.DEInternal.Weighted>
1.2428

> <Gold.Chemscore.Rot.Weighted>
8.1410

> <Gold.Chemscore.Internal.Correction.Weighted>
   9.000000E+99

> <Gold.Protein.RotatedTorsions>
[ 6907 6896 6895 6894 ] final   34.21 input  -60.11 | X-H torsion
[ 7974 7965 7964 7962 ] final   35.08 input  175.53 | X-H torsion
[ 8008 7997 7996 7995 ] final  -66.21 input   59.86 | X-H torsion
[ 10167 10162 10161 10158 ] final  -59.96 input  -65.29 | X-H torsion
[ 10718 10713 10712 10709 ] final -101.56 input   66.30 | X-H torsion
[ 10763 10752 10751 10750 ] final  -74.74 input  -60.55 | X-H torsion
[ 11005 11000 10999 10996 ] final    5.19 input  -57.11 | X-H torsion

> <Gold.Protein.ActiveResidues>
 VAL166  LYS551  ARG553  GLY616  TRP617  ASP618  TYR619  PRO620  LYS621  CYS622 
 ASP623  PHE694  ASN695  SER759  ASP760  ASP761  ALA762  ILE779  LEU786  VAL792 
 PHE793  MET794  SER795  GLU796  ALA797  LYS798  CYS799  TRP800  GLU811  SER814 

> <Gold.Protein.RotatedAtoms>
  152.0993  134.9353  160.0569 H   0  0  0  0  0  0  0  0  0  0  0  0  # atno 6907 bound_to 6896
  152.0574  133.4041  159.4411 H   0  0  0  0  0  0  0  0  0  0  0  0  # atno 6908 bound_to 6896
  150.6839  134.3160  159.4810 H   0  0  0  0  0  0  0  0  0  0  0  0  # atno 6909 bound_to 6896
  146.1308  139.6188  142.9228 H   0  0  0  0  0  0  0  0  0  0  0  0  # atno 7974 bound_to 7965
  154.4720  140.0917  156.7169 H   0  0  0  0  0  0  0  0  0  0  0  0  # atno 8008 bound_to 7997
  155.4698  140.3464  155.4306 H   0  0  0  0  0  0  0  0  0  0  0  0  # atno 8009 bound_to 7997
  156.1055  140.1433  156.9398 H   0  0  0  0  0  0  0  0  0  0  0  0  # atno 8010 bound_to 7997
  140.6102  143.2385  151.5728 H   0  0  0  0  0  0  0  0  0  0  0  0  # atno 10167 bound_to 10162
  156.0199  130.5379  150.6981 H   0  0  0  0  0  0  0  0  0  0  0  0  # atno 10718 bound_to 10713
  154.4772  135.5854  153.6363 H   0  0  0  0  0  0  0  0  0  0  0  0  # atno 10763 bound_to 10752
  152.9842  135.6081  154.3293 H   0  0  0  0  0  0  0  0  0  0  0  0  # atno 10764 bound_to 10752
  154.3180  135.2844  155.2513 H   0  0  0  0  0  0  0  0  0  0  0  0  # atno 10765 bound_to 10752
  140.5735  134.0080  155.8018 H   0  0  0  0  0  0  0  0  0  0  0  0  # atno 11005 bound_to 11000
  145.5264  141.0429  143.2407 LP  0  0  0  0  0  0  0  0  0  0  0  0  # atno 17320 bound_to 7965
  144.7689  139.6781  143.7203 LP  0  0  0  0  0  0  0  0  0  0  0  0  # atno 17321 bound_to 7965
  139.5355  144.2793  152.1242 LP  0  0  0  0  0  0  0  0  0  0  0  0  # atno 17342 bound_to 10162
  140.1991  144.4676  150.6440 LP  0  0  0  0  0  0  0  0  0  0  0  0  # atno 17343 bound_to 10162
  157.4647  131.0887  151.0707 LP  0  0  0  0  0  0  0  0  0  0  0  0  # atno 17370 bound_to 10713
  157.1185  130.6051  149.5499 LP  0  0  0  0  0  0  0  0  0  0  0  0  # atno 17371 bound_to 10713
  141.1041  133.9721  157.3027 LP  0  0  0  0  0  0  0  0  0  0  0  0  # atno 17394 bound_to 11000
  139.9351  135.0197  156.8528 LP  0  0  0  0  0  0  0  0  0  0  0  0  # atno 17395 bound_to 11000

$$$$
