AV-unprocessed.smi:2006|AV-procd|sdf|8129|dock3
  -GOLD-   2272010363D 1   1.00000     0.00000
 Structure written by MMmdl.
 33 34  0  0  0  0  0  0  0  0  2 V2000
  153.3692  142.5989  161.3163 C   0  0  0  0  0  0  0  0  0  0  0  0
  152.3023  142.9288  160.2675 C   0  0  2  0  0  0  0  0  0  0  0  0
  152.2975  141.9132  159.1090 C   0  0  0  0  0  0  0  0  0  0  0  0
  151.3305  142.3142  158.0948 N   0  0  0  0  0  0  0  0  0  0  0  0
  151.1795  141.3739  157.0662 C   0  0  0  0  0  0  0  0  0  0  0  0
  150.0759  141.4851  156.1945 C   0  0  0  0  0  0  0  0  0  0  0  0
  149.9223  140.5316  155.1700 C   0  0  0  0  0  0  0  0  0  0  0  0
  150.8751  139.4991  155.0529 C   0  0  0  0  0  0  0  0  0  0  0  0
  150.7505  138.4417  153.9746 C   0  0  0  0  0  0  0  0  0  0  0  0
  149.5088  138.6198  153.2037 N   0  3  0  0  0  0  0  0  0  0  0  0
  151.9481  139.4770  155.9685 C   0  0  0  0  0  0  0  0  0  0  0  0
  152.1007  140.3866  156.9537 N   0  0  0  0  0  0  0  0  0  0  0  0
  151.5569  143.6722  157.6168 C   0  0  0  0  0  0  0  0  0  0  0  0
  151.5858  144.6487  158.8048 C   0  0  0  0  0  0  0  0  0  0  0  0
  152.5705  144.2286  159.7456 O   0  0  0  0  0  0  0  0  0  0  0  0
  153.2016  141.6122  161.7489 H   0  0  0  0  0  0  0  0  0  0  0  0
  153.3535  143.3249  162.1294 H   0  0  0  0  0  0  0  0  0  0  0  0
  154.3684  142.6086  160.8796 H   0  0  0  0  0  0  0  0  0  0  0  0
  151.3258  142.9344  160.7548 H   0  0  0  0  0  0  0  0  0  0  0  0
  153.2922  141.8498  158.6651 H   0  0  0  0  0  0  0  0  0  0  0  0
  152.0464  140.9195  159.4820 H   0  0  0  0  0  0  0  0  0  0  0  0
  149.3589  142.2851  156.3095 H   0  0  0  0  0  0  0  0  0  0  0  0
  149.0851  140.5926  154.4904 H   0  0  0  0  0  0  0  0  0  0  0  0
  151.6046  138.4957  153.2989 H   0  0  0  0  0  0  0  0  0  0  0  0
  150.7568  137.4484  154.4246 H   0  0  0  0  0  0  0  0  0  0  0  0
  148.7399  138.7891  153.8365 H   0  0  0  0  0  0  0  0  0  0  0  0
  149.3237  137.7857  152.6650 H   0  0  0  0  0  0  0  0  0  0  0  0
  152.7009  138.7044  155.9150 H   0  0  0  0  0  0  0  0  0  0  0  0
  152.5030  143.7211  157.0758 H   0  0  0  0  0  0  0  0  0  0  0  0
  150.7689  143.9549  156.9178 H   0  0  0  0  0  0  0  0  0  0  0  0
  151.8298  145.6532  158.4597 H   0  0  0  0  0  0  0  0  0  0  0  0
  150.6083  144.7059  159.2865 H   0  0  0  0  0  0  0  0  0  0  0  0
  149.6094  139.4072  152.5790 H   0  0  0  0  0  0  0  0  0  0  0  0
  1  2  1  0  0  0  0
  1 16  1  0  0  0  0
  1 17  1  0  0  0  0
  1 18  1  0  0  0  0
  2 15  1  0  0  0  0
  2  3  1  0  0  0  0
  2 19  1  0  0  0  0
  3  4  1  0  0  0  0
  3 20  1  0  0  0  0
  3 21  1  0  0  0  0
  4  5  1  0  0  0  0
  4 13  1  0  0  0  0
  5 12  1  0  0  0  0
  5  6  2  0  0  0  0
  6  7  1  0  0  0  0
  6 22  1  0  0  0  0
  7  8  2  0  0  0  0
  7 23  1  0  0  0  0
  8  9  1  0  0  0  0
  8 11  1  0  0  0  0
  9 10  1  0  0  0  0
  9 24  1  0  0  0  0
  9 25  1  0  0  0  0
 10 26  1  0  0  0  0
 10 27  1  0  0  0  0
 10 33  1  0  0  0  0
 11 12  2  0  0  0  0
 11 28  1  0  0  0  0
 13 14  1  0  0  0  0
 13 29  1  0  0  0  0
 13 30  1  0  0  0  0
 14 15  1  0  0  0  0
 14 31  1  0  0  0  0
 14 32  1  0  0  0  0
M  CHG  1  10   1
M  END
> <s_m_source_file>
AV-unprocessed.smi

> <i_m_source_file_index>
2006

> <i_lp_mmshare_version>
43012

> <i_f3d_flags>
0

> <s_epik_input>
W0NIM11bQ0BASF0xW0NIMl1OKFtDSDJdW0NIMl1PMSljMltjSF1bY0hdYyhbY0hdbjIpW0NIMl1bTkgyXQ==

> <s_epik_cmdline>
J2VwaWtfcHl0aG9uJywgJy1waCcsICc3LjAnLCAnLXRuJywgJzgnLCAnLW1hJywgJzIwMCcsICctbWV0YWxfYmluZGluZycsICctaW1hZScsICc8aW5maWxlLm1hZT4nLCAnLW9tYWUnLCAnPG91dGZpbGUubWFlPic=

> <r_lp_tautomer_probability>
1

> <r_epik_Ionization_Penalty>
0.0608602

> <r_epik_Ionization_Penalty_Charging>
0.059977

> <r_epik_Ionization_Penalty_Neutral>
0.000883197

> <r_epik_State_Penalty>
0.0524157

> <r_epik_Charging_Adjusted_Penalty>
0.112393

> <i_epik_Tot_Q>
1

> <i_epik_Tot_abs_Q>
1

> <r_epik_Metal_State_Penalty>
0.0524947

> <b_epik_Metal_Only>
0

> <s_lp_Force_Field>
OPLS_2005

> <r_lp_Energy>
16.9798

> <b_lp_Chiralities_Consistent>
1

> <s_lp_Variant>
AV-unprocessed.smi:2006-1

> <Gold.Version>
5.8.1

> <Gold.Id.Protein>
6NUR|6NUR_protein|mol2

> <Gold.PLP.Fitness>
44.8417

> <Gold.PLP.PLP>
-35.9161

> <Gold.PLP.part.hbond>
-2.1109

> <Gold.PLP.part.metal>
0.0000

> <Gold.PLP.part.buried>
-3.7797

> <Gold.PLP.part.nonpolar>
-29.3275

> <Gold.PLP.part.repulsive>
0.1584

> <Gold.PLP.ligand.clash>
0.0000

> <Gold.PLP.ligand.torsion>
0.2023

> <Gold.PLP.Chemscore.Hbond>
3.0761

> <Gold.PLP.Chemscore.CHOScore>
0.0000

> <Gold.PLP.Chemscore.Metal>
0.0000

> <Gold.Chemscore.Hbonds>
donor molecule, donor type, donor heavy atom, donor atom, acceptor molecule, acceptor atom, score
      L1  H    10    27       P1  7948  2.00
      L1  H    10    33       P1  7957  1.00
      P1  H  7997  8009       L1    12  0.10

> <Gold.PLP.Chemscore.Internal.Correction>
0.1019

> <Gold.Rescore>
     Score         DG    S(hbond)    S(metal)    S(lipo)     H(rot)  DE(clash)    DE(int)     intcor
     19.50     -19.77       1.98        0.00      94.11       1.30       0.04       0.23       ----

> <Gold.Chemscore.Fitness>
19.5034

> <Gold.Chemscore.DG>
-19.7689

> <Gold.Chemscore.ZeroCoef>
-5.4800

> <Gold.Chemscore.Hbond>
1.9811

> <Gold.Chemscore.Metal>
0.0000

> <Gold.Chemscore.Lipo>
94.1149

> <Gold.Chemscore.Internal_Hbond>
0.0000

> <Gold.Chemscore.DEClash>
0.0402

> <Gold.Chemscore.DEInternal>
0.2252

> <Gold.Chemscore.Rot>
1.3045

> <Gold.Chemscore.Internal.Correction>
   9.000000E+99

> <Gold.Chemscore.Hbonds>
donor molecule, donor type, donor heavy atom, donor atom, acceptor molecule, acceptor atom, score
      L1  H    10    27       P1  7948  0.91
      L1  H    10    33       P1  7957  0.90

> <Gold.Chemscore.Hbond.Weighted>
-6.6169

> <Gold.Chemscore.Metal.Weighted>
-0.0000

> <Gold.Chemscore.Lipo.Weighted>
-11.0114

> <Gold.Chemscore.Internal_Hbond.Weighted>
0.0000

> <Gold.Chemscore.DEClash.Weighted>
0.0402

> <Gold.Chemscore.DEInternal.Weighted>
0.2252

> <Gold.Chemscore.Rot.Weighted>
3.3395

> <Gold.Chemscore.Internal.Correction.Weighted>
   9.000000E+99

> <Gold.Protein.RotatedTorsions>
[ 6907 6896 6895 6894 ] final -127.54 input  -60.11 | X-H torsion
[ 7974 7965 7964 7962 ] final  120.01 input  175.53 | X-H torsion
[ 8008 7997 7996 7995 ] final -178.20 input   59.86 | X-H torsion
[ 10167 10162 10161 10158 ] final -115.07 input  -65.29 | X-H torsion
[ 10718 10713 10712 10709 ] final  117.89 input   66.30 | X-H torsion
[ 10763 10752 10751 10750 ] final -157.18 input  -60.55 | X-H torsion
[ 11005 11000 10999 10996 ] final  -14.85 input  -57.11 | X-H torsion

> <Gold.Protein.ActiveResidues>
 VAL166  LYS551  ARG553  GLY616  TRP617  ASP618  TYR619  PRO620  LYS621  CYS622 
 ASP623  PHE694  ASN695  SER759  ASP760  ASP761  ALA762  ILE779  LEU786  VAL792 
 PHE793  MET794  SER795  GLU796  ALA797  LYS798  CYS799  TRP800  GLU811  SER814 

> <Gold.Protein.RotatedAtoms>
  150.9083  133.7029  159.2860 H   0  0  0  0  0  0  0  0  0  0  0  0  # atno 6907 bound_to 6896
  151.4525  135.1030  159.9711 H   0  0  0  0  0  0  0  0  0  0  0  0  # atno 6908 bound_to 6896
  152.4916  133.8466  159.7235 H   0  0  0  0  0  0  0  0  0  0  0  0  # atno 6909 bound_to 6896
  145.1363  139.3296  143.4639 H   0  0  0  0  0  0  0  0  0  0  0  0  # atno 7974 bound_to 7965
  156.0160  140.1251  157.0406 H   0  0  0  0  0  0  0  0  0  0  0  0  # atno 8008 bound_to 7997
  154.4293  140.1078  156.5966 H   0  0  0  0  0  0  0  0  0  0  0  0  # atno 8009 bound_to 7997
  155.6012  140.3470  155.4597 H   0  0  0  0  0  0  0  0  0  0  0  0  # atno 8010 bound_to 7997
  140.0941  143.4673  152.1852 H   0  0  0  0  0  0  0  0  0  0  0  0  # atno 10167 bound_to 10162
  157.6066  131.1042  150.7679 H   0  0  0  0  0  0  0  0  0  0  0  0  # atno 10718 bound_to 10713
  154.7656  135.3130  154.8292 H   0  0  0  0  0  0  0  0  0  0  0  0  # atno 10763 bound_to 10752
  153.9041  135.6812  153.4758 H   0  0  0  0  0  0  0  0  0  0  0  0  # atno 10764 bound_to 10752
  153.1262  135.4800  154.9208 H   0  0  0  0  0  0  0  0  0  0  0  0  # atno 10765 bound_to 10752
  140.7906  133.8291  155.9376 H   0  0  0  0  0  0  0  0  0  0  0  0  # atno 11005 bound_to 11000
  146.3509  140.1382  142.8595 LP  0  0  0  0  0  0  0  0  0  0  0  0  # atno 17320 bound_to 7965
  145.0580  140.9067  143.4955 LP  0  0  0  0  0  0  0  0  0  0  0  0  # atno 17321 bound_to 7965
  139.5708  144.7461  151.3896 LP  0  0  0  0  0  0  0  0  0  0  0  0  # atno 17342 bound_to 10162
  140.7013  143.7624  150.7408 LP  0  0  0  0  0  0  0  0  0  0  0  0  # atno 17343 bound_to 10162
  156.8066  130.4938  149.5362 LP  0  0  0  0  0  0  0  0  0  0  0  0  # atno 17370 bound_to 10713
  156.1155  130.6072  151.0114 LP  0  0  0  0  0  0  0  0  0  0  0  0  # atno 17371 bound_to 10713
  140.9393  134.1922  157.4809 LP  0  0  0  0  0  0  0  0  0  0  0  0  # atno 17394 bound_to 11000
  139.8731  134.9865  156.5327 LP  0  0  0  0  0  0  0  0  0  0  0  0  # atno 17395 bound_to 11000

$$$$
