AV-unprocessed.smi:130|AV-procd|sdf|1160|dock9
  -GOLD-   2262018303D 1   1.00000     0.00000
 Structure written by MMmdl.
 44 47  0  0  0  0  0  0  0  0  1 V2000
  153.5053  139.9439  158.4129 O   0  0  0  0  0  0  0  0  0  0  0  0
  153.9355  139.9221  159.5667 C   0  0  0  0  0  0  0  0  0  0  0  0
  154.8052  138.7266  160.0148 C   0  0  0  0  0  0  0  0  0  0  0  0
  154.9301  137.6648  158.9909 N   0  0  0  0  0  0  0  0  0  0  0  0
  154.1304  136.5011  159.1145 C   0  0  0  0  0  0  0  0  0  0  0  0
  153.3311  136.3711  160.0428 O   0  0  0  0  0  0  0  0  0  0  0  0
  154.3314  135.4864  158.0862 C   0  0  0  0  0  0  0  0  0  0  0  0
  153.6205  134.3467  158.1279 F   0  0  0  0  0  0  0  0  0  0  0  0
  155.2254  135.6709  157.0931 C   0  0  0  0  0  0  0  0  0  0  0  0
  155.9960  136.8140  156.9824 N   0  0  0  0  0  0  0  0  0  0  0  0
  156.9986  136.9842  155.8622 C   0  0  1  0  0  0  0  0  0  0  0  0
  157.9938  135.8181  155.8581 C   0  0  0  0  0  0  0  0  0  0  0  0
  157.3599  134.8718  154.8620 C   0  0  0  0  0  0  0  0  0  0  0  0
  156.7454  135.8457  153.8630 C   0  0  0  0  0  0  0  0  0  0  0  0
  156.3239  136.9660  154.6368 O   0  0  0  0  0  0  0  0  0  0  0  0
  155.8717  137.8362  157.9479 C   0  0  0  0  0  0  0  0  0  0  0  0
  156.5754  138.8470  157.8882 O   0  0  0  0  0  0  0  0  0  0  0  0
  153.6862  140.9005  160.4725 N   0  0  0  0  0  0  0  0  0  0  0  0
  154.2006  140.8806  161.8531 C   0  0  0  0  0  0  0  0  0  0  0  0
  153.6888  142.1729  162.5267 C   0  0  0  0  0  0  0  0  0  0  0  0
  152.9027  142.8360  161.4347 C   0  0  0  0  0  0  0  0  0  0  0  0
  152.2167  144.0600  161.5178 C   0  0  0  0  0  0  0  0  0  0  0  0
  151.5295  144.5190  160.3744 C   0  0  0  0  0  0  0  0  0  0  0  0
  151.5378  143.7580  159.1830 C   0  0  0  0  0  0  0  0  0  0  0  0
  152.2325  142.5302  159.1171 C   0  0  0  0  0  0  0  0  0  0  0  0
  152.9194  142.0786  160.2671 C   0  0  0  0  0  0  0  0  0  0  0  0
  155.7895  139.0975  160.3035 H   0  0  0  0  0  0  0  0  0  0  0  0
  154.3945  138.3106  160.9356 H   0  0  0  0  0  0  0  0  0  0  0  0
  155.3373  134.8817  156.3649 H   0  0  0  0  0  0  0  0  0  0  0  0
  157.4598  137.9616  156.0122 H   0  0  0  0  0  0  0  0  0  0  0  0
  158.9522  136.1806  155.4845 H   0  0  0  0  0  0  0  0  0  0  0  0
  158.1401  135.3893  156.8502 H   0  0  0  0  0  0  0  0  0  0  0  0
  158.0747  134.1868  154.4054 H   0  0  0  0  0  0  0  0  0  0  0  0
  156.5801  134.2819  155.3452 H   0  0  0  0  0  0  0  0  0  0  0  0
  157.4979  136.1794  153.1473 H   0  0  0  0  0  0  0  0  0  0  0  0
  155.9159  135.4097  153.3057 H   0  0  0  0  0  0  0  0  0  0  0  0
  153.8347  140.0047  162.3902 H   0  0  0  0  0  0  0  0  0  0  0  0
  155.2911  140.8562  161.8593 H   0  0  0  0  0  0  0  0  0  0  0  0
  153.0469  141.9583  163.3816 H   0  0  0  0  0  0  0  0  0  0  0  0
  154.5080  142.8147  162.8520 H   0  0  0  0  0  0  0  0  0  0  0  0
  152.2151  144.6346  162.4324 H   0  0  0  0  0  0  0  0  0  0  0  0
  150.9941  145.4564  160.4096 H   0  0  0  0  0  0  0  0  0  0  0  0
  151.0080  144.1190  158.3140 H   0  0  0  0  0  0  0  0  0  0  0  0
  152.2195  141.9728  158.1942 H   0  0  0  0  0  0  0  0  0  0  0  0
  1  2  2  0  0  0  0
  2  3  1  0  0  0  0
  2 18  1  0  0  0  0
  3  4  1  0  0  0  0
  3 27  1  0  0  0  0
  3 28  1  0  0  0  0
  4 16  1  0  0  0  0
  4  5  1  0  0  0  0
  5  6  2  0  0  0  0
  5  7  1  0  0  0  0
  7  8  1  0  0  0  0
  7  9  2  0  0  0  0
  9 10  1  0  0  0  0
  9 29  1  0  0  0  0
 10 11  1  0  0  0  0
 10 16  1  0  0  0  0
 11 15  1  0  0  0  0
 11 12  1  0  0  0  0
 11 30  1  0  0  0  0
 12 13  1  0  0  0  0
 12 31  1  0  0  0  0
 12 32  1  0  0  0  0
 13 14  1  0  0  0  0
 13 33  1  0  0  0  0
 13 34  1  0  0  0  0
 14 15  1  0  0  0  0
 14 35  1  0  0  0  0
 14 36  1  0  0  0  0
 16 17  2  0  0  0  0
 18 26  1  0  0  0  0
 18 19  1  0  0  0  0
 19 20  1  0  0  0  0
 19 37  1  0  0  0  0
 19 38  1  0  0  0  0
 20 21  1  0  0  0  0
 20 39  1  0  0  0  0
 20 40  1  0  0  0  0
 21 26  2  0  0  0  0
 21 22  1  0  0  0  0
 22 23  2  0  0  0  0
 22 41  1  0  0  0  0
 23 24  1  0  0  0  0
 23 42  1  0  0  0  0
 24 25  2  0  0  0  0
 24 43  1  0  0  0  0
 25 26  1  0  0  0  0
 25 44  1  0  0  0  0
M  END
> <s_m_source_file>
AV-unprocessed.smi

> <i_m_source_file_index>
130

> <i_lp_mmshare_version>
43012

> <i_f3d_flags>
0

> <s_epik_input>
W2NIXTFbY0hdW2NIXVtjSF1jKGMxMilOKFtDSDJdW0NIMl0yKUMoPU8pW0NIMl1uM2MoPU8pYyhGKVtjSF1uKGMzPU8pW0NAQEhdNFtDSDJdW0NIMl1bQ0gyXU80

> <s_epik_cmdline>
J2VwaWtfcHl0aG9uJywgJy1waCcsICc3LjAnLCAnLXRuJywgJzgnLCAnLW1hJywgJzIwMCcsICctbWV0YWxfYmluZGluZycsICctaW1hZScsICc8aW5maWxlLm1hZT4nLCAnLW9tYWUnLCAnPG91dGZpbGUubWFlPic=

> <r_lp_tautomer_probability>
1

> <r_epik_Ionization_Penalty>
1.67926e-06

> <r_epik_Ionization_Penalty_Charging>
3.62822e-09

> <r_epik_Ionization_Penalty_Neutral>
1.67563e-06

> <r_epik_State_Penalty>
-0

> <r_epik_Charging_Adjusted_Penalty>
3.62822e-09

> <i_epik_Tot_Q>
0

> <i_epik_Tot_abs_Q>
0

> <r_epik_Metal_State_Penalty>
-0

> <b_epik_Metal_Only>
0

> <s_epik_Chemistry_Notes>
This compound contains an acetal/aminal-like group ( X-CH(R)-Y where X, Y are N, S, or O) that may be acid/base labile, releasing an aldehyde.

> <s_lp_Force_Field>
OPLS_2005

> <r_lp_Energy>
53.4438

> <b_lp_Chiralities_Consistent>
1

> <s_lp_Variant>
AV-unprocessed.smi:130-2

> <Gold.Version>
5.8.1

> <Gold.Id.Protein>
6NUR|6NUR_protein|mol2

> <Gold.PLP.Fitness>
50.7619

> <Gold.PLP.PLP>
-43.2517

> <Gold.PLP.part.hbond>
-2.7931

> <Gold.PLP.part.metal>
0.0000

> <Gold.PLP.part.buried>
-2.2300

> <Gold.PLP.part.nonpolar>
-38.5528

> <Gold.PLP.part.repulsive>
0.1314

> <Gold.PLP.ligand.clash>
0.0000

> <Gold.PLP.ligand.torsion>
0.3181

> <Gold.PLP.Chemscore.Hbond>
2.7120

> <Gold.PLP.Chemscore.CHOScore>
0.0000

> <Gold.PLP.Chemscore.Metal>
0.0000

> <Gold.Chemscore.Hbonds>
donor molecule, donor type, donor heavy atom, donor atom, acceptor molecule, acceptor atom, score
      P1  H  6896  6907       L1     6  1.00
      P1  H  7997  8008       L1    17  0.67
      P1  H  7997  8009       L1     1  0.93

> <Gold.PLP.Chemscore.Internal.Correction>
0.0103

> <Gold.Rescore>
     Score         DG    S(hbond)    S(metal)    S(lipo)     H(rot)  DE(clash)    DE(int)     intcor
     21.71     -23.25       2.73        0.00     108.23       1.57       0.06       1.48       ----

> <Gold.Chemscore.Fitness>
21.7062

> <Gold.Chemscore.DG>
-23.2534

> <Gold.Chemscore.ZeroCoef>
-5.4800

> <Gold.Chemscore.Hbond>
2.7338

> <Gold.Chemscore.Metal>
0.0000

> <Gold.Chemscore.Lipo>
108.2289

> <Gold.Chemscore.Internal_Hbond>
0.0000

> <Gold.Chemscore.DEClash>
0.0637

> <Gold.Chemscore.DEInternal>
1.4834

> <Gold.Chemscore.Rot>
1.5704

> <Gold.Chemscore.Internal.Correction>
   9.000000E+99

> <Gold.Chemscore.Hbonds>
donor molecule, donor type, donor heavy atom, donor atom, acceptor molecule, acceptor atom, score
      P1  H  6896  6907       L1     6  0.96
      P1  H  7997  8008       L1    17  0.65
      P1  H  7997  8009       L1     1  0.91

> <Gold.Chemscore.Hbond.Weighted>
-9.1309

> <Gold.Chemscore.Metal.Weighted>
-0.0000

> <Gold.Chemscore.Lipo.Weighted>
-12.6628

> <Gold.Chemscore.Internal_Hbond.Weighted>
0.0000

> <Gold.Chemscore.DEClash.Weighted>
0.0637

> <Gold.Chemscore.DEInternal.Weighted>
1.4834

> <Gold.Chemscore.Rot.Weighted>
4.0203

> <Gold.Chemscore.Internal.Correction.Weighted>
   9.000000E+99

> <Gold.Protein.RotatedTorsions>
[ 6907 6896 6895 6894 ] final   42.81 input  -60.11 | X-H torsion
[ 7974 7965 7964 7962 ] final   62.43 input  175.53 | X-H torsion
[ 8008 7997 7996 7995 ] final  163.43 input   59.86 | X-H torsion
[ 10167 10162 10161 10158 ] final  -22.69 input  -65.29 | X-H torsion
[ 10718 10713 10712 10709 ] final  -15.52 input   66.30 | X-H torsion
[ 10763 10752 10751 10750 ] final  -62.86 input  -60.55 | X-H torsion
[ 11005 11000 10999 10996 ] final  -85.87 input  -57.11 | X-H torsion

> <Gold.Protein.ActiveResidues>
 VAL166  LYS551  ARG553  GLY616  TRP617  ASP618  TYR619  PRO620  LYS621  CYS622 
 ASP623  PHE694  ASN695  SER759  ASP760  ASP761  ALA762  ILE779  LEU786  VAL792 
 PHE793  MET794  SER795  GLU796  ALA797  LYS798  CYS799  TRP800  GLU811  SER814 

> <Gold.Protein.RotatedAtoms>
  152.2125  134.8488  160.0495 H   0  0  0  0  0  0  0  0  0  0  0  0  # atno 6907 bound_to 6896
  151.9302  133.3604  159.3936 H   0  0  0  0  0  0  0  0  0  0  0  0  # atno 6908 bound_to 6896
  150.6980  134.4470  159.5363 H   0  0  0  0  0  0  0  0  0  0  0  0  # atno 6909 bound_to 6896
  145.8734  139.3393  143.0749 H   0  0  0  0  0  0  0  0  0  0  0  0  # atno 7974 bound_to 7965
  156.1957  140.1724  156.8002 H   0  0  0  0  0  0  0  0  0  0  0  0  # atno 8008 bound_to 7997
  154.5527  140.0714  156.8725 H   0  0  0  0  0  0  0  0  0  0  0  0  # atno 8009 bound_to 7997
  155.2998  140.3361  155.4250 H   0  0  0  0  0  0  0  0  0  0  0  0  # atno 8010 bound_to 7997
  140.7286  143.4511  151.0514 H   0  0  0  0  0  0  0  0  0  0  0  0  # atno 10167 bound_to 10162
  156.6006  130.4823  149.6241 H   0  0  0  0  0  0  0  0  0  0  0  0  # atno 10718 bound_to 10713
  154.3062  135.6224  153.5446 H   0  0  0  0  0  0  0  0  0  0  0  0  # atno 10763 bound_to 10752
  152.9834  135.5690  154.5228 H   0  0  0  0  0  0  0  0  0  0  0  0  # atno 10764 bound_to 10752
  154.4869  135.2865  155.1504 H   0  0  0  0  0  0  0  0  0  0  0  0  # atno 10765 bound_to 10752
  141.1636  133.7423  156.9079 H   0  0  0  0  0  0  0  0  0  0  0  0  # atno 11005 bound_to 11000
  145.9110  140.9180  143.0454 LP  0  0  0  0  0  0  0  0  0  0  0  0  # atno 17320 bound_to 7965
  144.6726  140.1160  143.7452 LP  0  0  0  0  0  0  0  0  0  0  0  0  # atno 17321 bound_to 7965
  139.8188  143.7849  152.3176 LP  0  0  0  0  0  0  0  0  0  0  0  0  # atno 17342 bound_to 10162
  139.7924  144.7405  150.9936 LP  0  0  0  0  0  0  0  0  0  0  0  0  # atno 17343 bound_to 10162
  156.2472  130.6886  151.1611 LP  0  0  0  0  0  0  0  0  0  0  0  0  # atno 17370 bound_to 10713
  157.7280  131.0634  150.5838 LP  0  0  0  0  0  0  0  0  0  0  0  0  # atno 17371 bound_to 10713
  140.1537  134.9212  157.2626 LP  0  0  0  0  0  0  0  0  0  0  0  0  # atno 17394 bound_to 11000
  140.2692  134.3480  155.7379 LP  0  0  0  0  0  0  0  0  0  0  0  0  # atno 17395 bound_to 11000

$$$$
