AV-unprocessed.smi:3258|AV-procd|sdf|12468|dock8
  -GOLD-   2272018363D 1   1.00000     0.00000
 Structure written by MMmdl.
 38 39  0  0  0  0  0  0  0  0  1 V2000
  150.8780  145.2780  159.3209 C   0  0  0  0  0  0  0  0  0  0  0  0
  150.8229  143.7528  159.1349 C   0  0  2  0  0  0  0  0  0  0  0  0
  152.2168  143.1076  158.9732 C   0  0  0  0  0  0  0  0  0  0  0  0
  152.7806  142.6659  160.2357 N   0  0  0  0  0  0  0  0  0  0  0  0
  153.7415  141.7004  160.4486 C   0  0  0  0  0  0  0  0  0  0  0  0
  153.9553  141.6307  161.7954 C   0  0  0  0  0  0  0  0  0  0  0  0
  153.0684  142.6070  162.3295 C   0  0  0  0  0  0  0  0  0  0  0  0
  152.3677  143.2265  161.3933 N   0  0  0  0  0  0  0  0  0  0  0  0
  149.9885  143.4418  157.9776 N   0  0  0  0  0  0  0  0  0  0  0  0
  149.3101  142.2996  157.7973 C   0  0  0  0  0  0  0  0  0  0  0  0
  149.3079  141.3645  158.5981 O   0  0  0  0  0  0  0  0  0  0  0  0
  148.6423  142.2975  156.6352 N   0  0  0  0  0  0  0  0  0  0  0  0
  147.8195  141.2011  156.1346 C   0  0  0  0  0  0  0  0  0  0  0  0
  146.6725  141.7071  155.2396 C   0  0  2  0  0  0  0  0  0  0  0  0
  147.1408  142.3530  153.9515 C   0  0  0  0  0  0  0  0  0  0  0  0
  145.9096  143.1473  153.5217 C   0  0  0  0  0  0  0  0  0  0  0  0
  145.2117  143.4739  154.7206 O   0  0  0  0  0  0  0  0  0  0  0  0
  145.8314  142.8379  155.8334 C   0  0  0  0  0  0  0  0  0  0  0  0
  151.4179  145.5516  160.2275 H   0  0  0  0  0  0  0  0  0  0  0  0
  149.8756  145.6995  159.4030 H   0  0  0  0  0  0  0  0  0  0  0  0
  151.3750  145.7613  158.4791 H   0  0  0  0  0  0  0  0  0  0  0  0
  150.3480  143.3344  160.0246 H   0  0  0  0  0  0  0  0  0  0  0  0
  152.1605  142.2408  158.3134 H   0  0  0  0  0  0  0  0  0  0  0  0
  152.9074  143.8098  158.5025 H   0  0  0  0  0  0  0  0  0  0  0  0
  154.1863  141.1496  159.6329 H   0  0  0  0  0  0  0  0  0  0  0  0
  154.6412  140.9815  162.3190 H   0  0  0  0  0  0  0  0  0  0  0  0
  152.9146  142.8829  163.3622 H   0  0  0  0  0  0  0  0  0  0  0  0
  149.9276  144.1486  157.2594 H   0  0  0  0  0  0  0  0  0  0  0  0
  148.7109  143.1161  156.0483 H   0  0  0  0  0  0  0  0  0  0  0  0
  148.4289  140.4672  155.6043 H   0  0  0  0  0  0  0  0  0  0  0  0
  147.4037  140.6824  156.9987 H   0  0  0  0  0  0  0  0  0  0  0  0
  146.0134  140.8744  154.9875 H   0  0  0  0  0  0  0  0  0  0  0  0
  147.9721  143.0321  154.1476 H   0  0  0  0  0  0  0  0  0  0  0  0
  147.4617  141.6305  153.2005 H   0  0  0  0  0  0  0  0  0  0  0  0
  146.1720  144.0431  152.9583 H   0  0  0  0  0  0  0  0  0  0  0  0
  145.2578  142.5348  152.8981 H   0  0  0  0  0  0  0  0  0  0  0  0
  145.0914  142.4817  156.5505 H   0  0  0  0  0  0  0  0  0  0  0  0
  146.4667  143.5678  156.3372 H   0  0  0  0  0  0  0  0  0  0  0  0
  1  2  1  0  0  0  0
  1 19  1  0  0  0  0
  1 20  1  0  0  0  0
  1 21  1  0  0  0  0
  2  3  1  0  0  0  0
  2  9  1  0  0  0  0
  2 22  1  0  0  0  0
  3  4  1  0  0  0  0
  3 23  1  0  0  0  0
  3 24  1  0  0  0  0
  4  8  1  0  0  0  0
  4  5  1  0  0  0  0
  5  6  2  0  0  0  0
  5 25  1  0  0  0  0
  6  7  1  0  0  0  0
  6 26  1  0  0  0  0
  7  8  2  0  0  0  0
  7 27  1  0  0  0  0
  9 10  1  0  0  0  0
  9 28  1  0  0  0  0
 10 11  2  0  0  0  0
 10 12  1  0  0  0  0
 12 13  1  0  0  0  0
 12 29  1  0  0  0  0
 13 14  1  0  0  0  0
 13 30  1  0  0  0  0
 13 31  1  0  0  0  0
 14 18  1  0  0  0  0
 14 15  1  0  0  0  0
 14 32  1  0  0  0  0
 15 16  1  0  0  0  0
 15 33  1  0  0  0  0
 15 34  1  0  0  0  0
 16 17  1  0  0  0  0
 16 35  1  0  0  0  0
 16 36  1  0  0  0  0
 17 18  1  0  0  0  0
 18 37  1  0  0  0  0
 18 38  1  0  0  0  0
M  END
> <s_m_source_file>
AV-unprocessed.smi

> <i_m_source_file_index>
3258

> <i_lp_mmshare_version>
43012

> <i_f3d_flags>
0

> <s_epik_input>
bjFbY0hdW2NIXVtjSF1uMVtDSDJdW0NAQEhdKFtDSDNdKVtOSF1DKD1PKVtOSF1bQ0gyXVtDQEBIXTJbQ0gyXVtDSDJdT1tDSDJdMg==

> <s_epik_cmdline>
J2VwaWtfcHl0aG9uJywgJy1waCcsICc3LjAnLCAnLXRuJywgJzgnLCAnLW1hJywgJzIwMCcsICctbWV0YWxfYmluZGluZycsICctaW1hZScsICc8aW5maWxlLm1hZT4nLCAnLW9tYWUnLCAnPG91dGZpbGUubWFlPic=

> <r_lp_tautomer_probability>
1

> <r_epik_Ionization_Penalty>
6.85079e-05

> <r_epik_Ionization_Penalty_Charging>
0

> <r_epik_Ionization_Penalty_Neutral>
6.85079e-05

> <r_epik_State_Penalty>
-0

> <r_epik_Charging_Adjusted_Penalty>
0

> <i_epik_Tot_Q>
0

> <i_epik_Tot_abs_Q>
0

> <r_epik_Metal_State_Penalty>
-0

> <b_epik_Metal_Only>
0

> <s_lp_Force_Field>
OPLS_2005

> <r_lp_Energy>
16.0555

> <b_lp_Chiralities_Consistent>
1

> <s_lp_Variant>
AV-unprocessed.smi:3258-1

> <Gold.Version>
5.8.1

> <Gold.Id.Protein>
6NUR|6NUR_protein|mol2

> <Gold.PLP.Fitness>
43.9499

> <Gold.PLP.PLP>
-40.8668

> <Gold.PLP.part.hbond>
-3.0195

> <Gold.PLP.part.metal>
0.0000

> <Gold.PLP.part.buried>
-5.5519

> <Gold.PLP.part.nonpolar>
-31.7804

> <Gold.PLP.part.repulsive>
0.3802

> <Gold.PLP.ligand.clash>
0.0000

> <Gold.PLP.ligand.torsion>
1.3241

> <Gold.PLP.Chemscore.Hbond>
1.8960

> <Gold.PLP.Chemscore.CHOScore>
0.0000

> <Gold.PLP.Chemscore.Metal>
0.0000

> <Gold.Chemscore.Hbonds>
donor molecule, donor type, donor heavy atom, donor atom, acceptor molecule, acceptor atom, score
      L1  H     9    28       P1  8028  0.90
      L1  H    12    29       P1  8028  1.00

> <Gold.PLP.Chemscore.Internal.Correction>
0.0434

> <Gold.Rescore>
     Score         DG    S(hbond)    S(metal)    S(lipo)     H(rot)  DE(clash)    DE(int)     intcor
     15.44     -16.82       1.69        0.00      89.56       1.87       0.08       1.29       ----

> <Gold.Chemscore.Fitness>
15.4430

> <Gold.Chemscore.DG>
-16.8170

> <Gold.Chemscore.ZeroCoef>
-5.4800

> <Gold.Chemscore.Hbond>
1.6921

> <Gold.Chemscore.Metal>
0.0000

> <Gold.Chemscore.Lipo>
89.5607

> <Gold.Chemscore.Internal_Hbond>
0.0000

> <Gold.Chemscore.DEClash>
0.0814

> <Gold.Chemscore.DEInternal>
1.2927

> <Gold.Chemscore.Rot>
1.8724

> <Gold.Chemscore.Internal.Correction>
   9.000000E+99

> <Gold.Chemscore.Hbonds>
donor molecule, donor type, donor heavy atom, donor atom, acceptor molecule, acceptor atom, score
      L1  H     9    28       P1  8028  0.57
      L1  H    12    29       P1  8028  0.98

> <Gold.Chemscore.Hbond.Weighted>
-5.6517

> <Gold.Chemscore.Metal.Weighted>
-0.0000

> <Gold.Chemscore.Lipo.Weighted>
-10.4786

> <Gold.Chemscore.Internal_Hbond.Weighted>
0.0000

> <Gold.Chemscore.DEClash.Weighted>
0.0814

> <Gold.Chemscore.DEInternal.Weighted>
1.2927

> <Gold.Chemscore.Rot.Weighted>
4.7933

> <Gold.Chemscore.Internal.Correction.Weighted>
   9.000000E+99

> <Gold.Protein.RotatedTorsions>
[ 6907 6896 6895 6894 ] final  113.10 input  -60.11 | X-H torsion
[ 7974 7965 7964 7962 ] final -122.64 input  175.53 | X-H torsion
[ 8008 7997 7996 7995 ] final  137.10 input   59.86 | X-H torsion
[ 10167 10162 10161 10158 ] final  119.74 input  -65.29 | X-H torsion
[ 10718 10713 10712 10709 ] final -119.27 input   66.30 | X-H torsion
[ 10763 10752 10751 10750 ] final  -38.10 input  -60.55 | X-H torsion
[ 11005 11000 10999 10996 ] final  132.59 input  -57.11 | X-H torsion

> <Gold.Protein.ActiveResidues>
 VAL166  LYS551  ARG553  GLY616  TRP617  ASP618  TYR619  PRO620  LYS621  CYS622 
 ASP623  PHE694  ASN695  SER759  ASP760  ASP761  ALA762  ILE779  LEU786  VAL792 
 PHE793  MET794  SER795  GLU796  ALA797  LYS798  CYS799  TRP800  GLU811  SER814 

> <Gold.Protein.RotatedAtoms>
  152.4879  133.8422  159.7158 H   0  0  0  0  0  0  0  0  0  0  0  0  # atno 6907 bound_to 6896
  150.8982  133.7143  159.2892 H   0  0  0  0  0  0  0  0  0  0  0  0  # atno 6908 bound_to 6896
  151.4593  135.1041  159.9772 H   0  0  0  0  0  0  0  0  0  0  0  0  # atno 6909 bound_to 6896
  145.0273  140.8038  143.4345 H   0  0  0  0  0  0  0  0  0  0  0  0  # atno 7974 bound_to 7965
  156.3003  140.2428  156.3854 H   0  0  0  0  0  0  0  0  0  0  0  0  # atno 8008 bound_to 7997
  154.8662  140.0418  157.1716 H   0  0  0  0  0  0  0  0  0  0  0  0  # atno 8009 bound_to 7997
  154.8843  140.2954  155.5411 H   0  0  0  0  0  0  0  0  0  0  0  0  # atno 8010 bound_to 7997
  139.6026  144.7061  151.3026 H   0  0  0  0  0  0  0  0  0  0  0  0  # atno 10167 bound_to 10162
  156.1168  130.6292  150.9395 H   0  0  0  0  0  0  0  0  0  0  0  0  # atno 10718 bound_to 10713
  153.9073  135.6796  153.4752 H   0  0  0  0  0  0  0  0  0  0  0  0  # atno 10763 bound_to 10752
  153.1097  135.4789  154.9011 H   0  0  0  0  0  0  0  0  0  0  0  0  # atno 10764 bound_to 10752
  154.7545  135.3193  154.8451 H   0  0  0  0  0  0  0  0  0  0  0  0  # atno 10765 bound_to 10752
  139.9800  134.9551  156.9604 H   0  0  0  0  0  0  0  0  0  0  0  0  # atno 11005 bound_to 11000
  145.1817  139.2348  143.5289 LP  0  0  0  0  0  0  0  0  0  0  0  0  # atno 17320 bound_to 7965
  146.3494  140.1592  142.8591 LP  0  0  0  0  0  0  0  0  0  0  0  0  # atno 17321 bound_to 7965
  140.7261  143.6999  150.7853 LP  0  0  0  0  0  0  0  0  0  0  0  0  # atno 17342 bound_to 10162
  140.0578  143.5185  152.2642 LP  0  0  0  0  0  0  0  0  0  0  0  0  # atno 17343 bound_to 10162
  157.6352  131.0917  150.8363 LP  0  0  0  0  0  0  0  0  0  0  0  0  # atno 17370 bound_to 10713
  156.8465  130.5066  149.5316 LP  0  0  0  0  0  0  0  0  0  0  0  0  # atno 17371 bound_to 10713
  140.5117  134.0996  155.7272 LP  0  0  0  0  0  0  0  0  0  0  0  0  # atno 17394 bound_to 11000
  141.1473  133.9032  157.2185 LP  0  0  0  0  0  0  0  0  0  0  0  0  # atno 17395 bound_to 11000

$$$$
