#       Name:                AV-unprocessed.smi:90
#       Creating user name   scv26
#       Creation time:       Thu Mar 26 17:25:00 2020


#       File generated by GOLD software.
#

@<TRIPOS>MOLECULE
AV-unprocessed.smi:90
    71    74     1
SMALL
NO_CHARGES


@<TRIPOS>ATOM
      1 ****        -2.7416  -2.5051   1.4443 C.3            1 S1                 0.0000
      2 ****        -2.0933  -1.4577   0.6598 N.pl3          1 S1                 0.0000
      3 ****        -2.7583  -0.1572   0.6040 C.3            1 S1                 0.0000
      4 ****        -2.5647   0.6629   1.8944 C.3            1 S1                 0.0000
      5 ****        -3.1676   2.0906   1.8226 C.3            1 S1                 0.0000
      6 ****        -4.7025   2.1041   1.6364 C.3            1 S1                 0.0000
      7 ****        -5.4405   1.6527   2.9066 C.3            1 S1                 0.0000
      8 ****        -5.0015   2.5071   4.1035 C.3            1 S1                 0.0000
      9 ****        -3.4714   2.5121   4.2591 C.3            1 S1                 0.0000
     10 ****        -2.8129   2.9408   2.9984 N.4            1 S1                 1.0000
     11 ****        -1.3638   3.1996   3.1611 C.3            1 S1                 0.0000
     12 ****        -0.7340  -1.4609   0.5942 C.ar           1 S1                 0.0000
     13 ****        -0.0249  -2.1162   1.5526 N.ar           1 S1                 0.0000
     14 ****         1.3104  -2.1151   1.5301 C.ar           1 S1                 0.0000
     15 ****         2.1276  -1.5359   0.6506 N.ar           1 S1                 0.0000
     16 ****         1.4289  -0.8904  -0.3255 C.ar           1 S1                 0.0000
     17 ****         0.0105  -0.7986  -0.4262 C.ar           1 S1                 0.0000
     18 ****        -0.3295  -0.0596  -1.5537 N.2            1 S1                 0.0000
     19 ****         0.8165   0.2733  -2.0800 C.2            1 S1                 0.0000
     20 ****         1.9267  -0.1983  -1.4170 N.pl3          1 S1                 0.0000
     21 ****         3.3192   0.0217  -1.7853 C.3            1 S1                 0.0000
     22 ****         3.8981  -0.9980  -2.8122 C.3            1 S1                 0.0000
     23 ****         3.8586  -2.4415  -2.2344 C.3            1 S1                 0.0000
     24 ****         4.6354  -2.5696  -1.0605 O.3            1 S1                 0.0000
     25 ****         3.0813  -0.9464  -4.1291 C.3            1 S1                 0.0000
     26 ****         3.7725  -1.6694  -5.3007 C.3            1 S1                 0.0000
     27 ****         5.0796  -1.1476  -5.4987 O.3            1 S1                 0.0000
     28 ****         5.9220  -1.3307  -4.3686 C.3            1 S1                 0.0000
     29 ****         5.3458  -0.5693  -3.1623 C.3            1 S1                 0.0000
     30 ****        -2.3559  -3.4886   1.1726 H              1 S1                 0.0000
     31 ****        -3.8165  -2.5092   1.2622 H              1 S1                 0.0000
     32 ****        -2.5797  -2.3511   2.5118 H              1 S1                 0.0000
     33 ****        -2.4234   0.4166  -0.2575 H              1 S1                 0.0000
     34 ****        -3.8194  -0.3390   0.4364 H              1 S1                 0.0000
     35 ****        -2.9782   0.1111   2.7378 H              1 S1                 0.0000
     36 ****        -1.4941   0.7337   2.0814 H              1 S1                 0.0000
     37 ****        -2.7360   2.5774   0.9468 H              1 S1                 0.0000
     38 ****        -5.0190   3.1185   1.3897 H              1 S1                 0.0000
     39 ****        -5.0046   1.4915   0.7878 H              1 S1                 0.0000
     40 ****        -6.5180   1.7380   2.7629 H              1 S1                 0.0000
     41 ****        -5.2398   0.5998   3.1057 H              1 S1                 0.0000
     42 ****        -5.3543   3.5301   3.9665 H              1 S1                 0.0000
     43 ****        -5.4697   2.1396   5.0171 H              1 S1                 0.0000
     44 ****        -3.1969   3.1975   5.0618 H              1 S1                 0.0000
     45 ****        -3.1123   1.5267   4.5576 H              1 S1                 0.0000
     46 ****        -0.8330   2.3190   3.5235 H              1 S1                 0.0000
     47 ****        -1.2047   4.0016   3.8823 H              1 S1                 0.0000
     48 ****        -0.9157   3.5116   2.2173 H              1 S1                 0.0000
     49 ****         1.7932  -2.6543   2.3318 H              1 S1                 0.0000
     50 ****         0.8834   0.8699  -2.9782 H              1 S1                 0.0000
     51 ****         3.3940   1.0347  -2.1831 H              1 S1                 0.0000
     52 ****         3.9168   0.0237  -0.8730 H              1 S1                 0.0000
     53 ****         2.8354  -2.7412  -2.0074 H              1 S1                 0.0000
     54 ****         4.2307  -3.1730  -2.9496 H              1 S1                 0.0000
     55 ****         4.5481  -3.4530  -0.7369 H              1 S1                 0.0000
     56 ****         2.0879  -1.3715  -3.9832 H              1 S1                 0.0000
     57 ****         2.9279   0.0942  -4.4184 H              1 S1                 0.0000
     58 ****         3.8183  -2.7467  -5.1391 H              1 S1                 0.0000
     59 ****         3.1989  -1.5194  -6.2154 H              1 S1                 0.0000
     60 ****         6.0450  -2.3926  -4.1534 H              1 S1                 0.0000
     61 ****         6.9128  -0.9455  -4.6096 H              1 S1                 0.0000
     62 ****         5.3602   0.4948  -3.4021 H              1 S1                 0.0000
     63 ****         6.0048  -0.6850  -2.3015 H              1 S1                 0.0000
     64 ****        -3.2125   3.8445   2.7888 H              1 S1                 0.0000
     65 ****        -0.5078  -2.6031   2.2805 LP             1 S1                 0.0000
     66 ****         3.1257  -1.5706   0.7006 LP             1 S1                 0.0000
     67 ****        -1.2454   0.1657  -1.8859 LP             1 S1                 0.0000
     68 ****         4.3108  -1.9239  -0.3693 LP             1 S1                 0.0000
     69 ****         5.5949  -2.3803  -1.2689 LP             1 S1                 0.0000
     70 ****         5.0075  -0.1684  -5.6883 LP             1 S1                 0.0000
     71 ****         5.4927  -1.6096  -6.2835 LP             1 S1                 0.0000
@<TRIPOS>BOND
    1    1    2 1     
    2    1   30 1     
    3    1   31 1     
    4    1   32 1     
    5    2    3 1     
    6    2   12 1     
    7    3    4 1     
    8    3   33 1     
    9    3   34 1     
   10    4    5 1     
   11    4   35 1     
   12    4   36 1     
   13    5   10 1     
   14    5    6 1     
   15    5   37 1     
   16    6    7 1     
   17    6   38 1     
   18    6   39 1     
   19    7    8 1     
   20    7   40 1     
   21    7   41 1     
   22    8    9 1     
   23    8   42 1     
   24    8   43 1     
   25    9   10 1     
   26    9   44 1     
   27    9   45 1     
   28   10   11 1     
   29   10   64 1     
   30   11   46 1     
   31   11   47 1     
   32   11   48 1     
   33   12   17 ar    
   34   12   13 ar    
   35   13   14 ar    
   36   14   15 ar    
   37   14   49 1     
   38   15   16 ar    
   39   16   20 1     
   40   16   17 ar    
   41   17   18 1     
   42   18   19 2     
   43   19   20 1     
   44   19   50 1     
   45   20   21 1     
   46   21   22 1     
   47   21   51 1     
   48   21   52 1     
   49   22   29 1     
   50   22   23 1     
   51   22   25 1     
   52   23   24 1     
   53   23   53 1     
   54   23   54 1     
   55   24   55 1     
   56   25   26 1     
   57   25   56 1     
   58   25   57 1     
   59   26   27 1     
   60   26   58 1     
   61   26   59 1     
   62   27   28 1     
   63   28   29 1     
   64   28   60 1     
   65   28   61 1     
   66   29   62 1     
   67   29   63 1     
   68   13   65 1     
   69   15   66 1     
   70   18   67 1     
   71   24   68 1     
   72   24   69 1     
   73   27   70 1     
   74   27   71 1     
@<TRIPOS>SUBSTRUCTURE
      1 S1             1
@<TRIPOS>SET
LONE_PAIRS      STATIC     ATOMS    <user>   **** ""
7 65 66 67 68 69 70 71
DONOR_HYDROGENS      STATIC     ATOMS    <user>   **** ""
2 64 55
ATOM$BLUE        STATIC     ATOMS    COLORGROUP SYSTEM
7 65 66 67 68 69 70 71
ATOM$RED        STATIC     ATOMS    COLORGROUP SYSTEM
2 64 55
