AV-unprocessed.smi:767|AV-procd|sdf|3669|dock3
  -GOLD-   22720 1 83D 1   1.00000     0.00000
 Structure written by MMmdl.
 48 50  0  0  0  0  0  0  0  0  2 V2000
  144.2582  131.5218  151.0656 C   0  0  0  0  0  0  0  0  0  0  0  0
  144.3962  132.9852  151.4295 C   0  0  0  0  0  0  0  0  0  0  0  0
  145.0090  133.9218  150.5695 C   0  0  0  0  0  0  0  0  0  0  0  0
  145.1040  135.2693  150.9746 C   0  0  0  0  0  0  0  0  0  0  0  0
  144.5848  135.6533  152.2303 C   0  0  0  0  0  0  0  0  0  0  0  0
  144.6663  137.0950  152.6920 C   0  0  0  0  0  0  0  0  0  0  0  0
  145.7028  137.8992  151.8909 C   0  0  0  0  0  0  0  0  0  0  0  0
  147.0219  137.8391  152.5078 N   0  0  0  0  0  0  0  0  0  0  0  0
  147.3790  138.5015  153.6167 C   0  0  0  0  0  0  0  0  0  0  0  0
  146.6253  139.2397  154.2516 O   0  0  0  0  0  0  0  0  0  0  0  0
  148.6523  138.2591  153.9535 N   0  0  0  0  0  0  0  0  0  0  0  0
  149.3255  138.8475  155.1069 C   0  0  2  0  0  0  0  0  0  0  0  0
  149.7991  140.2848  154.8398 C   0  0  1  0  0  0  0  0  0  0  0  0
  149.1912  141.4286  155.6048 C   0  0  0  0  0  0  0  0  0  0  0  0
  150.1764  141.6281  156.7604 C   0  0  0  0  0  0  0  0  0  0  0  0
  150.8602  140.3820  156.8709 O   0  0  0  0  0  0  0  0  0  0  0  0
  151.0883  139.8994  155.5491 C   0  0  1  0  0  0  0  0  0  0  0  0
  150.7989  138.4044  155.2964 C   0  0  0  0  0  0  0  0  0  0  0  0
  151.0748  137.4612  156.4684 C   0  0  0  0  0  0  0  0  0  0  0  0
  151.5275  137.8208  154.0774 C   0  0  0  0  0  0  0  0  0  0  0  0
  143.9814  134.6737  153.0478 C   0  0  0  0  0  0  0  0  0  0  0  0
  143.9107  133.3928  152.6238 N   0  3  0  0  0  0  0  0  0  0  0  0
  144.6725  131.3220  150.0769 H   0  0  0  0  0  0  0  0  0  0  0  0
  143.2079  131.2287  151.0597 H   0  0  0  0  0  0  0  0  0  0  0  0
  144.7865  130.8992  151.7879 H   0  0  0  0  0  0  0  0  0  0  0  0
  145.4024  133.6148  149.6113 H   0  0  0  0  0  0  0  0  0  0  0  0
  145.5687  135.9984  150.3267 H   0  0  0  0  0  0  0  0  0  0  0  0
  143.6791  137.5500  152.5999 H   0  0  0  0  0  0  0  0  0  0  0  0
  144.9150  137.1156  153.7539 H   0  0  0  0  0  0  0  0  0  0  0  0
  145.7842  137.4995  150.8797 H   0  0  0  0  0  0  0  0  0  0  0  0
  145.3867  138.9390  151.7902 H   0  0  0  0  0  0  0  0  0  0  0  0
  147.7125  137.2574  152.0560 H   0  0  0  0  0  0  0  0  0  0  0  0
  149.1951  137.6375  153.3722 H   0  0  0  0  0  0  0  0  0  0  0  0
  148.7508  138.7770  156.0333 H   0  0  0  0  0  0  0  0  0  0  0  0
  149.9694  140.4834  153.7799 H   0  0  0  0  0  0  0  0  0  0  0  0
  149.0915  142.3313  155.0017 H   0  0  0  0  0  0  0  0  0  0  0  0
  148.2016  141.1641  155.9786 H   0  0  0  0  0  0  0  0  0  0  0  0
  150.8992  142.4084  156.5174 H   0  0  0  0  0  0  0  0  0  0  0  0
  149.6821  141.8986  157.6936 H   0  0  0  0  0  0  0  0  0  0  0  0
  151.9901  140.3024  155.0852 H   0  0  0  0  0  0  0  0  0  0  0  0
  152.1390  137.4120  156.7006 H   0  0  0  0  0  0  0  0  0  0  0  0
  150.7346  136.4474  156.2551 H   0  0  0  0  0  0  0  0  0  0  0  0
  150.5620  137.7851  157.3744 H   0  0  0  0  0  0  0  0  0  0  0  0
  152.6017  137.7533  154.2514 H   0  0  0  0  0  0  0  0  0  0  0  0
  151.3875  138.4368  153.1887 H   0  0  0  0  0  0  0  0  0  0  0  0
  151.1726  136.8181  153.8369 H   0  0  0  0  0  0  0  0  0  0  0  0
  143.5556  134.8736  154.0204 H   0  0  0  0  0  0  0  0  0  0  0  0
  143.4708  132.7020  153.2325 H   0  0  0  0  0  0  0  0  0  0  0  0
  1  2  1  0  0  0  0
  1 23  1  0  0  0  0
  1 24  1  0  0  0  0
  1 25  1  0  0  0  0
  2 22  1  0  0  0  0
  2  3  2  0  0  0  0
  3  4  1  0  0  0  0
  3 26  1  0  0  0  0
  4  5  2  0  0  0  0
  4 27  1  0  0  0  0
  5  6  1  0  0  0  0
  5 21  1  0  0  0  0
  6  7  1  0  0  0  0
  6 28  1  0  0  0  0
  6 29  1  0  0  0  0
  7  8  1  0  0  0  0
  7 30  1  0  0  0  0
  7 31  1  0  0  0  0
  8  9  1  0  0  0  0
  8 32  1  0  0  0  0
  9 10  2  0  0  0  0
  9 11  1  0  0  0  0
 11 12  1  0  0  0  0
 11 33  1  0  0  0  0
 12 18  1  0  0  0  0
 12 13  1  0  0  0  0
 12 34  1  0  0  0  0
 13 17  1  0  0  0  0
 13 14  1  0  0  0  0
 13 35  1  0  0  0  0
 14 15  1  0  0  0  0
 14 36  1  0  0  0  0
 14 37  1  0  0  0  0
 15 16  1  0  0  0  0
 15 38  1  0  0  0  0
 15 39  1  0  0  0  0
 16 17  1  0  0  0  0
 17 18  1  0  0  0  0
 17 40  1  0  0  0  0
 18 19  1  0  0  0  0
 18 20  1  0  0  0  0
 19 41  1  0  0  0  0
 19 42  1  0  0  0  0
 19 43  1  0  0  0  0
 20 44  1  0  0  0  0
 20 45  1  0  0  0  0
 20 46  1  0  0  0  0
 21 22  2  0  0  0  0
 21 47  1  0  0  0  0
 22 48  1  0  0  0  0
M  CHG  1  22   1
M  END
> <s_m_source_file>
AV-unprocessed.smi

> <i_m_source_file_index>
767

> <i_lp_mmshare_version>
43012

> <i_f3d_flags>
0

> <s_epik_input>
W0NIM11jMVtjSF1bY0hdYyhbY0hdbjEpW0NIMl1bQ0gyXVtOSF1DKD1PKVtOSF1bQ0BIXTJDKFtDSDNdKShbQ0gzXSlbQ0BIXShbQ0BASF0yMylPW0NIMl1bQ0gyXTM=

> <s_epik_cmdline>
J2VwaWtfcHl0aG9uJywgJy1waCcsICc3LjAnLCAnLXRuJywgJzgnLCAnLW1hJywgJzIwMCcsICctbWV0YWxfYmluZGluZycsICctaW1hZScsICc8aW5maWxlLm1hZT4nLCAnLW9tYWUnLCAnPG91dGZpbGUubWFlPic=

> <r_epik_Ionization_Penalty>
1.41853

> <r_epik_Ionization_Penalty_Charging>
1.41848

> <r_epik_Ionization_Penalty_Neutral>
5.17407e-05

> <r_epik_State_Penalty>
1.50205

> <r_epik_Charging_Adjusted_Penalty>
2.92053

> <i_epik_Tot_Q>
1

> <i_epik_Tot_abs_Q>
1

> <r_epik_Metal_State_Penalty>
1.5544

> <b_epik_Metal_Only>
0

> <s_lp_Force_Field>
OPLS_2005

> <r_lp_Energy>
38.5293

> <b_lp_Chiralities_Consistent>
1

> <s_lp_Variant>
AV-unprocessed.smi:767-13

> <Gold.Version>
5.8.1

> <Gold.Id.Protein>
6NUR|6NUR_protein|mol2

> <Gold.PLP.Fitness>
45.5292

> <Gold.PLP.PLP>
-35.2475

> <Gold.PLP.part.hbond>
-2.9618

> <Gold.PLP.part.metal>
0.0000

> <Gold.PLP.part.buried>
-0.7384

> <Gold.PLP.part.nonpolar>
-33.0823

> <Gold.PLP.part.repulsive>
0.2199

> <Gold.PLP.ligand.clash>
0.0000

> <Gold.PLP.ligand.torsion>
0.6491

> <Gold.PLP.Chemscore.Hbond>
3.7985

> <Gold.PLP.Chemscore.CHOScore>
0.0000

> <Gold.PLP.Chemscore.Metal>
0.0000

> <Gold.Chemscore.Hbonds>
donor molecule, donor type, donor heavy atom, donor atom, acceptor molecule, acceptor atom, score
      L1  H     8    32       P1  7948  1.00
      L1  H    11    33       P1  7948  0.78
      L1  H    22    48       P1 10957  2.00

> <Gold.PLP.Chemscore.Internal.Correction>
0.1843

> <Gold.Rescore>
     Score         DG    S(hbond)    S(metal)    S(lipo)     H(rot)  DE(clash)    DE(int)     intcor
     20.16     -21.92       2.81        0.00      93.62       1.52       1.23       0.53       ----

> <Gold.Chemscore.Fitness>
20.1607

> <Gold.Chemscore.DG>
-21.9228

> <Gold.Chemscore.ZeroCoef>
-5.4800

> <Gold.Chemscore.Hbond>
2.8110

> <Gold.Chemscore.Metal>
0.0000

> <Gold.Chemscore.Lipo>
93.6214

> <Gold.Chemscore.Internal_Hbond>
0.0000

> <Gold.Chemscore.DEClash>
1.2272

> <Gold.Chemscore.DEInternal>
0.5349

> <Gold.Chemscore.Rot>
1.5233

> <Gold.Chemscore.Internal.Correction>
   9.000000E+99

> <Gold.Chemscore.Hbonds>
donor molecule, donor type, donor heavy atom, donor atom, acceptor molecule, acceptor atom, score
      L1  H     8    32       P1  7948  0.98
      L1  H    11    33       P1  7948  0.74
      L1  H    22    48       P1 10957  0.34

> <Gold.Chemscore.Hbond.Weighted>
-9.3886

> <Gold.Chemscore.Metal.Weighted>
-0.0000

> <Gold.Chemscore.Lipo.Weighted>
-10.9537

> <Gold.Chemscore.Internal_Hbond.Weighted>
0.0000

> <Gold.Chemscore.DEClash.Weighted>
1.2272

> <Gold.Chemscore.DEInternal.Weighted>
0.5349

> <Gold.Chemscore.Rot.Weighted>
3.8995

> <Gold.Chemscore.Internal.Correction.Weighted>
   9.000000E+99

> <Gold.Protein.RotatedTorsions>
[ 6907 6896 6895 6894 ] final   -2.76 input  -60.11 | X-H torsion
[ 7974 7965 7964 7962 ] final   52.88 input  175.53 | X-H torsion
[ 8008 7997 7996 7995 ] final  149.48 input   59.86 | X-H torsion
[ 10167 10162 10161 10158 ] final   -5.18 input  -65.29 | X-H torsion
[ 10718 10713 10712 10709 ] final  100.42 input   66.30 | X-H torsion
[ 10763 10752 10751 10750 ] final -162.87 input  -60.55 | X-H torsion
[ 11005 11000 10999 10996 ] final  -16.45 input  -57.11 | X-H torsion

> <Gold.Protein.ActiveResidues>
 VAL166  LYS551  ARG553  GLY616  TRP617  ASP618  TYR619  PRO620  LYS621  CYS622 
 ASP623  PHE694  ASN695  SER759  ASP760  ASP761  ALA762  ILE779  LEU786  VAL792 
 PHE793  MET794  SER795  GLU796  ALA797  LYS798  CYS799  TRP800  GLU811  SER814 

> <Gold.Protein.RotatedAtoms>
  151.5247  135.1067  159.9887 H   0  0  0  0  0  0  0  0  0  0  0  0  # atno 6907 bound_to 6896
  152.4605  133.7808  159.6860 H   0  0  0  0  0  0  0  0  0  0  0  0  # atno 6908 bound_to 6896
  150.8565  133.7642  159.3032 H   0  0  0  0  0  0  0  0  0  0  0  0  # atno 6909 bound_to 6896
  145.9769  139.4203  143.0156 H   0  0  0  0  0  0  0  0  0  0  0  0  # atno 7974 bound_to 7965
  156.2753  140.2100  156.5866 H   0  0  0  0  0  0  0  0  0  0  0  0  # atno 8008 bound_to 7997
  154.7016  140.0520  157.0487 H   0  0  0  0  0  0  0  0  0  0  0  0  # atno 8009 bound_to 7997
  155.0727  140.3178  155.4628 H   0  0  0  0  0  0  0  0  0  0  0  0  # atno 8010 bound_to 7997
  140.6954  143.6338  150.8498 H   0  0  0  0  0  0  0  0  0  0  0  0  # atno 10167 bound_to 10162
  157.6854  131.0698  150.5098 H   0  0  0  0  0  0  0  0  0  0  0  0  # atno 10718 bound_to 10713
  154.7175  135.3018  154.9101 H   0  0  0  0  0  0  0  0  0  0  0  0  # atno 10763 bound_to 10752
  153.9983  135.6710  153.4762 H   0  0  0  0  0  0  0  0  0  0  0  0  # atno 10764 bound_to 10752
  153.0805  135.5011  154.8409 H   0  0  0  0  0  0  0  0  0  0  0  0  # atno 10765 bound_to 10752
  140.8069  133.8170  155.9525 H   0  0  0  0  0  0  0  0  0  0  0  0  # atno 11005 bound_to 11000
  145.7826  140.9850  143.1091 LP  0  0  0  0  0  0  0  0  0  0  0  0  # atno 17320 bound_to 7965
  144.6851  139.9583  143.7479 LP  0  0  0  0  0  0  0  0  0  0  0  0  # atno 17321 bound_to 7965
  140.0056  143.5698  152.2859 LP  0  0  0  0  0  0  0  0  0  0  0  0  # atno 17342 bound_to 10162
  139.6403  144.7654  151.2353 LP  0  0  0  0  0  0  0  0  0  0  0  0  # atno 17343 bound_to 10162
  156.5416  130.4209  149.6151 LP  0  0  0  0  0  0  0  0  0  0  0  0  # atno 17370 bound_to 10713
  156.2980  130.7161  151.2026 LP  0  0  0  0  0  0  0  0  0  0  0  0  # atno 17371 bound_to 10713
  140.9238  134.2109  157.4909 LP  0  0  0  0  0  0  0  0  0  0  0  0  # atno 17394 bound_to 11000
  139.8717  134.9803  156.5072 LP  0  0  0  0  0  0  0  0  0  0  0  0  # atno 17395 bound_to 11000

$$$$
