AV-unprocessed.smi:739|AV-procd|sdf|3543|dock4
  -GOLD-   22720 0533D 1   1.00000     0.00000
 Structure written by MMmdl.
 32 34  0  0  0  0  0  0  0  0  1 V2000
  148.8696  139.9753  154.0310 O   0  0  0  0  0  0  0  0  0  0  0  0
  148.7114  140.8304  155.1445 C   0  0  1  0  0  0  0  0  0  0  0  0
  149.9546  141.7370  155.2392 C   0  0  0  0  0  0  0  0  0  0  0  0
  150.9083  141.2610  156.2259 N   0  0  0  0  0  0  0  0  0  0  0  0
  151.6469  140.1368  156.1586 C   0  0  0  0  0  0  0  0  0  0  0  0
  152.4557  139.8767  157.1819 N   0  0  0  0  0  0  0  0  0  0  0  0
  152.2146  140.9587  158.0110 C   0  0  0  0  0  0  0  0  0  0  0  0
  152.7575  141.2840  159.2746 C   0  0  0  0  0  0  0  0  0  0  0  0
  152.3517  142.4556  159.9469 C   0  0  0  0  0  0  0  0  0  0  0  0
  152.8808  142.7512  161.1578 F   0  0  0  0  0  0  0  0  0  0  0  0
  151.3994  143.3194  159.3659 C   0  0  0  0  0  0  0  0  0  0  0  0
  151.0133  144.4409  160.0191 F   0  0  0  0  0  0  0  0  0  0  0  0
  150.8477  143.0177  158.1064 C   0  0  0  0  0  0  0  0  0  0  0  0
  151.2531  141.8462  157.4402 C   0  0  0  0  0  0  0  0  0  0  0  0
  147.4173  141.6300  155.0774 C   0  0  0  0  0  0  0  0  0  0  0  0
  146.5454  141.6533  156.1874 C   0  0  0  0  0  0  0  0  0  0  0  0
  145.3622  142.4159  156.1455 C   0  0  0  0  0  0  0  0  0  0  0  0
  145.0428  143.1586  154.9927 C   0  0  0  0  0  0  0  0  0  0  0  0
  143.9068  143.8941  154.9536 F   0  0  0  0  0  0  0  0  0  0  0  0
  145.9071  143.1379  153.8815 C   0  0  0  0  0  0  0  0  0  0  0  0
  147.0910  142.3761  153.9233 C   0  0  0  0  0  0  0  0  0  0  0  0
  149.7763  139.7127  153.9819 H   0  0  0  0  0  0  0  0  0  0  0  0
  148.6773  140.1847  156.0232 H   0  0  0  0  0  0  0  0  0  0  0  0
  150.4649  141.7745  154.2755 H   0  0  0  0  0  0  0  0  0  0  0  0
  149.6727  142.7625  155.4816 H   0  0  0  0  0  0  0  0  0  0  0  0
  151.5841  139.4695  155.3114 H   0  0  0  0  0  0  0  0  0  0  0  0
  153.4865  140.6300  159.7296 H   0  0  0  0  0  0  0  0  0  0  0  0
  150.1173  143.6767  157.6612 H   0  0  0  0  0  0  0  0  0  0  0  0
  146.7872  141.0955  157.0802 H   0  0  0  0  0  0  0  0  0  0  0  0
  144.7013  142.4336  156.9994 H   0  0  0  0  0  0  0  0  0  0  0  0
  145.6644  143.7097  152.9979 H   0  0  0  0  0  0  0  0  0  0  0  0
  147.7527  142.3752  153.0694 H   0  0  0  0  0  0  0  0  0  0  0  0
  1  2  1  0  0  0  0
  1 22  1  0  0  0  0
  2  3  1  0  0  0  0
  2 15  1  0  0  0  0
  2 23  1  0  0  0  0
  3  4  1  0  0  0  0
  3 24  1  0  0  0  0
  3 25  1  0  0  0  0
  4 14  1  0  0  0  0
  4  5  1  0  0  0  0
  5  6  2  0  0  0  0
  5 26  1  0  0  0  0
  6  7  1  0  0  0  0
  7 14  2  0  0  0  0
  7  8  1  0  0  0  0
  8  9  2  0  0  0  0
  8 27  1  0  0  0  0
  9 10  1  0  0  0  0
  9 11  1  0  0  0  0
 11 12  1  0  0  0  0
 11 13  2  0  0  0  0
 13 14  1  0  0  0  0
 13 28  1  0  0  0  0
 15 21  1  0  0  0  0
 15 16  2  0  0  0  0
 16 17  1  0  0  0  0
 16 29  1  0  0  0  0
 17 18  2  0  0  0  0
 17 30  1  0  0  0  0
 18 19  1  0  0  0  0
 18 20  1  0  0  0  0
 20 21  2  0  0  0  0
 20 31  1  0  0  0  0
 21 32  1  0  0  0  0
M  END
> <s_m_source_file>
AV-unprocessed.smi

> <i_m_source_file_index>
739

> <i_lp_mmshare_version>
43012

> <i_f3d_flags>
0

> <s_epik_input>
W2NIXTFbY0hdYyhGKVtjSF1bY0hdYzFbQ0BIXShbT0hdKVtDSDJdbihbY0hdbjIpYyhjMjMpW2NIXWMoRiljKEYpW2NIXTM=

> <s_epik_cmdline>
J2VwaWtfcHl0aG9uJywgJy1waCcsICc3LjAnLCAnLXRuJywgJzgnLCAnLW1hJywgJzIwMCcsICctbWV0YWxfYmluZGluZycsICctaW1hZScsICc8aW5maWxlLm1hZT4nLCAnLW9tYWUnLCAnPG91dGZpbGUubWFlPic=

> <r_epik_Ionization_Penalty>
0.0156356

> <r_epik_Ionization_Penalty_Charging>
0

> <r_epik_Ionization_Penalty_Neutral>
0.0156356

> <r_epik_State_Penalty>
0.0122974

> <r_epik_Charging_Adjusted_Penalty>
0.0122974

> <i_epik_Tot_Q>
0

> <i_epik_Tot_abs_Q>
0

> <r_epik_Metal_State_Penalty>
1.24258e-05

> <b_epik_Metal_Only>
0

> <s_lp_Force_Field>
OPLS_2005

> <r_lp_Energy>
11.0695

> <b_lp_Chiralities_Consistent>
1

> <s_lp_Variant>
AV-unprocessed.smi:739-2

> <Gold.Version>
5.8.1

> <Gold.Id.Protein>
6NUR|6NUR_protein|mol2

> <Gold.PLP.Fitness>
49.2578

> <Gold.PLP.PLP>
-47.9211

> <Gold.PLP.part.hbond>
-1.9837

> <Gold.PLP.part.metal>
0.0000

> <Gold.PLP.part.buried>
-6.5446

> <Gold.PLP.part.nonpolar>
-39.6709

> <Gold.PLP.part.repulsive>
0.0000

> <Gold.PLP.ligand.clash>
0.0000

> <Gold.PLP.ligand.torsion>
0.8387

> <Gold.PLP.Chemscore.Hbond>
1.0000

> <Gold.PLP.Chemscore.CHOScore>
0.0000

> <Gold.PLP.Chemscore.Metal>
0.0000

> <Gold.Chemscore.Hbonds>
donor molecule, donor type, donor heavy atom, donor atom, acceptor molecule, acceptor atom, score
      P1  H  7997  8008       L1     6  1.00

> <Gold.PLP.Chemscore.Internal.Correction>
0.0141

> <Gold.Rescore>
     Score         DG    S(hbond)    S(metal)    S(lipo)     H(rot)  DE(clash)    DE(int)     intcor
     12.74     -14.28       0.75        0.00      98.94       2.07       0.38       1.17       ----

> <Gold.Chemscore.Fitness>
12.7363

> <Gold.Chemscore.DG>
-14.2775

> <Gold.Chemscore.ZeroCoef>
-5.4800

> <Gold.Chemscore.Hbond>
0.7547

> <Gold.Chemscore.Metal>
0.0000

> <Gold.Chemscore.Lipo>
98.9395

> <Gold.Chemscore.Internal_Hbond>
0.0000

> <Gold.Chemscore.DEClash>
0.3758

> <Gold.Chemscore.DEInternal>
1.1654

> <Gold.Chemscore.Rot>
2.0700

> <Gold.Chemscore.Internal.Correction>
   9.000000E+99

> <Gold.Chemscore.Hbonds>
donor molecule, donor type, donor heavy atom, donor atom, acceptor molecule, acceptor atom, score
      P1  H  7997  8008       L1     6  0.32

> <Gold.Chemscore.Hbond.Weighted>
-2.5208

> <Gold.Chemscore.Metal.Weighted>
-0.0000

> <Gold.Chemscore.Lipo.Weighted>
-11.5759

> <Gold.Chemscore.Internal_Hbond.Weighted>
0.0000

> <Gold.Chemscore.DEClash.Weighted>
0.3758

> <Gold.Chemscore.DEInternal.Weighted>
1.1654

> <Gold.Chemscore.Rot.Weighted>
5.2992

> <Gold.Chemscore.Internal.Correction.Weighted>
   9.000000E+99

> <Gold.Protein.RotatedTorsions>
[ 6907 6896 6895 6894 ] final  -97.46 input  -60.11 | X-H torsion
[ 7974 7965 7964 7962 ] final -152.47 input  175.53 | X-H torsion
[ 8008 7997 7996 7995 ] final  -66.18 input   59.86 | X-H torsion
[ 10167 10162 10161 10158 ] final -165.83 input  -65.29 | X-H torsion
[ 10718 10713 10712 10709 ] final    3.64 input   66.30 | X-H torsion
[ 10763 10752 10751 10750 ] final  128.13 input  -60.55 | X-H torsion
[ 11005 11000 10999 10996 ] final    6.17 input  -57.11 | X-H torsion

> <Gold.Protein.ActiveResidues>
 VAL166  LYS551  ARG553  GLY616  TRP617  ASP618  TYR619  PRO620  LYS621  CYS622 
 ASP623  PHE694  ASN695  SER759  ASP760  ASP761  ALA762  ILE779  LEU786  VAL792 
 PHE793  MET794  SER795  GLU796  ALA797  LYS798  CYS799  TRP800  GLU811  SER814 

> <Gold.Protein.RotatedAtoms>
  150.7017  134.1344  159.4081 H   0  0  0  0  0  0  0  0  0  0  0  0  # atno 6907 bound_to 6896
  151.9330  135.0246  160.0540 H   0  0  0  0  0  0  0  0  0  0  0  0  # atno 6908 bound_to 6896
  152.2159  133.4911  159.5172 H   0  0  0  0  0  0  0  0  0  0  0  0  # atno 6909 bound_to 6896
  144.7793  140.4658  143.5851 H   0  0  0  0  0  0  0  0  0  0  0  0  # atno 7974 bound_to 7965
  154.4718  140.0918  156.7164 H   0  0  0  0  0  0  0  0  0  0  0  0  # atno 8008 bound_to 7997
  155.4702  140.3464  155.4306 H   0  0  0  0  0  0  0  0  0  0  0  0  # atno 8009 bound_to 7997
  156.1052  140.1433  156.9402 H   0  0  0  0  0  0  0  0  0  0  0  0  # atno 8010 bound_to 7997
  139.6156  144.0727  152.1884 H   0  0  0  0  0  0  0  0  0  0  0  0  # atno 10167 bound_to 10162
  156.8809  130.5653  149.5653 H   0  0  0  0  0  0  0  0  0  0  0  0  # atno 10718 bound_to 10713
  153.7206  135.3254  155.3266 H   0  0  0  0  0  0  0  0  0  0  0  0  # atno 10763 bound_to 10752
  154.8357  135.4498  154.1221 H   0  0  0  0  0  0  0  0  0  0  0  0  # atno 10764 bound_to 10752
  153.2341  135.6963  153.7937 H   0  0  0  0  0  0  0  0  0  0  0  0  # atno 10765 bound_to 10752
  140.5624  134.0179  155.7977 H   0  0  0  0  0  0  0  0  0  0  0  0  # atno 11005 bound_to 11000
  145.6097  139.1512  143.3083 LP  0  0  0  0  0  0  0  0  0  0  0  0  # atno 17320 bound_to 7965
  146.1991  140.6214  142.9110 LP  0  0  0  0  0  0  0  0  0  0  0  0  # atno 17321 bound_to 7965
  140.0356  144.6047  150.7452 LP  0  0  0  0  0  0  0  0  0  0  0  0  # atno 17342 bound_to 10162
  140.7348  143.2734  151.3818 LP  0  0  0  0  0  0  0  0  0  0  0  0  # atno 17343 bound_to 10162
  156.0678  130.5717  150.9323 LP  0  0  0  0  0  0  0  0  0  0  0  0  # atno 17370 bound_to 10713
  157.6141  131.0934  150.8742 LP  0  0  0  0  0  0  0  0  0  0  0  0  # atno 17371 bound_to 10713
  141.1106  133.9622  157.2917 LP  0  0  0  0  0  0  0  0  0  0  0  0  # atno 17394 bound_to 11000
  139.9401  135.0192  156.8681 LP  0  0  0  0  0  0  0  0  0  0  0  0  # atno 17395 bound_to 11000

$$$$
