AV-unprocessed.smi:3146|AV-procd|sdf|11985|dock4
  -GOLD-   2272017393D 1   1.00000     0.00000
 Structure written by MMmdl.
 35 36  0  0  0  0  0  0  0  0  2 V2000
  153.8322  141.2159  161.0247 O   0  0  0  0  0  0  0  0  0  0  0  0
  153.2839  142.2236  161.4741 C   0  0  0  0  0  0  0  0  0  0  0  0
  153.4242  142.5646  162.9646 C   0  0  0  0  0  0  0  0  0  0  0  0
  154.8253  142.4969  163.4276 N   0  3  0  0  0  0  0  0  0  0  0  0
  154.9809  142.5360  164.8956 C   0  0  0  0  0  0  0  0  0  0  0  0
  154.8821  143.9702  165.4399 C   0  0  0  0  0  0  0  0  0  0  0  0
  155.1822  144.0428  166.8585 N   0  0  0  0  0  0  0  0  0  0  0  0
  155.2599  143.0124  167.7719 C   0  0  0  0  0  0  0  0  0  0  0  0
  155.5746  143.5645  168.9805 C   0  0  0  0  0  0  0  0  0  0  0  0
  155.6684  144.9571  168.7031 C   0  0  0  0  0  0  0  0  0  0  0  0
  155.4350  145.2399  167.4314 N   0  0  0  0  0  0  0  0  0  0  0  0
  152.5572  143.0525  160.6965 N   0  0  0  0  0  0  0  0  0  0  0  0
  152.3142  142.8853  159.2639 C   0  0  0  0  0  0  0  0  0  0  0  0
  151.2643  143.9348  158.8974 C   0  0  0  0  0  0  0  0  0  0  0  0
  151.4359  145.0200  159.9515 C   0  0  0  0  0  0  0  0  0  0  0  0
  151.9055  144.2628  161.1937 C   0  0  0  0  0  0  0  0  0  0  0  0
  153.0401  143.5704  163.1398 H   0  0  0  0  0  0  0  0  0  0  0  0
  152.8233  141.8702  163.5533 H   0  0  0  0  0  0  0  0  0  0  0  0
  155.2334  141.6384  163.0851 H   0  0  0  0  0  0  0  0  0  0  0  0
  154.2009  141.9208  165.3457 H   0  0  0  0  0  0  0  0  0  0  0  0
  155.9377  142.0939  165.1767 H   0  0  0  0  0  0  0  0  0  0  0  0
  155.5519  144.6390  164.8969 H   0  0  0  0  0  0  0  0  0  0  0  0
  153.8718  144.3522  165.2884 H   0  0  0  0  0  0  0  0  0  0  0  0
  155.0873  141.9839  167.4901 H   0  0  0  0  0  0  0  0  0  0  0  0
  155.7150  143.0520  169.9208 H   0  0  0  0  0  0  0  0  0  0  0  0
  155.8986  145.7645  169.3828 H   0  0  0  0  0  0  0  0  0  0  0  0
  153.2420  143.0701  158.7205 H   0  0  0  0  0  0  0  0  0  0  0  0
  151.9657  141.8821  159.0150 H   0  0  0  0  0  0  0  0  0  0  0  0
  151.3784  144.3105  157.8801 H   0  0  0  0  0  0  0  0  0  0  0  0
  150.2674  143.5001  158.9825 H   0  0  0  0  0  0  0  0  0  0  0  0
  152.2117  145.7180  159.6337 H   0  0  0  0  0  0  0  0  0  0  0  0
  150.5231  145.5912  160.1236 H   0  0  0  0  0  0  0  0  0  0  0  0
  151.0539  143.9782  161.8133 H   0  0  0  0  0  0  0  0  0  0  0  0
  152.5770  144.8733  161.7995 H   0  0  0  0  0  0  0  0  0  0  0  0
  155.3337  143.2717  163.0255 H   0  0  0  0  0  0  0  0  0  0  0  0
  1  2  2  0  0  0  0
  2  3  1  0  0  0  0
  2 12  1  0  0  0  0
  3  4  1  0  0  0  0
  3 17  1  0  0  0  0
  3 18  1  0  0  0  0
  4  5  1  0  0  0  0
  4 19  1  0  0  0  0
  4 35  1  0  0  0  0
  5  6  1  0  0  0  0
  5 20  1  0  0  0  0
  5 21  1  0  0  0  0
  6  7  1  0  0  0  0
  6 22  1  0  0  0  0
  6 23  1  0  0  0  0
  7 11  1  0  0  0  0
  7  8  1  0  0  0  0
  8  9  2  0  0  0  0
  8 24  1  0  0  0  0
  9 10  1  0  0  0  0
  9 25  1  0  0  0  0
 10 11  2  0  0  0  0
 10 26  1  0  0  0  0
 12 16  1  0  0  0  0
 12 13  1  0  0  0  0
 13 14  1  0  0  0  0
 13 27  1  0  0  0  0
 13 28  1  0  0  0  0
 14 15  1  0  0  0  0
 14 29  1  0  0  0  0
 14 30  1  0  0  0  0
 15 16  1  0  0  0  0
 15 31  1  0  0  0  0
 15 32  1  0  0  0  0
 16 33  1  0  0  0  0
 16 34  1  0  0  0  0
M  CHG  1   4   1
M  END
> <s_m_source_file>
AV-unprocessed.smi

> <i_m_source_file_index>
3146

> <i_lp_mmshare_version>
43012

> <i_f3d_flags>
0

> <s_epik_input>
W0NIMl0xW0NIMl1bQ0gyXVtDSDJdTjFDKD1PKVtDSDJdW05IXVtDSDJdW0NIMl1uMltjSF1bY0hdW2NIXW4y

> <s_epik_cmdline>
J2VwaWtfcHl0aG9uJywgJy1waCcsICc3LjAnLCAnLXRuJywgJzgnLCAnLW1hJywgJzIwMCcsICctbWV0YWxfYmluZGluZycsICctaW1hZScsICc8aW5maWxlLm1hZT4nLCAnLW9tYWUnLCAnPG91dGZpbGUubWFlPic=

> <r_lp_tautomer_probability>
1

> <r_epik_Ionization_Penalty>
0.203171

> <r_epik_Ionization_Penalty_Charging>
0.203168

> <r_epik_Ionization_Penalty_Neutral>
2.33614e-06

> <r_epik_State_Penalty>
0.193072

> <r_epik_Charging_Adjusted_Penalty>
0.39624

> <i_epik_Tot_Q>
1

> <i_epik_Tot_abs_Q>
1

> <r_epik_Metal_State_Penalty>
0.193553

> <b_epik_Metal_Only>
0

> <s_lp_Force_Field>
OPLS_2005

> <r_lp_Energy>
25.7734

> <b_lp_Chiralities_Consistent>
1

> <s_lp_Variant>
AV-unprocessed.smi:3146-1

> <Gold.Version>
5.8.1

> <Gold.Id.Protein>
6NUR|6NUR_protein|mol2

> <Gold.PLP.Fitness>
48.3460

> <Gold.PLP.PLP>
-49.1830

> <Gold.PLP.part.hbond>
-2.0000

> <Gold.PLP.part.metal>
0.0000

> <Gold.PLP.part.buried>
-4.7181

> <Gold.PLP.part.nonpolar>
-41.1413

> <Gold.PLP.part.repulsive>
0.1318

> <Gold.PLP.ligand.clash>
0.0000

> <Gold.PLP.ligand.torsion>
0.4459

> <Gold.PLP.Chemscore.Hbond>
0.0000

> <Gold.PLP.Chemscore.CHOScore>
0.0000

> <Gold.PLP.Chemscore.Metal>
0.0000

> <Gold.PLP.Chemscore.Internal.Correction>
0.0548

> <Gold.Rescore>
     Score         DG    S(hbond)    S(metal)    S(lipo)     H(rot)  DE(clash)    DE(int)     intcor
     10.50     -12.42       0.00        0.00     100.87       1.90       1.46       0.46       ----

> <Gold.Chemscore.Fitness>
10.4974

> <Gold.Chemscore.DG>
-12.4242

> <Gold.Chemscore.ZeroCoef>
-5.4800

> <Gold.Chemscore.Hbond>
0.0000

> <Gold.Chemscore.Metal>
0.0000

> <Gold.Chemscore.Lipo>
100.8666

> <Gold.Chemscore.Internal_Hbond>
0.0000

> <Gold.Chemscore.DEClash>
1.4619

> <Gold.Chemscore.DEInternal>
0.4649

> <Gold.Chemscore.Rot>
1.8974

> <Gold.Chemscore.Internal.Correction>
   9.000000E+99

> <Gold.Chemscore.Hbond.Weighted>
-0.0000

> <Gold.Chemscore.Metal.Weighted>
-0.0000

> <Gold.Chemscore.Lipo.Weighted>
-11.8014

> <Gold.Chemscore.Internal_Hbond.Weighted>
0.0000

> <Gold.Chemscore.DEClash.Weighted>
1.4619

> <Gold.Chemscore.DEInternal.Weighted>
0.4649

> <Gold.Chemscore.Rot.Weighted>
4.8572

> <Gold.Chemscore.Internal.Correction.Weighted>
   9.000000E+99

> <Gold.Protein.RotatedTorsions>
[ 6907 6896 6895 6894 ] final   88.30 input  -60.11 | X-H torsion
[ 7974 7965 7964 7962 ] final  130.18 input  175.53 | X-H torsion
[ 8008 7997 7996 7995 ] final -157.25 input   59.86 | X-H torsion
[ 10167 10162 10161 10158 ] final -112.04 input  -65.29 | X-H torsion
[ 10718 10713 10712 10709 ] final  -51.74 input   66.30 | X-H torsion
[ 10763 10752 10751 10750 ] final  172.46 input  -60.55 | X-H torsion
[ 11005 11000 10999 10996 ] final   38.87 input  -57.11 | X-H torsion

> <Gold.Protein.ActiveResidues>
 VAL166  LYS551  ARG553  GLY616  TRP617  ASP618  TYR619  PRO620  LYS621  CYS622 
 ASP623  PHE694  ASN695  SER759  ASP760  ASP761  ALA762  ILE779  LEU786  VAL792 
 PHE793  MET794  SER795  GLU796  ALA797  LYS798  CYS799  TRP800  GLU811  SER814 

> <Gold.Protein.RotatedAtoms>
  152.5423  134.2143  159.8762 H   0  0  0  0  0  0  0  0  0  0  0  0  # atno 6907 bound_to 6896
  151.2124  133.4542  159.2606 H   0  0  0  0  0  0  0  0  0  0  0  0  # atno 6908 bound_to 6896
  151.0884  134.9914  159.8446 H   0  0  0  0  0  0  0  0  0  0  0  0  # atno 6909 bound_to 6896
  145.0206  139.4135  143.5199 H   0  0  0  0  0  0  0  0  0  0  0  0  # atno 7974 bound_to 7965
  155.7296  140.0800  157.2295 H   0  0  0  0  0  0  0  0  0  0  0  0  # atno 8008 bound_to 7997
  154.4034  140.1598  156.2548 H   0  0  0  0  0  0  0  0  0  0  0  0  # atno 8009 bound_to 7997
  155.9121  140.3403  155.6110 H   0  0  0  0  0  0  0  0  0  0  0  0  # atno 8010 bound_to 7997
  140.1271  143.4393  152.1652 H   0  0  0  0  0  0  0  0  0  0  0  0  # atno 10167 bound_to 10162
  156.1683  130.4149  149.9687 H   0  0  0  0  0  0  0  0  0  0  0  0  # atno 10718 bound_to 10713
  154.4264  135.2759  155.1941 H   0  0  0  0  0  0  0  0  0  0  0  0  # atno 10763 bound_to 10752
  154.3866  135.6075  153.5823 H   0  0  0  0  0  0  0  0  0  0  0  0  # atno 10764 bound_to 10752
  152.9834  135.5893  154.4568 H   0  0  0  0  0  0  0  0  0  0  0  0  # atno 10765 bound_to 10752
  140.2084  134.3785  155.8061 H   0  0  0  0  0  0  0  0  0  0  0  0  # atno 11005 bound_to 11000
  146.3485  139.9702  142.8707 LP  0  0  0  0  0  0  0  0  0  0  0  0  # atno 17320 bound_to 7965
  145.1900  140.9807  143.4216 LP  0  0  0  0  0  0  0  0  0  0  0  0  # atno 17321 bound_to 7965
  139.5539  144.7358  151.4354 LP  0  0  0  0  0  0  0  0  0  0  0  0  # atno 17342 bound_to 10162
  140.6838  143.8020  150.7158 LP  0  0  0  0  0  0  0  0  0  0  0  0  # atno 17343 bound_to 10162
  156.7495  130.9110  151.3636 LP  0  0  0  0  0  0  0  0  0  0  0  0  # atno 17370 bound_to 10713
  157.6784  130.9116  150.0206 LP  0  0  0  0  0  0  0  0  0  0  0  0  # atno 17371 bound_to 10713
  141.2226  133.7130  156.8375 LP  0  0  0  0  0  0  0  0  0  0  0  0  # atno 17394 bound_to 11000
  140.1978  134.8919  157.3134 LP  0  0  0  0  0  0  0  0  0  0  0  0  # atno 17395 bound_to 11000

$$$$
