AV-unprocessed.smi:2032|AV-procd|sdf|8257|dock2
  -GOLD-   2272010533D 1   1.00000     0.00000
 Structure written by MMmdl.
 42 43  0  0  0  0  0  0  0  0  3 V2000
  152.2012  145.6107  160.2970 C   0  0  0  0  0  0  0  0  0  0  0  0
  151.0412  145.1390  159.4128 C   0  0  2  0  0  0  0  0  0  0  0  0
  149.7360  144.9681  160.2115 C   0  0  0  0  0  0  0  0  0  0  0  0
  148.6340  144.4376  159.3604 N   0  3  2  0  0  0  0  0  0  0  0  0
  147.3354  144.2767  160.0978 C   0  0  1  0  0  0  0  0  0  0  0  0
  146.9116  145.5934  160.7957 C   0  0  0  0  0  0  0  0  0  0  0  0
  146.1937  143.7675  159.1788 C   0  0  0  0  0  0  0  0  0  0  0  0
  145.7151  144.8012  158.2681 N   0  0  0  0  0  0  0  0  0  0  0  0
  144.4553  145.2496  158.2011 C   0  0  0  0  0  0  0  0  0  0  0  0
  143.5964  144.7804  158.9511 O   0  0  0  0  0  0  0  0  0  0  0  0
  144.2727  146.2139  157.2715 N   0  5  0  0  0  0  0  0  0  0  0  0
  144.7374  147.4548  157.4893 C   0  0  0  0  0  0  0  0  0  0  0  0
  144.8234  148.3798  156.5266 N   0  0  0  0  0  0  0  0  0  0  0  0
  145.3427  149.5971  156.9713 C   0  0  0  0  0  0  0  0  0  0  0  0
  145.6675  149.5962  158.3018 C   0  0  0  0  0  0  0  0  0  0  0  0
  145.3291  148.0570  159.0405 S   0  0  0  0  0  0  0  0  0  0  0  0
  149.0941  143.2031  158.6638 C   0  0  0  0  0  0  0  0  0  0  0  0
  150.4252  143.4278  157.9220 C   0  0  2  0  0  0  0  0  0  0  0  0
  150.9522  142.1399  157.2787 C   0  0  0  0  0  0  0  0  0  0  0  0
  151.4029  143.8910  158.8412 O   0  0  0  0  0  0  0  0  0  0  0  0
  151.9800  146.5750  160.7551 H   0  0  0  0  0  0  0  0  0  0  0  0
  153.1151  145.7234  159.7133 H   0  0  0  0  0  0  0  0  0  0  0  0
  152.4038  144.8984  161.0973 H   0  0  0  0  0  0  0  0  0  0  0  0
  150.8936  145.8729  158.6183 H   0  0  0  0  0  0  0  0  0  0  0  0
  149.8961  144.2960  161.0563 H   0  0  0  0  0  0  0  0  0  0  0  0
  149.4786  145.9438  160.6186 H   0  0  0  0  0  0  0  0  0  0  0  0
  147.4913  143.5247  160.8733 H   0  0  0  0  0  0  0  0  0  0  0  0
  145.9327  145.5150  161.2678 H   0  0  0  0  0  0  0  0  0  0  0  0
  146.8636  146.4189  160.0850 H   0  0  0  0  0  0  0  0  0  0  0  0
  147.5898  145.8744  161.5998 H   0  0  0  0  0  0  0  0  0  0  0  0
  146.5312  142.9013  158.6069 H   0  0  0  0  0  0  0  0  0  0  0  0
  145.3226  143.4609  159.7562 H   0  0  0  0  0  0  0  0  0  0  0  0
  146.3886  145.2108  157.6375 H   0  0  0  0  0  0  0  0  0  0  0  0
  145.4488  150.4115  156.2701 H   0  0  0  0  0  0  0  0  0  0  0  0
  146.0839  150.4003  158.8893 H   0  0  0  0  0  0  0  0  0  0  0  0
  149.1958  142.3940  159.3891 H   0  0  0  0  0  0  0  0  0  0  0  0
  148.3685  142.8845  157.9179 H   0  0  0  0  0  0  0  0  0  0  0  0
  150.2862  144.1729  157.1365 H   0  0  0  0  0  0  0  0  0  0  0  0
  150.2432  141.7451  156.5505 H   0  0  0  0  0  0  0  0  0  0  0  0
  151.1281  141.3672  158.0275 H   0  0  0  0  0  0  0  0  0  0  0  0
  151.8941  142.3205  156.7600 H   0  0  0  0  0  0  0  0  0  0  0  0
  148.4694  145.1256  158.6394 H   0  0  0  0  0  0  0  0  0  0  0  0
  1  2  1  0  0  0  0
  1 21  1  0  0  0  0
  1 22  1  0  0  0  0
  1 23  1  0  0  0  0
  2 20  1  0  0  0  0
  2  3  1  0  0  0  0
  2 24  1  0  0  0  0
  3  4  1  0  0  0  0
  3 25  1  0  0  0  0
  3 26  1  0  0  0  0
  4  5  1  0  0  0  0
  4 17  1  0  0  0  0
  4 42  1  0  0  0  0
  5  6  1  0  0  0  0
  5  7  1  0  0  0  0
  5 27  1  0  0  0  0
  6 28  1  0  0  0  0
  6 29  1  0  0  0  0
  6 30  1  0  0  0  0
  7  8  1  0  0  0  0
  7 31  1  0  0  0  0
  7 32  1  0  0  0  0
  8  9  1  0  0  0  0
  8 33  1  0  0  0  0
  9 10  2  0  0  0  0
  9 11  1  0  0  0  0
 11 12  1  0  0  0  0
 12 16  1  0  0  0  0
 12 13  2  0  0  0  0
 13 14  1  0  0  0  0
 14 15  2  0  0  0  0
 14 34  1  0  0  0  0
 15 16  1  0  0  0  0
 15 35  1  0  0  0  0
 17 18  1  0  0  0  0
 17 36  1  0  0  0  0
 17 37  1  0  0  0  0
 18 19  1  0  0  0  0
 18 20  1  0  0  0  0
 18 38  1  0  0  0  0
 19 39  1  0  0  0  0
 19 40  1  0  0  0  0
 19 41  1  0  0  0  0
M  CHG  1   4   1
M  CHG  1  11  -1
M  END
> <s_m_source_file>
AV-unprocessed.smi

> <i_m_source_file_index>
2032

> <i_lp_mmshare_version>
43012

> <i_f3d_flags>
0

> <s_epik_input>
W0NIM11bQ0BASF0xW0NIMl1OKFtDSDJdW0NASF0oTzEpW0NIM10pW0NASF0oW0NIM10pW0NIMl1bTkhdQyg9TylbTkhdYzJuW2NIXVtjSF1zMg==

> <s_epik_cmdline>
J2VwaWtfcHl0aG9uJywgJy1waCcsICc3LjAnLCAnLXRuJywgJzgnLCAnLW1hJywgJzIwMCcsICctbWV0YWxfYmluZGluZycsICctaW1hZScsICc8aW5maWxlLm1hZT4nLCAnLW9tYWUnLCAnPG91dGZpbGUubWFlPic=

> <r_lp_tautomer_probability>
0.999

> <r_epik_Ionization_Penalty>
6.71699

> <r_epik_Ionization_Penalty_Charging>
5.88592

> <r_epik_Ionization_Penalty_Neutral>
0.831074

> <r_epik_State_Penalty>
6.08365

> <r_epik_Charging_Adjusted_Penalty>
11.9696

> <i_epik_Tot_Q>
0

> <i_epik_Tot_abs_Q>
2

> <r_epik_Metal_State_Penalty>
2.0947

> <b_epik_Metal_Only>
1

> <s_lp_Force_Field>
OPLS_2005

> <r_lp_Energy>
10.3148

> <b_lp_Chiralities_Consistent>
1

> <s_lp_Variant>
AV-unprocessed.smi:2032-27

> <Gold.Version>
5.8.1

> <Gold.Id.Protein>
6NUR|6NUR_protein|mol2

> <Gold.PLP.Fitness>
45.5103

> <Gold.PLP.PLP>
-38.0340

> <Gold.PLP.part.hbond>
-3.0000

> <Gold.PLP.part.metal>
0.0000

> <Gold.PLP.part.buried>
-7.0673

> <Gold.PLP.part.nonpolar>
-28.3664

> <Gold.PLP.part.repulsive>
0.4688

> <Gold.PLP.ligand.clash>
0.0000

> <Gold.PLP.ligand.torsion>
0.8073

> <Gold.PLP.Chemscore.Hbond>
3.0000

> <Gold.PLP.Chemscore.CHOScore>
0.0000

> <Gold.PLP.Chemscore.Metal>
0.0000

> <Gold.Chemscore.Hbonds>
donor molecule, donor type, donor heavy atom, donor atom, acceptor molecule, acceptor atom, score
      L1  H     4    42       P1  8029  2.00
      L1  H     8    33       P1  8029  1.00

> <Gold.PLP.Chemscore.Internal.Correction>
0.0909

> <Gold.Rescore>
     Score         DG    S(hbond)    S(metal)    S(lipo)     H(rot)  DE(clash)    DE(int)     intcor
     16.35     -18.57       1.87        0.00      93.08       1.58       1.26       0.96       ----

> <Gold.Chemscore.Fitness>
16.3520

> <Gold.Chemscore.DG>
-18.5739

> <Gold.Chemscore.ZeroCoef>
-5.4800

> <Gold.Chemscore.Hbond>
1.8701

> <Gold.Chemscore.Metal>
0.0000

> <Gold.Chemscore.Lipo>
93.0784

> <Gold.Chemscore.Internal_Hbond>
0.0000

> <Gold.Chemscore.DEClash>
1.2590

> <Gold.Chemscore.DEInternal>
0.9630

> <Gold.Chemscore.Rot>
1.5791

> <Gold.Chemscore.Internal.Correction>
   9.000000E+99

> <Gold.Chemscore.Hbonds>
donor molecule, donor type, donor heavy atom, donor atom, acceptor molecule, acceptor atom, score
      L1  H     4    42       P1  8029  1.00
      L1  H     8    33       P1  8029  0.44

> <Gold.Chemscore.Hbond.Weighted>
-6.2462

> <Gold.Chemscore.Metal.Weighted>
-0.0000

> <Gold.Chemscore.Lipo.Weighted>
-10.8902

> <Gold.Chemscore.Internal_Hbond.Weighted>
0.0000

> <Gold.Chemscore.DEClash.Weighted>
1.2590

> <Gold.Chemscore.DEInternal.Weighted>
0.9630

> <Gold.Chemscore.Rot.Weighted>
4.0425

> <Gold.Chemscore.Internal.Correction.Weighted>
   9.000000E+99

> <Gold.Protein.RotatedTorsions>
[ 6907 6896 6895 6894 ] final  113.42 input  -60.11 | X-H torsion
[ 7974 7965 7964 7962 ] final  -67.52 input  175.53 | X-H torsion
[ 8008 7997 7996 7995 ] final  -15.27 input   59.86 | X-H torsion
[ 10167 10162 10161 10158 ] final   80.26 input  -65.29 | X-H torsion
[ 10718 10713 10712 10709 ] final  -29.70 input   66.30 | X-H torsion
[ 10763 10752 10751 10750 ] final  -16.34 input  -60.55 | X-H torsion
[ 11005 11000 10999 10996 ] final  123.64 input  -57.11 | X-H torsion

> <Gold.Protein.ActiveResidues>
 VAL166  LYS551  ARG553  GLY616  TRP617  ASP618  TYR619  PRO620  LYS621  CYS622 
 ASP623  PHE694  ASN695  SER759  ASP760  ASP761  ALA762  ILE779  LEU786  VAL792 
 PHE793  MET794  SER795  GLU796  ALA797  LYS798  CYS799  TRP800  GLU811  SER814 

> <Gold.Protein.RotatedAtoms>
  152.4861  133.8378  159.7136 H   0  0  0  0  0  0  0  0  0  0  0  0  # atno 6907 bound_to 6896
  150.8950  133.7184  159.2901 H   0  0  0  0  0  0  0  0  0  0  0  0  # atno 6908 bound_to 6896
  151.4644  135.1045  159.9786 H   0  0  0  0  0  0  0  0  0  0  0  0  # atno 6909 bound_to 6896
  145.7282  140.9009  143.0594 H   0  0  0  0  0  0  0  0  0  0  0  0  # atno 7974 bound_to 7965
  154.5144  140.2201  155.9094 H   0  0  0  0  0  0  0  0  0  0  0  0  # atno 8008 bound_to 7997
  156.1590  140.3146  155.8740 H   0  0  0  0  0  0  0  0  0  0  0  0  # atno 8009 bound_to 7997
  155.3789  140.0471  157.3035 H   0  0  0  0  0  0  0  0  0  0  0  0  # atno 8010 bound_to 7997
  139.9516  144.6022  150.8156 H   0  0  0  0  0  0  0  0  0  0  0  0  # atno 10167 bound_to 10162
  156.4092  130.4405  149.7265 H   0  0  0  0  0  0  0  0  0  0  0  0  # atno 10718 bound_to 10713
  153.5571  135.7010  153.5564 H   0  0  0  0  0  0  0  0  0  0  0  0  # atno 10763 bound_to 10752
  153.3462  135.4007  155.1611 H   0  0  0  0  0  0  0  0  0  0  0  0  # atno 10764 bound_to 10752
  154.8653  135.3754  154.5086 H   0  0  0  0  0  0  0  0  0  0  0  0  # atno 10765 bound_to 10752
  139.9322  134.9641  156.8290 H   0  0  0  0  0  0  0  0  0  0  0  0  # atno 11005 bound_to 11000
  144.6899  139.9294  143.7471 LP  0  0  0  0  0  0  0  0  0  0  0  0  # atno 17320 bound_to 7965
  146.0563  139.3559  143.0609 LP  0  0  0  0  0  0  0  0  0  0  0  0  # atno 17321 bound_to 7965
  140.7581  143.3100  151.2868 LP  0  0  0  0  0  0  0  0  0  0  0  0  # atno 17342 bound_to 10162
  139.6624  144.0166  152.2701 LP  0  0  0  0  0  0  0  0  0  0  0  0  # atno 17343 bound_to 10162
  156.4250  130.7787  151.2806 LP  0  0  0  0  0  0  0  0  0  0  0  0  # atno 17370 bound_to 10713
  157.7506  131.0171  150.3572 LP  0  0  0  0  0  0  0  0  0  0  0  0  # atno 17371 bound_to 10713
  140.6171  134.0028  155.7602 LP  0  0  0  0  0  0  0  0  0  0  0  0  # atno 17394 bound_to 11000
  141.0917  133.9907  157.3227 LP  0  0  0  0  0  0  0  0  0  0  0  0  # atno 17395 bound_to 11000

$$$$
