AV-unprocessed.smi:2109|AV-procd|sdf|8607|dock1
  -GOLD-   2272011343D 1   1.00000     0.00000
 Structure written by MMmdl.
 46 47  0  0  0  0  0  0  0  0  2 V2000
  152.3174  142.9423  160.1745 C   0  0  0  0  0  0  0  0  0  0  0  0
  151.9639  144.3891  159.7875 C   0  0  0  0  0  0  0  0  0  0  0  0
  150.4965  144.6918  160.1251 C   0  0  0  0  0  0  0  0  0  0  0  0
  152.2547  144.7001  158.3042 C   0  0  0  0  0  0  0  0  0  0  0  0
  151.2728  144.0977  157.4064 N   0  0  0  0  0  0  0  0  0  0  0  0
  151.1640  142.7889  157.1380 C   0  0  0  0  0  0  0  0  0  0  0  0
  151.8897  141.9189  157.6190 O   0  0  0  0  0  0  0  0  0  0  0  0
  150.1612  142.5379  156.2845 N   0  0  0  0  0  0  0  0  0  0  0  0
  149.8144  141.2184  155.7612 C   0  0  0  0  0  0  0  0  0  0  0  0
  148.5175  141.1394  154.9613 C   0  0  0  0  0  0  0  0  0  0  0  0
  148.3367  140.0599  154.0716 C   0  0  0  0  0  0  0  0  0  0  0  0
  147.1460  139.9700  153.3278 C   0  0  0  0  0  0  0  0  0  0  0  0
  146.1899  140.9105  153.4754 N   0  3  0  0  0  0  0  0  0  0  0  0
  146.2953  141.9683  154.3157 C   0  0  0  0  0  0  0  0  0  0  0  0
  145.2107  142.8710  154.3851 N   0  0  0  0  0  0  0  0  0  0  0  0
  144.4572  142.9508  155.6337 C   0  0  0  0  0  0  0  0  0  0  0  0
  143.1486  143.7318  155.4270 C   0  0  0  0  0  0  0  0  0  0  0  0
  143.4355  145.0071  154.8652 O   0  0  0  0  0  0  0  0  0  0  0  0
  144.0441  144.8924  153.5839 C   0  0  0  0  0  0  0  0  0  0  0  0
  145.3887  144.1563  153.7105 C   0  0  0  0  0  0  0  0  0  0  0  0
  147.4817  142.0983  155.0822 C   0  0  0  0  0  0  0  0  0  0  0  0
  151.7690  142.2243  159.5637 H   0  0  0  0  0  0  0  0  0  0  0  0
  152.0731  142.7448  161.2185 H   0  0  0  0  0  0  0  0  0  0  0  0
  153.3814  142.7407  160.0511 H   0  0  0  0  0  0  0  0  0  0  0  0
  152.5792  145.0529  160.3966 H   0  0  0  0  0  0  0  0  0  0  0  0
  149.8193  144.0562  159.5534 H   0  0  0  0  0  0  0  0  0  0  0  0
  150.2462  145.7295  159.9028 H   0  0  0  0  0  0  0  0  0  0  0  0
  150.2940  144.5264  161.1839 H   0  0  0  0  0  0  0  0  0  0  0  0
  152.3217  145.7783  158.1487 H   0  0  0  0  0  0  0  0  0  0  0  0
  153.2300  144.2968  158.0310 H   0  0  0  0  0  0  0  0  0  0  0  0
  150.6281  144.7297  156.9546 H   0  0  0  0  0  0  0  0  0  0  0  0
  149.6176  143.3188  155.9464 H   0  0  0  0  0  0  0  0  0  0  0  0
  150.6344  140.8996  155.1171 H   0  0  0  0  0  0  0  0  0  0  0  0
  149.7694  140.4911  156.5736 H   0  0  0  0  0  0  0  0  0  0  0  0
  149.1034  139.3069  153.9583 H   0  0  0  0  0  0  0  0  0  0  0  0
  146.9290  139.1774  152.6263 H   0  0  0  0  0  0  0  0  0  0  0  0
  144.2137  141.9514  155.9952 H   0  0  0  0  0  0  0  0  0  0  0  0
  145.0690  143.4381  156.3939 H   0  0  0  0  0  0  0  0  0  0  0  0
  142.4647  143.1818  154.7783 H   0  0  0  0  0  0  0  0  0  0  0  0
  142.6397  143.8696  156.3811 H   0  0  0  0  0  0  0  0  0  0  0  0
  143.3769  144.3691  152.8968 H   0  0  0  0  0  0  0  0  0  0  0  0
  144.2009  145.8908  153.1751 H   0  0  0  0  0  0  0  0  0  0  0  0
  146.0924  144.7598  154.2853 H   0  0  0  0  0  0  0  0  0  0  0  0
  145.8133  144.0315  152.7145 H   0  0  0  0  0  0  0  0  0  0  0  0
  147.6036  142.9291  155.7580 H   0  0  0  0  0  0  0  0  0  0  0  0
  145.3349  140.8146  152.9272 H   0  0  0  0  0  0  0  0  0  0  0  0
  1  2  1  0  0  0  0
  1 22  1  0  0  0  0
  1 23  1  0  0  0  0
  1 24  1  0  0  0  0
  2  3  1  0  0  0  0
  2  4  1  0  0  0  0
  2 25  1  0  0  0  0
  3 26  1  0  0  0  0
  3 27  1  0  0  0  0
  3 28  1  0  0  0  0
  4  5  1  0  0  0  0
  4 29  1  0  0  0  0
  4 30  1  0  0  0  0
  5  6  1  0  0  0  0
  5 31  1  0  0  0  0
  6  7  2  0  0  0  0
  6  8  1  0  0  0  0
  8  9  1  0  0  0  0
  8 32  1  0  0  0  0
  9 10  1  0  0  0  0
  9 33  1  0  0  0  0
  9 34  1  0  0  0  0
 10 21  1  0  0  0  0
 10 11  2  0  0  0  0
 11 12  1  0  0  0  0
 11 35  1  0  0  0  0
 12 13  2  0  0  0  0
 12 36  1  0  0  0  0
 13 14  1  0  0  0  0
 13 46  1  0  0  0  0
 14 15  1  0  0  0  0
 14 21  2  0  0  0  0
 15 20  1  0  0  0  0
 15 16  1  0  0  0  0
 16 17  1  0  0  0  0
 16 37  1  0  0  0  0
 16 38  1  0  0  0  0
 17 18  1  0  0  0  0
 17 39  1  0  0  0  0
 17 40  1  0  0  0  0
 18 19  1  0  0  0  0
 19 20  1  0  0  0  0
 19 41  1  0  0  0  0
 19 42  1  0  0  0  0
 20 43  1  0  0  0  0
 20 44  1  0  0  0  0
 21 45  1  0  0  0  0
M  CHG  1  13   1
M  END
> <s_m_source_file>
AV-unprocessed.smi

> <i_m_source_file_index>
2109

> <i_lp_mmshare_version>
43012

> <i_f3d_flags>
0

> <s_epik_input>
W0NIM11bQ0hdKFtDSDNdKVtDSDJdW05IXUMoPU8pW05IXVtDSDJdYzFbY0hdW2NIXW5jKFtjSF0xKU4yW0NIMl1bQ0gyXU9bQ0gyXVtDSDJdMg==

> <s_epik_cmdline>
J2VwaWtfcHl0aG9uJywgJy1waCcsICc3LjAnLCAnLXRuJywgJzgnLCAnLW1hJywgJzIwMCcsICctbWV0YWxfYmluZGluZycsICctaW1hZScsICc8aW5maWxlLm1hZT4nLCAnLW9tYWUnLCAnPG91dGZpbGUubWFlPic=

> <r_lp_tautomer_probability>
0.999994

> <r_epik_Ionization_Penalty>
2.29114

> <r_epik_Ionization_Penalty_Charging>
2.2911

> <r_epik_Ionization_Penalty_Neutral>
4.11828e-05

> <r_epik_State_Penalty>
2.44112

> <r_epik_Charging_Adjusted_Penalty>
4.73222

> <i_epik_Tot_Q>
1

> <i_epik_Tot_abs_Q>
1

> <r_epik_Metal_State_Penalty>
2.45346

> <b_epik_Metal_Only>
0

> <s_lp_Force_Field>
OPLS_2005

> <r_lp_Energy>
19.1618

> <b_lp_Chiralities_Consistent>
1

> <s_lp_Variant>
AV-unprocessed.smi:2109-2

> <Gold.Version>
5.8.1

> <Gold.Id.Protein>
6NUR|6NUR_protein|mol2

> <Gold.PLP.Fitness>
52.5580

> <Gold.PLP.PLP>
-42.4827

> <Gold.PLP.part.hbond>
-3.0000

> <Gold.PLP.part.metal>
0.0000

> <Gold.PLP.part.buried>
-1.7636

> <Gold.PLP.part.nonpolar>
-38.7411

> <Gold.PLP.part.repulsive>
0.4495

> <Gold.PLP.ligand.clash>
0.0000

> <Gold.PLP.ligand.torsion>
0.7053

> <Gold.PLP.Chemscore.Hbond>
3.6490

> <Gold.PLP.Chemscore.CHOScore>
0.0000

> <Gold.PLP.Chemscore.Metal>
0.0000

> <Gold.Chemscore.Hbonds>
donor molecule, donor type, donor heavy atom, donor atom, acceptor molecule, acceptor atom, score
      L1  H     5    31       P1  8028  0.63
      L1  H     8    32       P1  8028  1.00
      L1  H    13    46       P1 10175  2.00

> <Gold.PLP.Chemscore.Internal.Correction>
0.5390

> <Gold.Rescore>
     Score         DG    S(hbond)    S(metal)    S(lipo)     H(rot)  DE(clash)    DE(int)     intcor
     20.00     -20.93       2.52        0.00      99.84       1.82       0.17       0.75       ----

> <Gold.Chemscore.Fitness>
20.0010

> <Gold.Chemscore.DG>
-20.9256

> <Gold.Chemscore.ZeroCoef>
-5.4800

> <Gold.Chemscore.Hbond>
2.5205

> <Gold.Chemscore.Metal>
0.0000

> <Gold.Chemscore.Lipo>
99.8402

> <Gold.Chemscore.Internal_Hbond>
0.0000

> <Gold.Chemscore.DEClash>
0.1730

> <Gold.Chemscore.DEInternal>
0.7515

> <Gold.Chemscore.Rot>
1.8180

> <Gold.Chemscore.Internal.Correction>
   9.000000E+99

> <Gold.Chemscore.Hbonds>
donor molecule, donor type, donor heavy atom, donor atom, acceptor molecule, acceptor atom, score
      L1  H     5    31       P1  8028  0.47
      L1  H     8    32       P1  8028  0.99
      L1  H    13    46       P1 10175  0.45

> <Gold.Chemscore.Hbond.Weighted>
-8.4184

> <Gold.Chemscore.Metal.Weighted>
-0.0000

> <Gold.Chemscore.Lipo.Weighted>
-11.6813

> <Gold.Chemscore.Internal_Hbond.Weighted>
0.0000

> <Gold.Chemscore.DEClash.Weighted>
0.1730

> <Gold.Chemscore.DEInternal.Weighted>
0.7515

> <Gold.Chemscore.Rot.Weighted>
4.6541

> <Gold.Chemscore.Internal.Correction.Weighted>
   9.000000E+99

> <Gold.Protein.RotatedTorsions>
[ 6907 6896 6895 6894 ] final -115.10 input  -60.11 | X-H torsion
[ 7974 7965 7964 7962 ] final  -57.80 input  175.53 | X-H torsion
[ 8008 7997 7996 7995 ] final  -99.35 input   59.86 | X-H torsion
[ 10167 10162 10161 10158 ] final  152.29 input  -65.29 | X-H torsion
[ 10718 10713 10712 10709 ] final -126.01 input   66.30 | X-H torsion
[ 10763 10752 10751 10750 ] final    2.16 input  -60.55 | X-H torsion
[ 11005 11000 10999 10996 ] final  -52.16 input  -57.11 | X-H torsion

> <Gold.Protein.ActiveResidues>
 VAL166  LYS551  ARG553  GLY616  TRP617  ASP618  TYR619  PRO620  LYS621  CYS622 
 ASP623  PHE694  ASN695  SER759  ASP760  ASP761  ALA762  ILE779  LEU786  VAL792 
 PHE793  MET794  SER795  GLU796  ALA797  LYS798  CYS799  TRP800  GLU811  SER814 

> <Gold.Protein.RotatedAtoms>
  150.7952  133.8706  159.3257 H   0  0  0  0  0  0  0  0  0  0  0  0  # atno 6907 bound_to 6896
  151.6534  135.0997  160.0174 H   0  0  0  0  0  0  0  0  0  0  0  0  # atno 6908 bound_to 6896
  152.4033  133.6811  159.6370 H   0  0  0  0  0  0  0  0  0  0  0  0  # atno 6909 bound_to 6896
  145.8467  140.8380  143.0006 H   0  0  0  0  0  0  0  0  0  0  0  0  # atno 7974 bound_to 7965
  154.8137  140.0448  157.1361 H   0  0  0  0  0  0  0  0  0  0  0  0  # atno 8008 bound_to 7997
  154.9339  140.3043  155.5134 H   0  0  0  0  0  0  0  0  0  0  0  0  # atno 8009 bound_to 7997
  156.2974  140.2318  156.4402 H   0  0  0  0  0  0  0  0  0  0  0  0  # atno 8010 bound_to 7997
  139.4834  144.5370  151.7628 H   0  0  0  0  0  0  0  0  0  0  0  0  # atno 10167 bound_to 10162
  156.1726  130.6678  151.0200 H   0  0  0  0  0  0  0  0  0  0  0  0  # atno 10718 bound_to 10713
  153.2990  135.6954  153.7221 H   0  0  0  0  0  0  0  0  0  0  0  0  # atno 10763 bound_to 10752
  153.6142  135.3439  155.2990 H   0  0  0  0  0  0  0  0  0  0  0  0  # atno 10764 bound_to 10752
  154.8545  135.4371  154.2095 H   0  0  0  0  0  0  0  0  0  0  0  0  # atno 10765 bound_to 10752
  141.0910  133.6633  156.3984 H   0  0  0  0  0  0  0  0  0  0  0  0  # atno 11005 bound_to 11000
  144.6731  140.0893  143.7466 LP  0  0  0  0  0  0  0  0  0  0  0  0  # atno 17320 bound_to 7965
  145.9403  139.2665  143.1272 LP  0  0  0  0  0  0  0  0  0  0  0  0  # atno 17321 bound_to 7965
  140.4904  144.1319  150.5949 LP  0  0  0  0  0  0  0  0  0  0  0  0  # atno 17342 bound_to 10162
  140.4177  143.2626  151.9754 LP  0  0  0  0  0  0  0  0  0  0  0  0  # atno 17343 bound_to 10162
  157.6814  131.0837  150.7360 LP  0  0  0  0  0  0  0  0  0  0  0  0  # atno 17370 bound_to 10713
  156.7419  130.4742  149.5475 LP  0  0  0  0  0  0  0  0  0  0  0  0  # atno 17371 bound_to 10713
  140.5252  134.6265  157.5332 LP  0  0  0  0  0  0  0  0  0  0  0  0  # atno 17394 bound_to 11000
  139.9736  134.7253  155.9994 LP  0  0  0  0  0  0  0  0  0  0  0  0  # atno 17395 bound_to 11000

$$$$
