#       Name:                AV-unprocessed.smi:35
#       Creating user name   scv26
#       Creation time:       Thu Mar 26 16:02:50 2020


#       File generated by GOLD software.
#

@<TRIPOS>MOLECULE
AV-unprocessed.smi:35
    41    42     1
SMALL
NO_CHARGES


@<TRIPOS>ATOM
      1 ****        -4.0726   2.6381   1.9590 O.2            1 S1                 0.0000
      2 ****        -3.1081   2.1632   1.3635 C.2            1 S1                 0.0000
      3 ****        -3.2064   1.8367   0.0085 N.am           1 S1                 0.0000
      4 ****        -2.1849   1.2887  -0.7693 C.2            1 S1                 0.0000
      5 ****        -2.3789   1.0555  -1.9618 O.2            1 S1                 0.0000
      6 ****        -0.9516   1.0235  -0.1314 N.am           1 S1                 0.0000
      7 ****         0.1756   0.4427  -0.9684 C.3            1 S1                 0.0000
      8 ****         1.3411   0.3754  -0.2004 O.3            1 S1                 0.0000
      9 ****         1.4821  -0.9338   0.3419 C.3            1 S1                 0.0000
     10 ****         2.9126  -1.1779   0.8518 C.3            1 S1                 0.0000
     11 ****         3.0523  -0.6568   2.1564 O.3            1 S1                 0.0000
     12 ****         1.0332  -1.8060  -0.8339 C.3            1 S1                 0.0000
     13 ****         2.0886  -1.9601  -1.7696 O.3            1 S1                 0.0000
     14 ****        -0.1439  -1.0089  -1.3965 C.3            1 S1                 0.0000
     15 ****        -0.2900  -1.1678  -2.7959 O.3            1 S1                 0.0000
     16 ****        -0.8002   1.3592   1.2108 C.2            1 S1                 0.0000
     17 ****        -1.8003   1.8948   1.9499 C.2            1 S1                 0.0000
     18 ****        -1.3844   2.2954   3.8451 Br             1 S1                 0.0000
     19 ****        -4.0892   2.0173  -0.4469 H              1 S1                 0.0000
     20 ****         0.3180   1.1450  -1.7921 H              1 S1                 0.0000
     21 ****         0.7682  -1.0710   1.1564 H              1 S1                 0.0000
     22 ****         3.1155  -2.2479   0.9036 H              1 S1                 0.0000
     23 ****         3.6552  -0.7360   0.1867 H              1 S1                 0.0000
     24 ****         3.9352  -0.8194   2.4514 H              1 S1                 0.0000
     25 ****         0.7245  -2.7989  -0.5049 H              1 S1                 0.0000
     26 ****         1.7416  -2.3826  -2.5409 H              1 S1                 0.0000
     27 ****        -1.0603  -1.3386  -0.9043 H              1 S1                 0.0000
     28 ****        -1.0144  -0.6315  -3.0816 H              1 S1                 0.0000
     29 ****         0.1428   1.2014   1.7116 H              1 S1                 0.0000
     30 ****        -3.9955   2.8740   2.9278 LP             1 S1                 0.0000
     31 ****        -4.9346   2.7887   1.4749 LP             1 S1                 0.0000
     32 ****        -3.2677   1.2585  -2.3728 LP             1 S1                 0.0000
     33 ****        -1.6479   0.6630  -2.5198 LP             1 S1                 0.0000
     34 ****         1.2872   1.0401   0.5448 LP             1 S1                 0.0000
     35 ****         2.1315   0.5838  -0.7764 LP             1 S1                 0.0000
     36 ****         2.4033  -1.1062   2.7704 LP             1 S1                 0.0000
     37 ****         2.8756   0.3274   2.1472 LP             1 S1                 0.0000
     38 ****         2.8132  -2.5233  -1.3724 LP             1 S1                 0.0000
     39 ****         2.4587  -1.0635  -2.0126 LP             1 S1                 0.0000
     40 ****        -0.4745  -2.1271  -3.0098 LP             1 S1                 0.0000
     41 ****         0.5480  -0.8783  -3.2583 LP             1 S1                 0.0000
@<TRIPOS>BOND
    1    1    2 2     
    2    2   17 1     
    3    2    3 1     
    4    3   19 1     
    5    3    4 1     
    6    4    5 2     
    7    4    6 1     
    8    6    7 1     
    9    6   16 1     
   10    7   14 1     
   11    7    8 1     
   12    7   20 1     
   13    8    9 1     
   14    9   10 1     
   15    9   12 1     
   16    9   21 1     
   17   10   11 1     
   18   10   22 1     
   19   10   23 1     
   20   11   24 1     
   21   12   13 1     
   22   12   14 1     
   23   12   25 1     
   24   13   26 1     
   25   14   15 1     
   26   14   27 1     
   27   15   28 1     
   28   16   17 2     
   29   16   29 1     
   30   17   18 1     
   31    1   30 1     
   32    1   31 1     
   33    5   32 1     
   34    5   33 1     
   35    8   34 1     
   36    8   35 1     
   37   11   36 1     
   38   11   37 1     
   39   13   38 1     
   40   13   39 1     
   41   15   40 1     
   42   15   41 1     
@<TRIPOS>SUBSTRUCTURE
      1 S1             1
@<TRIPOS>SET
LONE_PAIRS      STATIC     ATOMS    <user>   **** ""
12 30 31 32 33 34 35 36 37 38 39 40 41
DONOR_HYDROGENS      STATIC     ATOMS    <user>   **** ""
4 19 24 26 28
ATOM$BLUE        STATIC     ATOMS    COLORGROUP SYSTEM
12 30 31 32 33 34 35 36 37 38 39 40 41
ATOM$RED        STATIC     ATOMS    COLORGROUP SYSTEM
4 19 24 26 28
