AV-unprocessed.smi:1274|AV-procd|sdf|5341|dock10
  -GOLD-   22720 4473D 1   1.00000     0.00000
 Structure written by MMmdl.
 36 37  0  0  0  0  0  0  0  0  2 V2000
  151.5063  139.3592  159.2192 O   0  0  0  0  0  0  0  0  0  0  0  0
  152.4089  140.1873  158.4029 S   0  0  0  0  0  0  0  0  0  0  0  0
  153.8588  139.9936  158.5708 O   0  0  0  0  0  0  0  0  0  0  0  0
  151.9319  140.2896  156.8584 N   0  5  0  0  0  0  0  0  0  0  0  0
  151.1136  139.2312  156.2930 C   0  0  0  0  0  0  0  0  0  0  0  0
  150.9193  139.4640  154.7786 C   0  0  0  0  0  0  0  0  0  0  0  0
  149.5034  139.8637  154.3740 C   0  0  0  0  0  0  0  0  0  0  0  0
  149.0585  141.1973  154.5089 C   0  0  0  0  0  0  0  0  0  0  0  0
  147.7421  141.5189  154.1268 C   0  0  0  0  0  0  0  0  0  0  0  0
  146.9194  140.4895  153.6286 C   0  0  0  0  0  0  0  0  0  0  0  0
  147.3274  139.2086  153.5013 N   0  0  0  0  0  0  0  0  0  0  0  0
  148.5928  138.9097  153.8671 C   0  0  0  0  0  0  0  0  0  0  0  0
  152.1000  141.8432  158.8376 N   0  0  0  0  0  0  0  0  0  0  0  0
  152.5925  142.2952  160.1556 C   0  0  0  0  0  0  0  0  0  0  0  0
  151.9451  143.6253  160.5778 C   0  0  0  0  0  0  0  0  0  0  0  0
  152.1367  144.7031  159.5081 C   0  0  0  0  0  0  0  0  0  0  0  0
  151.5780  144.1944  158.1770 C   0  0  0  0  0  0  0  0  0  0  0  0
  152.2342  142.8649  157.7725 C   0  0  0  0  0  0  0  0  0  0  0  0
  151.5580  138.2467  156.4433 H   0  0  0  0  0  0  0  0  0  0  0  0
  150.1350  139.1917  156.7721 H   0  0  0  0  0  0  0  0  0  0  0  0
  151.6013  140.2486  154.4490 H   0  0  0  0  0  0  0  0  0  0  0  0
  151.2085  138.5694  154.2250 H   0  0  0  0  0  0  0  0  0  0  0  0
  149.7184  141.9619  154.8924 H   0  0  0  0  0  0  0  0  0  0  0  0
  147.3734  142.5302  154.2122 H   0  0  0  0  0  0  0  0  0  0  0  0
  145.9043  140.7005  153.3265 H   0  0  0  0  0  0  0  0  0  0  0  0
  148.8879  137.8772  153.7514 H   0  0  0  0  0  0  0  0  0  0  0  0
  152.3742  141.5416  160.9116 H   0  0  0  0  0  0  0  0  0  0  0  0
  153.6775  142.3955  160.1118 H   0  0  0  0  0  0  0  0  0  0  0  0
  150.8798  143.4712  160.7552 H   0  0  0  0  0  0  0  0  0  0  0  0
  152.3703  143.9605  161.5240 H   0  0  0  0  0  0  0  0  0  0  0  0
  151.6324  145.6235  159.8036 H   0  0  0  0  0  0  0  0  0  0  0  0
  153.1958  144.9408  159.4026 H   0  0  0  0  0  0  0  0  0  0  0  0
  150.4987  144.0585  158.2574 H   0  0  0  0  0  0  0  0  0  0  0  0
  151.7386  144.9389  157.3969 H   0  0  0  0  0  0  0  0  0  0  0  0
  153.2936  143.0159  157.5622 H   0  0  0  0  0  0  0  0  0  0  0  0
  151.7824  142.5122  156.8461 H   0  0  0  0  0  0  0  0  0  0  0  0
  1  2  2  0  0  0  0
  2  3  2  0  0  0  0
  2  4  1  0  0  0  0
  2 13  1  0  0  0  0
  4  5  1  0  0  0  0
  5  6  1  0  0  0  0
  5 19  1  0  0  0  0
  5 20  1  0  0  0  0
  6  7  1  0  0  0  0
  6 21  1  0  0  0  0
  6 22  1  0  0  0  0
  7 12  1  0  0  0  0
  7  8  2  0  0  0  0
  8  9  1  0  0  0  0
  8 23  1  0  0  0  0
  9 10  2  0  0  0  0
  9 24  1  0  0  0  0
 10 11  1  0  0  0  0
 10 25  1  0  0  0  0
 11 12  2  0  0  0  0
 12 26  1  0  0  0  0
 13 18  1  0  0  0  0
 13 14  1  0  0  0  0
 14 15  1  0  0  0  0
 14 27  1  0  0  0  0
 14 28  1  0  0  0  0
 15 16  1  0  0  0  0
 15 29  1  0  0  0  0
 15 30  1  0  0  0  0
 16 17  1  0  0  0  0
 16 31  1  0  0  0  0
 16 32  1  0  0  0  0
 17 18  1  0  0  0  0
 17 33  1  0  0  0  0
 17 34  1  0  0  0  0
 18 35  1  0  0  0  0
 18 36  1  0  0  0  0
M  CHG  1   4  -1
M  END
> <s_m_source_file>
AV-unprocessed.smi

> <i_m_source_file_index>
1274

> <i_lp_mmshare_version>
43012

> <i_f3d_flags>
0

> <s_epik_input>
W0NIMl0xW0NIMl1bQ0gyXVtDSDJdW0NIMl1OMVMoPU8pKD1PKVtOSF1bQ0gyXVtDSDJdYzJbY0hdW2NIXVtjSF1uW2NIXTI=

> <s_epik_cmdline>
J2VwaWtfcHl0aG9uJywgJy1waCcsICc3LjAnLCAnLXRuJywgJzgnLCAnLW1hJywgJzIwMCcsICctbWV0YWxfYmluZGluZycsICctaW1hZScsICc8aW5maWxlLm1hZT4nLCAnLW9tYWUnLCAnPG91dGZpbGUubWFlPic=

> <r_epik_Ionization_Penalty>
1.98317

> <r_epik_Ionization_Penalty_Charging>
1.95606

> <r_epik_Ionization_Penalty_Neutral>
0.027117

> <r_epik_State_Penalty>
2.28376

> <r_epik_Charging_Adjusted_Penalty>
4.23982

> <i_epik_Tot_Q>
-1

> <i_epik_Tot_abs_Q>
1

> <r_epik_Metal_State_Penalty>
0.598332

> <b_epik_Metal_Only>
0

> <s_lp_Force_Field>
OPLS_2005

> <r_lp_Energy>
4.69546

> <b_lp_Chiralities_Consistent>
1

> <s_lp_Variant>
AV-unprocessed.smi:1274-2

> <Gold.Version>
5.8.1

> <Gold.Id.Protein>
6NUR|6NUR_protein|mol2

> <Gold.PLP.Fitness>
42.1662

> <Gold.PLP.PLP>
-35.5003

> <Gold.PLP.part.hbond>
-1.2229

> <Gold.PLP.part.metal>
0.0000

> <Gold.PLP.part.buried>
0.4517

> <Gold.PLP.part.nonpolar>
-33.4195

> <Gold.PLP.part.repulsive>
0.2119

> <Gold.PLP.ligand.clash>
0.0234

> <Gold.PLP.ligand.torsion>
1.9200

> <Gold.PLP.Chemscore.Hbond>
1.0000

> <Gold.PLP.Chemscore.CHOScore>
1.9899

> <Gold.PLP.Chemscore.Metal>
0.0000

> <Gold.Chemscore.Hbonds>
donor molecule, donor type, donor heavy atom, donor atom, acceptor molecule, acceptor atom, score
      P1  H  7997  8009       L1     3  1.00
      L1  C    10    25       P1 10175  1.00
      L1  C    12    26       P1  7948  1.00

> <Gold.PLP.Chemscore.Internal.Correction>
1.5598

> <Gold.Rescore>
     Score         DG    S(hbond)    S(metal)    S(lipo)     H(rot)  DE(clash)    DE(int)     intcor
     14.79     -17.69       0.96        0.00     108.63       1.45       1.00       1.89       ----

> <Gold.Chemscore.Fitness>
14.7934

> <Gold.Chemscore.DG>
-17.6883

> <Gold.Chemscore.ZeroCoef>
-5.4800

> <Gold.Chemscore.Hbond>
0.9646

> <Gold.Chemscore.Metal>
0.0000

> <Gold.Chemscore.Lipo>
108.6290

> <Gold.Chemscore.Internal_Hbond>
0.0000

> <Gold.Chemscore.DEClash>
1.0015

> <Gold.Chemscore.DEInternal>
1.8933

> <Gold.Chemscore.Rot>
1.4544

> <Gold.Chemscore.Internal.Correction>
   9.000000E+99

> <Gold.Chemscore.Hbonds>
donor molecule, donor type, donor heavy atom, donor atom, acceptor molecule, acceptor atom, score
      P1  H  7997  8009       L1     3  0.88

> <Gold.Chemscore.Hbond.Weighted>
-3.2218

> <Gold.Chemscore.Metal.Weighted>
-0.0000

> <Gold.Chemscore.Lipo.Weighted>
-12.7096

> <Gold.Chemscore.Internal_Hbond.Weighted>
0.0000

> <Gold.Chemscore.DEClash.Weighted>
1.0015

> <Gold.Chemscore.DEInternal.Weighted>
1.8933

> <Gold.Chemscore.Rot.Weighted>
3.7232

> <Gold.Chemscore.Internal.Correction.Weighted>
   9.000000E+99

> <Gold.Protein.RotatedTorsions>
[ 6907 6896 6895 6894 ] final  -53.16 input  -60.11 | X-H torsion
[ 7974 7965 7964 7962 ] final  -73.49 input  175.53 | X-H torsion
[ 8008 7997 7996 7995 ] final  143.60 input   59.86 | X-H torsion
[ 10167 10162 10161 10158 ] final   -9.13 input  -65.29 | X-H torsion
[ 10718 10713 10712 10709 ] final   55.47 input   66.30 | X-H torsion
[ 10763 10752 10751 10750 ] final   15.65 input  -60.55 | X-H torsion
[ 11005 11000 10999 10996 ] final   76.13 input  -57.11 | X-H torsion

> <Gold.Protein.ActiveResidues>
 VAL166  LYS551  ARG553  GLY616  TRP617  ASP618  TYR619  PRO620  LYS621  CYS622 
 ASP623  PHE694  ASN695  SER759  ASP760  ASP761  ALA762  ILE779  LEU786  VAL792 
 PHE793  MET794  SER795  GLU796  ALA797  LYS798  CYS799  TRP800  GLU811  SER814 

> <Gold.Protein.RotatedAtoms>
  150.8452  134.7758  159.6964 H   0  0  0  0  0  0  0  0  0  0  0  0  # atno 6907 bound_to 6896
  152.4530  134.5348  159.9831 H   0  0  0  0  0  0  0  0  0  0  0  0  # atno 6908 bound_to 6896
  151.5480  133.3384  159.2983 H   0  0  0  0  0  0  0  0  0  0  0  0  # atno 6909 bound_to 6896
  145.6515  140.9281  143.0982 H   0  0  0  0  0  0  0  0  0  0  0  0  # atno 7974 bound_to 7965
  156.2926  140.2258  156.4917 H   0  0  0  0  0  0  0  0  0  0  0  0  # atno 8008 bound_to 7997
  154.7765  140.0463  157.1114 H   0  0  0  0  0  0  0  0  0  0  0  0  # atno 8009 bound_to 7997
  154.9810  140.3078  155.4949 H   0  0  0  0  0  0  0  0  0  0  0  0  # atno 8010 bound_to 7997
  140.7079  143.5891  150.8912 H   0  0  0  0  0  0  0  0  0  0  0  0  # atno 10167 bound_to 10162
  157.5348  130.8655  149.8738 H   0  0  0  0  0  0  0  0  0  0  0  0  # atno 10718 bound_to 10713
  153.1505  135.6777  153.8889 H   0  0  0  0  0  0  0  0  0  0  0  0  # atno 10763 bound_to 10752
  153.8317  135.3117  155.3420 H   0  0  0  0  0  0  0  0  0  0  0  0  # atno 10764 bound_to 10752
  154.7858  135.4863  154.0030 H   0  0  0  0  0  0  0  0  0  0  0  0  # atno 10765 bound_to 10752
  139.9312  134.7575  156.1357 H   0  0  0  0  0  0  0  0  0  0  0  0  # atno 11005 bound_to 11000
  144.7121  139.8332  143.7411 LP  0  0  0  0  0  0  0  0  0  0  0  0  # atno 17320 bound_to 7965
  146.1200  139.4216  143.0234 LP  0  0  0  0  0  0  0  0  0  0  0  0  # atno 17321 bound_to 7965
  139.9617  143.6156  152.3000 LP  0  0  0  0  0  0  0  0  0  0  0  0  # atno 17342 bound_to 10162
  139.6711  144.7661  151.1781 LP  0  0  0  0  0  0  0  0  0  0  0  0  # atno 17343 bound_to 10162
  156.0450  130.3730  150.1340 LP  0  0  0  0  0  0  0  0  0  0  0  0  # atno 17370 bound_to 10713
  156.9523  130.9778  151.3496 LP  0  0  0  0  0  0  0  0  0  0  0  0  # atno 17371 bound_to 10713
  141.0902  133.6717  156.2523 LP  0  0  0  0  0  0  0  0  0  0  0  0  # atno 17394 bound_to 11000
  140.6197  134.5374  157.5546 LP  0  0  0  0  0  0  0  0  0  0  0  0  # atno 17395 bound_to 11000

$$$$
