AV-unprocessed.smi:2360|AV-procd|sdf|9410|dock8
  -GOLD-   2272013 43D 1   1.00000     0.00000
 Structure written by MMmdl.
 34 35  0  0  0  0  0  0  0  0  1 V2000
  151.3142  144.9413  159.5501 C   0  0  0  0  0  0  0  0  0  0  0  0
  152.1667  143.7302  159.8848 C   0  0  0  0  0  0  0  0  0  0  0  0
  152.3870  142.8375  158.8321 N   0  0  0  0  0  0  0  0  0  0  0  0
  153.1027  141.7784  159.0248 C   0  0  0  0  0  0  0  0  0  0  0  0
  153.6731  141.4891  160.2761 N   0  0  0  0  0  0  0  0  0  0  0  0
  154.4749  140.2557  160.3593 C   0  0  0  0  0  0  0  0  0  0  0  0
  153.6734  139.0048  159.9323 C   0  0  1  0  0  0  0  0  0  0  0  0
  153.8803  138.7729  158.5534 O   0  0  0  0  0  0  0  0  0  0  0  0
  154.0755  137.7911  160.7565 C   0  0  0  0  0  0  0  0  0  0  0  0
  154.6640  136.6655  160.1384 C   0  0  0  0  0  0  0  0  0  0  0  0
  155.0406  135.5481  160.9085 C   0  0  0  0  0  0  0  0  0  0  0  0
  154.8327  135.5494  162.3012 C   0  0  0  0  0  0  0  0  0  0  0  0
  155.1959  134.4746  163.0406 F   0  0  0  0  0  0  0  0  0  0  0  0
  154.2481  136.6697  162.9234 C   0  0  0  0  0  0  0  0  0  0  0  0
  154.0477  136.6742  164.2628 F   0  0  0  0  0  0  0  0  0  0  0  0
  153.8720  137.7876  162.1532 C   0  0  0  0  0  0  0  0  0  0  0  0
  153.5066  142.3061  161.3560 C   0  0  0  0  0  0  0  0  0  0  0  0
  154.0093  142.0454  162.4505 O   0  0  0  0  0  0  0  0  0  0  0  0
  152.6920  143.5094  161.1208 C   0  0  0  0  0  0  0  0  0  0  0  0
  152.4865  144.4471  162.3041 C   0  0  0  0  0  0  0  0  0  0  0  0
  151.8769  145.8609  159.7115 H   0  0  0  0  0  0  0  0  0  0  0  0
  150.4211  144.9640  160.1750 H   0  0  0  0  0  0  0  0  0  0  0  0
  150.9927  144.9254  158.5082 H   0  0  0  0  0  0  0  0  0  0  0  0
  153.3102  141.0534  158.2359 H   0  0  0  0  0  0  0  0  0  0  0  0
  155.4053  140.3305  159.7930 H   0  0  0  0  0  0  0  0  0  0  0  0
  154.8038  140.1308  161.3933 H   0  0  0  0  0  0  0  0  0  0  0  0
  152.6065  139.1783  160.0793 H   0  0  0  0  0  0  0  0  0  0  0  0
  153.5403  137.9180  158.3382 H   0  0  0  0  0  0  0  0  0  0  0  0
  154.8301  136.6570  159.0710 H   0  0  0  0  0  0  0  0  0  0  0  0
  155.4903  134.6903  160.4305 H   0  0  0  0  0  0  0  0  0  0  0  0
  153.4273  138.6428  162.6407 H   0  0  0  0  0  0  0  0  0  0  0  0
  151.9816  143.9225  163.1156 H   0  0  0  0  0  0  0  0  0  0  0  0
  151.8905  145.3246  162.0591 H   0  0  0  0  0  0  0  0  0  0  0  0
  153.4493  144.7991  162.6761 H   0  0  0  0  0  0  0  0  0  0  0  0
  1  2  1  0  0  0  0
  1 21  1  0  0  0  0
  1 22  1  0  0  0  0
  1 23  1  0  0  0  0
  2 19  2  0  0  0  0
  2  3  1  0  0  0  0
  3  4  2  0  0  0  0
  4  5  1  0  0  0  0
  4 24  1  0  0  0  0
  5  6  1  0  0  0  0
  5 17  1  0  0  0  0
  6  7  1  0  0  0  0
  6 25  1  0  0  0  0
  6 26  1  0  0  0  0
  7  8  1  0  0  0  0
  7  9  1  0  0  0  0
  7 27  1  0  0  0  0
  8 28  1  0  0  0  0
  9 16  1  0  0  0  0
  9 10  2  0  0  0  0
 10 11  1  0  0  0  0
 10 29  1  0  0  0  0
 11 12  2  0  0  0  0
 11 30  1  0  0  0  0
 12 13  1  0  0  0  0
 12 14  1  0  0  0  0
 14 15  1  0  0  0  0
 14 16  2  0  0  0  0
 16 31  1  0  0  0  0
 17 18  2  0  0  0  0
 17 19  1  0  0  0  0
 19 20  1  0  0  0  0
 20 32  1  0  0  0  0
 20 33  1  0  0  0  0
 20 34  1  0  0  0  0
M  END
> <s_m_source_file>
AV-unprocessed.smi

> <i_m_source_file_index>
2360

> <i_lp_mmshare_version>
43012

> <i_f3d_flags>
0

> <s_epik_input>
W0NIM11jMW5bY0hdbihjKD1PKWMxW0NIM10pW0NIMl1bQ0BIXShbT0hdKWMyW2NIXVtjSF1jKEYpYyhGKVtjSF0y

> <s_epik_cmdline>
J2VwaWtfcHl0aG9uJywgJy1waCcsICc3LjAnLCAnLXRuJywgJzgnLCAnLW1hJywgJzIwMCcsICctbWV0YWxfYmluZGluZycsICctaW1hZScsICc8aW5maWxlLm1hZT4nLCAnLW9tYWUnLCAnPG91dGZpbGUubWFlPic=

> <r_lp_tautomer_probability>
1

> <r_epik_Ionization_Penalty>
5.07449e-05

> <r_epik_Ionization_Penalty_Charging>
7.56727e-08

> <r_epik_Ionization_Penalty_Neutral>
5.06692e-05

> <r_epik_State_Penalty>
-0

> <r_epik_Charging_Adjusted_Penalty>
7.56727e-08

> <i_epik_Tot_Q>
0

> <i_epik_Tot_abs_Q>
0

> <r_epik_Metal_State_Penalty>
-0

> <b_epik_Metal_Only>
0

> <s_lp_Force_Field>
OPLS_2005

> <r_lp_Energy>
19.5716

> <b_lp_Chiralities_Consistent>
1

> <s_lp_Variant>
AV-unprocessed.smi:2360-2

> <Gold.Version>
5.8.1

> <Gold.Id.Protein>
6NUR|6NUR_protein|mol2

> <Gold.PLP.Fitness>
46.1927

> <Gold.PLP.PLP>
-44.1781

> <Gold.PLP.part.hbond>
-2.0000

> <Gold.PLP.part.metal>
0.0000

> <Gold.PLP.part.buried>
-3.7914

> <Gold.PLP.part.nonpolar>
-36.7117

> <Gold.PLP.part.repulsive>
0.0190

> <Gold.PLP.ligand.clash>
0.0000

> <Gold.PLP.ligand.torsion>
0.4851

> <Gold.PLP.Chemscore.Hbond>
0.9913

> <Gold.PLP.Chemscore.CHOScore>
0.0000

> <Gold.PLP.Chemscore.Metal>
0.0000

> <Gold.Chemscore.Hbonds>
donor molecule, donor type, donor heavy atom, donor atom, acceptor molecule, acceptor atom, score
      P1  H  7997  8008       L1     8  0.91

> <Gold.PLP.Chemscore.Internal.Correction>
0.0110

> <Gold.Rescore>
     Score         DG    S(hbond)    S(metal)    S(lipo)     H(rot)  DE(clash)    DE(int)     intcor
     12.72     -14.68       0.99        0.00      96.52       2.11       1.51       0.46       ----

> <Gold.Chemscore.Fitness>
12.7197

> <Gold.Chemscore.DG>
-14.6842

> <Gold.Chemscore.ZeroCoef>
-5.4800

> <Gold.Chemscore.Hbond>
0.9917

> <Gold.Chemscore.Metal>
0.0000

> <Gold.Chemscore.Lipo>
96.5204

> <Gold.Chemscore.Internal_Hbond>
0.0000

> <Gold.Chemscore.DEClash>
1.5070

> <Gold.Chemscore.DEInternal>
0.4575

> <Gold.Chemscore.Rot>
2.1097

> <Gold.Chemscore.Internal.Correction>
   9.000000E+99

> <Gold.Chemscore.Hbonds>
donor molecule, donor type, donor heavy atom, donor atom, acceptor molecule, acceptor atom, score
      P1  H  7997  8008       L1     8  0.88

> <Gold.Chemscore.Hbond.Weighted>
-3.3122

> <Gold.Chemscore.Metal.Weighted>
-0.0000

> <Gold.Chemscore.Lipo.Weighted>
-11.2929

> <Gold.Chemscore.Internal_Hbond.Weighted>
0.0000

> <Gold.Chemscore.DEClash.Weighted>
1.5070

> <Gold.Chemscore.DEInternal.Weighted>
0.4575

> <Gold.Chemscore.Rot.Weighted>
5.4009

> <Gold.Chemscore.Internal.Correction.Weighted>
   9.000000E+99

> <Gold.Protein.RotatedTorsions>
[ 6907 6896 6895 6894 ] final -164.38 input  -60.11 | X-H torsion
[ 7974 7965 7964 7962 ] final  -68.17 input  175.53 | X-H torsion
[ 8008 7997 7996 7995 ] final  -92.78 input   59.86 | X-H torsion
[ 10167 10162 10161 10158 ] final   19.10 input  -65.29 | X-H torsion
[ 10718 10713 10712 10709 ] final  -11.23 input   66.30 | X-H torsion
[ 10763 10752 10751 10750 ] final  -60.47 input  -60.55 | X-H torsion
[ 11005 11000 10999 10996 ] final   35.40 input  -57.11 | X-H torsion

> <Gold.Protein.ActiveResidues>
 VAL166  LYS551  ARG553  GLY616  TRP617  ASP618  TYR619  PRO620  LYS621  CYS622 
 ASP623  PHE694  ASN695  SER759  ASP760  ASP761  ALA762  ILE779  LEU786  VAL792 
 PHE793  MET794  SER795  GLU796  ALA797  LYS798  CYS799  TRP800  GLU811  SER814 

> <Gold.Protein.RotatedAtoms>
  151.4109  133.3728  159.2743 H   0  0  0  0  0  0  0  0  0  0  0  0  # atno 6907 bound_to 6896
  150.9364  134.8777  159.7595 H   0  0  0  0  0  0  0  0  0  0  0  0  # atno 6908 bound_to 6896
  152.5051  134.4057  159.9483 H   0  0  0  0  0  0  0  0  0  0  0  0  # atno 6909 bound_to 6896
  145.7200  140.9043  143.0635 H   0  0  0  0  0  0  0  0  0  0  0  0  # atno 7974 bound_to 7965
  154.7274  140.0505  157.0695 H   0  0  0  0  0  0  0  0  0  0  0  0  # atno 8008 bound_to 7997
  155.0346  140.3162  155.4727 H   0  0  0  0  0  0  0  0  0  0  0  0  # atno 8009 bound_to 7997
  156.2832  140.2143  156.5469 H   0  0  0  0  0  0  0  0  0  0  0  0  # atno 8010 bound_to 7997
  140.5604  143.9348  150.6638 H   0  0  0  0  0  0  0  0  0  0  0  0  # atno 10167 bound_to 10162
  156.6620  130.4984  149.6027 H   0  0  0  0  0  0  0  0  0  0  0  0  # atno 10718 bound_to 10713
  154.2697  135.6292  153.5305 H   0  0  0  0  0  0  0  0  0  0  0  0  # atno 10763 bound_to 10752
  152.9882  135.5607  154.5614 H   0  0  0  0  0  0  0  0  0  0  0  0  # atno 10764 bound_to 10752
  154.5181  135.2881  155.1261 H   0  0  0  0  0  0  0  0  0  0  0  0  # atno 10765 bound_to 10752
  140.2430  134.3392  155.7918 H   0  0  0  0  0  0  0  0  0  0  0  0  # atno 11005 bound_to 11000
  144.6919  139.9189  143.7467 LP  0  0  0  0  0  0  0  0  0  0  0  0  # atno 17320 bound_to 7965
  146.0635  139.3627  143.0567 LP  0  0  0  0  0  0  0  0  0  0  0  0  # atno 17321 bound_to 7965
  140.2797  143.3398  152.1162 LP  0  0  0  0  0  0  0  0  0  0  0  0  # atno 17342 bound_to 10162
  139.5067  144.6819  151.5987 LP  0  0  0  0  0  0  0  0  0  0  0  0  # atno 17343 bound_to 10162
  156.2004  130.6616  151.1161 LP  0  0  0  0  0  0  0  0  0  0  0  0  # atno 17370 bound_to 10713
  157.7106  131.0736  150.6513 LP  0  0  0  0  0  0  0  0  0  0  0  0  # atno 17371 bound_to 10713
  141.2209  133.7310  156.8916 LP  0  0  0  0  0  0  0  0  0  0  0  0  # atno 17394 bound_to 11000
  140.1634  134.9150  157.2743 LP  0  0  0  0  0  0  0  0  0  0  0  0  # atno 17395 bound_to 11000

$$$$
