AV-unprocessed.smi:1524|AV-procd|sdf|6140|dock5
  -GOLD-   22720 6283D 1   1.00000     0.00000
 Structure written by MMmdl.
 34 35  0  0  0  0  0  0  0  0  2 V2000
  150.0712  136.4591  158.8441 O   0  0  0  0  0  0  0  0  0  0  0  0
  148.9450  136.5305  158.3569 C   0  0  0  0  0  0  0  0  0  0  0  0
  147.8329  135.9714  158.8763 N   0  0  0  0  0  0  0  0  0  0  0  0
  147.6832  135.1525  160.0080 C   0  0  0  0  0  0  0  0  0  0  0  0
  147.6005  133.7934  159.9803 C   0  0  0  0  0  0  0  0  0  0  0  0
  147.4272  132.9999  161.1909 C   0  0  0  0  0  0  0  0  0  0  0  0
  147.3337  131.4853  161.2161 C   0  0  0  0  0  0  0  0  0  0  0  0
  147.3127  131.0051  159.9734 F   0  0  0  0  0  0  0  0  0  0  0  0
  148.3915  130.9679  161.8399 F   0  0  0  0  0  0  0  0  0  0  0  0
  146.2321  131.0745  161.8445 F   0  0  0  0  0  0  0  0  0  0  0  0
  147.3447  133.7822  162.3255 C   0  0  0  0  0  0  0  0  0  0  0  0
  147.4076  135.1271  162.4382 N   0  5  0  0  0  0  0  0  0  0  0  0
  147.5759  135.8598  161.3011 C   0  0  0  0  0  0  0  0  0  0  0  0
  147.6390  137.0896  161.3307 O   0  0  0  0  0  0  0  0  0  0  0  0
  148.7275  137.2277  157.2264 N   0  0  0  0  0  0  0  0  0  0  0  0
  149.6974  137.9565  156.4049 C   0  0  0  0  0  0  0  0  0  0  0  0
  149.5485  139.4775  156.5926 C   0  0  0  0  0  0  0  0  0  0  0  0
  150.4418  140.2402  155.6008 C   0  0  0  0  0  0  0  0  0  0  0  0
  150.1365  139.8487  154.2664 O   0  0  0  0  0  0  0  0  0  0  0  0
  150.3857  138.4683  154.0251 C   0  0  0  0  0  0  0  0  0  0  0  0
  149.4840  137.6069  154.9242 C   0  0  0  0  0  0  0  0  0  0  0  0
  146.9663  136.1840  158.4039 H   0  0  0  0  0  0  0  0  0  0  0  0
  147.6410  133.2574  159.0468 H   0  0  0  0  0  0  0  0  0  0  0  0
  147.2069  133.2429  163.2871 H   0  0  0  0  0  0  0  0  0  0  0  0
  147.7682  137.2823  156.9165 H   0  0  0  0  0  0  0  0  0  0  0  0
  150.7116  137.6568  156.6755 H   0  0  0  0  0  0  0  0  0  0  0  0
  148.5093  139.7696  156.4351 H   0  0  0  0  0  0  0  0  0  0  0  0
  149.8019  139.7662  157.6133 H   0  0  0  0  0  0  0  0  0  0  0  0
  150.2773  141.3133  155.6988 H   0  0  0  0  0  0  0  0  0  0  0  0
  151.4971  140.0602  155.8114 H   0  0  0  0  0  0  0  0  0  0  0  0
  150.1837  138.2525  152.9759 H   0  0  0  0  0  0  0  0  0  0  0  0
  151.4389  138.2417  154.1988 H   0  0  0  0  0  0  0  0  0  0  0  0
  149.6868  136.5492  154.7520 H   0  0  0  0  0  0  0  0  0  0  0  0
  148.4416  137.7739  154.6486 H   0  0  0  0  0  0  0  0  0  0  0  0
  1  2  2  0  0  0  0
  2  3  1  0  0  0  0
  2 15  1  0  0  0  0
  3  4  1  0  0  0  0
  3 22  1  0  0  0  0
  4 13  1  0  0  0  0
  4  5  2  0  0  0  0
  5  6  1  0  0  0  0
  5 23  1  0  0  0  0
  6  7  1  0  0  0  0
  6 11  2  0  0  0  0
  7  8  1  0  0  0  0
  7  9  1  0  0  0  0
  7 10  1  0  0  0  0
 11 12  1  0  0  0  0
 11 24  1  0  0  0  0
 12 13  1  0  0  0  0
 13 14  2  0  0  0  0
 15 16  1  0  0  0  0
 15 25  1  0  0  0  0
 16 21  1  0  0  0  0
 16 17  1  0  0  0  0
 16 26  1  0  0  0  0
 17 18  1  0  0  0  0
 17 27  1  0  0  0  0
 17 28  1  0  0  0  0
 18 19  1  0  0  0  0
 18 29  1  0  0  0  0
 18 30  1  0  0  0  0
 19 20  1  0  0  0  0
 20 21  1  0  0  0  0
 20 31  1  0  0  0  0
 20 32  1  0  0  0  0
 21 33  1  0  0  0  0
 21 34  1  0  0  0  0
M  CHG  1  12  -1
M  END
> <s_m_source_file>
AV-unprocessed.smi

> <i_m_source_file_index>
1524

> <i_lp_mmshare_version>
43012

> <i_f3d_flags>
0

> <s_epik_input>
W0NIMl0xW0NIMl1PW0NIMl1bQ0gyXVtDSF0xW05IXUMoPU8pW05IXWMyW2NIXWMoQyhGKShGKUYpW2NIXVtuSF1jMj1P

> <s_epik_cmdline>
J2VwaWtfcHl0aG9uJywgJy1waCcsICc3LjAnLCAnLXRuJywgJzgnLCAnLW1hJywgJzIwMCcsICctbWV0YWxfYmluZGluZycsICctaW1hZScsICc8aW5maWxlLm1hZT4nLCAnLW9tYWUnLCAnPG91dGZpbGUubWFlPic=

> <r_lp_tautomer_probability>
1

> <r_epik_Ionization_Penalty>
3.17101

> <r_epik_Ionization_Penalty_Charging>
0.175581

> <r_epik_Ionization_Penalty_Neutral>
2.99543

> <r_epik_State_Penalty>
2.99161

> <r_epik_Charging_Adjusted_Penalty>
3.16719

> <i_epik_Tot_Q>
-1

> <i_epik_Tot_abs_Q>
1

> <r_epik_Metal_State_Penalty>
0.453119

> <b_epik_Metal_Only>
1

> <s_lp_Force_Field>
OPLS_2005

> <r_lp_Energy>
32.5819

> <b_lp_Chiralities_Consistent>
1

> <s_lp_Variant>
AV-unprocessed.smi:1524-2

> <Gold.Version>
5.8.1

> <Gold.Id.Protein>
6NUR|6NUR_protein|mol2

> <Gold.PLP.Fitness>
42.3352

> <Gold.PLP.PLP>
-32.9775

> <Gold.PLP.part.hbond>
-4.0000

> <Gold.PLP.part.metal>
0.0000

> <Gold.PLP.part.buried>
-4.7390

> <Gold.PLP.part.nonpolar>
-23.9019

> <Gold.PLP.part.repulsive>
0.2202

> <Gold.PLP.ligand.clash>
0.0000

> <Gold.PLP.ligand.torsion>
1.0120

> <Gold.PLP.Chemscore.Hbond>
3.7920

> <Gold.PLP.Chemscore.CHOScore>
0.0000

> <Gold.PLP.Chemscore.Metal>
0.0000

> <Gold.Chemscore.Hbonds>
donor molecule, donor type, donor heavy atom, donor atom, acceptor molecule, acceptor atom, score
      P1  H  6896  6909       L1     1  1.00
      P1  H  6931  6943       L1    14  1.00
      P1  H  6934  6947       L1    14  0.86
      P1  H  7989  7998       L1    19  0.70

> <Gold.PLP.Chemscore.Internal.Correction>
0.0058

> <Gold.Rescore>
     Score         DG    S(hbond)    S(metal)    S(lipo)     H(rot)  DE(clash)    DE(int)     intcor
     21.10     -22.03       3.72        0.00      57.08       1.00       0.00       0.93       ----

> <Gold.Chemscore.Fitness>
21.1036

> <Gold.Chemscore.DG>
-22.0307

> <Gold.Chemscore.ZeroCoef>
-5.4800

> <Gold.Chemscore.Hbond>
3.7221

> <Gold.Chemscore.Metal>
0.0000

> <Gold.Chemscore.Lipo>
57.0843

> <Gold.Chemscore.Internal_Hbond>
0.0000

> <Gold.Chemscore.DEClash>
0.0009

> <Gold.Chemscore.DEInternal>
0.9261

> <Gold.Chemscore.Rot>
1.0000

> <Gold.Chemscore.Internal.Correction>
   9.000000E+99

> <Gold.Chemscore.Hbonds>
donor molecule, donor type, donor heavy atom, donor atom, acceptor molecule, acceptor atom, score
      P1  H  6896  6909       L1     1  0.99
      P1  H  6931  6943       L1    14  0.94
      P1  H  6934  6947       L1    14  0.80
      P1  H  7989  7998       L1    19  0.05

> <Gold.Chemscore.Hbond.Weighted>
-12.4318

> <Gold.Chemscore.Metal.Weighted>
-0.0000

> <Gold.Chemscore.Lipo.Weighted>
-6.6789

> <Gold.Chemscore.Internal_Hbond.Weighted>
0.0000

> <Gold.Chemscore.DEClash.Weighted>
0.0009

> <Gold.Chemscore.DEInternal.Weighted>
0.9261

> <Gold.Chemscore.Rot.Weighted>
2.5600

> <Gold.Chemscore.Internal.Correction.Weighted>
   9.000000E+99

> <Gold.Protein.RotatedTorsions>
[ 6907 6896 6895 6894 ] final   76.85 input  -60.11 | X-H torsion
[ 7974 7965 7964 7962 ] final   65.04 input  175.53 | X-H torsion
[ 8008 7997 7996 7995 ] final  -51.89 input   59.86 | X-H torsion
[ 10167 10162 10161 10158 ] final  -72.30 input  -65.29 | X-H torsion
[ 10718 10713 10712 10709 ] final   97.48 input   66.30 | X-H torsion
[ 10763 10752 10751 10750 ] final  144.74 input  -60.55 | X-H torsion
[ 11005 11000 10999 10996 ] final   65.48 input  -57.11 | X-H torsion

> <Gold.Protein.ActiveResidues>
 VAL166  LYS551  ARG553  GLY616  TRP617  ASP618  TYR619  PRO620  LYS621  CYS622 
 ASP623  PHE694  ASN695  SER759  ASP760  ASP761  ALA762  ILE779  LEU786  VAL792 
 PHE793  MET794  SER795  GLU796  ALA797  LYS798  CYS799  TRP800  GLU811  SER814 

> <Gold.Protein.RotatedAtoms>
  152.5092  134.3906  159.9382 H   0  0  0  0  0  0  0  0  0  0  0  0  # atno 6907 bound_to 6896
  151.3866  133.3797  159.2724 H   0  0  0  0  0  0  0  0  0  0  0  0  # atno 6908 bound_to 6896
  150.9464  134.8889  159.7703 H   0  0  0  0  0  0  0  0  0  0  0  0  # atno 6909 bound_to 6896
  145.8431  139.3208  143.0919 H   0  0  0  0  0  0  0  0  0  0  0  0  # atno 7974 bound_to 7965
  154.4093  140.1237  156.4903 H   0  0  0  0  0  0  0  0  0  0  0  0  # atno 8008 bound_to 7997
  155.6997  140.3495  155.4908 H   0  0  0  0  0  0  0  0  0  0  0  0  # atno 8009 bound_to 7997
  155.9396  140.1084  157.1056 H   0  0  0  0  0  0  0  0  0  0  0  0  # atno 8010 bound_to 7997
  140.5203  143.2332  151.7441 H   0  0  0  0  0  0  0  0  0  0  0  0  # atno 10167 bound_to 10162
  157.6912  131.0610  150.4650 H   0  0  0  0  0  0  0  0  0  0  0  0  # atno 10718 bound_to 10713
  153.9938  135.2929  155.3409 H   0  0  0  0  0  0  0  0  0  0  0  0  # atno 10763 bound_to 10752
  154.7199  135.5113  153.8799 H   0  0  0  0  0  0  0  0  0  0  0  0  # atno 10764 bound_to 10752
  153.0797  135.6675  154.0187 H   0  0  0  0  0  0  0  0  0  0  0  0  # atno 10765 bound_to 10752
  139.9892  134.6619  156.0121 H   0  0  0  0  0  0  0  0  0  0  0  0  # atno 11005 bound_to 11000
  145.9442  140.8957  143.0292 LP  0  0  0  0  0  0  0  0  0  0  0  0  # atno 17320 bound_to 7965
  144.6732  140.1591  143.7424 LP  0  0  0  0  0  0  0  0  0  0  0  0  # atno 17321 bound_to 7965
  139.4921  144.4264  151.9921 LP  0  0  0  0  0  0  0  0  0  0  0  0  # atno 17342 bound_to 10162
  140.3360  144.3260  150.5977 LP  0  0  0  0  0  0  0  0  0  0  0  0  # atno 17343 bound_to 10162
  156.4992  130.4113  149.6363 LP  0  0  0  0  0  0  0  0  0  0  0  0  # atno 17370 bound_to 10713
  156.3344  130.7349  151.2284 LP  0  0  0  0  0  0  0  0  0  0  0  0  # atno 17371 bound_to 10713
  141.1551  133.6544  156.4136 LP  0  0  0  0  0  0  0  0  0  0  0  0  # atno 17394 bound_to 11000
  140.4942  134.6547  157.5223 LP  0  0  0  0  0  0  0  0  0  0  0  0  # atno 17395 bound_to 11000

$$$$
