AV-unprocessed.smi:1790|AV-procd|sdf|7216|dock7
  -GOLD-   22720 8453D 1   1.00000     0.00000
 Structure written by MMmdl.
 33 34  0  0  0  0  0  0  0  0  1 V2000
  147.4247  133.8496  154.6963 O   0  0  0  0  0  0  0  0  0  0  0  0
  147.4603  135.0787  154.6622 C   0  0  0  0  0  0  0  0  0  0  0  0
  148.2991  135.8262  155.6981 C   0  0  0  0  0  0  0  0  0  0  0  0
  149.1250  136.7708  155.0353 O   0  0  0  0  0  0  0  0  0  0  0  0
  150.4940  136.4076  155.0551 C   0  0  0  0  0  0  0  0  0  0  0  0
  151.2866  137.4477  154.2932 C   0  0  0  0  0  0  0  0  0  0  0  0
  152.3696  138.2470  154.9823 C   0  0  0  0  0  0  0  0  0  0  0  0
  151.0842  138.9197  154.5725 C   0  0  0  0  0  0  0  0  0  0  0  0
  146.8371  135.8535  153.7517 N   0  0  0  0  0  0  0  0  0  0  0  0
  145.9955  135.4907  152.6864 C   0  0  0  0  0  0  0  0  0  0  0  0
  145.7163  134.2150  152.3105 C   0  0  0  0  0  0  0  0  0  0  0  0
  144.8302  133.9145  151.1983 C   0  0  0  0  0  0  0  0  0  0  0  0
  144.4835  132.4818  150.8237 C   0  0  0  0  0  0  0  0  0  0  0  0
  145.1080  131.6077  151.6139 F   0  0  0  0  0  0  0  0  0  0  0  0
  143.1711  132.2871  150.9444 F   0  0  0  0  0  0  0  0  0  0  0  0
  144.8259  132.2234  149.5614 F   0  0  0  0  0  0  0  0  0  0  0  0
  144.2729  134.9678  150.5731 C   0  0  0  0  0  0  0  0  0  0  0  0
  144.5543  136.2818  150.9525 N   0  0  0  0  0  0  0  0  0  0  0  0
  145.3771  136.6193  151.9706 C   0  0  0  0  0  0  0  0  0  0  0  0
  145.5684  137.8031  152.2471 O   0  0  0  0  0  0  0  0  0  0  0  0
  144.1035  137.0175  150.4279 H   0  0  0  0  0  0  0  0  0  0  0  0
  147.6452  136.3295  156.4126 H   0  0  0  0  0  0  0  0  0  0  0  0
  148.9069  135.1064  156.2485 H   0  0  0  0  0  0  0  0  0  0  0  0
  150.8603  136.3618  156.0818 H   0  0  0  0  0  0  0  0  0  0  0  0
  150.6388  135.4257  154.6009 H   0  0  0  0  0  0  0  0  0  0  0  0
  151.4693  137.1861  153.2527 H   0  0  0  0  0  0  0  0  0  0  0  0
  152.5297  138.0746  156.0446 H   0  0  0  0  0  0  0  0  0  0  0  0
  153.2647  138.4769  154.4079 H   0  0  0  0  0  0  0  0  0  0  0  0
  151.1216  139.6011  153.7248 H   0  0  0  0  0  0  0  0  0  0  0  0
  150.3884  139.1958  155.3623 H   0  0  0  0  0  0  0  0  0  0  0  0
  147.0147  136.8453  153.8243 H   0  0  0  0  0  0  0  0  0  0  0  0
  146.1374  133.3738  152.8355 H   0  0  0  0  0  0  0  0  0  0  0  0
  143.5763  134.8899  149.7514 H   0  0  0  0  0  0  0  0  0  0  0  0
  1  2  2  0  0  0  0
  2  3  1  0  0  0  0
  2  9  1  0  0  0  0
  3  4  1  0  0  0  0
  3 22  1  0  0  0  0
  3 23  1  0  0  0  0
  4  5  1  0  0  0  0
  5  6  1  0  0  0  0
  5 24  1  0  0  0  0
  5 25  1  0  0  0  0
  6  8  1  0  0  0  0
  6  7  1  0  0  0  0
  6 26  1  0  0  0  0
  7  8  1  0  0  0  0
  7 27  1  0  0  0  0
  7 28  1  0  0  0  0
  8 29  1  0  0  0  0
  8 30  1  0  0  0  0
  9 10  1  0  0  0  0
  9 31  1  0  0  0  0
 10 19  1  0  0  0  0
 10 11  2  0  0  0  0
 11 12  1  0  0  0  0
 11 32  1  0  0  0  0
 12 13  1  0  0  0  0
 12 17  2  0  0  0  0
 13 14  1  0  0  0  0
 13 15  1  0  0  0  0
 13 16  1  0  0  0  0
 17 18  1  0  0  0  0
 17 33  1  0  0  0  0
 18 21  1  0  0  0  0
 18 19  1  0  0  0  0
 19 20  2  0  0  0  0
M  END
> <s_m_source_file>
AV-unprocessed.smi

> <i_m_source_file_index>
1790

> <i_lp_mmshare_version>
43012

> <i_f3d_flags>
0

> <s_epik_input>
W0NIMl0xW0NIMl1bQ0hdMVtDSDJdT1tDSDJdQyg9TylbTkhdYzJbY0hdYyhDKEYpKEYpRilbY0hdW25IXWMyPU8=

> <s_epik_cmdline>
J2VwaWtfcHl0aG9uJywgJy1waCcsICc3LjAnLCAnLXRuJywgJzgnLCAnLW1hJywgJzIwMCcsICctbWV0YWxfYmluZGluZycsICctaW1hZScsICc8aW5maWxlLm1hZT4nLCAnLW9tYWUnLCAnPG91dGZpbGUubWFlPic=

> <r_lp_tautomer_probability>
0.999

> <r_epik_Ionization_Penalty>
0.00811055

> <r_epik_Ionization_Penalty_Charging>
0.00811046

> <r_epik_Ionization_Penalty_Neutral>
9.25705e-08

> <r_epik_State_Penalty>
0.00609496

> <r_epik_Charging_Adjusted_Penalty>
0.0142054

> <i_epik_Tot_Q>
0

> <i_epik_Tot_abs_Q>
0

> <r_epik_Metal_State_Penalty>
0.317593

> <b_epik_Metal_Only>
0

> <s_lp_Force_Field>
OPLS_2005

> <r_lp_Energy>
26.3792

> <b_lp_Chiralities_Consistent>
1

> <s_lp_Variant>
AV-unprocessed.smi:1790-1

> <Gold.Version>
5.8.1

> <Gold.Id.Protein>
6NUR|6NUR_protein|mol2

> <Gold.PLP.Fitness>
38.9277

> <Gold.PLP.PLP>
-34.5280

> <Gold.PLP.part.hbond>
-2.0000

> <Gold.PLP.part.metal>
0.0000

> <Gold.PLP.part.buried>
-3.6571

> <Gold.PLP.part.nonpolar>
-29.8938

> <Gold.PLP.part.repulsive>
0.5383

> <Gold.PLP.ligand.clash>
0.0000

> <Gold.PLP.ligand.torsion>
0.8902

> <Gold.PLP.Chemscore.Hbond>
0.9440

> <Gold.PLP.Chemscore.CHOScore>
0.9205

> <Gold.PLP.Chemscore.Metal>
0.0000

> <Gold.Chemscore.Hbonds>
donor molecule, donor type, donor heavy atom, donor atom, acceptor molecule, acceptor atom, score
      L1  H    18    21       P1 10171  1.00
      L1  C    17    33       P1 10186  0.81

> <Gold.PLP.Chemscore.Internal.Correction>
0.5865

> <Gold.Rescore>
     Score         DG    S(hbond)    S(metal)    S(lipo)     H(rot)  DE(clash)    DE(int)     intcor
      8.62     -10.92       0.99        0.00      59.10       1.87       0.44       1.85       ----

> <Gold.Chemscore.Fitness>
8.6238

> <Gold.Chemscore.DG>
-10.9188

> <Gold.Chemscore.ZeroCoef>
-5.4800

> <Gold.Chemscore.Hbond>
0.9886

> <Gold.Chemscore.Metal>
0.0000

> <Gold.Chemscore.Lipo>
59.1015

> <Gold.Chemscore.Internal_Hbond>
0.0000

> <Gold.Chemscore.DEClash>
0.4428

> <Gold.Chemscore.DEInternal>
1.8521

> <Gold.Chemscore.Rot>
1.8664

> <Gold.Chemscore.Internal.Correction>
   9.000000E+99

> <Gold.Chemscore.Hbonds>
donor molecule, donor type, donor heavy atom, donor atom, acceptor molecule, acceptor atom, score
      L1  H    18    21       P1 10171  0.99

> <Gold.Chemscore.Hbond.Weighted>
-3.3019

> <Gold.Chemscore.Metal.Weighted>
-0.0000

> <Gold.Chemscore.Lipo.Weighted>
-6.9149

> <Gold.Chemscore.Internal_Hbond.Weighted>
0.0000

> <Gold.Chemscore.DEClash.Weighted>
0.4428

> <Gold.Chemscore.DEInternal.Weighted>
1.8521

> <Gold.Chemscore.Rot.Weighted>
4.7780

> <Gold.Chemscore.Internal.Correction.Weighted>
   9.000000E+99

> <Gold.Protein.RotatedTorsions>
[ 6907 6896 6895 6894 ] final -143.67 input  -60.11 | X-H torsion
[ 7974 7965 7964 7962 ] final -139.37 input  175.53 | X-H torsion
[ 8008 7997 7996 7995 ] final   86.82 input   59.86 | X-H torsion
[ 10167 10162 10161 10158 ] final  152.48 input  -65.29 | X-H torsion
[ 10718 10713 10712 10709 ] final -172.24 input   66.30 | X-H torsion
[ 10763 10752 10751 10750 ] final -131.22 input  -60.55 | X-H torsion
[ 11005 11000 10999 10996 ] final  106.41 input  -57.11 | X-H torsion

> <Gold.Protein.ActiveResidues>
 VAL166  LYS551  ARG553  GLY616  TRP617  ASP618  TYR619  PRO620  LYS621  CYS622 
 ASP623  PHE694  ASN695  SER759  ASP760  ASP761  ALA762  ILE779  LEU786  VAL792 
 PHE793  MET794  SER795  GLU796  ALA797  LYS798  CYS799  TRP800  GLU811  SER814 

> <Gold.Protein.RotatedAtoms>
  151.1036  133.5225  159.2608 H   0  0  0  0  0  0  0  0  0  0  0  0  # atno 6907 bound_to 6896
  151.2046  135.0456  159.8896 H   0  0  0  0  0  0  0  0  0  0  0  0  # atno 6908 bound_to 6896
  152.5445  134.0859  159.8309 H   0  0  0  0  0  0  0  0  0  0  0  0  # atno 6909 bound_to 6896
  144.8682  140.6326  143.5284 H   0  0  0  0  0  0  0  0  0  0  0  0  # atno 7974 bound_to 7965
  155.9676  140.3388  155.6547 H   0  0  0  0  0  0  0  0  0  0  0  0  # atno 8008 bound_to 7997
  155.6716  140.0727  157.2536 H   0  0  0  0  0  0  0  0  0  0  0  0  # atno 8009 bound_to 7997
  154.4158  140.1690  156.1873 H   0  0  0  0  0  0  0  0  0  0  0  0  # atno 8010 bound_to 7997
  139.4832  144.5354  151.7653 H   0  0  0  0  0  0  0  0  0  0  0  0  # atno 10167 bound_to 10162
  156.7526  130.9384  151.3115 H   0  0  0  0  0  0  0  0  0  0  0  0  # atno 10718 bound_to 10713
  154.8752  135.3837  154.4211 H   0  0  0  0  0  0  0  0  0  0  0  0  # atno 10763 bound_to 10752
  153.4914  135.7030  153.5887 H   0  0  0  0  0  0  0  0  0  0  0  0  # atno 10764 bound_to 10752
  153.4259  135.3890  155.2107 H   0  0  0  0  0  0  0  0  0  0  0  0  # atno 10765 bound_to 10752
  139.8814  134.9368  156.5662 H   0  0  0  0  0  0  0  0  0  0  0  0  # atno 11005 bound_to 11000
  145.4180  139.1568  143.4089 LP  0  0  0  0  0  0  0  0  0  0  0  0  # atno 17320 bound_to 7965
  146.2911  140.4289  142.8739 LP  0  0  0  0  0  0  0  0  0  0  0  0  # atno 17321 bound_to 7965
  140.4886  144.1344  150.5946 LP  0  0  0  0  0  0  0  0  0  0  0  0  # atno 17342 bound_to 10162
  140.4197  143.2617  151.9731 LP  0  0  0  0  0  0  0  0  0  0  0  0  # atno 17343 bound_to 10162
  157.6770  130.9104  150.0175 LP  0  0  0  0  0  0  0  0  0  0  0  0  # atno 17370 bound_to 10713
  156.1391  130.3642  149.9610 LP  0  0  0  0  0  0  0  0  0  0  0  0  # atno 17371 bound_to 10713
  140.8132  133.8412  155.8829 LP  0  0  0  0  0  0  0  0  0  0  0  0  # atno 17394 bound_to 11000
  140.9487  134.1807  157.4744 LP  0  0  0  0  0  0  0  0  0  0  0  0  # atno 17395 bound_to 11000

$$$$
