AV-unprocessed.smi:1554|AV-procd|sdf|6248|dock6
  -GOLD-   22720 6433D 1   1.00000     0.00000
 Structure written by MMmdl.
 48 50  0  0  0  0  0  0  0  0  2 V2000
  152.2433  142.9590  160.7645 C   0  0  0  0  0  0  0  0  0  0  0  0
  151.8385  142.2486  159.4849 C   0  0  0  0  0  0  0  0  0  0  0  0
  152.6068  141.1509  159.0359 C   0  0  0  0  0  0  0  0  0  0  0  0
  152.2632  140.4616  157.8526 C   0  0  0  0  0  0  0  0  0  0  0  0
  152.8649  139.3782  157.2364 N   0  0  0  0  0  0  0  0  0  0  0  0
  152.0839  139.2056  156.1741 C   0  0  0  0  0  0  0  0  0  0  0  0
  151.0495  140.0556  156.0241 N   0  0  0  0  0  0  0  0  0  0  0  0
  150.0773  140.0705  154.9426 C   0  0  0  0  0  0  0  0  0  0  0  0
  149.8915  138.6971  154.2598 C   0  0  2  0  0  0  0  0  0  0  0  0
  148.9280  138.8275  153.2316 O   0  0  0  0  0  0  0  0  0  0  0  0
  149.4349  137.5900  155.2362 C   0  0  0  0  0  0  0  0  0  0  0  0
  149.4643  136.2328  154.6289 N   0  3  1  0  0  0  0  0  0  0  0  0
  150.8046  135.5925  154.6093 C   0  0  0  0  0  0  0  0  0  0  0  0
  151.1798  135.0186  155.9903 C   0  0  0  0  0  0  0  0  0  0  0  0
  150.1610  134.1342  156.4415 O   0  0  0  0  0  0  0  0  0  0  0  0
  148.9007  134.7808  156.5828 C   0  0  2  0  0  0  0  0  0  0  0  0
  147.9060  133.7686  157.1608 C   0  0  0  0  0  0  0  0  0  0  0  0
  148.4568  135.3067  155.2023 C   0  0  0  0  0  0  0  0  0  0  0  0
  151.1215  140.9052  157.1235 C   0  0  0  0  0  0  0  0  0  0  0  0
  150.3475  141.9945  157.5617 C   0  0  0  0  0  0  0  0  0  0  0  0
  150.7054  142.6725  158.7455 C   0  0  0  0  0  0  0  0  0  0  0  0
  149.8643  143.8489  159.2087 C   0  0  0  0  0  0  0  0  0  0  0  0
  153.1116  142.4865  161.2243 H   0  0  0  0  0  0  0  0  0  0  0  0
  151.4288  142.9356  161.4886 H   0  0  0  0  0  0  0  0  0  0  0  0
  152.4969  143.9995  160.5606 H   0  0  0  0  0  0  0  0  0  0  0  0
  153.4694  140.8272  159.5995 H   0  0  0  0  0  0  0  0  0  0  0  0
  152.2791  138.4208  155.4577 H   0  0  0  0  0  0  0  0  0  0  0  0
  149.1260  140.4307  155.3367 H   0  0  0  0  0  0  0  0  0  0  0  0
  150.3988  140.8079  154.2065 H   0  0  0  0  0  0  0  0  0  0  0  0
  150.8387  138.4294  153.7929 H   0  0  0  0  0  0  0  0  0  0  0  0
  149.3218  139.2682  152.4946 H   0  0  0  0  0  0  0  0  0  0  0  0
  150.0556  137.6027  156.1315 H   0  0  0  0  0  0  0  0  0  0  0  0
  148.4215  137.8157  155.5717 H   0  0  0  0  0  0  0  0  0  0  0  0
  150.7795  134.7805  153.8815 H   0  0  0  0  0  0  0  0  0  0  0  0
  151.5698  136.2864  154.2638 H   0  0  0  0  0  0  0  0  0  0  0  0
  152.1163  134.4651  155.9202 H   0  0  0  0  0  0  0  0  0  0  0  0
  151.3406  135.8097  156.7235 H   0  0  0  0  0  0  0  0  0  0  0  0
  148.9967  135.6083  157.2880 H   0  0  0  0  0  0  0  0  0  0  0  0
  146.9221  134.2187  157.2950 H   0  0  0  0  0  0  0  0  0  0  0  0
  148.2397  133.4054  158.1331 H   0  0  0  0  0  0  0  0  0  0  0  0
  147.7924  132.9056  156.5038 H   0  0  0  0  0  0  0  0  0  0  0  0
  147.4823  135.7928  155.2644 H   0  0  0  0  0  0  0  0  0  0  0  0
  148.3344  134.4682  154.5152 H   0  0  0  0  0  0  0  0  0  0  0  0
  149.4846  142.3061  156.9926 H   0  0  0  0  0  0  0  0  0  0  0  0
  149.0578  144.0631  158.5067 H   0  0  0  0  0  0  0  0  0  0  0  0
  150.4767  144.7464  159.2974 H   0  0  0  0  0  0  0  0  0  0  0  0
  149.4155  143.6376  160.1795 H   0  0  0  0  0  0  0  0  0  0  0  0
  149.1920  136.3702  153.6662 H   0  0  0  0  0  0  0  0  0  0  0  0
  1  2  1  0  0  0  0
  1 23  1  0  0  0  0
  1 24  1  0  0  0  0
  1 25  1  0  0  0  0
  2 21  1  0  0  0  0
  2  3  2  0  0  0  0
  3  4  1  0  0  0  0
  3 26  1  0  0  0  0
  4 19  2  0  0  0  0
  4  5  1  0  0  0  0
  5  6  2  0  0  0  0
  6  7  1  0  0  0  0
  6 27  1  0  0  0  0
  7  8  1  0  0  0  0
  7 19  1  0  0  0  0
  8  9  1  0  0  0  0
  8 28  1  0  0  0  0
  8 29  1  0  0  0  0
  9 10  1  0  0  0  0
  9 11  1  0  0  0  0
  9 30  1  0  0  0  0
 10 31  1  0  0  0  0
 11 12  1  0  0  0  0
 11 32  1  0  0  0  0
 11 33  1  0  0  0  0
 12 18  1  0  0  0  0
 12 13  1  0  0  0  0
 12 48  1  0  0  0  0
 13 14  1  0  0  0  0
 13 34  1  0  0  0  0
 13 35  1  0  0  0  0
 14 15  1  0  0  0  0
 14 36  1  0  0  0  0
 14 37  1  0  0  0  0
 15 16  1  0  0  0  0
 16 17  1  0  0  0  0
 16 18  1  0  0  0  0
 16 38  1  0  0  0  0
 17 39  1  0  0  0  0
 17 40  1  0  0  0  0
 17 41  1  0  0  0  0
 18 42  1  0  0  0  0
 18 43  1  0  0  0  0
 19 20  1  0  0  0  0
 20 21  2  0  0  0  0
 20 44  1  0  0  0  0
 21 22  1  0  0  0  0
 22 45  1  0  0  0  0
 22 46  1  0  0  0  0
 22 47  1  0  0  0  0
M  CHG  1  12   1
M  END
> <s_m_source_file>
AV-unprocessed.smi

> <i_m_source_file_index>
1554

> <i_lp_mmshare_version>
43012

> <i_f3d_flags>
0

> <s_epik_input>
W0NIM11jKFtjSF0xKWMoW0NIM10pW2NIXWMoYzEyKW4oW2NIXW4yKVtDSDJdW0NASF0oW09IXSlbQ0gyXU4zW0NIMl1bQ0gyXU9bQ0BASF0oW0NIM10pW0NIMl0z

> <s_epik_cmdline>
J2VwaWtfcHl0aG9uJywgJy1waCcsICc3LjAnLCAnLXRuJywgJzgnLCAnLW1hJywgJzIwMCcsICctbWV0YWxfYmluZGluZycsICctaW1hZScsICc8aW5maWxlLm1hZT4nLCAnLW9tYWUnLCAnPG91dGZpbGUubWFlPic=

> <r_epik_Ionization_Penalty>
0.695251

> <r_epik_Ionization_Penalty_Charging>
0.608065

> <r_epik_Ionization_Penalty_Neutral>
0.0871863

> <r_epik_State_Penalty>
0.731955

> <r_epik_Charging_Adjusted_Penalty>
1.34002

> <i_epik_Tot_Q>
1

> <i_epik_Tot_abs_Q>
1

> <r_epik_Metal_State_Penalty>
0.652186

> <b_epik_Metal_Only>
0

> <s_lp_Force_Field>
OPLS_2005

> <r_lp_Energy>
22.8588

> <b_lp_Chiralities_Consistent>
1

> <s_lp_Variant>
AV-unprocessed.smi:1554-9

> <Gold.Version>
5.8.1

> <Gold.Id.Protein>
6NUR|6NUR_protein|mol2

> <Gold.PLP.Fitness>
47.4592

> <Gold.PLP.PLP>
-36.7779

> <Gold.PLP.part.hbond>
-3.7619

> <Gold.PLP.part.metal>
0.0000

> <Gold.PLP.part.buried>
-3.2288

> <Gold.PLP.part.nonpolar>
-29.4644

> <Gold.PLP.part.repulsive>
0.0142

> <Gold.PLP.ligand.clash>
0.0000

> <Gold.PLP.ligand.torsion>
0.6755

> <Gold.PLP.Chemscore.Hbond>
4.0000

> <Gold.PLP.Chemscore.CHOScore>
0.0000

> <Gold.PLP.Chemscore.Metal>
0.0000

> <Gold.Chemscore.Hbonds>
donor molecule, donor type, donor heavy atom, donor atom, acceptor molecule, acceptor atom, score
      L1  H    10    31       P1  7957  1.00
      L1  H    12    48       P1  7948  2.00
      P1  H  7997  8010       L1     5  0.95

> <Gold.PLP.Chemscore.Internal.Correction>
0.0324

> <Gold.Rescore>
     Score         DG    S(hbond)    S(metal)    S(lipo)     H(rot)  DE(clash)    DE(int)     intcor
     20.11     -20.96       2.85        0.00      95.81       2.05       0.08       0.77       ----

> <Gold.Chemscore.Fitness>
20.1067

> <Gold.Chemscore.DG>
-20.9605

> <Gold.Chemscore.ZeroCoef>
-5.4800

> <Gold.Chemscore.Hbond>
2.8533

> <Gold.Chemscore.Metal>
0.0000

> <Gold.Chemscore.Lipo>
95.8146

> <Gold.Chemscore.Internal_Hbond>
0.0000

> <Gold.Chemscore.DEClash>
0.0791

> <Gold.Chemscore.DEInternal>
0.7747

> <Gold.Chemscore.Rot>
2.0546

> <Gold.Chemscore.Internal.Correction>
   9.000000E+99

> <Gold.Chemscore.Hbonds>
donor molecule, donor type, donor heavy atom, donor atom, acceptor molecule, acceptor atom, score
      L1  H    10    31       P1  7957  0.96
      L1  H    12    48       P1  7948  0.96
      P1  H  7997  8010       L1     5  0.09

> <Gold.Chemscore.Hbond.Weighted>
-9.5299

> <Gold.Chemscore.Metal.Weighted>
-0.0000

> <Gold.Chemscore.Lipo.Weighted>
-11.2103

> <Gold.Chemscore.Internal_Hbond.Weighted>
0.0000

> <Gold.Chemscore.DEClash.Weighted>
0.0791

> <Gold.Chemscore.DEInternal.Weighted>
0.7747

> <Gold.Chemscore.Rot.Weighted>
5.2597

> <Gold.Chemscore.Internal.Correction.Weighted>
   9.000000E+99

> <Gold.Protein.RotatedTorsions>
[ 6907 6896 6895 6894 ] final -134.56 input  -60.11 | X-H torsion
[ 7974 7965 7964 7962 ] final  129.36 input  175.53 | X-H torsion
[ 8008 7997 7996 7995 ] final   75.05 input   59.86 | X-H torsion
[ 10167 10162 10161 10158 ] final -113.52 input  -65.29 | X-H torsion
[ 10718 10713 10712 10709 ] final   43.84 input   66.30 | X-H torsion
[ 10763 10752 10751 10750 ] final  145.19 input  -60.55 | X-H torsion
[ 11005 11000 10999 10996 ] final -151.89 input  -57.11 | X-H torsion

> <Gold.Protein.ActiveResidues>
 VAL166  LYS551  ARG553  GLY616  TRP617  ASP618  TYR619  PRO620  LYS621  CYS622 
 ASP623  PHE694  ASN695  SER759  ASP760  ASP761  ALA762  ILE779  LEU786  VAL792 
 PHE793  MET794  SER795  GLU796  ALA797  LYS798  CYS799  TRP800  GLU811  SER814 

> <Gold.Protein.RotatedAtoms>
  150.9873  133.6185  159.2713 H   0  0  0  0  0  0  0  0  0  0  0  0  # atno 6907 bound_to 6896
  151.3418  135.0864  159.9383 H   0  0  0  0  0  0  0  0  0  0  0  0  # atno 6908 bound_to 6896
  152.5235  133.9483  159.7714 H   0  0  0  0  0  0  0  0  0  0  0  0  # atno 6909 bound_to 6896
  145.0295  139.4059  143.5157 H   0  0  0  0  0  0  0  0  0  0  0  0  # atno 7974 bound_to 7965
  155.8073  140.3474  155.5437 H   0  0  0  0  0  0  0  0  0  0  0  0  # atno 8008 bound_to 7997
  155.8476  140.0951  157.1715 H   0  0  0  0  0  0  0  0  0  0  0  0  # atno 8009 bound_to 7997
  154.4007  140.1382  156.3792 H   0  0  0  0  0  0  0  0  0  0  0  0  # atno 8010 bound_to 7997
  140.1110  143.4528  152.1752 H   0  0  0  0  0  0  0  0  0  0  0  0  # atno 10167 bound_to 10162
  157.4203  130.7965  149.7509 H   0  0  0  0  0  0  0  0  0  0  0  0  # atno 10718 bound_to 10713
  154.0013  135.2923  155.3402 H   0  0  0  0  0  0  0  0  0  0  0  0  # atno 10763 bound_to 10752
  154.7158  135.5130  153.8738 H   0  0  0  0  0  0  0  0  0  0  0  0  # atno 10764 bound_to 10752
  153.0765  135.6665  154.0254 H   0  0  0  0  0  0  0  0  0  0  0  0  # atno 10765 bound_to 10752
  140.7247  134.3687  157.5177 H   0  0  0  0  0  0  0  0  0  0  0  0  # atno 11005 bound_to 11000
  146.3496  139.9837  142.8693 LP  0  0  0  0  0  0  0  0  0  0  0  0  # atno 17320 bound_to 7965
  145.1789  140.9757  143.4278 LP  0  0  0  0  0  0  0  0  0  0  0  0  # atno 17321 bound_to 7965
  139.5619  144.7411  151.4130 LP  0  0  0  0  0  0  0  0  0  0  0  0  # atno 17342 bound_to 10162
  140.6926  143.7826  150.7278 LP  0  0  0  0  0  0  0  0  0  0  0  0  # atno 17343 bound_to 10162
  155.9878  130.3964  150.3146 LP  0  0  0  0  0  0  0  0  0  0  0  0  # atno 17370 bound_to 10713
  157.1293  131.0267  151.2976 LP  0  0  0  0  0  0  0  0  0  0  0  0  # atno 17371 bound_to 10713
  139.8840  134.8979  156.2732 LP  0  0  0  0  0  0  0  0  0  0  0  0  # atno 17394 bound_to 11000
  140.9973  133.7173  156.0905 LP  0  0  0  0  0  0  0  0  0  0  0  0  # atno 17395 bound_to 11000

$$$$
