AV-unprocessed.smi:2458|AV-procd|sdf|9708|dock7
  -GOLD-   2272013343D 1   1.00000     0.00000
 Structure written by MMmdl.
 47 48  0  0  0  0  0  0  0  0  1 V2000
  152.5627  143.2376  161.5170 C   0  0  0  0  0  0  0  0  0  0  0  0
  152.2501  143.6625  160.0689 C   0  0  0  0  0  0  0  0  0  0  0  0
  151.2569  144.8403  160.1032 C   0  0  0  0  0  0  0  0  0  0  0  0
  151.7499  142.4785  159.1891 C   0  0  1  0  0  0  0  0  0  0  0  0
  151.0991  142.9590  157.8682 C   0  0  0  0  0  0  0  0  0  0  0  0
  150.6185  141.7929  156.9890 C   0  0  0  0  0  0  0  0  0  0  0  0
  151.7681  140.8220  156.6652 C   0  0  2  0  0  0  0  0  0  0  0  0
  151.2778  139.6579  155.7930 C   0  0  0  0  0  0  0  0  0  0  0  0
  150.9859  139.8448  154.6113 O   0  0  0  0  0  0  0  0  0  0  0  0
  151.1904  138.4597  156.3878 N   0  0  0  0  0  0  0  0  0  0  0  0
  150.7497  137.2396  155.7242 C   0  0  0  0  0  0  0  0  0  0  0  0
  151.1545  135.9945  156.5333 C   0  0  2  0  0  0  0  0  0  0  0  0
  152.5570  136.0091  156.7135 O   0  0  0  0  0  0  0  0  0  0  0  0
  150.6974  134.7168  155.8475 C   0  0  0  0  0  0  0  0  0  0  0  0
  150.9212  133.4509  156.4312 C   0  0  0  0  0  0  0  0  0  0  0  0
  150.4852  132.2992  155.7483 C   0  0  0  0  0  0  0  0  0  0  0  0
  149.8421  132.4604  154.5051 C   0  0  0  0  0  0  0  0  0  0  0  0
  149.6234  133.6644  153.9345 N   0  0  0  0  0  0  0  0  0  0  0  0
  150.0446  134.7639  154.5962 C   0  0  0  0  0  0  0  0  0  0  0  0
  152.3942  140.3100  157.9752 C   0  0  0  0  0  0  0  0  0  0  0  0
  152.8788  141.4704  158.8595 C   0  0  0  0  0  0  0  0  0  0  0  0
  150.9865  141.9437  159.7564 H   0  0  0  0  0  0  0  0  0  0  0  0
  152.5331  141.3694  156.1115 H   0  0  0  0  0  0  0  0  0  0  0  0
  151.7030  142.7555  161.9834 H   0  0  0  0  0  0  0  0  0  0  0  0
  152.8306  144.0981  162.1308 H   0  0  0  0  0  0  0  0  0  0  0  0
  153.4062  142.5503  161.5692 H   0  0  0  0  0  0  0  0  0  0  0  0
  153.1787  144.0371  159.6360 H   0  0  0  0  0  0  0  0  0  0  0  0
  150.2696  144.5170  160.4346 H   0  0  0  0  0  0  0  0  0  0  0  0
  151.1489  145.3137  159.1282 H   0  0  0  0  0  0  0  0  0  0  0  0
  151.5946  145.6200  160.7866 H   0  0  0  0  0  0  0  0  0  0  0  0
  150.2391  143.5960  158.0706 H   0  0  0  0  0  0  0  0  0  0  0  0
  151.8101  143.5672  157.3073 H   0  0  0  0  0  0  0  0  0  0  0  0
  149.8115  141.2665  157.5014 H   0  0  0  0  0  0  0  0  0  0  0  0
  150.1909  142.1876  156.0661 H   0  0  0  0  0  0  0  0  0  0  0  0
  151.4537  138.3851  157.3598 H   0  0  0  0  0  0  0  0  0  0  0  0
  149.6620  137.2868  155.6490 H   0  0  0  0  0  0  0  0  0  0  0  0
  151.1362  137.1877  154.7047 H   0  0  0  0  0  0  0  0  0  0  0  0
  150.6937  136.0347  157.5217 H   0  0  0  0  0  0  0  0  0  0  0  0
  152.7482  136.3973  157.5536 H   0  0  0  0  0  0  0  0  0  0  0  0
  151.4208  133.3617  157.3846 H   0  0  0  0  0  0  0  0  0  0  0  0
  150.6413  131.3159  156.1665 H   0  0  0  0  0  0  0  0  0  0  0  0
  149.4958  131.5988  153.9538 H   0  0  0  0  0  0  0  0  0  0  0  0
  149.8552  135.7089  154.1088 H   0  0  0  0  0  0  0  0  0  0  0  0
  151.6701  139.7146  158.5336 H   0  0  0  0  0  0  0  0  0  0  0  0
  153.2326  139.6475  157.7552 H   0  0  0  0  0  0  0  0  0  0  0  0
  153.7012  141.9871  158.3629 H   0  0  0  0  0  0  0  0  0  0  0  0
  153.2899  141.0403  159.7717 H   0  0  0  0  0  0  0  0  0  0  0  0
  1  2  1  0  0  0  0
  1 24  1  0  0  0  0
  1 25  1  0  0  0  0
  1 26  1  0  0  0  0
  2  3  1  0  0  0  0
  2  4  1  0  0  0  0
  2 27  1  0  0  0  0
  3 28  1  0  0  0  0
  3 29  1  0  0  0  0
  3 30  1  0  0  0  0
  4 22  1  0  0  0  0
  4 21  1  0  0  0  0
  4  5  1  0  0  0  0
  5  6  1  0  0  0  0
  5 31  1  0  0  0  0
  5 32  1  0  0  0  0
  6  7  1  0  0  0  0
  6 33  1  0  0  0  0
  6 34  1  0  0  0  0
  7 23  1  0  0  0  0
  7  8  1  0  0  0  0
  7 20  1  0  0  0  0
  8  9  2  0  0  0  0
  8 10  1  0  0  0  0
 10 11  1  0  0  0  0
 10 35  1  0  0  0  0
 11 12  1  0  0  0  0
 11 36  1  0  0  0  0
 11 37  1  0  0  0  0
 12 13  1  0  0  0  0
 12 14  1  0  0  0  0
 12 38  1  0  0  0  0
 13 39  1  0  0  0  0
 14 19  1  0  0  0  0
 14 15  2  0  0  0  0
 15 16  1  0  0  0  0
 15 40  1  0  0  0  0
 16 17  2  0  0  0  0
 16 41  1  0  0  0  0
 17 18  1  0  0  0  0
 17 42  1  0  0  0  0
 18 19  2  0  0  0  0
 19 43  1  0  0  0  0
 20 21  1  0  0  0  0
 20 44  1  0  0  0  0
 20 45  1  0  0  0  0
 21 46  1  0  0  0  0
 21 47  1  0  0  0  0
M  END
> <s_m_source_file>
AV-unprocessed.smi

> <i_m_source_file_index>
2458

> <i_lp_mmshare_version>
43012

> <i_f3d_flags>
0

> <s_epik_input>
W0NIM11bQ0hdKFtDSDNdKVtDQEhdMVtDSDJdW0NIMl1bQ0BASF0oW0NIMl1bQ0gyXTEpQyg9TylbTkhdW0NIMl1bQ0BIXShbT0hdKWMyW2NIXVtjSF1bY0hdbltjSF0y

> <s_epik_cmdline>
J2VwaWtfcHl0aG9uJywgJy1waCcsICc3LjAnLCAnLXRuJywgJzgnLCAnLW1hJywgJzIwMCcsICctbWV0YWxfYmluZGluZycsICctaW1hZScsICc8aW5maWxlLm1hZT4nLCAnLW9tYWUnLCAnPG91dGZpbGUubWFlPic=

> <r_epik_Ionization_Penalty>
0.00169206

> <r_epik_Ionization_Penalty_Charging>
0

> <r_epik_Ionization_Penalty_Neutral>
0.00169206

> <r_epik_State_Penalty>
0.0011427

> <r_epik_Charging_Adjusted_Penalty>
0.0011427

> <i_epik_Tot_Q>
0

> <i_epik_Tot_abs_Q>
0

> <r_epik_Metal_State_Penalty>
-0

> <b_epik_Metal_Only>
0

> <s_lp_Force_Field>
OPLS_2005

> <r_lp_Energy>
18.0059

> <b_lp_Chiralities_Consistent>
1

> <s_lp_Variant>
AV-unprocessed.smi:2458-1

> <Gold.Version>
5.8.1

> <Gold.Id.Protein>
6NUR|6NUR_protein|mol2

> <Gold.PLP.Fitness>
47.7931

> <Gold.PLP.PLP>
-41.1202

> <Gold.PLP.part.hbond>
-2.0000

> <Gold.PLP.part.metal>
0.0000

> <Gold.PLP.part.buried>
-6.3919

> <Gold.PLP.part.nonpolar>
-33.4821

> <Gold.PLP.part.repulsive>
0.2891

> <Gold.PLP.ligand.clash>
1.1225

> <Gold.PLP.ligand.torsion>
0.6258

> <Gold.PLP.Chemscore.Hbond>
2.0000

> <Gold.PLP.Chemscore.CHOScore>
1.0000

> <Gold.PLP.Chemscore.Metal>
0.0000

> <Gold.Chemscore.Hbonds>
donor molecule, donor type, donor heavy atom, donor atom, acceptor molecule, acceptor atom, score
      P1  H  7989  7998       L1     9  1.00
      P1  H 10752 10763       L1    13  1.00
      L1  C    19    43       P1  7948  0.89

> <Gold.PLP.Chemscore.Internal.Correction>
0.0471

> <Gold.Rescore>
     Score         DG    S(hbond)    S(metal)    S(lipo)     H(rot)  DE(clash)    DE(int)     intcor
     19.92     -20.46       1.98        0.00     116.50       2.06       0.01       0.53       ----

> <Gold.Chemscore.Fitness>
19.9215

> <Gold.Chemscore.DG>
-20.4613

> <Gold.Chemscore.ZeroCoef>
-5.4800

> <Gold.Chemscore.Hbond>
1.9823

> <Gold.Chemscore.Metal>
0.0000

> <Gold.Chemscore.Lipo>
116.5039

> <Gold.Chemscore.Internal_Hbond>
0.0000

> <Gold.Chemscore.DEClash>
0.0098

> <Gold.Chemscore.DEInternal>
0.5300

> <Gold.Chemscore.Rot>
2.0588

> <Gold.Chemscore.Internal.Correction>
   9.000000E+99

> <Gold.Chemscore.Hbonds>
donor molecule, donor type, donor heavy atom, donor atom, acceptor molecule, acceptor atom, score
      P1  H  7989  7998       L1     9  1.00
      P1  H 10752 10763       L1    13  0.92

> <Gold.Chemscore.Hbond.Weighted>
-6.6208

> <Gold.Chemscore.Metal.Weighted>
-0.0000

> <Gold.Chemscore.Lipo.Weighted>
-13.6310

> <Gold.Chemscore.Internal_Hbond.Weighted>
0.0000

> <Gold.Chemscore.DEClash.Weighted>
0.0098

> <Gold.Chemscore.DEInternal.Weighted>
0.5300

> <Gold.Chemscore.Rot.Weighted>
5.2705

> <Gold.Chemscore.Internal.Correction.Weighted>
   9.000000E+99

> <Gold.Protein.RotatedTorsions>
[ 6907 6896 6895 6894 ] final  136.06 input  -60.11 | X-H torsion
[ 7974 7965 7964 7962 ] final -158.81 input  175.53 | X-H torsion
[ 8008 7997 7996 7995 ] final  100.38 input   59.86 | X-H torsion
[ 10167 10162 10161 10158 ] final   96.35 input  -65.29 | X-H torsion
[ 10718 10713 10712 10709 ] final   69.08 input   66.30 | X-H torsion
[ 10763 10752 10751 10750 ] final  118.08 input  -60.55 | X-H torsion
[ 11005 11000 10999 10996 ] final  -75.57 input  -57.11 | X-H torsion

> <Gold.Protein.ActiveResidues>
 VAL166  LYS551  ARG553  GLY616  TRP617  ASP618  TYR619  PRO620  LYS621  CYS622 
 ASP623  PHE694  ASN695  SER759  ASP760  ASP761  ALA762  ILE779  LEU786  VAL792 
 PHE793  MET794  SER795  GLU796  ALA797  LYS798  CYS799  TRP800  GLU811  SER814 

> <Gold.Protein.RotatedAtoms>
  152.2936  133.5585  159.5572 H   0  0  0  0  0  0  0  0  0  0  0  0  # atno 6907 bound_to 6896
  150.7246  134.0393  159.3769 H   0  0  0  0  0  0  0  0  0  0  0  0  # atno 6908 bound_to 6896
  151.8298  135.0625  160.0486 H   0  0  0  0  0  0  0  0  0  0  0  0  # atno 6909 bound_to 6896
  144.7490  140.3774  143.6062 H   0  0  0  0  0  0  0  0  0  0  0  0  # atno 7974 bound_to 7965
  156.1198  140.3214  155.8191 H   0  0  0  0  0  0  0  0  0  0  0  0  # atno 8008 bound_to 7997
  155.4526  140.0533  157.3017 H   0  0  0  0  0  0  0  0  0  0  0  0  # atno 8009 bound_to 7997
  154.4819  140.2056  155.9758 H   0  0  0  0  0  0  0  0  0  0  0  0  # atno 8010 bound_to 7997
  139.7903  144.6855  150.9902 H   0  0  0  0  0  0  0  0  0  0  0  0  # atno 10167 bound_to 10162
  157.6325  130.9407  150.0464 H   0  0  0  0  0  0  0  0  0  0  0  0  # atno 10718 bound_to 10713
  153.5621  135.3518  155.2803 H   0  0  0  0  0  0  0  0  0  0  0  0  # atno 10763 bound_to 10752
  154.8693  135.4139  154.2819 H   0  0  0  0  0  0  0  0  0  0  0  0  # atno 10764 bound_to 10752
  153.3567  135.7058  153.6814 H   0  0  0  0  0  0  0  0  0  0  0  0  # atno 10765 bound_to 10752
  141.1646  133.6951  156.7537 H   0  0  0  0  0  0  0  0  0  0  0  0  # atno 11005 bound_to 11000
  145.7013  139.1662  143.2591 LP  0  0  0  0  0  0  0  0  0  0  0  0  # atno 17320 bound_to 7965
  146.1413  140.7053  142.9365 LP  0  0  0  0  0  0  0  0  0  0  0  0  # atno 17321 bound_to 7965
  140.7820  143.4388  151.0582 LP  0  0  0  0  0  0  0  0  0  0  0  0  # atno 17342 bound_to 10162
  139.8065  143.8010  152.3168 LP  0  0  0  0  0  0  0  0  0  0  0  0  # atno 17343 bound_to 10162
  156.1540  130.3643  149.9396 LP  0  0  0  0  0  0  0  0  0  0  0  0  # atno 17370 bound_to 10713
  156.7410  130.9079  151.3632 LP  0  0  0  0  0  0  0  0  0  0  0  0  # atno 17371 bound_to 10713
  140.2585  134.8485  157.3736 LP  0  0  0  0  0  0  0  0  0  0  0  0  # atno 17394 bound_to 11000
  140.1634  134.4700  155.7879 LP  0  0  0  0  0  0  0  0  0  0  0  0  # atno 17395 bound_to 11000

$$$$
