#       Name:                AV-unprocessed.smi:2471
#       Creating user name   scv26
#       Creation time:       Fri Mar 27 13:37:56 2020


#       File generated by GOLD software.
#

@<TRIPOS>MOLECULE
AV-unprocessed.smi:2471
    45    46     1
SMALL
NO_CHARGES


@<TRIPOS>ATOM
      1 ****        -3.4037   4.5961  -1.2368 C.3            1 S1                 0.0000
      2 ****        -3.7643   3.1256  -1.2100 C.ar           1 S1                 0.0000
      3 ****        -5.1095   2.7090  -1.2411 C.ar           1 S1                 0.0000
      4 ****        -5.3762   1.3283  -1.2177 C.ar           1 S1                 0.0000
      5 ****        -4.2947   0.4276  -1.1656 C.ar           1 S1                 0.0000
      6 ****        -2.9736   0.9283  -1.1398 C.ar           1 S1                 0.0000
      7 ****        -1.9548  -0.0609  -1.0945 N.am           1 S1                 0.0000
      8 ****        -0.6220   0.1194  -1.0937 C.2            1 S1                 0.0000
      9 ****        -0.0501   1.2101  -1.1001 O.2            1 S1                 0.0000
     10 ****         0.0280  -1.0534  -1.0840 N.am           1 S1                 0.0000
     11 ****         1.4803  -1.2038  -1.0870 C.3            1 S1                 0.0000
     12 ****         2.0968  -1.0402   0.3210 C.3            1 S1                 0.0000
     13 ****         1.5765  -2.0878   1.3314 C.3            1 S1                 0.0000
     14 ****         2.1748  -1.8709   2.7305 C.3            1 S1                 0.0000
     15 ****         3.7100  -1.8741   2.6913 C.3            1 S1                 0.0000
     16 ****         4.2445  -0.8361   1.6897 C.3            1 S1                 0.0000
     17 ****         3.6445  -1.0242   0.2826 C.3            1 S1                 0.0000
     18 ****         4.1560  -2.2152  -0.2866 O.3            1 S1                 0.0000
     19 ****        -2.7271   2.2620  -1.1616 N.ar           1 S1                 0.0000
     20 ****        -4.2748   5.2189  -1.0316 H              1 S1                 0.0000
     21 ****        -3.0107   4.8692  -2.2163 H              1 S1                 0.0000
     22 ****        -2.6439   4.8190  -0.4869 H              1 S1                 0.0000
     23 ****        -5.9165   3.4257  -1.2830 H              1 S1                 0.0000
     24 ****        -6.3931   0.9651  -1.2409 H              1 S1                 0.0000
     25 ****        -4.4828  -0.6362  -1.1489 H              1 S1                 0.0000
     26 ****        -2.2787  -1.0164  -1.0787 H              1 S1                 0.0000
     27 ****        -0.5176  -1.9028  -1.0762 H              1 S1                 0.0000
     28 ****         1.7106  -2.1916  -1.4866 H              1 S1                 0.0000
     29 ****         1.9204  -0.4843  -1.7797 H              1 S1                 0.0000
     30 ****         1.7896  -0.0610   0.6923 H              1 S1                 0.0000
     31 ****         0.4895  -2.0412   1.4010 H              1 S1                 0.0000
     32 ****         1.8179  -3.0925   0.9819 H              1 S1                 0.0000
     33 ****         1.8219  -0.9213   3.1347 H              1 S1                 0.0000
     34 ****         1.8200  -2.6465   3.4099 H              1 S1                 0.0000
     35 ****         4.1070  -1.6681   3.6856 H              1 S1                 0.0000
     36 ****         4.0668  -2.8680   2.4185 H              1 S1                 0.0000
     37 ****         3.9981   0.1633   2.0506 H              1 S1                 0.0000
     38 ****         5.3334  -0.8824   1.6471 H              1 S1                 0.0000
     39 ****         3.9770  -0.2002  -0.3499 H              1 S1                 0.0000
     40 ****         3.8304  -2.2886  -1.1706 H              1 S1                 0.0000
     41 ****        -0.5849   2.0551  -1.1065 LP             1 S1                 0.0000
     42 ****         0.9491   1.2508  -1.0989 LP             1 S1                 0.0000
     43 ****         3.8540  -3.0027   0.2507 LP             1 S1                 0.0000
     44 ****         5.1554  -2.1821  -0.2968 LP             1 S1                 0.0000
     45 ****        -1.7870   2.6023  -1.1420 LP             1 S1                 0.0000
@<TRIPOS>BOND
    1    1    2 1     
    2    1   20 1     
    3    1   21 1     
    4    1   22 1     
    5    2   19 ar    
    6    2    3 ar    
    7    3    4 ar    
    8    3   23 1     
    9    4    5 ar    
   10    4   24 1     
   11    5    6 ar    
   12    5   25 1     
   13    6    7 1     
   14    6   19 ar    
   15    7    8 am    
   16    7   26 1     
   17    8    9 2     
   18    8   10 am    
   19   10   11 1     
   20   10   27 1     
   21   11   12 1     
   22   11   28 1     
   23   11   29 1     
   24   12   17 1     
   25   12   13 1     
   26   12   30 1     
   27   13   14 1     
   28   13   31 1     
   29   13   32 1     
   30   14   15 1     
   31   14   33 1     
   32   14   34 1     
   33   15   16 1     
   34   15   35 1     
   35   15   36 1     
   36   16   17 1     
   37   16   37 1     
   38   16   38 1     
   39   17   18 1     
   40   17   39 1     
   41   18   40 1     
   42    9   41 1     
   43    9   42 1     
   44   18   43 1     
   45   18   44 1     
   46   19   45 1     
@<TRIPOS>SUBSTRUCTURE
      1 S1             1
@<TRIPOS>SET
LONE_PAIRS      STATIC     ATOMS    <user>   **** ""
5 41 42 43 44 45
DONOR_HYDROGENS      STATIC     ATOMS    <user>   **** ""
3 26 27 40
ATOM$BLUE        STATIC     ATOMS    COLORGROUP SYSTEM
5 41 42 43 44 45
ATOM$RED        STATIC     ATOMS    COLORGROUP SYSTEM
3 26 27 40
