AV-unprocessed.smi:999|AV-procd|sdf|4354|dock2
  -GOLD-   22720 2253D 1   1.00000     0.00000
 Structure written by MMmdl.
 37 38  0  0  0  0  0  0  0  0  2 V2000
  153.0723  141.1773  160.5058 C   0  0  0  0  0  0  0  0  0  0  0  0
  153.0309  141.5823  159.0178 C   0  0  1  0  0  0  0  0  0  0  0  0
  152.2601  140.5770  158.1473 C   0  0  0  0  0  0  0  0  0  0  0  0
  151.8517  139.5158  158.6209 O   0  0  0  0  0  0  0  0  0  0  0  0
  152.0739  140.9287  156.8652 N   0  0  0  0  0  0  0  0  0  0  0  0
  151.3748  140.1355  155.8598 C   0  0  2  0  0  0  0  0  0  0  0  0
  150.1042  139.5005  156.4621 C   0  0  0  0  0  0  0  0  0  0  0  0
  149.4053  138.5702  155.4528 C   0  0  0  0  0  0  0  0  0  0  0  0
  150.3508  137.4704  154.9104 C   0  0  2  0  0  0  0  0  0  0  0  0
  150.6881  136.3945  155.9697 C   0  0  0  0  0  0  0  0  0  0  0  0
  151.8897  136.2414  156.2831 O   0  0  0  0  0  0  0  0  0  0  0  0
  149.7465  135.7137  156.4335 O   0  5  0  0  0  0  0  0  0  0  0  0
  151.6155  138.1292  154.3070 C   0  0  0  0  0  0  0  0  0  0  0  0
  152.3281  139.0582  155.3080 C   0  0  0  0  0  0  0  0  0  0  0  0
  152.5044  142.9286  158.8224 N   0  0  0  0  0  0  0  0  0  0  0  0
  152.8544  144.0809  159.4974 C   0  0  0  0  0  0  0  0  0  0  0  0
  152.1392  145.1092  158.9543 C   0  0  0  0  0  0  0  0  0  0  0  0
  151.3780  144.4856  157.9273 C   0  0  0  0  0  0  0  0  0  0  0  0
  151.6047  143.1852  157.8441 N   0  0  0  0  0  0  0  0  0  0  0  0
  153.5336  140.1971  160.6320 H   0  0  0  0  0  0  0  0  0  0  0  0
  152.0762  141.1319  160.9482 H   0  0  0  0  0  0  0  0  0  0  0  0
  153.6587  141.8906  161.0860 H   0  0  0  0  0  0  0  0  0  0  0  0
  154.0627  141.5900  158.6623 H   0  0  0  0  0  0  0  0  0  0  0  0
  152.4473  141.8154  156.5594 H   0  0  0  0  0  0  0  0  0  0  0  0
  151.0841  140.7835  155.0306 H   0  0  0  0  0  0  0  0  0  0  0  0
  150.3608  138.9415  157.3630 H   0  0  0  0  0  0  0  0  0  0  0  0
  149.4090  140.2795  156.7766 H   0  0  0  0  0  0  0  0  0  0  0  0
  148.5122  138.1349  155.9026 H   0  0  0  0  0  0  0  0  0  0  0  0
  149.0439  139.1677  154.6151 H   0  0  0  0  0  0  0  0  0  0  0  0
  149.8303  136.9419  154.1110 H   0  0  0  0  0  0  0  0  0  0  0  0
  152.3125  137.3769  153.9359 H   0  0  0  0  0  0  0  0  0  0  0  0
  151.3253  138.7101  153.4311 H   0  0  0  0  0  0  0  0  0  0  0  0
  153.1801  139.5326  154.8197 H   0  0  0  0  0  0  0  0  0  0  0  0
  152.7377  138.4684  156.1293 H   0  0  0  0  0  0  0  0  0  0  0  0
  153.5770  144.0726  160.3004 H   0  0  0  0  0  0  0  0  0  0  0  0
  152.1607  146.1497  159.2423 H   0  0  0  0  0  0  0  0  0  0  0  0
  150.6764  144.9367  157.2414 H   0  0  0  0  0  0  0  0  0  0  0  0
  1  2  1  0  0  0  0
  1 20  1  0  0  0  0
  1 21  1  0  0  0  0
  1 22  1  0  0  0  0
  2  3  1  0  0  0  0
  2 15  1  0  0  0  0
  2 23  1  0  0  0  0
  3  4  2  0  0  0  0
  3  5  1  0  0  0  0
  5  6  1  0  0  0  0
  5 24  1  0  0  0  0
  6 14  1  0  0  0  0
  6  7  1  0  0  0  0
  6 25  1  0  0  0  0
  7  8  1  0  0  0  0
  7 26  1  0  0  0  0
  7 27  1  0  0  0  0
  8  9  1  0  0  0  0
  8 28  1  0  0  0  0
  8 29  1  0  0  0  0
  9 10  1  0  0  0  0
  9 13  1  0  0  0  0
  9 30  1  0  0  0  0
 10 11  2  0  0  0  0
 10 12  1  0  0  0  0
 13 14  1  0  0  0  0
 13 31  1  0  0  0  0
 13 32  1  0  0  0  0
 14 33  1  0  0  0  0
 14 34  1  0  0  0  0
 15 19  1  0  0  0  0
 15 16  1  0  0  0  0
 16 17  2  0  0  0  0
 16 35  1  0  0  0  0
 17 18  1  0  0  0  0
 17 36  1  0  0  0  0
 18 19  2  0  0  0  0
 18 37  1  0  0  0  0
M  CHG  1  12  -1
M  END
> <s_m_source_file>
AV-unprocessed.smi

> <i_m_source_file_index>
999

> <i_lp_mmshare_version>
43012

> <i_f3d_flags>
0

> <s_epik_input>
bjFbY0hdW2NIXVtjSF1uMVtDQEhdKFtDSDNdKUMoPU8pW05IXVtDQEBIXTJbQ0gyXVtDSDJdW0NAQEhdKEMoPU8pW09IXSlbQ0gyXVtDSDJdMg==

> <s_epik_cmdline>
J2VwaWtfcHl0aG9uJywgJy1waCcsICc3LjAnLCAnLXRuJywgJzgnLCAnLW1hJywgJzIwMCcsICctbWV0YWxfYmluZGluZycsICctaW1hZScsICc8aW5maWxlLm1hZT4nLCAnLW9tYWUnLCAnPG91dGZpbGUubWFlPic=

> <r_lp_tautomer_probability>
1

> <r_epik_Ionization_Penalty>
0.00221712

> <r_epik_Ionization_Penalty_Charging>
0.00217268

> <r_epik_Ionization_Penalty_Neutral>
4.44343e-05

> <r_epik_State_Penalty>
0.0014925

> <r_epik_Charging_Adjusted_Penalty>
0.00366518

> <i_epik_Tot_Q>
-1

> <i_epik_Tot_abs_Q>
1

> <r_epik_Metal_State_Penalty>
-0

> <b_epik_Metal_Only>
0

> <s_lp_Force_Field>
OPLS_2005

> <r_lp_Energy>
8.81329

> <b_lp_Chiralities_Consistent>
1

> <s_lp_Variant>
AV-unprocessed.smi:999-4

> <Gold.Version>
5.8.1

> <Gold.Id.Protein>
6NUR|6NUR_protein|mol2

> <Gold.PLP.Fitness>
43.6967

> <Gold.PLP.PLP>
-35.9876

> <Gold.PLP.part.hbond>
-1.0000

> <Gold.PLP.part.metal>
0.0000

> <Gold.PLP.part.buried>
-3.3202

> <Gold.PLP.part.nonpolar>
-32.1711

> <Gold.PLP.part.repulsive>
0.2486

> <Gold.PLP.ligand.clash>
0.0000

> <Gold.PLP.ligand.torsion>
0.7172

> <Gold.PLP.Chemscore.Hbond>
2.0000

> <Gold.PLP.Chemscore.CHOScore>
1.0000

> <Gold.PLP.Chemscore.Metal>
0.0000

> <Gold.Chemscore.Hbonds>
donor molecule, donor type, donor heavy atom, donor atom, acceptor molecule, acceptor atom, score
      P1  H 10752 10764       L1    11  2.00
      L1  C    18    37       P1  8028  1.00

> <Gold.PLP.Chemscore.Internal.Correction>
0.1436

> <Gold.Rescore>
     Score         DG    S(hbond)    S(metal)    S(lipo)     H(rot)  DE(clash)    DE(int)     intcor
     10.24     -15.21       1.00        0.00      97.97       1.98       1.28       3.69       ----

> <Gold.Chemscore.Fitness>
10.2372

> <Gold.Chemscore.DG>
-15.2121

> <Gold.Chemscore.ZeroCoef>
-5.4800

> <Gold.Chemscore.Hbond>
0.9975

> <Gold.Chemscore.Metal>
0.0000

> <Gold.Chemscore.Lipo>
97.9694

> <Gold.Chemscore.Internal_Hbond>
0.0000

> <Gold.Chemscore.DEClash>
1.2827

> <Gold.Chemscore.DEInternal>
3.6922

> <Gold.Chemscore.Rot>
1.9774

> <Gold.Chemscore.Internal.Correction>
   9.000000E+99

> <Gold.Chemscore.Hbonds>
donor molecule, donor type, donor heavy atom, donor atom, acceptor molecule, acceptor atom, score
      P1  H 10752 10764       L1    11  0.76

> <Gold.Chemscore.Hbond.Weighted>
-3.3317

> <Gold.Chemscore.Metal.Weighted>
-0.0000

> <Gold.Chemscore.Lipo.Weighted>
-11.4624

> <Gold.Chemscore.Internal_Hbond.Weighted>
0.0000

> <Gold.Chemscore.DEClash.Weighted>
1.2827

> <Gold.Chemscore.DEInternal.Weighted>
3.6922

> <Gold.Chemscore.Rot.Weighted>
5.0620

> <Gold.Chemscore.Internal.Correction.Weighted>
   9.000000E+99

> <Gold.Protein.RotatedTorsions>
[ 6907 6896 6895 6894 ] final  173.12 input  -60.11 | X-H torsion
[ 7974 7965 7964 7962 ] final   88.19 input  175.53 | X-H torsion
[ 8008 7997 7996 7995 ] final  -46.67 input   59.86 | X-H torsion
[ 10167 10162 10161 10158 ] final  -84.13 input  -65.29 | X-H torsion
[ 10718 10713 10712 10709 ] final -148.74 input   66.30 | X-H torsion
[ 10763 10752 10751 10750 ] final  -50.70 input  -60.55 | X-H torsion
[ 11005 11000 10999 10996 ] final -178.47 input  -57.11 | X-H torsion

> <Gold.Protein.ActiveResidues>
 VAL166  LYS551  ARG553  GLY616  TRP617  ASP618  TYR619  PRO620  LYS621  CYS622 
 ASP623  PHE694  ASN695  SER759  ASP760  ASP761  ALA762  ILE779  LEU786  VAL792 
 PHE793  MET794  SER795  GLU796  ALA797  LYS798  CYS799  TRP800  GLU811  SER814 

> <Gold.Protein.RotatedAtoms>
  151.7734  133.3343  159.3450 H   0  0  0  0  0  0  0  0  0  0  0  0  # atno 6907 bound_to 6896
  150.7453  134.5998  159.6040 H   0  0  0  0  0  0  0  0  0  0  0  0  # atno 6908 bound_to 6896
  152.3326  134.7241  160.0337 H   0  0  0  0  0  0  0  0  0  0  0  0  # atno 6909 bound_to 6896
  145.5490  139.2294  143.2523 H   0  0  0  0  0  0  0  0  0  0  0  0  # atno 7974 bound_to 7965
  154.4009  140.1366  156.4049 H   0  0  0  0  0  0  0  0  0  0  0  0  # atno 8008 bound_to 7997
  155.7789  140.3482  155.5266 H   0  0  0  0  0  0  0  0  0  0  0  0  # atno 8009 bound_to 7997
  155.8693  140.0969  157.1551 H   0  0  0  0  0  0  0  0  0  0  0  0  # atno 8010 bound_to 7997
  140.4162  143.2603  151.8952 H   0  0  0  0  0  0  0  0  0  0  0  0  # atno 10167 bound_to 10162
  156.4241  130.8043  151.2267 H   0  0  0  0  0  0  0  0  0  0  0  0  # atno 10718 bound_to 10713
  154.1146  135.6544  153.4891 H   0  0  0  0  0  0  0  0  0  0  0  0  # atno 10763 bound_to 10752
  153.0245  135.5255  154.7158 H   0  0  0  0  0  0  0  0  0  0  0  0  # atno 10764 bound_to 10752
  154.6348  135.2980  155.0144 H   0  0  0  0  0  0  0  0  0  0  0  0  # atno 10765 bound_to 10752
  140.4294  134.6533  157.4704 H   0  0  0  0  0  0  0  0  0  0  0  0  # atno 11005 bound_to 11000
  146.1930  140.6312  142.9137 LP  0  0  0  0  0  0  0  0  0  0  0  0  # atno 17320 bound_to 7965
  144.7539  140.5259  143.6783 LP  0  0  0  0  0  0  0  0  0  0  0  0  # atno 17321 bound_to 7965
  139.4782  144.5486  151.8421 LP  0  0  0  0  0  0  0  0  0  0  0  0  # atno 17342 bound_to 10162
  140.4584  144.1756  150.5904 LP  0  0  0  0  0  0  0  0  0  0  0  0  # atno 17343 bound_to 10162
  157.7508  131.0219  150.3768 LP  0  0  0  0  0  0  0  0  0  0  0  0  # atno 17370 bound_to 10713
  156.4092  130.3931  149.6904 LP  0  0  0  0  0  0  0  0  0  0  0  0  # atno 17371 bound_to 10713
  140.0145  134.6641  155.9331 LP  0  0  0  0  0  0  0  0  0  0  0  0  # atno 17394 bound_to 11000
  141.1752  133.6540  156.4800 LP  0  0  0  0  0  0  0  0  0  0  0  0  # atno 17395 bound_to 11000

$$$$
