AV-unprocessed.smi:1218|AV-procd|sdf|5111|dock10
  -GOLD-   22720 4163D 1   1.00000     0.00000
 Structure written by MMmdl.
 44 45  0  0  0  0  0  0  0  0  1 V2000
  152.4567  144.6618  158.3315 C   0  0  0  0  0  0  0  0  0  0  0  0
  151.5760  143.9691  159.3837 C   0  0  0  0  0  0  0  0  0  0  0  0
  151.8237  144.5730  160.7738 C   0  0  0  0  0  0  0  0  0  0  0  0
  151.8100  142.4432  159.4091 C   0  0  0  0  0  0  0  0  0  0  0  0
  151.6671  141.7531  158.1257 N   0  0  0  0  0  0  0  0  0  0  0  0
  150.5506  142.2630  157.3324 C   0  0  0  0  0  0  0  0  0  0  0  0
  150.3908  141.4977  156.0083 C   0  0  0  0  0  0  0  0  0  0  0  0
  150.2387  140.1090  156.2782 O   0  0  0  0  0  0  0  0  0  0  0  0
  151.3425  139.5566  156.9919 C   0  0  2  0  0  0  0  0  0  0  0  0
  151.0957  138.0549  157.2140 C   0  0  0  0  0  0  0  0  0  0  0  0
  149.7309  137.7977  157.6615 N   0  0  0  0  0  0  0  0  0  0  0  0
  149.3935  137.1905  158.8103 C   0  0  0  0  0  0  0  0  0  0  0  0
  150.2154  136.7604  159.6192 O   0  0  0  0  0  0  0  0  0  0  0  0
  147.8976  137.0554  159.0997 C   0  0  0  0  0  0  0  0  0  0  0  0
  147.6594  136.4581  160.4023 N   0  0  0  0  0  0  0  0  0  0  0  0
  147.3736  135.1422  160.7028 C   0  0  0  0  0  0  0  0  0  0  0  0
  147.2338  135.0561  162.0583 C   0  0  0  0  0  0  0  0  0  0  0  0
  147.4584  136.3878  162.5066 C   0  0  0  0  0  0  0  0  0  0  0  0
  147.7122  137.2248  161.5138 N   0  0  0  0  0  0  0  0  0  0  0  0
  151.4891  140.3182  158.3245 C   0  0  0  0  0  0  0  0  0  0  0  0
  153.5160  144.4963  158.5305 H   0  0  0  0  0  0  0  0  0  0  0  0
  152.2844  145.7384  158.3217 H   0  0  0  0  0  0  0  0  0  0  0  0
  152.2439  144.2892  157.3292 H   0  0  0  0  0  0  0  0  0  0  0  0
  150.5339  144.1717  159.1396 H   0  0  0  0  0  0  0  0  0  0  0  0
  152.8541  144.4187  161.0957 H   0  0  0  0  0  0  0  0  0  0  0  0
  151.1700  144.1214  161.5206 H   0  0  0  0  0  0  0  0  0  0  0  0
  151.6310  145.6463  160.7767 H   0  0  0  0  0  0  0  0  0  0  0  0
  152.8159  142.2694  159.7945 H   0  0  0  0  0  0  0  0  0  0  0  0
  151.1351  141.9876  160.1354 H   0  0  0  0  0  0  0  0  0  0  0  0
  149.6249  142.1882  157.9049 H   0  0  0  0  0  0  0  0  0  0  0  0
  150.6947  143.3182  157.1046 H   0  0  0  0  0  0  0  0  0  0  0  0
  149.5141  141.8540  155.4674 H   0  0  0  0  0  0  0  0  0  0  0  0
  151.2543  141.6581  155.3610 H   0  0  0  0  0  0  0  0  0  0  0  0
  152.2515  139.6845  156.4007 H   0  0  0  0  0  0  0  0  0  0  0  0
  151.2397  137.5175  156.2764 H   0  0  0  0  0  0  0  0  0  0  0  0
  151.8238  137.6449  157.9162 H   0  0  0  0  0  0  0  0  0  0  0  0
  148.9854  138.1156  157.0589 H   0  0  0  0  0  0  0  0  0  0  0  0
  147.4225  138.0370  159.0757 H   0  0  0  0  0  0  0  0  0  0  0  0
  147.4239  136.4512  158.3241 H   0  0  0  0  0  0  0  0  0  0  0  0
  147.2936  134.3868  159.9349 H   0  0  0  0  0  0  0  0  0  0  0  0
  147.0072  134.1759  162.6411 H   0  0  0  0  0  0  0  0  0  0  0  0
  147.4453  136.7684  163.5174 H   0  0  0  0  0  0  0  0  0  0  0  0
  152.3408  139.9163  158.8747 H   0  0  0  0  0  0  0  0  0  0  0  0
  150.6075  140.1392  158.9423 H   0  0  0  0  0  0  0  0  0  0  0  0
  1  2  1  0  0  0  0
  1 21  1  0  0  0  0
  1 22  1  0  0  0  0
  1 23  1  0  0  0  0
  2  3  1  0  0  0  0
  2  4  1  0  0  0  0
  2 24  1  0  0  0  0
  3 25  1  0  0  0  0
  3 26  1  0  0  0  0
  3 27  1  0  0  0  0
  4  5  1  0  0  0  0
  4 28  1  0  0  0  0
  4 29  1  0  0  0  0
  5 20  1  0  0  0  0
  5  6  1  0  0  0  0
  6  7  1  0  0  0  0
  6 30  1  0  0  0  0
  6 31  1  0  0  0  0
  7  8  1  0  0  0  0
  7 32  1  0  0  0  0
  7 33  1  0  0  0  0
  8  9  1  0  0  0  0
  9 10  1  0  0  0  0
  9 20  1  0  0  0  0
  9 34  1  0  0  0  0
 10 11  1  0  0  0  0
 10 35  1  0  0  0  0
 10 36  1  0  0  0  0
 11 12  1  0  0  0  0
 11 37  1  0  0  0  0
 12 13  2  0  0  0  0
 12 14  1  0  0  0  0
 14 15  1  0  0  0  0
 14 38  1  0  0  0  0
 14 39  1  0  0  0  0
 15 19  1  0  0  0  0
 15 16  1  0  0  0  0
 16 17  2  0  0  0  0
 16 40  1  0  0  0  0
 17 18  1  0  0  0  0
 17 41  1  0  0  0  0
 18 19  2  0  0  0  0
 18 42  1  0  0  0  0
 20 43  1  0  0  0  0
 20 44  1  0  0  0  0
M  END
> <s_m_source_file>
AV-unprocessed.smi

> <i_m_source_file_index>
1218

> <i_lp_mmshare_version>
43012

> <i_f3d_flags>
0

> <s_epik_input>
W0NIM11bQ0hdKFtDSDNdKVtDSDJdTjFbQ0gyXVtDSDJdT1tDQEhdKFtDSDJdMSlbQ0gyXVtOSF1DKD1PKVtDSDJdbjJbY0hdW2NIXVtjSF1uMg==

> <s_epik_cmdline>
J2VwaWtfcHl0aG9uJywgJy1waCcsICc3LjAnLCAnLXRuJywgJzgnLCAnLW1hJywgJzIwMCcsICctbWV0YWxfYmluZGluZycsICctaW1hZScsICc8aW5maWxlLm1hZT4nLCAnLW9tYWUnLCAnPG91dGZpbGUubWFlPic=

> <r_lp_tautomer_probability>
1

> <r_epik_Ionization_Penalty>
1.10621

> <r_epik_Ionization_Penalty_Charging>
0

> <r_epik_Ionization_Penalty_Neutral>
1.10621

> <r_epik_State_Penalty>
1.16377

> <r_epik_Charging_Adjusted_Penalty>
1.16377

> <i_epik_Tot_Q>
0

> <i_epik_Tot_abs_Q>
0

> <r_epik_Metal_State_Penalty>
1.16377

> <b_epik_Metal_Only>
0

> <s_lp_Force_Field>
OPLS_2005

> <r_lp_Energy>
24.8608

> <b_lp_Chiralities_Consistent>
1

> <s_lp_Variant>
AV-unprocessed.smi:1218-6

> <Gold.Version>
5.8.1

> <Gold.Id.Protein>
6NUR|6NUR_protein|mol2

> <Gold.PLP.Fitness>
49.3726

> <Gold.PLP.PLP>
-42.5509

> <Gold.PLP.part.hbond>
-2.9533

> <Gold.PLP.part.metal>
0.0000

> <Gold.PLP.part.buried>
-5.4801

> <Gold.PLP.part.nonpolar>
-34.9679

> <Gold.PLP.part.repulsive>
0.0676

> <Gold.PLP.ligand.clash>
0.0000

> <Gold.PLP.ligand.torsion>
0.6146

> <Gold.PLP.Chemscore.Hbond>
2.6661

> <Gold.PLP.Chemscore.CHOScore>
0.0000

> <Gold.PLP.Chemscore.Metal>
0.0000

> <Gold.Chemscore.Hbonds>
donor molecule, donor type, donor heavy atom, donor atom, acceptor molecule, acceptor atom, score
      P1  H  6896  6908       L1    13  1.00
      P1  H  6931  6943       L1    19  0.99
      P1  H  6934  6947       L1    19  0.75

> <Gold.PLP.Chemscore.Internal.Correction>
0.0526

> <Gold.Rescore>
     Score         DG    S(hbond)    S(metal)    S(lipo)     H(rot)  DE(clash)    DE(int)     intcor
     20.25     -20.85       2.53        0.00     100.63       1.90       0.00       0.60       ----

> <Gold.Chemscore.Fitness>
20.2459

> <Gold.Chemscore.DG>
-20.8532

> <Gold.Chemscore.ZeroCoef>
-5.4800

> <Gold.Chemscore.Hbond>
2.5317

> <Gold.Chemscore.Metal>
0.0000

> <Gold.Chemscore.Lipo>
100.6308

> <Gold.Chemscore.Internal_Hbond>
0.0000

> <Gold.Chemscore.DEClash>
0.0048

> <Gold.Chemscore.DEInternal>
0.6025

> <Gold.Chemscore.Rot>
1.8970

> <Gold.Chemscore.Internal.Correction>
   9.000000E+99

> <Gold.Chemscore.Hbonds>
donor molecule, donor type, donor heavy atom, donor atom, acceptor molecule, acceptor atom, score
      P1  H  6896  6908       L1    13  0.99
      P1  H  6931  6943       L1    19  0.74
      P1  H  6934  6947       L1    19  0.41

> <Gold.Chemscore.Hbond.Weighted>
-8.4558

> <Gold.Chemscore.Metal.Weighted>
-0.0000

> <Gold.Chemscore.Lipo.Weighted>
-11.7738

> <Gold.Chemscore.Internal_Hbond.Weighted>
0.0000

> <Gold.Chemscore.DEClash.Weighted>
0.0048

> <Gold.Chemscore.DEInternal.Weighted>
0.6025

> <Gold.Chemscore.Rot.Weighted>
4.8564

> <Gold.Chemscore.Internal.Correction.Weighted>
   9.000000E+99

> <Gold.Protein.RotatedTorsions>
[ 6907 6896 6895 6894 ] final -162.54 input  -60.11 | X-H torsion
[ 7974 7965 7964 7962 ] final   27.63 input  175.53 | X-H torsion
[ 8008 7997 7996 7995 ] final   36.55 input   59.86 | X-H torsion
[ 10167 10162 10161 10158 ] final   42.15 input  -65.29 | X-H torsion
[ 10718 10713 10712 10709 ] final -173.60 input   66.30 | X-H torsion
[ 10763 10752 10751 10750 ] final   -0.42 input  -60.55 | X-H torsion
[ 11005 11000 10999 10996 ] final  -91.44 input  -57.11 | X-H torsion

> <Gold.Protein.ActiveResidues>
 VAL166  LYS551  ARG553  GLY616  TRP617  ASP618  TYR619  PRO620  LYS621  CYS622 
 ASP623  PHE694  ASN695  SER759  ASP760  ASP761  ALA762  ILE779  LEU786  VAL792 
 PHE793  MET794  SER795  GLU796  ALA797  LYS798  CYS799  TRP800  GLU811  SER814 

> <Gold.Protein.RotatedAtoms>
  151.3819  133.3818  159.2710 H   0  0  0  0  0  0  0  0  0  0  0  0  # atno 6907 bound_to 6896
  150.9571  134.8965  159.7718 H   0  0  0  0  0  0  0  0  0  0  0  0  # atno 6908 bound_to 6896
  152.5135  134.3777  159.9392 H   0  0  0  0  0  0  0  0  0  0  0  0  # atno 6909 bound_to 6896
  146.1773  139.7165  142.8925 H   0  0  0  0  0  0  0  0  0  0  0  0  # atno 7974 bound_to 7965
  155.1892  140.3306  155.4361 H   0  0  0  0  0  0  0  0  0  0  0  0  # atno 8008 bound_to 7997
  156.2448  140.1913  156.6936 H   0  0  0  0  0  0  0  0  0  0  0  0  # atno 8009 bound_to 7997
  154.6217  140.0594  156.9609 H   0  0  0  0  0  0  0  0  0  0  0  0  # atno 8010 bound_to 7997
  140.3573  144.2274  150.6141 H   0  0  0  0  0  0  0  0  0  0  0  0  # atno 10167 bound_to 10162
  156.7728  130.9455  151.3120 H   0  0  0  0  0  0  0  0  0  0  0  0  # atno 10718 bound_to 10713
  153.3316  135.6975  153.6942 H   0  0  0  0  0  0  0  0  0  0  0  0  # atno 10763 bound_to 10752
  153.5743  135.3510  155.2850 H   0  0  0  0  0  0  0  0  0  0  0  0  # atno 10764 bound_to 10752
  154.8619  135.4279  154.2507 H   0  0  0  0  0  0  0  0  0  0  0  0  # atno 10765 bound_to 10752
  141.1544  133.7756  156.9880 H   0  0  0  0  0  0  0  0  0  0  0  0  # atno 11005 bound_to 11000
  145.4174  141.0403  143.2983 LP  0  0  0  0  0  0  0  0  0  0  0  0  # atno 17320 bound_to 7965
  144.8258  139.5713  143.6966 LP  0  0  0  0  0  0  0  0  0  0  0  0  # atno 17321 bound_to 7965
  140.5162  143.2277  151.8460 LP  0  0  0  0  0  0  0  0  0  0  0  0  # atno 17342 bound_to 10162
  139.4818  144.4892  151.9207 LP  0  0  0  0  0  0  0  0  0  0  0  0  # atno 17343 bound_to 10162
  157.6683  130.9028  149.9982 LP  0  0  0  0  0  0  0  0  0  0  0  0  # atno 17370 bound_to 10713
  156.1267  130.3644  149.9798 LP  0  0  0  0  0  0  0  0  0  0  0  0  # atno 17371 bound_to 10713
  140.1022  134.9528  157.1940 LP  0  0  0  0  0  0  0  0  0  0  0  0  # atno 17394 bound_to 11000
  140.3304  134.2817  155.7229 LP  0  0  0  0  0  0  0  0  0  0  0  0  # atno 17395 bound_to 11000

$$$$
