AV-unprocessed.smi:671|AV-procd|sdf|3284|dock4
  -GOLD-   22720 0243D 1   1.00000     0.00000
 Structure written by MMmdl.
 50 51  0  0  0  0  0  0  0  0  2 V2000
  147.8155  141.5535  153.9048 C   0  0  0  0  0  0  0  0  0  0  0  0
  149.0609  141.3487  154.6997 C   0  0  0  0  0  0  0  0  0  0  0  0
  149.6585  142.3116  155.4518 N   0  3  0  0  0  0  0  0  0  0  0  0
  150.7586  141.8230  156.0421 N   0  0  0  0  0  0  0  0  0  0  0  0
  151.5484  142.7030  156.9040 C   0  0  0  0  0  0  0  0  0  0  0  0
  150.9314  140.5134  155.7050 C   0  0  0  0  0  0  0  0  0  0  0  0
  152.0539  139.6536  156.1864 C   0  0  0  0  0  0  0  0  0  0  0  0
  149.8580  140.2091  154.8579 C   0  0  0  0  0  0  0  0  0  0  0  0
  149.6039  138.8722  154.2190 C   0  0  0  0  0  0  0  0  0  0  0  0
  148.4810  138.0674  154.9107 C   0  0  1  0  0  0  0  0  0  0  0  0
  147.3045  138.9523  155.3520 C   0  0  0  0  0  0  0  0  0  0  0  0
  147.9759  137.0292  154.0097 N   0  0  0  0  0  0  0  0  0  0  0  0
  146.8157  136.3512  154.0807 C   0  0  0  0  0  0  0  0  0  0  0  0
  146.0061  136.5484  154.9844 O   0  0  0  0  0  0  0  0  0  0  0  0
  146.6294  135.4511  153.0996 N   0  0  0  0  0  0  0  0  0  0  0  0
  145.4536  134.5953  152.9372 C   0  0  1  0  0  0  0  0  0  0  0  0
  144.2466  135.4517  152.5300 C   0  0  0  0  0  0  0  0  0  0  0  0
  144.1727  135.3360  151.0104 C   0  0  0  0  0  0  0  0  0  0  0  0
  144.5978  133.8988  150.7219 C   0  0  0  0  0  0  0  0  0  0  0  0
  145.6048  133.5207  151.8233 C   0  0  1  0  0  0  0  0  0  0  0  0
  147.0262  133.3072  151.2674 C   0  0  0  0  0  0  0  0  0  0  0  0
  148.0320  141.4653  152.8399 H   0  0  0  0  0  0  0  0  0  0  0  0
  147.3963  142.5422  154.0939 H   0  0  0  0  0  0  0  0  0  0  0  0
  147.0698  140.8046  154.1719 H   0  0  0  0  0  0  0  0  0  0  0  0
  152.5973  142.4090  156.8624 H   0  0  0  0  0  0  0  0  0  0  0  0
  151.1852  142.6166  157.9282 H   0  0  0  0  0  0  0  0  0  0  0  0
  151.4535  143.7359  156.5665 H   0  0  0  0  0  0  0  0  0  0  0  0
  152.0419  138.6876  155.6841 H   0  0  0  0  0  0  0  0  0  0  0  0
  151.9654  139.4860  157.2598 H   0  0  0  0  0  0  0  0  0  0  0  0
  153.0126  140.1308  155.9835 H   0  0  0  0  0  0  0  0  0  0  0  0
  149.3586  138.9987  153.1638 H   0  0  0  0  0  0  0  0  0  0  0  0
  150.5291  138.2952  154.2269 H   0  0  0  0  0  0  0  0  0  0  0  0
  148.8792  137.5935  155.8092 H   0  0  0  0  0  0  0  0  0  0  0  0
  147.6200  139.7097  156.0699 H   0  0  0  0  0  0  0  0  0  0  0  0
  146.5261  138.3577  155.8313 H   0  0  0  0  0  0  0  0  0  0  0  0
  146.8531  139.4658  154.5023 H   0  0  0  0  0  0  0  0  0  0  0  0
  148.5869  136.7827  153.2442 H   0  0  0  0  0  0  0  0  0  0  0  0
  147.3578  135.3516  152.4084 H   0  0  0  0  0  0  0  0  0  0  0  0
  145.2304  134.1127  153.8906 H   0  0  0  0  0  0  0  0  0  0  0  0
  143.3402  135.0276  152.9648 H   0  0  0  0  0  0  0  0  0  0  0  0
  144.3128  136.4865  152.8693 H   0  0  0  0  0  0  0  0  0  0  0  0
  143.1814  135.5671  150.6193 H   0  0  0  0  0  0  0  0  0  0  0  0
  144.8815  136.0250  150.5507 H   0  0  0  0  0  0  0  0  0  0  0  0
  143.7265  133.2458  150.7893 H   0  0  0  0  0  0  0  0  0  0  0  0
  145.0024  133.7898  149.7149 H   0  0  0  0  0  0  0  0  0  0  0  0
  145.2859  132.5644  152.2405 H   0  0  0  0  0  0  0  0  0  0  0  0
  147.4176  134.2121  150.8012 H   0  0  0  0  0  0  0  0  0  0  0  0
  147.0317  132.5214  150.5117 H   0  0  0  0  0  0  0  0  0  0  0  0
  147.7174  133.0035  152.0538 H   0  0  0  0  0  0  0  0  0  0  0  0
  149.3728  143.2729  155.5904 H   0  0  0  0  0  0  0  0  0  0  0  0
  1  2  1  0  0  0  0
  1 22  1  0  0  0  0
  1 23  1  0  0  0  0
  1 24  1  0  0  0  0
  2  8  1  0  0  0  0
  2  3  2  0  0  0  0
  3  4  1  0  0  0  0
  3 50  1  0  0  0  0
  4  5  1  0  0  0  0
  4  6  1  0  0  0  0
  5 25  1  0  0  0  0
  5 26  1  0  0  0  0
  5 27  1  0  0  0  0
  6  7  1  0  0  0  0
  6  8  2  0  0  0  0
  7 28  1  0  0  0  0
  7 29  1  0  0  0  0
  7 30  1  0  0  0  0
  8  9  1  0  0  0  0
  9 10  1  0  0  0  0
  9 31  1  0  0  0  0
  9 32  1  0  0  0  0
 10 11  1  0  0  0  0
 10 12  1  0  0  0  0
 10 33  1  0  0  0  0
 11 34  1  0  0  0  0
 11 35  1  0  0  0  0
 11 36  1  0  0  0  0
 12 13  1  0  0  0  0
 12 37  1  0  0  0  0
 13 14  2  0  0  0  0
 13 15  1  0  0  0  0
 15 16  1  0  0  0  0
 15 38  1  0  0  0  0
 16 20  1  0  0  0  0
 16 17  1  0  0  0  0
 16 39  1  0  0  0  0
 17 18  1  0  0  0  0
 17 40  1  0  0  0  0
 17 41  1  0  0  0  0
 18 19  1  0  0  0  0
 18 42  1  0  0  0  0
 18 43  1  0  0  0  0
 19 20  1  0  0  0  0
 19 44  1  0  0  0  0
 19 45  1  0  0  0  0
 20 21  1  0  0  0  0
 20 46  1  0  0  0  0
 21 47  1  0  0  0  0
 21 48  1  0  0  0  0
 21 49  1  0  0  0  0
M  CHG  1   3   1
M  END
> <s_m_source_file>
AV-unprocessed.smi

> <i_m_source_file_index>
671

> <i_lp_mmshare_version>
43012

> <i_f3d_flags>
0

> <s_epik_input>
W0NIM11jMW5uKFtDSDNdKWMoW0NIM10pYzFbQ0gyXVtDQEhdKFtDSDNdKVtOSF1DKD1PKVtOSF1bQ0BASF0yW0NIMl1bQ0gyXVtDSDJdW0NASF0yW0NIM10=

> <s_epik_cmdline>
J2VwaWtfcHl0aG9uJywgJy1waCcsICc3LjAnLCAnLXRuJywgJzgnLCAnLW1hJywgJzIwMCcsICctbWV0YWxfYmluZGluZycsICctaW1hZScsICc8aW5maWxlLm1hZT4nLCAnLW9tYWUnLCAnPG91dGZpbGUubWFlPic=

> <r_lp_tautomer_probability>
1

> <r_epik_Ionization_Penalty>
2.28705

> <r_epik_Ionization_Penalty_Charging>
2.28698

> <r_epik_Ionization_Penalty_Neutral>
6.23157e-05

> <r_epik_State_Penalty>
2.43671

> <r_epik_Charging_Adjusted_Penalty>
4.72369

> <i_epik_Tot_Q>
1

> <i_epik_Tot_abs_Q>
1

> <r_epik_Metal_State_Penalty>
2.44911

> <b_epik_Metal_Only>
0

> <s_lp_Force_Field>
OPLS_2005

> <r_lp_Energy>
36.9698

> <b_lp_Chiralities_Consistent>
1

> <s_lp_Variant>
AV-unprocessed.smi:671-12

> <Gold.Version>
5.8.1

> <Gold.Id.Protein>
6NUR|6NUR_protein|mol2

> <Gold.PLP.Fitness>
46.1011

> <Gold.PLP.PLP>
-36.1108

> <Gold.PLP.part.hbond>
-3.0000

> <Gold.PLP.part.metal>
0.0000

> <Gold.PLP.part.buried>
-5.5331

> <Gold.PLP.part.nonpolar>
-28.6214

> <Gold.PLP.part.repulsive>
0.2135

> <Gold.PLP.ligand.clash>
0.0000

> <Gold.PLP.ligand.torsion>
0.7650

> <Gold.PLP.Chemscore.Hbond>
3.8320

> <Gold.PLP.Chemscore.CHOScore>
0.0000

> <Gold.PLP.Chemscore.Metal>
0.0000

> <Gold.Chemscore.Hbonds>
donor molecule, donor type, donor heavy atom, donor atom, acceptor molecule, acceptor atom, score
      L1  H     3    50       P1  8028  1.98
      L1  H    12    37       P1  7948  0.99
      L1  H    15    38       P1  7948  0.82

> <Gold.PLP.Chemscore.Internal.Correction>
0.0242

> <Gold.Rescore>
     Score         DG    S(hbond)    S(metal)    S(lipo)     H(rot)  DE(clash)    DE(int)     intcor
     18.83     -20.78       2.84        0.00      82.72       1.51       0.05       1.89       ----

> <Gold.Chemscore.Fitness>
18.8333

> <Gold.Chemscore.DG>
-20.7777

> <Gold.Chemscore.ZeroCoef>
-5.4800

> <Gold.Chemscore.Hbond>
2.8365

> <Gold.Chemscore.Metal>
0.0000

> <Gold.Chemscore.Lipo>
82.7230

> <Gold.Chemscore.Internal_Hbond>
0.0000

> <Gold.Chemscore.DEClash>
0.0527

> <Gold.Chemscore.DEInternal>
1.8917

> <Gold.Chemscore.Rot>
1.5057

> <Gold.Chemscore.Internal.Correction>
   9.000000E+99

> <Gold.Chemscore.Hbonds>
donor molecule, donor type, donor heavy atom, donor atom, acceptor molecule, acceptor atom, score
      L1  H     3    50       P1  8028  0.92
      L1  H    12    37       P1  7948  0.91
      L1  H    15    38       P1  7948  0.81

> <Gold.Chemscore.Hbond.Weighted>
-9.4738

> <Gold.Chemscore.Metal.Weighted>
-0.0000

> <Gold.Chemscore.Lipo.Weighted>
-9.6786

> <Gold.Chemscore.Internal_Hbond.Weighted>
0.0000

> <Gold.Chemscore.DEClash.Weighted>
0.0527

> <Gold.Chemscore.DEInternal.Weighted>
1.8917

> <Gold.Chemscore.Rot.Weighted>
3.8547

> <Gold.Chemscore.Internal.Correction.Weighted>
   9.000000E+99

> <Gold.Protein.RotatedTorsions>
[ 6907 6896 6895 6894 ] final  -36.17 input  -60.11 | X-H torsion
[ 7974 7965 7964 7962 ] final  -54.75 input  175.53 | X-H torsion
[ 8008 7997 7996 7995 ] final  141.51 input   59.86 | X-H torsion
[ 10167 10162 10161 10158 ] final   81.36 input  -65.29 | X-H torsion
[ 10718 10713 10712 10709 ] final -174.12 input   66.30 | X-H torsion
[ 10763 10752 10751 10750 ] final   55.63 input  -60.55 | X-H torsion
[ 11005 11000 10999 10996 ] final    8.65 input  -57.11 | X-H torsion

> <Gold.Protein.ActiveResidues>
 VAL166  LYS551  ARG553  GLY616  TRP617  ASP618  TYR619  PRO620  LYS621  CYS622 
 ASP623  PHE694  ASN695  SER759  ASP760  ASP761  ALA762  ILE779  LEU786  VAL792 
 PHE793  MET794  SER795  GLU796  ALA797  LYS798  CYS799  TRP800  GLU811  SER814 

> <Gold.Protein.RotatedAtoms>
  151.0306  134.9536  159.8108 H   0  0  0  0  0  0  0  0  0  0  0  0  # atno 6907 bound_to 6896
  152.5344  134.2785  159.9008 H   0  0  0  0  0  0  0  0  0  0  0  0  # atno 6908 bound_to 6896
  151.2795  133.4174  159.2660 H   0  0  0  0  0  0  0  0  0  0  0  0  # atno 6909 bound_to 6896
  145.8821  140.8137  142.9835 H   0  0  0  0  0  0  0  0  0  0  0  0  # atno 7974 bound_to 7965
  156.2964  140.2313  156.4576 H   0  0  0  0  0  0  0  0  0  0  0  0  # atno 8008 bound_to 7997
  154.8047  140.0446  157.1319 H   0  0  0  0  0  0  0  0  0  0  0  0  # atno 8009 bound_to 7997
  154.9493  140.3040  155.5086 H   0  0  0  0  0  0  0  0  0  0  0  0  # atno 8010 bound_to 7997
  139.9401  144.6095  150.8260 H   0  0  0  0  0  0  0  0  0  0  0  0  # atno 10167 bound_to 10162
  156.7804  130.9481  151.3120 H   0  0  0  0  0  0  0  0  0  0  0  0  # atno 10718 bound_to 10713
  152.9819  135.5704  154.5097 H   0  0  0  0  0  0  0  0  0  0  0  0  # atno 10763 bound_to 10752
  154.4603  135.2781  155.1719 H   0  0  0  0  0  0  0  0  0  0  0  0  # atno 10764 bound_to 10752
  154.3310  135.6249  153.5605 H   0  0  0  0  0  0  0  0  0  0  0  0  # atno 10765 bound_to 10752
  140.5346  134.0433  155.7884 H   0  0  0  0  0  0  0  0  0  0  0  0  # atno 11005 bound_to 11000
  144.6727  140.1399  143.7438 LP  0  0  0  0  0  0  0  0  0  0  0  0  # atno 17320 bound_to 7965
  145.9011  139.2431  143.1493 LP  0  0  0  0  0  0  0  0  0  0  0  0  # atno 17321 bound_to 7965
  140.7613  143.3172  151.2706 LP  0  0  0  0  0  0  0  0  0  0  0  0  # atno 17342 bound_to 10162
  139.6712  144.0017  152.2754 LP  0  0  0  0  0  0  0  0  0  0  0  0  # atno 17343 bound_to 10162
  157.6649  130.8999  149.9910 LP  0  0  0  0  0  0  0  0  0  0  0  0  # atno 17370 bound_to 10713
  156.1222  130.3645  149.9869 LP  0  0  0  0  0  0  0  0  0  0  0  0  # atno 17371 bound_to 10713
  141.1262  133.9380  157.2631 LP  0  0  0  0  0  0  0  0  0  0  0  0  # atno 17394 bound_to 11000
  139.9536  135.0170  156.9064 LP  0  0  0  0  0  0  0  0  0  0  0  0  # atno 17395 bound_to 11000

$$$$
