AV-unprocessed.smi:120|AV-procd|sdf|1138|dock7
  -GOLD-   2262018273D 1   1.00000     0.00000
 Structure written by MMmdl.
 45 48  0  0  0  0  0  0  0  0  1 V2000
  151.1477  130.2303  156.1901 C   0  0  0  0  0  0  0  0  0  0  0  0
  150.1493  130.4525  155.2048 O   0  0  0  0  0  0  0  0  0  0  0  0
  149.7553  131.7505  154.9585 C   0  0  0  0  0  0  0  0  0  0  0  0
  148.7557  131.9400  153.9852 C   0  0  0  0  0  0  0  0  0  0  0  0
  148.2941  133.2314  153.6780 C   0  0  0  0  0  0  0  0  0  0  0  0
  148.8310  134.3479  154.3438 C   0  0  0  0  0  0  0  0  0  0  0  0
  149.8385  134.1950  155.3243 C   0  0  0  0  0  0  0  0  0  0  0  0
  150.4057  135.3695  156.0233 C   0  0  0  0  0  0  0  0  0  0  0  0
  150.0391  135.6934  157.2570 N   0  0  0  0  0  0  0  0  0  0  0  0
  150.8102  136.8352  157.5218 O   0  0  0  0  0  0  0  0  0  0  0  0
  151.5475  137.0563  156.4046 C   0  0  0  0  0  0  0  0  0  0  0  0
  152.4875  138.2230  156.3842 C   0  0  0  0  0  0  0  0  0  0  0  0
  151.7605  139.4771  156.4973 N   0  0  0  0  0  0  0  0  0  0  0  0
  150.9836  139.9045  155.3919 C   0  0  0  0  0  0  0  0  0  0  0  0
  150.8942  139.2437  154.3559 O   0  0  0  0  0  0  0  0  0  0  0  0
  150.3166  141.1878  155.5824 C   0  0  0  0  0  0  0  0  0  0  0  0
  149.5394  141.6834  154.6045 F   0  0  0  0  0  0  0  0  0  0  0  0
  150.4661  141.8904  156.7263 C   0  0  0  0  0  0  0  0  0  0  0  0
  151.2510  141.4566  157.7825 N   0  0  0  0  0  0  0  0  0  0  0  0
  151.4141  142.2680  159.0502 C   0  0  1  0  0  0  0  0  0  0  0  0
  152.9011  142.5749  159.3089 C   0  0  0  0  0  0  0  0  0  0  0  0
  152.8969  144.0728  159.5399 C   0  0  0  0  0  0  0  0  0  0  0  0
  151.7200  144.5184  158.6851 C   0  0  0  0  0  0  0  0  0  0  0  0
  150.7583  143.4971  158.9159 O   0  0  0  0  0  0  0  0  0  0  0  0
  151.9248  140.2196  157.6899 C   0  0  0  0  0  0  0  0  0  0  0  0
  152.6361  139.8172  158.6138 O   0  0  0  0  0  0  0  0  0  0  0  0
  151.3325  136.1714  155.4320 N   0  0  0  0  0  0  0  0  0  0  0  0
  150.2894  132.8856  155.6196 C   0  0  0  0  0  0  0  0  0  0  0  0
  151.3426  129.1609  156.2694 H   0  0  0  0  0  0  0  0  0  0  0  0
  150.8248  130.5795  157.1719 H   0  0  0  0  0  0  0  0  0  0  0  0
  152.0865  130.7174  155.9232 H   0  0  0  0  0  0  0  0  0  0  0  0
  148.3380  131.0870  153.4706 H   0  0  0  0  0  0  0  0  0  0  0  0
  147.5266  133.3668  152.9303 H   0  0  0  0  0  0  0  0  0  0  0  0
  148.4618  135.3305  154.0885 H   0  0  0  0  0  0  0  0  0  0  0  0
  153.2136  138.1481  157.1942 H   0  0  0  0  0  0  0  0  0  0  0  0
  153.0639  138.2515  155.4575 H   0  0  0  0  0  0  0  0  0  0  0  0
  149.9413  142.8305  156.7988 H   0  0  0  0  0  0  0  0  0  0  0  0
  150.9329  141.6872  159.8393 H   0  0  0  0  0  0  0  0  0  0  0  0
  153.2766  142.0076  160.1609 H   0  0  0  0  0  0  0  0  0  0  0  0
  153.4966  142.3285  158.4282 H   0  0  0  0  0  0  0  0  0  0  0  0
  152.6996  144.2907  160.5903 H   0  0  0  0  0  0  0  0  0  0  0  0
  153.8351  144.5522  159.2597 H   0  0  0  0  0  0  0  0  0  0  0  0
  151.3393  145.4998  158.9679 H   0  0  0  0  0  0  0  0  0  0  0  0
  151.9951  144.5454  157.6299 H   0  0  0  0  0  0  0  0  0  0  0  0
  151.0538  132.7653  156.3716 H   0  0  0  0  0  0  0  0  0  0  0  0
  1  2  1  0  0  0  0
  1 29  1  0  0  0  0
  1 30  1  0  0  0  0
  1 31  1  0  0  0  0
  2  3  1  0  0  0  0
  3 28  1  0  0  0  0
  3  4  2  0  0  0  0
  4  5  1  0  0  0  0
  4 32  1  0  0  0  0
  5  6  2  0  0  0  0
  5 33  1  0  0  0  0
  6  7  1  0  0  0  0
  6 34  1  0  0  0  0
  7  8  1  0  0  0  0
  7 28  2  0  0  0  0
  8 27  1  0  0  0  0
  8  9  2  0  0  0  0
  9 10  1  0  0  0  0
 10 11  1  0  0  0  0
 11 12  1  0  0  0  0
 11 27  2  0  0  0  0
 12 13  1  0  0  0  0
 12 35  1  0  0  0  0
 12 36  1  0  0  0  0
 13 25  1  0  0  0  0
 13 14  1  0  0  0  0
 14 15  2  0  0  0  0
 14 16  1  0  0  0  0
 16 17  1  0  0  0  0
 16 18  2  0  0  0  0
 18 19  1  0  0  0  0
 18 37  1  0  0  0  0
 19 20  1  0  0  0  0
 19 25  1  0  0  0  0
 20 24  1  0  0  0  0
 20 21  1  0  0  0  0
 20 38  1  0  0  0  0
 21 22  1  0  0  0  0
 21 39  1  0  0  0  0
 21 40  1  0  0  0  0
 22 23  1  0  0  0  0
 22 41  1  0  0  0  0
 22 42  1  0  0  0  0
 23 24  1  0  0  0  0
 23 43  1  0  0  0  0
 23 44  1  0  0  0  0
 25 26  2  0  0  0  0
 28 45  1  0  0  0  0
M  END
> <s_m_source_file>
AV-unprocessed.smi

> <i_m_source_file_index>
120

> <i_lp_mmshare_version>
43012

> <i_f3d_flags>
0

> <s_epik_input>
W0NIM11PYzFbY0hdW2NIXVtjSF1jKFtjSF0xKS1jMm5vYyhuMilbQ0gyXW4zYyg9TyljKEYpW2NIXW4oYzM9TylbQ0BASF00W0NIMl1bQ0gyXVtDSDJdTzQ=

> <s_epik_cmdline>
J2VwaWtfcHl0aG9uJywgJy1waCcsICc3LjAnLCAnLXRuJywgJzgnLCAnLW1hJywgJzIwMCcsICctbWV0YWxfYmluZGluZycsICctaW1hZScsICc8aW5maWxlLm1hZT4nLCAnLW9tYWUnLCAnPG91dGZpbGUubWFlPic=

> <r_lp_tautomer_probability>
1

> <r_epik_Ionization_Penalty>
4.93314e-09

> <r_epik_Ionization_Penalty_Charging>
4.92654e-09

> <r_epik_Ionization_Penalty_Neutral>
6.60436e-12

> <r_epik_State_Penalty>
-0

> <r_epik_Charging_Adjusted_Penalty>
4.92654e-09

> <i_epik_Tot_Q>
0

> <i_epik_Tot_abs_Q>
0

> <r_epik_Metal_State_Penalty>
-0

> <b_epik_Metal_Only>
0

> <s_epik_Chemistry_Notes>
This compound contains an acetal/aminal-like group ( X-CH(R)-Y where X, Y are N, S, or O) that may be acid/base labile, releasing an aldehyde.

> <s_lp_Force_Field>
OPLS_2005

> <r_lp_Energy>
36.9113

> <b_lp_Chiralities_Consistent>
1

> <s_lp_Variant>
AV-unprocessed.smi:120-2

> <Gold.Version>
5.8.1

> <Gold.Id.Protein>
6NUR|6NUR_protein|mol2

> <Gold.PLP.Fitness>
55.7429

> <Gold.PLP.PLP>
-52.0940

> <Gold.PLP.part.hbond>
-2.5888

> <Gold.PLP.part.metal>
0.0000

> <Gold.PLP.part.buried>
-5.3212

> <Gold.PLP.part.nonpolar>
-44.0051

> <Gold.PLP.part.repulsive>
0.3617

> <Gold.PLP.ligand.clash>
0.0000

> <Gold.PLP.ligand.torsion>
1.5663

> <Gold.PLP.Chemscore.Hbond>
1.2500

> <Gold.PLP.Chemscore.CHOScore>
1.0000

> <Gold.PLP.Chemscore.Metal>
0.0000

> <Gold.Chemscore.Hbonds>
donor molecule, donor type, donor heavy atom, donor atom, acceptor molecule, acceptor atom, score
      P1  H  7989  7998       L1    15  0.25
      P1  H 10752 10763       L1    27  1.00
      L1  C    18    37       P1  8028  1.00

> <Gold.PLP.Chemscore.Internal.Correction>
0.0314

> <Gold.Rescore>
     Score         DG    S(hbond)    S(metal)    S(lipo)     H(rot)  DE(clash)    DE(int)     intcor
     11.52     -14.50       0.98        0.00      92.64       1.99       0.00       2.99       ----

> <Gold.Chemscore.Fitness>
11.5151

> <Gold.Chemscore.DG>
-14.5048

> <Gold.Chemscore.ZeroCoef>
-5.4800

> <Gold.Chemscore.Hbond>
0.9803

> <Gold.Chemscore.Metal>
0.0000

> <Gold.Chemscore.Lipo>
92.6444

> <Gold.Chemscore.Internal_Hbond>
0.0000

> <Gold.Chemscore.DEClash>
0.0000

> <Gold.Chemscore.DEInternal>
2.9897

> <Gold.Chemscore.Rot>
1.9879

> <Gold.Chemscore.Internal.Correction>
   9.000000E+99

> <Gold.Chemscore.Hbonds>
donor molecule, donor type, donor heavy atom, donor atom, acceptor molecule, acceptor atom, score
      P1  H 10752 10763       L1    27  0.65

> <Gold.Chemscore.Hbond.Weighted>
-3.2743

> <Gold.Chemscore.Metal.Weighted>
-0.0000

> <Gold.Chemscore.Lipo.Weighted>
-10.8394

> <Gold.Chemscore.Internal_Hbond.Weighted>
0.0000

> <Gold.Chemscore.DEClash.Weighted>
0.0000

> <Gold.Chemscore.DEInternal.Weighted>
2.9897

> <Gold.Chemscore.Rot.Weighted>
5.0890

> <Gold.Chemscore.Internal.Correction.Weighted>
   9.000000E+99

> <Gold.Protein.RotatedTorsions>
[ 6907 6896 6895 6894 ] final  -43.41 input  -60.11 | X-H torsion
[ 7974 7965 7964 7962 ] final -164.19 input  175.53 | X-H torsion
[ 8008 7997 7996 7995 ] final   -9.64 input   59.86 | X-H torsion
[ 10167 10162 10161 10158 ] final -178.98 input  -65.29 | X-H torsion
[ 10718 10713 10712 10709 ] final -131.61 input   66.30 | X-H torsion
[ 10763 10752 10751 10750 ] final   77.62 input  -60.55 | X-H torsion
[ 11005 11000 10999 10996 ] final   28.45 input  -57.11 | X-H torsion

> <Gold.Protein.ActiveResidues>
 VAL166  LYS551  ARG553  GLY616  TRP617  ASP618  TYR619  PRO620  LYS621  CYS622 
 ASP623  PHE694  ASN695  SER759  ASP760  ASP761  ALA762  ILE779  LEU786  VAL792 
 PHE793  MET794  SER795  GLU796  ALA797  LYS798  CYS799  TRP800  GLU811  SER814 

> <Gold.Protein.RotatedAtoms>
  150.9442  134.8849  159.7631 H   0  0  0  0  0  0  0  0  0  0  0  0  # atno 6907 bound_to 6896
  152.5093  134.3898  159.9390 H   0  0  0  0  0  0  0  0  0  0  0  0  # atno 6908 bound_to 6896
  151.3917  133.3746  159.2756 H   0  0  0  0  0  0  0  0  0  0  0  0  # atno 6909 bound_to 6896
  144.7304  140.2997  143.6206 H   0  0  0  0  0  0  0  0  0  0  0  0  # atno 7974 bound_to 7965
  154.5628  140.2349  155.8310 H   0  0  0  0  0  0  0  0  0  0  0  0  # atno 8008 bound_to 7997
  156.2043  140.3044  155.9553 H   0  0  0  0  0  0  0  0  0  0  0  0  # atno 8009 bound_to 7997
  155.2857  140.0424  157.3009 H   0  0  0  0  0  0  0  0  0  0  0  0  # atno 8010 bound_to 7997
  139.5407  144.2371  152.0889 H   0  0  0  0  0  0  0  0  0  0  0  0  # atno 10167 bound_to 10162
  156.2262  130.7009  151.0809 H   0  0  0  0  0  0  0  0  0  0  0  0  # atno 10718 bound_to 10713
  153.0812  135.4907  154.8506 H   0  0  0  0  0  0  0  0  0  0  0  0  # atno 10763 bound_to 10752
  154.7153  135.3028  154.9136 H   0  0  0  0  0  0  0  0  0  0  0  0  # atno 10764 bound_to 10752
  153.9817  135.6789  153.4803 H   0  0  0  0  0  0  0  0  0  0  0  0  # atno 10765 bound_to 10752
  140.3154  134.2603  155.7726 H   0  0  0  0  0  0  0  0  0  0  0  0  # atno 11005 bound_to 11000
  145.7772  139.1878  143.2178 LP  0  0  0  0  0  0  0  0  0  0  0  0  # atno 17320 bound_to 7965
  146.0863  140.7707  142.9617 LP  0  0  0  0  0  0  0  0  0  0  0  0  # atno 17321 bound_to 7965
  140.1849  144.4808  150.6509 LP  0  0  0  0  0  0  0  0  0  0  0  0  # atno 17342 bound_to 10162
  140.6635  143.2260  151.5798 LP  0  0  0  0  0  0  0  0  0  0  0  0  # atno 17343 bound_to 10162
  157.7111  131.0733  150.6496 LP  0  0  0  0  0  0  0  0  0  0  0  0  # atno 17370 bound_to 10713
  156.6561  130.4499  149.5703 LP  0  0  0  0  0  0  0  0  0  0  0  0  # atno 17371 bound_to 10713
  141.2099  133.7736  156.9969 LP  0  0  0  0  0  0  0  0  0  0  0  0  # atno 17394 bound_to 11000
  140.0988  134.9548  157.1891 LP  0  0  0  0  0  0  0  0  0  0  0  0  # atno 17395 bound_to 11000

$$$$
