#       Name:                AV-unprocessed.smi:1174
#       Creating user name   scv26
#       Creation time:       Fri Mar 27 03:53:24 2020


#       File generated by GOLD software.
#

@<TRIPOS>MOLECULE
AV-unprocessed.smi:1174
    46    47     1
SMALL
NO_CHARGES


@<TRIPOS>ATOM
      1 ****        -3.3694  -1.5835   1.9676 C.3            1 S1                 0.0000
      2 ****        -2.8411  -0.8080   0.7522 C.3            1 S1                 0.0000
      3 ****        -3.3465  -1.4051  -0.5760 C.3            1 S1                 0.0000
      4 ****        -2.9050  -0.6341  -1.7266 N.pl3          1 S1                 0.0000
      5 ****        -3.4462   0.5255  -2.2402 C.2            1 S1                 0.0000
      6 ****        -2.6778   0.8951  -3.3070 C.2            1 S1                 0.0000
      7 ****        -1.6756  -0.1134  -3.3676 C.2            1 S1                 0.0000
      8 ****        -1.8166  -1.0294  -2.4233 N.2            1 S1                 0.0000
      9 ****        -1.3809  -0.7975   0.7624 N.am           1 S1                 0.0000
     10 ****        -0.6091   0.1660   1.2853 C.2            1 S1                 0.0000
     11 ****        -1.0518   1.1104   1.9398 O.2            1 S1                 0.0000
     12 ****         0.8915   0.0592   0.9908 C.3            1 S1                 0.0000
     13 ****         1.7352   0.0572   2.2859 C.3            1 S1                 0.0000
     14 ****         3.2445   0.0840   1.9758 C.3            1 S1                 0.0000
     15 ****         3.5878   1.2173   0.9909 C.3            1 S1                 0.0000
     16 ****         2.7725   1.0554  -0.2255 N.am           1 S1                 0.0000
     17 ****         3.2083   0.6144  -1.4324 C.2            1 S1                 0.0000
     18 ****         4.5363   0.5667  -1.5762 N.am           1 S1                 0.0000
     19 ****         2.4606   0.3090  -2.3604 O.2            1 S1                 0.0000
     20 ****         1.3432   1.2126   0.0683 C.3            1 S1                 0.0000
     21 ****        -4.4596  -1.5891   1.9836 H              1 S1                 0.0000
     22 ****        -3.0307  -1.1316   2.9006 H              1 S1                 0.0000
     23 ****        -3.0303  -2.6199   1.9563 H              1 S1                 0.0000
     24 ****        -3.2117   0.2168   0.8178 H              1 S1                 0.0000
     25 ****        -3.0102  -2.4376  -0.6871 H              1 S1                 0.0000
     26 ****        -4.4368  -1.4300  -0.5853 H              1 S1                 0.0000
     27 ****        -4.3196   0.9883  -1.8050 H              1 S1                 0.0000
     28 ****        -2.8088   1.7566  -3.9448 H              1 S1                 0.0000
     29 ****        -0.8561  -0.2067  -4.0649 H              1 S1                 0.0000
     30 ****        -0.9226  -1.5325   0.2431 H              1 S1                 0.0000
     31 ****         1.0715  -0.8830   0.4687 H              1 S1                 0.0000
     32 ****         1.4878   0.9292   2.8931 H              1 S1                 0.0000
     33 ****         1.4976  -0.8182   2.8918 H              1 S1                 0.0000
     34 ****         3.8125   0.2030   2.8988 H              1 S1                 0.0000
     35 ****         3.5461  -0.8728   1.5476 H              1 S1                 0.0000
     36 ****         3.3629   2.1834   1.4449 H              1 S1                 0.0000
     37 ****         4.6614   1.2294   0.8047 H              1 S1                 0.0000
     38 ****         4.9376   0.2470  -2.4454 H              1 S1                 0.0000
     39 ****         5.1317   0.8494  -0.8115 H              1 S1                 0.0000
     40 ****         0.7340   1.2366  -0.8374 H              1 S1                 0.0000
     41 ****         1.1831   2.1772   0.5530 H              1 S1                 0.0000
     42 ****        -1.2455  -1.8342  -2.2614 LP             1 S1                 0.0000
     43 ****        -2.0351   1.1869   2.1050 LP             1 S1                 0.0000
     44 ****        -0.4280   1.8008   2.3061 LP             1 S1                 0.0000
     45 ****         1.4695   0.3797  -2.2479 LP             1 S1                 0.0000
     46 ****         2.8440  -0.0099  -3.2272 LP             1 S1                 0.0000
@<TRIPOS>BOND
    1    1    2 1     
    2    1   21 1     
    3    1   22 1     
    4    1   23 1     
    5    2    3 1     
    6    2    9 1     
    7    2   24 1     
    8    3    4 1     
    9    3   25 1     
   10    3   26 1     
   11    4    8 1     
   12    4    5 1     
   13    5    6 2     
   14    5   27 1     
   15    6    7 1     
   16    6   28 1     
   17    7    8 2     
   18    7   29 1     
   19    9   10 am    
   20    9   30 1     
   21   10   11 2     
   22   10   12 1     
   23   12   20 1     
   24   12   13 1     
   25   12   31 1     
   26   13   14 1     
   27   13   32 1     
   28   13   33 1     
   29   14   15 1     
   30   14   34 1     
   31   14   35 1     
   32   15   16 1     
   33   15   36 1     
   34   15   37 1     
   35   16   17 am    
   36   16   20 1     
   37   17   18 am    
   38   17   19 2     
   39   18   38 1     
   40   18   39 1     
   41   20   40 1     
   42   20   41 1     
   43    8   42 1     
   44   11   43 1     
   45   11   44 1     
   46   19   45 1     
   47   19   46 1     
@<TRIPOS>SUBSTRUCTURE
      1 S1             1
@<TRIPOS>SET
LONE_PAIRS      STATIC     ATOMS    <user>   **** ""
5 42 43 44 45 46
DONOR_HYDROGENS      STATIC     ATOMS    <user>   **** ""
3 30 38 39
ATOM$BLUE        STATIC     ATOMS    COLORGROUP SYSTEM
5 42 43 44 45 46
ATOM$RED        STATIC     ATOMS    COLORGROUP SYSTEM
3 30 38 39
