AV-unprocessed.smi:2558|AV-procd|sdf|10033|dock3
  -GOLD-   2272014 73D 1   1.00000     0.00000
 Structure written by MMmdl.
 42 43  0  0  0  0  0  0  0  0  2 V2000
  150.1230  139.0743  158.3846 C   0  0  0  0  0  0  0  0  0  0  0  0
  151.6220  140.1396  158.3026 S   0  0  0  0  0  0  0  0  0  0  0  0
  151.8606  140.7105  159.6380 O   0  0  0  0  0  0  0  0  0  0  0  0
  152.6938  139.3738  157.6462 O   0  0  0  0  0  0  0  0  0  0  0  0
  151.1214  141.4174  157.2140 N   0  0  0  0  0  0  0  0  0  0  0  0
  150.7718  141.1951  155.8599 C   0  0  0  0  0  0  0  0  0  0  0  0
  151.3905  140.3474  155.2127 O   0  0  0  0  0  0  0  0  0  0  0  0
  149.6723  141.8988  155.4769 N   0  5  0  0  0  0  0  0  0  0  0  0
  148.8919  141.6025  154.4074 C   0  0  0  0  0  0  0  0  0  0  0  0
  148.4870  142.3842  153.5440 O   0  0  0  0  0  0  0  0  0  0  0  0
  148.5467  140.3031  154.3676 N   0  0  0  0  0  0  0  0  0  0  0  0
  147.7934  139.6149  153.3795 C   0  0  0  0  0  0  0  0  0  0  0  0
  147.8884  140.0543  152.0435 C   0  0  0  0  0  0  0  0  0  0  0  0
  147.1275  139.4039  151.0534 C   0  0  0  0  0  0  0  0  0  0  0  0
  146.2886  138.3424  151.4441 C   0  0  0  0  0  0  0  0  0  0  0  0
  146.1715  137.9210  152.7209 N   0  0  0  0  0  0  0  0  0  0  0  0
  146.9070  138.5474  153.6652 C   0  0  0  0  0  0  0  0  0  0  0  0
  151.1503  142.8008  157.7636 C   0  0  0  0  0  0  0  0  0  0  0  0
  152.4989  143.1353  158.4350 C   0  0  0  0  0  0  0  0  0  0  0  0
  152.5261  144.6000  158.9024 C   0  0  0  0  0  0  0  0  0  0  0  0
  151.3354  144.9171  159.8236 C   0  0  0  0  0  0  0  0  0  0  0  0
  149.9944  144.5886  159.1447 C   0  0  0  0  0  0  0  0  0  0  0  0
  149.9485  143.1230  158.6831 C   0  0  0  0  0  0  0  0  0  0  0  0
  150.3249  138.2146  159.0228 H   0  0  0  0  0  0  0  0  0  0  0  0
  149.8646  138.7312  157.3832 H   0  0  0  0  0  0  0  0  0  0  0  0
  149.2911  139.6444  158.7973 H   0  0  0  0  0  0  0  0  0  0  0  0
  148.8126  139.7558  155.1728 H   0  0  0  0  0  0  0  0  0  0  0  0
  148.5388  140.8749  151.7779 H   0  0  0  0  0  0  0  0  0  0  0  0
  147.1845  139.7124  150.0201 H   0  0  0  0  0  0  0  0  0  0  0  0
  145.6894  137.8220  150.7116 H   0  0  0  0  0  0  0  0  0  0  0  0
  146.7535  138.1916  154.6727 H   0  0  0  0  0  0  0  0  0  0  0  0
  151.0521  143.4847  156.9206 H   0  0  0  0  0  0  0  0  0  0  0  0
  152.6757  142.4887  159.2937 H   0  0  0  0  0  0  0  0  0  0  0  0
  153.3187  142.9554  157.7388 H   0  0  0  0  0  0  0  0  0  0  0  0
  153.4626  144.8062  159.4210 H   0  0  0  0  0  0  0  0  0  0  0  0
  152.5020  145.2602  158.0345 H   0  0  0  0  0  0  0  0  0  0  0  0
  151.4267  144.3431  160.7468 H   0  0  0  0  0  0  0  0  0  0  0  0
  151.3585  145.9688  160.1103 H   0  0  0  0  0  0  0  0  0  0  0  0
  149.1712  144.7870  159.8315 H   0  0  0  0  0  0  0  0  0  0  0  0
  149.8472  145.2471  158.2877 H   0  0  0  0  0  0  0  0  0  0  0  0
  149.0124  142.9291  158.1583 H   0  0  0  0  0  0  0  0  0  0  0  0
  149.9484  142.4832  159.5659 H   0  0  0  0  0  0  0  0  0  0  0  0
  1  2  1  0  0  0  0
  1 24  1  0  0  0  0
  1 25  1  0  0  0  0
  1 26  1  0  0  0  0
  2  3  2  0  0  0  0
  2  4  2  0  0  0  0
  2  5  1  0  0  0  0
  5  6  1  0  0  0  0
  5 18  1  0  0  0  0
  6  7  2  0  0  0  0
  6  8  1  0  0  0  0
  8  9  1  0  0  0  0
  9 10  2  0  0  0  0
  9 11  1  0  0  0  0
 11 12  1  0  0  0  0
 11 27  1  0  0  0  0
 12 17  1  0  0  0  0
 12 13  2  0  0  0  0
 13 14  1  0  0  0  0
 13 28  1  0  0  0  0
 14 15  2  0  0  0  0
 14 29  1  0  0  0  0
 15 16  1  0  0  0  0
 15 30  1  0  0  0  0
 16 17  2  0  0  0  0
 17 31  1  0  0  0  0
 18 23  1  0  0  0  0
 18 19  1  0  0  0  0
 18 32  1  0  0  0  0
 19 20  1  0  0  0  0
 19 33  1  0  0  0  0
 19 34  1  0  0  0  0
 20 21  1  0  0  0  0
 20 35  1  0  0  0  0
 20 36  1  0  0  0  0
 21 22  1  0  0  0  0
 21 37  1  0  0  0  0
 21 38  1  0  0  0  0
 22 23  1  0  0  0  0
 22 39  1  0  0  0  0
 22 40  1  0  0  0  0
 23 41  1  0  0  0  0
 23 42  1  0  0  0  0
M  CHG  1   8  -1
M  END
> <s_m_source_file>
AV-unprocessed.smi

> <i_m_source_file_index>
2558

> <i_lp_mmshare_version>
43012

> <i_f3d_flags>
0

> <s_epik_input>
W0NIMl0xW0NIMl1bQ0gyXVtDSDJdW0NIMl1bQ0hdMU4oUyg9TykoPU8pW0NIM10pQyg9TylbTkhdQyg9TylbTkhdYzJbY0hdW2NIXVtjSF1uW2NIXTI=

> <s_epik_cmdline>
J2VwaWtfcHl0aG9uJywgJy1waCcsICc3LjAnLCAnLXRuJywgJzgnLCAnLW1hJywgJzIwMCcsICctbWV0YWxfYmluZGluZycsICctaW1hZScsICc8aW5maWxlLm1hZT4nLCAnLW9tYWUnLCAnPG91dGZpbGUubWFlPic=

> <r_epik_Ionization_Penalty>
6.14208

> <r_epik_Ionization_Penalty_Charging>
6.14039

> <r_epik_Ionization_Penalty_Neutral>
0.00168563

> <r_epik_State_Penalty>
6.14513

> <r_epik_Charging_Adjusted_Penalty>
12.2855

> <i_epik_Tot_Q>
-1

> <i_epik_Tot_abs_Q>
1

> <r_epik_Metal_State_Penalty>
2.09011

> <b_epik_Metal_Only>
1

> <s_lp_Force_Field>
OPLS_2005

> <r_lp_Energy>
23.9967

> <b_lp_Chiralities_Consistent>
1

> <s_lp_Variant>
AV-unprocessed.smi:2558-2

> <Gold.Version>
5.8.1

> <Gold.Id.Protein>
6NUR|6NUR_protein|mol2

> <Gold.PLP.Fitness>
45.5881

> <Gold.PLP.PLP>
-38.7628

> <Gold.PLP.part.hbond>
-3.0000

> <Gold.PLP.part.metal>
0.0000

> <Gold.PLP.part.buried>
2.5417

> <Gold.PLP.part.nonpolar>
-38.7528

> <Gold.PLP.part.repulsive>
1.0667

> <Gold.PLP.ligand.clash>
0.0000

> <Gold.PLP.ligand.torsion>
2.6869

> <Gold.PLP.Chemscore.Hbond>
2.1693

> <Gold.PLP.Chemscore.CHOScore>
0.7454

> <Gold.PLP.Chemscore.Metal>
0.0000

> <Gold.Chemscore.Hbonds>
donor molecule, donor type, donor heavy atom, donor atom, acceptor molecule, acceptor atom, score
      P1  H  7989  7998       L1     7  0.98
      P1  H  7997  8009       L1     4  0.91
      P1  H  8011  8017       L1    10  0.22
      P1  H  8022  8030       L1    10  0.12
      L1  C    15    30       P1 10171  0.90

> <Gold.PLP.Chemscore.Internal.Correction>
3.4548

> <Gold.Rescore>
     Score         DG    S(hbond)    S(metal)    S(lipo)     H(rot)  DE(clash)    DE(int)     intcor
     14.28     -19.55       1.94        0.00      86.82       1.00       0.25       5.02       ----

> <Gold.Chemscore.Fitness>
14.2815

> <Gold.Chemscore.DG>
-19.5508

> <Gold.Chemscore.ZeroCoef>
-5.4800

> <Gold.Chemscore.Hbond>
1.9378

> <Gold.Chemscore.Metal>
0.0000

> <Gold.Chemscore.Lipo>
86.8235

> <Gold.Chemscore.Internal_Hbond>
0.0000

> <Gold.Chemscore.DEClash>
0.2455

> <Gold.Chemscore.DEInternal>
5.0237

> <Gold.Chemscore.Rot>
1.0000

> <Gold.Chemscore.Internal.Correction>
   9.000000E+99

> <Gold.Chemscore.Hbonds>
donor molecule, donor type, donor heavy atom, donor atom, acceptor molecule, acceptor atom, score
      P1  H  7989  7998       L1     7  0.72
      P1  H  7997  8009       L1     4  0.87
      P1  H  8011  8017       L1    10  0.12
      P1  H  8022  8030       L1    10  0.14

> <Gold.Chemscore.Hbond.Weighted>
-6.4724

> <Gold.Chemscore.Metal.Weighted>
-0.0000

> <Gold.Chemscore.Lipo.Weighted>
-10.1584

> <Gold.Chemscore.Internal_Hbond.Weighted>
0.0000

> <Gold.Chemscore.DEClash.Weighted>
0.2455

> <Gold.Chemscore.DEInternal.Weighted>
5.0237

> <Gold.Chemscore.Rot.Weighted>
2.5600

> <Gold.Chemscore.Internal.Correction.Weighted>
   9.000000E+99

> <Gold.Protein.RotatedTorsions>
[ 6907 6896 6895 6894 ] final   87.93 input  -60.11 | X-H torsion
[ 7974 7965 7964 7962 ] final  -66.40 input  175.53 | X-H torsion
[ 8008 7997 7996 7995 ] final  160.94 input   59.86 | X-H torsion
[ 10167 10162 10161 10158 ] final  112.87 input  -65.29 | X-H torsion
[ 10718 10713 10712 10709 ] final   62.54 input   66.30 | X-H torsion
[ 10763 10752 10751 10750 ] final -107.87 input  -60.55 | X-H torsion
[ 11005 11000 10999 10996 ] final  -69.54 input  -57.11 | X-H torsion

> <Gold.Protein.ActiveResidues>
 VAL166  LYS551  ARG553  GLY616  TRP617  ASP618  TYR619  PRO620  LYS621  CYS622 
 ASP623  PHE694  ASN695  SER759  ASP760  ASP761  ALA762  ILE779  LEU786  VAL792 
 PHE793  MET794  SER795  GLU796  ALA797  LYS798  CYS799  TRP800  GLU811  SER814 

> <Gold.Protein.RotatedAtoms>
  152.5418  134.2201  159.8783 H   0  0  0  0  0  0  0  0  0  0  0  0  # atno 6907 bound_to 6896
  151.2178  133.4512  159.2607 H   0  0  0  0  0  0  0  0  0  0  0  0  # atno 6908 bound_to 6896
  151.0834  134.9885  159.8423 H   0  0  0  0  0  0  0  0  0  0  0  0  # atno 6909 bound_to 6896
  145.7423  140.8948  143.0523 H   0  0  0  0  0  0  0  0  0  0  0  0  # atno 7974 bound_to 7965
  156.2138  140.1791  156.7635 H   0  0  0  0  0  0  0  0  0  0  0  0  # atno 8008 bound_to 7997
  154.5761  140.0674  156.9065 H   0  0  0  0  0  0  0  0  0  0  0  0  # atno 8009 bound_to 7997
  155.2586  140.3334  155.4278 H   0  0  0  0  0  0  0  0  0  0  0  0  # atno 8010 bound_to 7997
  139.6503  144.7128  151.2061 H   0  0  0  0  0  0  0  0  0  0  0  0  # atno 10167 bound_to 10162
  157.5908  130.9056  149.9601 H   0  0  0  0  0  0  0  0  0  0  0  0  # atno 10718 bound_to 10713
  154.8101  135.4659  154.0494 H   0  0  0  0  0  0  0  0  0  0  0  0  # atno 10763 bound_to 10752
  153.1932  135.6858  153.8332 H   0  0  0  0  0  0  0  0  0  0  0  0  # atno 10764 bound_to 10752
  153.7843  135.3252  155.3347 H   0  0  0  0  0  0  0  0  0  0  0  0  # atno 10765 bound_to 10752
  141.1556  133.6767  156.6615 H   0  0  0  0  0  0  0  0  0  0  0  0  # atno 11005 bound_to 11000
  144.6868  139.9477  143.7477 LP  0  0  0  0  0  0  0  0  0  0  0  0  # atno 17320 bound_to 7965
  146.0436  139.3445  143.0682 LP  0  0  0  0  0  0  0  0  0  0  0  0  # atno 17321 bound_to 7965
  140.7534  143.6161  150.8558 LP  0  0  0  0  0  0  0  0  0  0  0  0  # atno 17342 bound_to 10162
  139.9809  143.5953  152.2943 LP  0  0  0  0  0  0  0  0  0  0  0  0  # atno 17343 bound_to 10162
  156.0962  130.3659  150.0301 LP  0  0  0  0  0  0  0  0  0  0  0  0  # atno 17370 bound_to 10713
  156.8424  130.9430  151.3631 LP  0  0  0  0  0  0  0  0  0  0  0  0  # atno 17371 bound_to 10713
  140.3244  134.7981  157.4277 LP  0  0  0  0  0  0  0  0  0  0  0  0  # atno 17394 bound_to 11000
  140.1069  134.5397  155.8301 LP  0  0  0  0  0  0  0  0  0  0  0  0  # atno 17395 bound_to 11000

$$$$
