AV-unprocessed.smi:2856|AV-procd|sdf|10993|dock1
  -GOLD-   2272015443D 1   1.00000     0.00000
 Structure written by MMmdl.
 37 38  0  0  0  0  0  0  0  0  1 V2000
  153.3977  143.7248  163.4961 C   0  0  0  0  0  0  0  0  0  0  0  0
  152.8115  142.4466  162.3506 S   0  0  0  0  0  0  0  0  0  0  0  0
  152.8155  143.3545  160.7708 C   0  0  2  0  0  0  0  0  0  0  0  0
  151.9594  144.6275  160.9122 C   0  0  0  0  0  0  0  0  0  0  0  0
  151.8855  145.4198  159.5993 C   0  0  0  0  0  0  0  0  0  0  0  0
  151.3488  144.5421  158.4613 C   0  0  0  0  0  0  0  0  0  0  0  0
  152.2079  143.2812  158.2900 C   0  0  0  0  0  0  0  0  0  0  0  0
  152.3129  142.4731  159.6001 C   0  0  1  0  0  0  0  0  0  0  0  0
  153.2153  141.3431  159.3916 N   0  0  0  0  0  0  0  0  0  0  0  0
  152.8421  140.0666  159.2239 C   0  0  0  0  0  0  0  0  0  0  0  0
  151.6681  139.6967  159.1938 O   0  0  0  0  0  0  0  0  0  0  0  0
  153.9110  139.2623  159.0963 N   0  0  0  0  0  0  0  0  0  0  0  0
  153.9189  137.8531  158.9385 C   0  0  0  0  0  0  0  0  0  0  0  0
  155.1416  137.1405  158.8177 C   0  0  0  0  0  0  0  0  0  0  0  0
  154.7304  135.8437  158.6890 C   0  0  0  0  0  0  0  0  0  0  0  0
  155.4653  134.5582  158.5210 C   0  0  0  0  0  0  0  0  0  0  0  0
  153.3723  135.7709  158.7289 O   0  0  0  0  0  0  0  0  0  0  0  0
  152.8577  137.0627  158.8895 N   0  0  0  0  0  0  0  0  0  0  0  0
  153.4210  143.3305  164.5118 H   0  0  0  0  0  0  0  0  0  0  0  0
  152.7323  144.5876  163.4778 H   0  0  0  0  0  0  0  0  0  0  0  0
  154.4034  144.0531  163.2356 H   0  0  0  0  0  0  0  0  0  0  0  0
  153.8404  143.6679  160.5668 H   0  0  0  0  0  0  0  0  0  0  0  0
  150.9503  144.3577  161.2270 H   0  0  0  0  0  0  0  0  0  0  0  0
  152.3664  145.2630  161.6993 H   0  0  0  0  0  0  0  0  0  0  0  0
  151.2462  146.2937  159.7278 H   0  0  0  0  0  0  0  0  0  0  0  0
  152.8761  145.7953  159.3401 H   0  0  0  0  0  0  0  0  0  0  0  0
  150.3172  144.2573  158.6719 H   0  0  0  0  0  0  0  0  0  0  0  0
  151.3301  145.1091  157.5302 H   0  0  0  0  0  0  0  0  0  0  0  0
  151.7868  142.6588  157.4995 H   0  0  0  0  0  0  0  0  0  0  0  0
  153.2049  143.5709  157.9547 H   0  0  0  0  0  0  0  0  0  0  0  0
  151.3172  142.1088  159.8603 H   0  0  0  0  0  0  0  0  0  0  0  0
  154.2031  141.5503  159.3958 H   0  0  0  0  0  0  0  0  0  0  0  0
  154.8176  139.7043  159.1279 H   0  0  0  0  0  0  0  0  0  0  0  0
  156.1545  137.5149  158.8236 H   0  0  0  0  0  0  0  0  0  0  0  0
  156.5425  134.7249  158.5010 H   0  0  0  0  0  0  0  0  0  0  0  0
  155.1816  134.0701  157.5886 H   0  0  0  0  0  0  0  0  0  0  0  0
  155.2438  133.8763  159.3422 H   0  0  0  0  0  0  0  0  0  0  0  0
  1  2  1  0  0  0  0
  1 19  1  0  0  0  0
  1 20  1  0  0  0  0
  1 21  1  0  0  0  0
  2  3  1  0  0  0  0
  3  8  1  0  0  0  0
  3  4  1  0  0  0  0
  3 22  1  0  0  0  0
  4  5  1  0  0  0  0
  4 23  1  0  0  0  0
  4 24  1  0  0  0  0
  5  6  1  0  0  0  0
  5 25  1  0  0  0  0
  5 26  1  0  0  0  0
  6  7  1  0  0  0  0
  6 27  1  0  0  0  0
  6 28  1  0  0  0  0
  7  8  1  0  0  0  0
  7 29  1  0  0  0  0
  7 30  1  0  0  0  0
  8  9  1  0  0  0  0
  8 31  1  0  0  0  0
  9 10  1  0  0  0  0
  9 32  1  0  0  0  0
 10 11  2  0  0  0  0
 10 12  1  0  0  0  0
 12 13  1  0  0  0  0
 12 33  1  0  0  0  0
 13 18  2  0  0  0  0
 13 14  1  0  0  0  0
 14 15  2  0  0  0  0
 14 34  1  0  0  0  0
 15 16  1  0  0  0  0
 15 17  1  0  0  0  0
 16 35  1  0  0  0  0
 16 36  1  0  0  0  0
 16 37  1  0  0  0  0
 17 18  1  0  0  0  0
M  END
> <s_m_source_file>
AV-unprocessed.smi

> <i_m_source_file_index>
2856

> <i_lp_mmshare_version>
43012

> <i_f3d_flags>
0

> <s_epik_input>
W0NIM11TW0NAQEhdMVtDSDJdW0NIMl1bQ0gyXVtDSDJdW0NASF0xW05IXUMoPU8pW05IXWMyW2NIXWMoW0NIM10pb24y

> <s_epik_cmdline>
J2VwaWtfcHl0aG9uJywgJy1waCcsICc3LjAnLCAnLXRuJywgJzgnLCAnLW1hJywgJzIwMCcsICctbWV0YWxfYmluZGluZycsICctaW1hZScsICc8aW5maWxlLm1hZT4nLCAnLW9tYWUnLCAnPG91dGZpbGUubWFlPic=

> <r_lp_tautomer_probability>
1

> <r_epik_Ionization_Penalty>
2.20874e-05

> <r_epik_Ionization_Penalty_Charging>
0

> <r_epik_Ionization_Penalty_Neutral>
2.20874e-05

> <r_epik_State_Penalty>
-0

> <r_epik_Charging_Adjusted_Penalty>
0

> <i_epik_Tot_Q>
0

> <i_epik_Tot_abs_Q>
0

> <r_epik_Metal_State_Penalty>
-0

> <b_epik_Metal_Only>
0

> <s_lp_Force_Field>
OPLS_2005

> <r_lp_Energy>
6.84472

> <b_lp_Chiralities_Consistent>
1

> <s_lp_Variant>
AV-unprocessed.smi:2856-1

> <Gold.Version>
5.8.1

> <Gold.Id.Protein>
6NUR|6NUR_protein|mol2

> <Gold.PLP.Fitness>
38.4147

> <Gold.PLP.PLP>
-36.7218

> <Gold.PLP.part.hbond>
-1.0000

> <Gold.PLP.part.metal>
0.0000

> <Gold.PLP.part.buried>
-6.3589

> <Gold.PLP.part.nonpolar>
-29.5566

> <Gold.PLP.part.repulsive>
0.1783

> <Gold.PLP.ligand.clash>
0.0000

> <Gold.PLP.ligand.torsion>
0.1890

> <Gold.PLP.Chemscore.Hbond>
0.6880

> <Gold.PLP.Chemscore.CHOScore>
0.0000

> <Gold.PLP.Chemscore.Metal>
0.0000

> <Gold.Chemscore.Hbonds>
donor molecule, donor type, donor heavy atom, donor atom, acceptor molecule, acceptor atom, score
      P1  H  6896  6908       L1    17  0.69

> <Gold.PLP.Chemscore.Internal.Correction>
0.0070

> <Gold.Rescore>
     Score         DG    S(hbond)    S(metal)    S(lipo)     H(rot)  DE(clash)    DE(int)     intcor
     15.16     -17.05       0.80        0.00     102.53       1.21       0.47       1.43       ----

> <Gold.Chemscore.Fitness>
15.1608

> <Gold.Chemscore.DG>
-17.0527

> <Gold.Chemscore.ZeroCoef>
-5.4800

> <Gold.Chemscore.Hbond>
0.8015

> <Gold.Chemscore.Metal>
0.0000

> <Gold.Chemscore.Lipo>
102.5256

> <Gold.Chemscore.Internal_Hbond>
0.0000

> <Gold.Chemscore.DEClash>
0.4662

> <Gold.Chemscore.DEInternal>
1.4257

> <Gold.Chemscore.Rot>
1.2109

> <Gold.Chemscore.Internal.Correction>
   9.000000E+99

> <Gold.Chemscore.Hbonds>
donor molecule, donor type, donor heavy atom, donor atom, acceptor molecule, acceptor atom, score
      P1  H  6896  6908       L1    17  0.37

> <Gold.Chemscore.Hbond.Weighted>
-2.6772

> <Gold.Chemscore.Metal.Weighted>
-0.0000

> <Gold.Chemscore.Lipo.Weighted>
-11.9955

> <Gold.Chemscore.Internal_Hbond.Weighted>
0.0000

> <Gold.Chemscore.DEClash.Weighted>
0.4662

> <Gold.Chemscore.DEInternal.Weighted>
1.4257

> <Gold.Chemscore.Rot.Weighted>
3.1000

> <Gold.Chemscore.Internal.Correction.Weighted>
   9.000000E+99

> <Gold.Protein.RotatedTorsions>
[ 6907 6896 6895 6894 ] final  -59.24 input  -60.11 | X-H torsion
[ 7974 7965 7964 7962 ] final   82.69 input  175.53 | X-H torsion
[ 8008 7997 7996 7995 ] final   38.03 input   59.86 | X-H torsion
[ 10167 10162 10161 10158 ] final  -51.60 input  -65.29 | X-H torsion
[ 10718 10713 10712 10709 ] final -134.12 input   66.30 | X-H torsion
[ 10763 10752 10751 10750 ] final  -50.27 input  -60.55 | X-H torsion
[ 11005 11000 10999 10996 ] final   10.72 input  -57.11 | X-H torsion

> <Gold.Protein.ActiveResidues>
 VAL166  LYS551  ARG553  GLY616  TRP617  ASP618  TYR619  PRO620  LYS621  CYS622 
 ASP623  PHE694  ASN695  SER759  ASP760  ASP761  ALA762  ILE779  LEU786  VAL792 
 PHE793  MET794  SER795  GLU796  ALA797  LYS798  CYS799  TRP800  GLU811  SER814 

> <Gold.Protein.RotatedAtoms>
  150.7945  134.6994  159.6540 H   0  0  0  0  0  0  0  0  0  0  0  0  # atno 6907 bound_to 6896
  152.4055  134.6210  160.0060 H   0  0  0  0  0  0  0  0  0  0  0  0  # atno 6908 bound_to 6896
  151.6469  133.3286  159.3179 H   0  0  0  0  0  0  0  0  0  0  0  0  # atno 6909 bound_to 6896
  145.6218  139.2387  143.2134 H   0  0  0  0  0  0  0  0  0  0  0  0  # atno 7974 bound_to 7965
  155.2135  140.3325  155.4325 H   0  0  0  0  0  0  0  0  0  0  0  0  # atno 8008 bound_to 7997
  156.2361  140.1873  156.7163 H   0  0  0  0  0  0  0  0  0  0  0  0  # atno 8009 bound_to 7997
  154.6062  140.0615  156.9420 H   0  0  0  0  0  0  0  0  0  0  0  0  # atno 8010 bound_to 7997
  140.6580  143.2613  151.4528 H   0  0  0  0  0  0  0  0  0  0  0  0  # atno 10167 bound_to 10162
  156.2521  130.7159  151.1062 H   0  0  0  0  0  0  0  0  0  0  0  0  # atno 10718 bound_to 10713
  154.1076  135.6554  153.4879 H   0  0  0  0  0  0  0  0  0  0  0  0  # atno 10763 bound_to 10752
  153.0267  135.5240  154.7224 H   0  0  0  0  0  0  0  0  0  0  0  0  # atno 10764 bound_to 10752
  154.6394  135.2986  155.0091 H   0  0  0  0  0  0  0  0  0  0  0  0  # atno 10765 bound_to 10752
  140.5113  134.0649  155.7819 H   0  0  0  0  0  0  0  0  0  0  0  0  # atno 11005 bound_to 11000
  146.1425  140.7038  142.9360 LP  0  0  0  0  0  0  0  0  0  0  0  0  # atno 17320 bound_to 7965
  144.7228  140.4429  143.6995 LP  0  0  0  0  0  0  0  0  0  0  0  0  # atno 17321 bound_to 7965
  139.5807  144.1717  152.1964 LP  0  0  0  0  0  0  0  0  0  0  0  0  # atno 17342 bound_to 10162
  140.1041  144.5514  150.6969 LP  0  0  0  0  0  0  0  0  0  0  0  0  # atno 17343 bound_to 10162
  157.7218  131.0676  150.6101 LP  0  0  0  0  0  0  0  0  0  0  0  0  # atno 17370 bound_to 10713
  156.6182  130.4398  149.5832 LP  0  0  0  0  0  0  0  0  0  0  0  0  # atno 17371 bound_to 10713
  141.1384  133.9181  157.2382 LP  0  0  0  0  0  0  0  0  0  0  0  0  # atno 17394 bound_to 11000
  139.9657  135.0142  156.9381 LP  0  0  0  0  0  0  0  0  0  0  0  0  # atno 17395 bound_to 11000

$$$$
