AV-unprocessed.smi:919|AV-procd|sdf|4165|dock2
  -GOLD-   22720 2 73D 1   1.00000     0.00000
 Structure written by MMmdl.
 43 45  0  0  0  0  0  0  0  0  1 V2000
  152.8459  138.2428  154.5512 C   0  0  0  0  0  0  0  0  0  0  0  0
  152.1307  139.2450  155.4109 C   0  0  0  0  0  0  0  0  0  0  0  0
  152.6971  139.6511  156.5348 N   0  0  0  0  0  0  0  0  0  0  0  0
  151.8118  140.5742  157.0998 O   0  0  0  0  0  0  0  0  0  0  0  0
  150.7345  140.6902  156.2823 C   0  0  0  0  0  0  0  0  0  0  0  0
  149.6671  141.6422  156.7043 C   0  0  0  0  0  0  0  0  0  0  0  0
  150.8700  139.8727  155.1950 C   0  0  0  0  0  0  0  0  0  0  0  0
  149.9186  139.6915  154.0437 C   0  0  0  0  0  0  0  0  0  0  0  0
  148.5529  139.1766  154.5237 C   0  0  0  0  0  0  0  0  0  0  0  0
  148.0769  138.0726  153.6999 N   0  0  0  0  0  0  0  0  0  0  0  0
  146.8179  137.6029  153.6931 C   0  0  0  0  0  0  0  0  0  0  0  0
  145.9212  138.0566  154.4018 O   0  0  0  0  0  0  0  0  0  0  0  0
  146.6019  136.5885  152.8375 N   0  0  0  0  0  0  0  0  0  0  0  0
  145.3499  135.8659  152.5969 C   0  0  1  0  0  0  0  0  0  0  0  0
  145.0214  135.8092  151.0883 C   0  0  0  0  0  0  0  0  0  0  0  0
  144.9266  134.2981  150.8070 C   0  0  1  0  0  0  0  0  0  0  0  0
  146.3333  133.6721  150.8649 C   0  0  0  0  0  0  0  0  0  0  0  0
  146.6453  133.6733  152.3731 C   0  0  0  0  0  0  0  0  0  0  0  0
  145.4009  134.3617  152.9738 C   0  0  2  0  0  0  0  0  0  0  0  0
  144.2972  133.7837  152.0943 C   0  0  0  0  0  0  0  0  0  0  0  0
  152.2023  137.8633  153.7579 H   0  0  0  0  0  0  0  0  0  0  0  0
  153.1818  137.3881  155.1391 H   0  0  0  0  0  0  0  0  0  0  0  0
  153.7225  138.6884  154.0804 H   0  0  0  0  0  0  0  0  0  0  0  0
  149.4177  142.3247  155.8915 H   0  0  0  0  0  0  0  0  0  0  0  0
  149.9853  142.2386  157.5597 H   0  0  0  0  0  0  0  0  0  0  0  0
  148.7606  141.1054  156.9834 H   0  0  0  0  0  0  0  0  0  0  0  0
  149.7833  140.6283  153.5024 H   0  0  0  0  0  0  0  0  0  0  0  0
  150.3353  138.9934  153.3166 H   0  0  0  0  0  0  0  0  0  0  0  0
  148.6065  138.8653  155.5686 H   0  0  0  0  0  0  0  0  0  0  0  0
  147.8149  139.9780  154.4767 H   0  0  0  0  0  0  0  0  0  0  0  0
  148.7479  137.6405  153.0818 H   0  0  0  0  0  0  0  0  0  0  0  0
  147.3934  136.2886  152.2869 H   0  0  0  0  0  0  0  0  0  0  0  0
  144.5302  136.3604  153.1215 H   0  0  0  0  0  0  0  0  0  0  0  0
  144.0662  136.2973  150.8900 H   0  0  0  0  0  0  0  0  0  0  0  0
  145.7723  136.2930  150.4619 H   0  0  0  0  0  0  0  0  0  0  0  0
  144.3776  134.0573  149.8962 H   0  0  0  0  0  0  0  0  0  0  0  0
  146.3250  132.6528  150.4766 H   0  0  0  0  0  0  0  0  0  0  0  0
  147.0621  134.2442  150.2895 H   0  0  0  0  0  0  0  0  0  0  0  0
  146.7272  132.6502  152.7422 H   0  0  0  0  0  0  0  0  0  0  0  0
  147.5826  134.1769  152.6097 H   0  0  0  0  0  0  0  0  0  0  0  0
  145.2741  134.1731  154.0402 H   0  0  0  0  0  0  0  0  0  0  0  0
  143.3135  134.2111  152.2962 H   0  0  0  0  0  0  0  0  0  0  0  0
  144.2303  132.6952  152.1393 H   0  0  0  0  0  0  0  0  0  0  0  0
  1  2  1  0  0  0  0
  1 21  1  0  0  0  0
  1 22  1  0  0  0  0
  1 23  1  0  0  0  0
  2  7  1  0  0  0  0
  2  3  2  0  0  0  0
  3  4  1  0  0  0  0
  4  5  1  0  0  0  0
  5  6  1  0  0  0  0
  5  7  2  0  0  0  0
  6 24  1  0  0  0  0
  6 25  1  0  0  0  0
  6 26  1  0  0  0  0
  7  8  1  0  0  0  0
  8  9  1  0  0  0  0
  8 27  1  0  0  0  0
  8 28  1  0  0  0  0
  9 10  1  0  0  0  0
  9 29  1  0  0  0  0
  9 30  1  0  0  0  0
 10 11  1  0  0  0  0
 10 31  1  0  0  0  0
 11 12  2  0  0  0  0
 11 13  1  0  0  0  0
 13 14  1  0  0  0  0
 13 32  1  0  0  0  0
 14 19  1  0  0  0  0
 14 15  1  0  0  0  0
 14 33  1  0  0  0  0
 15 16  1  0  0  0  0
 15 34  1  0  0  0  0
 15 35  1  0  0  0  0
 16 20  1  0  0  0  0
 16 17  1  0  0  0  0
 16 36  1  0  0  0  0
 17 18  1  0  0  0  0
 17 37  1  0  0  0  0
 17 38  1  0  0  0  0
 18 19  1  0  0  0  0
 18 39  1  0  0  0  0
 18 40  1  0  0  0  0
 19 20  1  0  0  0  0
 19 41  1  0  0  0  0
 20 42  1  0  0  0  0
 20 43  1  0  0  0  0
M  END
> <s_m_source_file>
AV-unprocessed.smi

> <i_m_source_file_index>
919

> <i_lp_mmshare_version>
43012

> <i_f3d_flags>
0

> <s_epik_input>
W0NIM11jMW5vYyhbQ0gzXSljMVtDSDJdW0NIMl1bTkhdQyg9TylbTkhdW0NASF0oW0NIMl1bQ0BASF0yMylbQ0BASF0oW0NIMl0zKVtDSDJdW0NIMl0y

> <s_epik_cmdline>
J2VwaWtfcHl0aG9uJywgJy1waCcsICc3LjAnLCAnLXRuJywgJzgnLCAnLW1hJywgJzIwMCcsICctbWV0YWxfYmluZGluZycsICctaW1hZScsICc8aW5maWxlLm1hZT4nLCAnLW9tYWUnLCAnPG91dGZpbGUubWFlPic=

> <r_lp_tautomer_probability>
1

> <r_epik_Ionization_Penalty>
6.40771e-05

> <r_epik_Ionization_Penalty_Charging>
0

> <r_epik_Ionization_Penalty_Neutral>
6.40771e-05

> <r_epik_State_Penalty>
-0

> <r_epik_Charging_Adjusted_Penalty>
0

> <i_epik_Tot_Q>
0

> <i_epik_Tot_abs_Q>
0

> <r_epik_Metal_State_Penalty>
-0

> <b_epik_Metal_Only>
0

> <s_lp_Force_Field>
OPLS_2005

> <r_lp_Energy>
47.6346

> <b_lp_Chiralities_Consistent>
1

> <s_lp_Variant>
AV-unprocessed.smi:919-2

> <Gold.Version>
5.8.1

> <Gold.Id.Protein>
6NUR|6NUR_protein|mol2

> <Gold.PLP.Fitness>
39.9704

> <Gold.PLP.PLP>
-32.3241

> <Gold.PLP.part.hbond>
-3.0000

> <Gold.PLP.part.metal>
0.0000

> <Gold.PLP.part.buried>
-1.7400

> <Gold.PLP.part.nonpolar>
-27.3249

> <Gold.PLP.part.repulsive>
0.1202

> <Gold.PLP.ligand.clash>
0.0000

> <Gold.PLP.ligand.torsion>
0.4633

> <Gold.PLP.Chemscore.Hbond>
2.8480

> <Gold.PLP.Chemscore.CHOScore>
0.0000

> <Gold.PLP.Chemscore.Metal>
0.0000

> <Gold.Chemscore.Hbonds>
donor molecule, donor type, donor heavy atom, donor atom, acceptor molecule, acceptor atom, score
      L1  H    10    31       P1  7948  0.88
      L1  H    13    32       P1  7948  1.00
      P1  H  7997  8008       L1     3  1.00

> <Gold.PLP.Chemscore.Internal.Correction>
0.0290

> <Gold.Rescore>
     Score         DG    S(hbond)    S(metal)    S(lipo)     H(rot)  DE(clash)    DE(int)     intcor
     19.72     -20.45       2.83        0.00      80.30       1.52       0.28       0.44       ----

> <Gold.Chemscore.Fitness>
19.7229

> <Gold.Chemscore.DG>
-20.4475

> <Gold.Chemscore.ZeroCoef>
-5.4800

> <Gold.Chemscore.Hbond>
2.8306

> <Gold.Chemscore.Metal>
0.0000

> <Gold.Chemscore.Lipo>
80.2963

> <Gold.Chemscore.Internal_Hbond>
0.0000

> <Gold.Chemscore.DEClash>
0.2849

> <Gold.Chemscore.DEInternal>
0.4398

> <Gold.Chemscore.Rot>
1.5161

> <Gold.Chemscore.Internal.Correction>
   9.000000E+99

> <Gold.Chemscore.Hbonds>
donor molecule, donor type, donor heavy atom, donor atom, acceptor molecule, acceptor atom, score
      L1  H    10    31       P1  7948  0.86
      L1  H    13    32       P1  7948  0.98
      P1  H  7997  8008       L1     3  0.82

> <Gold.Chemscore.Hbond.Weighted>
-9.4541

> <Gold.Chemscore.Metal.Weighted>
-0.0000

> <Gold.Chemscore.Lipo.Weighted>
-9.3947

> <Gold.Chemscore.Internal_Hbond.Weighted>
0.0000

> <Gold.Chemscore.DEClash.Weighted>
0.2849

> <Gold.Chemscore.DEInternal.Weighted>
0.4398

> <Gold.Chemscore.Rot.Weighted>
3.8813

> <Gold.Chemscore.Internal.Correction.Weighted>
   9.000000E+99

> <Gold.Protein.RotatedTorsions>
[ 6907 6896 6895 6894 ] final  134.91 input  -60.11 | X-H torsion
[ 7974 7965 7964 7962 ] final  159.53 input  175.53 | X-H torsion
[ 8008 7997 7996 7995 ] final  -41.97 input   59.86 | X-H torsion
[ 10167 10162 10161 10158 ] final  -27.34 input  -65.29 | X-H torsion
[ 10718 10713 10712 10709 ] final  168.94 input   66.30 | X-H torsion
[ 10763 10752 10751 10750 ] final  104.51 input  -60.55 | X-H torsion
[ 11005 11000 10999 10996 ] final  -30.37 input  -57.11 | X-H torsion

> <Gold.Protein.ActiveResidues>
 VAL166  LYS551  ARG553  GLY616  TRP617  ASP618  TYR619  PRO620  LYS621  CYS622 
 ASP623  PHE694  ASN695  SER759  ASP760  ASP761  ALA762  ILE779  LEU786  VAL792 
 PHE793  MET794  SER795  GLU796  ALA797  LYS798  CYS799  TRP800  GLU811  SER814 

> <Gold.Protein.RotatedAtoms>
  152.3062  133.5705  159.5650 H   0  0  0  0  0  0  0  0  0  0  0  0  # atno 6907 bound_to 6896
  150.7301  134.0219  159.3713 H   0  0  0  0  0  0  0  0  0  0  0  0  # atno 6908 bound_to 6896
  151.8116  135.0679  160.0464 H   0  0  0  0  0  0  0  0  0  0  0  0  # atno 6909 bound_to 6896
  144.7785  139.7630  143.6269 H   0  0  0  0  0  0  0  0  0  0  0  0  # atno 7974 bound_to 7965
  154.4001  140.1485  156.3279 H   0  0  0  0  0  0  0  0  0  0  0  0  # atno 8008 bound_to 7997
  155.8470  140.3459  155.5647 H   0  0  0  0  0  0  0  0  0  0  0  0  # atno 8009 bound_to 7997
  155.8025  140.0872  157.1939 H   0  0  0  0  0  0  0  0  0  0  0  0  # atno 8010 bound_to 7997
  140.7278  143.4102  151.1119 H   0  0  0  0  0  0  0  0  0  0  0  0  # atno 10167 bound_to 10162
  157.0298  131.0256  151.2748 H   0  0  0  0  0  0  0  0  0  0  0  0  # atno 10718 bound_to 10713
  153.3669  135.3941  155.1760 H   0  0  0  0  0  0  0  0  0  0  0  0  # atno 10763 bound_to 10752
  154.8688  135.3693  154.5027 H   0  0  0  0  0  0  0  0  0  0  0  0  # atno 10764 bound_to 10752
  153.5492  135.7083  153.5660 H   0  0  0  0  0  0  0  0  0  0  0  0  # atno 10765 bound_to 10752
  140.9377  133.7298  156.1029 H   0  0  0  0  0  0  0  0  0  0  0  0  # atno 11005 bound_to 11000
  146.1979  139.5257  142.9762 LP  0  0  0  0  0  0  0  0  0  0  0  0  # atno 17320 bound_to 7965
  145.6117  141.0338  143.1963 LP  0  0  0  0  0  0  0  0  0  0  0  0  # atno 17321 bound_to 7965
  139.7734  143.8461  152.3125 LP  0  0  0  0  0  0  0  0  0  0  0  0  # atno 17342 bound_to 10162
  139.8387  144.7220  150.9358 LP  0  0  0  0  0  0  0  0  0  0  0  0  # atno 17343 bound_to 10162
  157.5186  130.7984  149.7784 LP  0  0  0  0  0  0  0  0  0  0  0  0  # atno 17370 bound_to 10713
  156.0073  130.3849  150.2385 LP  0  0  0  0  0  0  0  0  0  0  0  0  # atno 17371 bound_to 10713
  140.7777  134.3761  157.5494 LP  0  0  0  0  0  0  0  0  0  0  0  0  # atno 17394 bound_to 11000
  139.8812  134.9062  156.2917 LP  0  0  0  0  0  0  0  0  0  0  0  0  # atno 17395 bound_to 11000

$$$$
