AV-unprocessed.smi:3287|AV-procd|sdf|12592|dock3
  -GOLD-   2272018513D 1   1.00000     0.00000
 Structure written by MMmdl.
 43 44  0  0  0  0  0  0  0  0  2 V2000
  151.8380  145.3055  160.6231 C   0  0  0  0  0  0  0  0  0  0  0  0
  152.1937  144.4276  159.4098 C   0  0  2  0  0  0  0  0  0  0  0  0
  151.5435  145.0073  158.1372 C   0  0  0  0  0  0  0  0  0  0  0  0
  151.8668  144.1745  156.8861 C   0  0  0  0  0  0  0  0  0  0  0  0
  151.4710  142.6984  157.0570 C   0  0  2  0  0  0  0  0  0  0  0  0
  149.9966  142.5549  157.0597 N   0  3  0  0  0  0  0  0  0  0  0  0
  149.4618  141.4344  156.2561 C   0  0  0  0  0  0  0  0  0  0  0  0
  150.3624  141.1351  155.0454 C   0  0  2  0  0  0  0  0  0  0  0  0
  149.6000  141.2913  153.8638 O   0  0  0  0  0  0  0  0  0  0  0  0
  150.9708  139.7452  155.1447 C   0  0  0  0  0  0  0  0  0  0  0  0
  151.7730  139.3934  156.2504 C   0  0  0  0  0  0  0  0  0  0  0  0
  152.3113  138.0921  156.3058 C   0  0  0  0  0  0  0  0  0  0  0  0
  152.0966  137.1598  155.3532 N   0  0  0  0  0  0  0  0  0  0  0  0
  151.3262  137.5003  154.2979 C   0  0  0  0  0  0  0  0  0  0  0  0
  150.7404  138.7729  154.1469 C   0  0  0  0  0  0  0  0  0  0  0  0
  152.1207  142.1217  158.3323 C   0  0  0  0  0  0  0  0  0  0  0  0
  151.7941  142.9404  159.6007 C   0  0  1  0  0  0  0  0  0  0  0  0
  152.4648  142.2920  160.8248 C   0  0  0  0  0  0  0  0  0  0  0  0
  150.7753  145.2452  160.8596 H   0  0  0  0  0  0  0  0  0  0  0  0
  152.0751  146.3523  160.4309 H   0  0  0  0  0  0  0  0  0  0  0  0
  152.3974  145.0150  161.5119 H   0  0  0  0  0  0  0  0  0  0  0  0
  153.2760  144.4740  159.2782 H   0  0  0  0  0  0  0  0  0  0  0  0
  150.4623  145.0647  158.2703 H   0  0  0  0  0  0  0  0  0  0  0  0
  151.8834  146.0320  157.9819 H   0  0  0  0  0  0  0  0  0  0  0  0
  151.3711  144.6012  156.0133 H   0  0  0  0  0  0  0  0  0  0  0  0
  152.9375  144.2372  156.6859 H   0  0  0  0  0  0  0  0  0  0  0  0
  151.8493  142.1522  156.1915 H   0  0  0  0  0  0  0  0  0  0  0  0
  149.6825  142.4507  158.0144 H   0  0  0  0  0  0  0  0  0  0  0  0
  149.3980  140.5508  156.8926 H   0  0  0  0  0  0  0  0  0  0  0  0
  148.4500  141.6578  155.9175 H   0  0  0  0  0  0  0  0  0  0  0  0
  151.1732  141.8643  155.0091 H   0  0  0  0  0  0  0  0  0  0  0  0
  149.7032  140.5140  153.3353 H   0  0  0  0  0  0  0  0  0  0  0  0
  151.9747  140.0999  157.0424 H   0  0  0  0  0  0  0  0  0  0  0  0
  152.9298  137.7923  157.1390 H   0  0  0  0  0  0  0  0  0  0  0  0
  151.1697  136.7353  153.5520 H   0  0  0  0  0  0  0  0  0  0  0  0
  150.1289  138.9916  153.2836 H   0  0  0  0  0  0  0  0  0  0  0  0
  151.8343  141.0799  158.4728 H   0  0  0  0  0  0  0  0  0  0  0  0
  153.2028  142.1066  158.1932 H   0  0  0  0  0  0  0  0  0  0  0  0
  150.7160  142.8951  159.7613 H   0  0  0  0  0  0  0  0  0  0  0  0
  153.5511  142.3661  160.7685 H   0  0  0  0  0  0  0  0  0  0  0  0
  152.2092  141.2346  160.8969 H   0  0  0  0  0  0  0  0  0  0  0  0
  152.1440  142.7565  161.7567 H   0  0  0  0  0  0  0  0  0  0  0  0
  149.6033  143.4073  156.6870 H   0  0  0  0  0  0  0  0  0  0  0  0
  1  2  1  0  0  0  0
  1 19  1  0  0  0  0
  1 20  1  0  0  0  0
  1 21  1  0  0  0  0
  2 17  1  0  0  0  0
  2  3  1  0  0  0  0
  2 22  1  0  0  0  0
  3  4  1  0  0  0  0
  3 23  1  0  0  0  0
  3 24  1  0  0  0  0
  4  5  1  0  0  0  0
  4 25  1  0  0  0  0
  4 26  1  0  0  0  0
  5  6  1  0  0  0  0
  5 16  1  0  0  0  0
  5 27  1  0  0  0  0
  6  7  1  0  0  0  0
  6 28  1  0  0  0  0
  6 43  1  0  0  0  0
  7  8  1  0  0  0  0
  7 29  1  0  0  0  0
  7 30  1  0  0  0  0
  8  9  1  0  0  0  0
  8 10  1  0  0  0  0
  8 31  1  0  0  0  0
  9 32  1  0  0  0  0
 10 15  1  0  0  0  0
 10 11  2  0  0  0  0
 11 12  1  0  0  0  0
 11 33  1  0  0  0  0
 12 13  2  0  0  0  0
 12 34  1  0  0  0  0
 13 14  1  0  0  0  0
 14 15  2  0  0  0  0
 14 35  1  0  0  0  0
 15 36  1  0  0  0  0
 16 17  1  0  0  0  0
 16 37  1  0  0  0  0
 16 38  1  0  0  0  0
 17 18  1  0  0  0  0
 17 39  1  0  0  0  0
 18 40  1  0  0  0  0
 18 41  1  0  0  0  0
 18 42  1  0  0  0  0
M  CHG  1   6   1
M  END
> <s_m_source_file>
AV-unprocessed.smi

> <i_m_source_file_index>
3287

> <i_lp_mmshare_version>
43012

> <i_f3d_flags>
0

> <s_epik_input>
W0NIM11bQ0BASF0xW0NIMl1bQ0gyXVtDQEhdKFtDSDJdW0NASF0xW0NIM10pW05IXVtDSDJdW0NASF0oW09IXSljMltjSF1bY0hdbltjSF1bY0hdMg==

> <s_epik_cmdline>
J2VwaWtfcHl0aG9uJywgJy1waCcsICc3LjAnLCAnLXRuJywgJzgnLCAnLW1hJywgJzIwMCcsICctbWV0YWxfYmluZGluZycsICctaW1hZScsICc8aW5maWxlLm1hZT4nLCAnLW9tYWUnLCAnPG91dGZpbGUubWFlPic=

> <r_lp_tautomer_probability>
1

> <r_epik_Ionization_Penalty>
0.00537262

> <r_epik_Ionization_Penalty_Charging>
0.00321624

> <r_epik_Ionization_Penalty_Neutral>
0.00215638

> <r_epik_State_Penalty>
-0

> <r_epik_Charging_Adjusted_Penalty>
0.00321624

> <i_epik_Tot_Q>
1

> <i_epik_Tot_abs_Q>
1

> <r_epik_Metal_State_Penalty>
-0

> <b_epik_Metal_Only>
0

> <s_lp_Force_Field>
OPLS_2005

> <r_lp_Energy>
19.3861

> <b_lp_Chiralities_Consistent>
1

> <s_lp_Variant>
AV-unprocessed.smi:3287-3

> <Gold.Version>
5.8.1

> <Gold.Id.Protein>
6NUR|6NUR_protein|mol2

> <Gold.PLP.Fitness>
52.8690

> <Gold.PLP.PLP>
-41.5304

> <Gold.PLP.part.hbond>
-5.0000

> <Gold.PLP.part.metal>
0.0000

> <Gold.PLP.part.buried>
-1.6082

> <Gold.PLP.part.nonpolar>
-33.2570

> <Gold.PLP.part.repulsive>
0.0681

> <Gold.PLP.ligand.clash>
0.0000

> <Gold.PLP.ligand.torsion>
1.5271

> <Gold.PLP.Chemscore.Hbond>
3.7519

> <Gold.PLP.Chemscore.CHOScore>
1.0352

> <Gold.PLP.Chemscore.Metal>
0.0000

> <Gold.Chemscore.Hbonds>
donor molecule, donor type, donor heavy atom, donor atom, acceptor molecule, acceptor atom, score
      L1  H     6    43       P1  8028  2.00
      L1  H     9    32       P1  7957  0.37
      P1  H  8011  8017       L1     9  0.48
      P1  H 10752 10765       L1    13  0.90
      L1  C    14    35       P1  7949  1.00

> <Gold.PLP.Chemscore.Internal.Correction>
0.0313

> <Gold.Rescore>
     Score         DG    S(hbond)    S(metal)    S(lipo)     H(rot)  DE(clash)    DE(int)     intcor
     20.94     -24.03       2.13        0.00     139.49       1.90       1.56       1.53       ----

> <Gold.Chemscore.Fitness>
20.9432

> <Gold.Chemscore.DG>
-24.0327

> <Gold.Chemscore.ZeroCoef>
-5.4800

> <Gold.Chemscore.Hbond>
2.1273

> <Gold.Chemscore.Metal>
0.0000

> <Gold.Chemscore.Lipo>
139.4905

> <Gold.Chemscore.Internal_Hbond>
0.0000

> <Gold.Chemscore.DEClash>
1.5599

> <Gold.Chemscore.DEInternal>
1.5297

> <Gold.Chemscore.Rot>
1.9035

> <Gold.Chemscore.Internal.Correction>
   9.000000E+99

> <Gold.Chemscore.Hbonds>
donor molecule, donor type, donor heavy atom, donor atom, acceptor molecule, acceptor atom, score
      L1  H     6    43       P1  8028  1.00
      L1  H     9    32       P1  7957  0.36
      P1  H  8011  8017       L1     9  0.03
      P1  H 10752 10765       L1    13  0.39

> <Gold.Chemscore.Hbond.Weighted>
-7.1051

> <Gold.Chemscore.Metal.Weighted>
-0.0000

> <Gold.Chemscore.Lipo.Weighted>
-16.3204

> <Gold.Chemscore.Internal_Hbond.Weighted>
0.0000

> <Gold.Chemscore.DEClash.Weighted>
1.5599

> <Gold.Chemscore.DEInternal.Weighted>
1.5297

> <Gold.Chemscore.Rot.Weighted>
4.8729

> <Gold.Chemscore.Internal.Correction.Weighted>
   9.000000E+99

> <Gold.Protein.RotatedTorsions>
[ 6907 6896 6895 6894 ] final  -31.93 input  -60.11 | X-H torsion
[ 7974 7965 7964 7962 ] final  127.28 input  175.53 | X-H torsion
[ 8008 7997 7996 7995 ] final  151.85 input   59.86 | X-H torsion
[ 10167 10162 10161 10158 ] final  -77.80 input  -65.29 | X-H torsion
[ 10718 10713 10712 10709 ] final  -82.27 input   66.30 | X-H torsion
[ 10763 10752 10751 10750 ] final -168.35 input  -60.55 | X-H torsion
[ 11005 11000 10999 10996 ] final  102.02 input  -57.11 | X-H torsion

> <Gold.Protein.ActiveResidues>
 VAL166  LYS551  ARG553  GLY616  TRP617  ASP618  TYR619  PRO620  LYS621  CYS622 
 ASP623  PHE694  ASN695  SER759  ASP760  ASP761  ALA762  ILE779  LEU786  VAL792 
 PHE793  MET794  SER795  GLU796  ALA797  LYS798  CYS799  TRP800  GLU811  SER814 

> <Gold.Protein.RotatedAtoms>
  151.0855  134.9884  159.8376 H   0  0  0  0  0  0  0  0  0  0  0  0  # atno 6907 bound_to 6896
  152.5424  134.2129  159.8767 H   0  0  0  0  0  0  0  0  0  0  0  0  # atno 6908 bound_to 6896
  151.2162  133.4484  159.2633 H   0  0  0  0  0  0  0  0  0  0  0  0  # atno 6909 bound_to 6896
  145.0523  139.3872  143.5047 H   0  0  0  0  0  0  0  0  0  0  0  0  # atno 7974 bound_to 7965
  156.2655  140.2036  156.6241 H   0  0  0  0  0  0  0  0  0  0  0  0  # atno 8008 bound_to 7997
  154.6734  140.0547  157.0214 H   0  0  0  0  0  0  0  0  0  0  0  0  # atno 8009 bound_to 7997
  155.1104  140.3215  155.4526 H   0  0  0  0  0  0  0  0  0  0  0  0  # atno 8010 bound_to 7997
  140.4738  143.2419  151.8164 H   0  0  0  0  0  0  0  0  0  0  0  0  # atno 10167 bound_to 10162
  156.0036  130.4629  150.4079 H   0  0  0  0  0  0  0  0  0  0  0  0  # atno 10718 bound_to 10713
  154.6637  135.2929  154.9833 H   0  0  0  0  0  0  0  0  0  0  0  0  # atno 10763 bound_to 10752
  154.0883  135.6594  153.4852 H   0  0  0  0  0  0  0  0  0  0  0  0  # atno 10764 bound_to 10752
  153.0445  135.5214  154.7601 H   0  0  0  0  0  0  0  0  0  0  0  0  # atno 10765 bound_to 10752
  139.8775  134.9207  156.4995 H   0  0  0  0  0  0  0  0  0  0  0  0  # atno 11005 bound_to 11000
  146.3519  140.0180  142.8661 LP  0  0  0  0  0  0  0  0  0  0  0  0  # atno 17320 bound_to 7965
  145.1512  140.9624  143.4432 LP  0  0  0  0  0  0  0  0  0  0  0  0  # atno 17321 bound_to 7965
  139.4822  144.4858  151.9248 LP  0  0  0  0  0  0  0  0  0  0  0  0  # atno 17342 bound_to 10162
  140.3943  144.2575  150.5897 LP  0  0  0  0  0  0  0  0  0  0  0  0  # atno 17343 bound_to 10162
  157.2144  131.0468  151.2581 LP  0  0  0  0  0  0  0  0  0  0  0  0  # atno 17370 bound_to 10713
  157.3859  130.7256  149.6663 LP  0  0  0  0  0  0  0  0  0  0  0  0  # atno 17371 bound_to 10713
  140.8600  133.8067  155.9255 LP  0  0  0  0  0  0  0  0  0  0  0  0  # atno 17394 bound_to 11000
  140.9059  134.2320  157.5014 LP  0  0  0  0  0  0  0  0  0  0  0  0  # atno 17395 bound_to 11000

$$$$
