AV-unprocessed.smi:2774|AV-procd|sdf|10686|dock5
  -GOLD-   2272015133D 1   1.00000     0.00000
 Structure written by MMmdl.
 34 35  0  0  0  0  0  0  0  0  1 V2000
  149.4677  141.1421  153.5633 O   0  0  0  0  0  0  0  0  0  0  0  0
  149.6490  140.6575  154.8775 C   0  0  2  0  0  0  0  0  0  0  0  0
  150.3971  141.7340  155.6843 C   0  0  0  0  0  0  0  0  0  0  0  0
  150.4569  141.3940  157.1073 N   0  0  0  0  0  0  0  0  0  0  0  0
  151.6185  141.9111  157.8362 C   0  0  1  0  0  0  0  0  0  0  0  0
  151.5177  143.4474  157.9102 C   0  0  0  0  0  0  0  0  0  0  0  0
  152.7498  144.0983  158.5574 C   0  0  0  0  0  0  0  0  0  0  0  0
  152.9499  143.6453  160.0092 C   0  0  0  0  0  0  0  0  0  0  0  0
  153.2397  141.8588  160.0988 S   0  0  0  0  0  0  0  0  0  0  0  0
  151.7425  141.2899  159.2455 C   0  0  0  0  0  0  0  0  0  0  0  0
  150.3669  139.3154  154.8939 C   0  0  0  0  0  0  0  0  0  0  0  0
  149.7561  138.1666  154.3481 C   0  0  0  0  0  0  0  0  0  0  0  0
  150.4564  136.9447  154.3944 C   0  0  0  0  0  0  0  0  0  0  0  0
  151.6874  136.8147  154.9337 N   0  0  0  0  0  0  0  0  0  0  0  0
  152.2673  137.9171  155.4546 C   0  0  0  0  0  0  0  0  0  0  0  0
  151.6535  139.1853  155.4604 C   0  0  0  0  0  0  0  0  0  0  0  0
  148.5844  140.9438  153.2918 H   0  0  0  0  0  0  0  0  0  0  0  0
  148.6524  140.5259  155.3016 H   0  0  0  0  0  0  0  0  0  0  0  0
  151.3985  141.8575  155.2733 H   0  0  0  0  0  0  0  0  0  0  0  0
  149.8878  142.6909  155.5614 H   0  0  0  0  0  0  0  0  0  0  0  0
  149.6060  141.7058  157.5646 H   0  0  0  0  0  0  0  0  0  0  0  0
  152.5190  141.6642  157.2719 H   0  0  0  0  0  0  0  0  0  0  0  0
  151.3985  143.8524  156.9044 H   0  0  0  0  0  0  0  0  0  0  0  0
  150.6210  143.7350  158.4614 H   0  0  0  0  0  0  0  0  0  0  0  0
  153.6409  143.8689  157.9718 H   0  0  0  0  0  0  0  0  0  0  0  0
  152.6381  145.1828  158.5316 H   0  0  0  0  0  0  0  0  0  0  0  0
  153.8023  144.1605  160.4523 H   0  0  0  0  0  0  0  0  0  0  0  0
  152.0756  143.8954  160.6110 H   0  0  0  0  0  0  0  0  0  0  0  0
  150.8715  141.5392  159.8526 H   0  0  0  0  0  0  0  0  0  0  0  0
  151.7994  140.2032  159.2005 H   0  0  0  0  0  0  0  0  0  0  0  0
  148.7711  138.2153  153.9078 H   0  0  0  0  0  0  0  0  0  0  0  0
  150.0149  136.0470  153.9873 H   0  0  0  0  0  0  0  0  0  0  0  0
  153.2505  137.7845  155.8810 H   0  0  0  0  0  0  0  0  0  0  0  0
  152.1593  140.0360  155.8931 H   0  0  0  0  0  0  0  0  0  0  0  0
  1  2  1  0  0  0  0
  1 17  1  0  0  0  0
  2  3  1  0  0  0  0
  2 11  1  0  0  0  0
  2 18  1  0  0  0  0
  3  4  1  0  0  0  0
  3 19  1  0  0  0  0
  3 20  1  0  0  0  0
  4  5  1  0  0  0  0
  4 21  1  0  0  0  0
  5 10  1  0  0  0  0
  5  6  1  0  0  0  0
  5 22  1  0  0  0  0
  6  7  1  0  0  0  0
  6 23  1  0  0  0  0
  6 24  1  0  0  0  0
  7  8  1  0  0  0  0
  7 25  1  0  0  0  0
  7 26  1  0  0  0  0
  8  9  1  0  0  0  0
  8 27  1  0  0  0  0
  8 28  1  0  0  0  0
  9 10  1  0  0  0  0
 10 29  1  0  0  0  0
 10 30  1  0  0  0  0
 11 16  1  0  0  0  0
 11 12  2  0  0  0  0
 12 13  1  0  0  0  0
 12 31  1  0  0  0  0
 13 14  2  0  0  0  0
 13 32  1  0  0  0  0
 14 15  1  0  0  0  0
 15 16  2  0  0  0  0
 15 33  1  0  0  0  0
 16 34  1  0  0  0  0
M  END
> <s_m_source_file>
AV-unprocessed.smi

> <i_m_source_file_index>
2774

> <i_lp_mmshare_version>
43012

> <i_f3d_flags>
0

> <s_epik_input>
W2NIXTFbY0hdbltjSF1bY0hdYzFbQ0BIXShbT0hdKVtDSDJdW05IXVtDQEBIXTJbQ0gyXVtDSDJdW0NIMl1TW0NIMl0y

> <s_epik_cmdline>
J2VwaWtfcHl0aG9uJywgJy1waCcsICc3LjAnLCAnLXRuJywgJzgnLCAnLW1hJywgJzIwMCcsICctbWV0YWxfYmluZGluZycsICctaW1hZScsICc8aW5maWxlLm1hZT4nLCAnLW9tYWUnLCAnPG91dGZpbGUubWFlPic=

> <r_epik_Ionization_Penalty>
2.08116

> <r_epik_Ionization_Penalty_Charging>
0

> <r_epik_Ionization_Penalty_Neutral>
2.08116

> <r_epik_State_Penalty>
2.1944

> <r_epik_Charging_Adjusted_Penalty>
2.1944

> <i_epik_Tot_Q>
0

> <i_epik_Tot_abs_Q>
0

> <r_epik_Metal_State_Penalty>
2.1769

> <b_epik_Metal_Only>
0

> <s_lp_Force_Field>
OPLS_2005

> <r_lp_Energy>
10.4748

> <b_lp_Chiralities_Consistent>
1

> <s_lp_Variant>
AV-unprocessed.smi:2774-7

> <Gold.Version>
5.8.1

> <Gold.Id.Protein>
6NUR|6NUR_protein|mol2

> <Gold.PLP.Fitness>
47.4529

> <Gold.PLP.PLP>
-40.9303

> <Gold.PLP.part.hbond>
-4.0000

> <Gold.PLP.part.metal>
0.0000

> <Gold.PLP.part.buried>
-2.1075

> <Gold.PLP.part.nonpolar>
-35.7467

> <Gold.PLP.part.repulsive>
0.0855

> <Gold.PLP.ligand.clash>
0.0000

> <Gold.PLP.ligand.torsion>
0.3301

> <Gold.PLP.Chemscore.Hbond>
1.8503

> <Gold.PLP.Chemscore.CHOScore>
0.5356

> <Gold.PLP.Chemscore.Metal>
0.0000

> <Gold.Chemscore.Hbonds>
donor molecule, donor type, donor heavy atom, donor atom, acceptor molecule, acceptor atom, score
      P1  H  7989  7998       L1     1  0.02
      P1  H  8011  8017       L1     1  0.85
      P1  H 10752 10765       L1    14  1.00
      L1  C    13    32       P1  7948  0.62

> <Gold.PLP.Chemscore.Internal.Correction>
0.0250

> <Gold.Rescore>
     Score         DG    S(hbond)    S(metal)    S(lipo)     H(rot)  DE(clash)    DE(int)     intcor
     19.45     -20.23       1.73        0.00     118.01       1.89       0.11       0.67       ----

> <Gold.Chemscore.Fitness>
19.4479

> <Gold.Chemscore.DG>
-20.2306

> <Gold.Chemscore.ZeroCoef>
-5.4800

> <Gold.Chemscore.Hbond>
1.7333

> <Gold.Chemscore.Metal>
0.0000

> <Gold.Chemscore.Lipo>
118.0088

> <Gold.Chemscore.Internal_Hbond>
0.0000

> <Gold.Chemscore.DEClash>
0.1122

> <Gold.Chemscore.DEInternal>
0.6705

> <Gold.Chemscore.Rot>
1.8928

> <Gold.Chemscore.Internal.Correction>
   9.000000E+99

> <Gold.Chemscore.Hbonds>
donor molecule, donor type, donor heavy atom, donor atom, acceptor molecule, acceptor atom, score
      P1  H  8011  8017       L1     1  0.14
      P1  H 10752 10765       L1    14  0.70

> <Gold.Chemscore.Hbond.Weighted>
-5.7891

> <Gold.Chemscore.Metal.Weighted>
-0.0000

> <Gold.Chemscore.Lipo.Weighted>
-13.8070

> <Gold.Chemscore.Internal_Hbond.Weighted>
0.0000

> <Gold.Chemscore.DEClash.Weighted>
0.1122

> <Gold.Chemscore.DEInternal.Weighted>
0.6705

> <Gold.Chemscore.Rot.Weighted>
4.8455

> <Gold.Chemscore.Internal.Correction.Weighted>
   9.000000E+99

> <Gold.Protein.RotatedTorsions>
[ 6907 6896 6895 6894 ] final  124.66 input  -60.11 | X-H torsion
[ 7974 7965 7964 7962 ] final  -85.74 input  175.53 | X-H torsion
[ 8008 7997 7996 7995 ] final   34.96 input   59.86 | X-H torsion
[ 10167 10162 10161 10158 ] final   13.11 input  -65.29 | X-H torsion
[ 10718 10713 10712 10709 ] final -133.36 input   66.30 | X-H torsion
[ 10763 10752 10751 10750 ] final  177.69 input  -60.55 | X-H torsion
[ 11005 11000 10999 10996 ] final   79.58 input  -57.11 | X-H torsion

> <Gold.Protein.ActiveResidues>
 VAL166  LYS551  ARG553  GLY616  TRP617  ASP618  TYR619  PRO620  LYS621  CYS622 
 ASP623  PHE694  ASN695  SER759  ASP760  ASP761  ALA762  ILE779  LEU786  VAL792 
 PHE793  MET794  SER795  GLU796  ALA797  LYS798  CYS799  TRP800  GLU811  SER814 

> <Gold.Protein.RotatedAtoms>
  152.4059  133.6887  159.6355 H   0  0  0  0  0  0  0  0  0  0  0  0  # atno 6907 bound_to 6896
  150.7944  133.8710  159.3267 H   0  0  0  0  0  0  0  0  0  0  0  0  # atno 6908 bound_to 6896
  151.6465  135.1008  160.0203 H   0  0  0  0  0  0  0  0  0  0  0  0  # atno 6909 bound_to 6896
  145.4892  140.9553  143.1821 H   0  0  0  0  0  0  0  0  0  0  0  0  # atno 7974 bound_to 7965
  155.1633  140.3285  155.4407 H   0  0  0  0  0  0  0  0  0  0  0  0  # atno 8008 bound_to 7997
  156.2535  140.1956  156.6690 H   0  0  0  0  0  0  0  0  0  0  0  0  # atno 8009 bound_to 7997
  154.6389  140.0573  156.9809 H   0  0  0  0  0  0  0  0  0  0  0  0  # atno 8010 bound_to 7997
  140.6024  143.8577  150.6979 H   0  0  0  0  0  0  0  0  0  0  0  0  # atno 10167 bound_to 10162
  156.2441  130.7114  151.0987 H   0  0  0  0  0  0  0  0  0  0  0  0  # atno 10718 bound_to 10713
  154.4978  135.2782  155.1445 H   0  0  0  0  0  0  0  0  0  0  0  0  # atno 10763 bound_to 10752
  154.3090  135.6233  153.5461 H   0  0  0  0  0  0  0  0  0  0  0  0  # atno 10764 bound_to 10752
  152.9897  135.5715  154.5414 H   0  0  0  0  0  0  0  0  0  0  0  0  # atno 10765 bound_to 10752
  139.9167  134.7853  156.1797 H   0  0  0  0  0  0  0  0  0  0  0  0  # atno 11005 bound_to 11000
  144.7844  139.6458  143.7140 LP  0  0  0  0  0  0  0  0  0  0  0  0  # atno 17320 bound_to 7965
  146.2294  139.5785  142.9565 LP  0  0  0  0  0  0  0  0  0  0  0  0  # atno 17321 bound_to 7965
  140.2126  143.3871  152.1706 LP  0  0  0  0  0  0  0  0  0  0  0  0  # atno 17342 bound_to 10162
  139.5301  144.7148  151.5088 LP  0  0  0  0  0  0  0  0  0  0  0  0  # atno 17343 bound_to 10162
  157.7188  131.0694  150.6222 LP  0  0  0  0  0  0  0  0  0  0  0  0  # atno 17370 bound_to 10713
  156.6297  130.4428  149.5791 LP  0  0  0  0  0  0  0  0  0  0  0  0  # atno 17371 bound_to 10713
  141.0650  133.6823  156.2026 LP  0  0  0  0  0  0  0  0  0  0  0  0  # atno 17394 bound_to 11000
  140.6600  134.4977  157.5583 LP  0  0  0  0  0  0  0  0  0  0  0  0  # atno 17395 bound_to 11000

$$$$
