AV-unprocessed.smi:2867|AV-procd|sdf|11023|dock4
  -GOLD-   2272015483D 1   1.00000     0.00000
 Structure written by MMmdl.
 40 42  0  0  0  0  0  0  0  0  1 V2000
  150.7293  145.2518  160.1022 C   0  0  0  0  0  0  0  0  0  0  0  0
  150.4864  144.3752  159.0160 O   0  0  0  0  0  0  0  0  0  0  0  0
  151.5528  144.3623  158.0836 C   0  0  0  0  0  0  0  0  0  0  0  0
  152.6740  143.4668  158.6229 C   0  0  0  0  0  0  0  0  0  0  0  0
  152.2811  142.0668  158.6189 N   0  0  0  0  0  0  0  0  0  0  0  0
  152.5206  141.1353  159.5768 C   0  0  0  0  0  0  0  0  0  0  0  0
  153.2516  141.4009  160.8076 C   0  0  0  0  0  0  0  0  0  0  0  0
  154.2649  140.5195  161.2400 C   0  0  0  0  0  0  0  0  0  0  0  0
  154.9697  140.7841  162.4305 C   0  0  0  0  0  0  0  0  0  0  0  0
  154.6607  141.9272  163.1932 C   0  0  0  0  0  0  0  0  0  0  0  0
  153.6450  142.8050  162.7669 C   0  0  0  0  0  0  0  0  0  0  0  0
  153.3469  143.9030  163.5011 F   0  0  0  0  0  0  0  0  0  0  0  0
  152.9397  142.5415  161.5767 C   0  0  0  0  0  0  0  0  0  0  0  0
  152.0145  139.9260  159.3261 N   0  0  0  0  0  0  0  0  0  0  0  0
  151.3965  140.0896  158.1023 C   0  0  0  0  0  0  0  0  0  0  0  0
  150.6753  139.1708  157.3075 C   0  0  0  0  0  0  0  0  0  0  0  0
  150.1202  139.5858  156.0785 C   0  0  0  0  0  0  0  0  0  0  0  0
  149.2072  138.4106  155.0871 S   0  0  0  0  0  0  0  0  0  0  0  0
  150.3929  137.9176  153.9436 N   0  0  0  0  0  0  0  0  0  0  0  0
  148.8662  137.2408  155.9114 O   0  0  0  0  0  0  0  0  0  0  0  0
  148.1647  139.1426  154.3515 O   0  0  0  0  0  0  0  0  0  0  0  0
  150.2735  140.9124  155.6236 C   0  0  0  0  0  0  0  0  0  0  0  0
  150.9902  141.8391  156.4047 C   0  0  0  0  0  0  0  0  0  0  0  0
  151.5443  141.4235  157.6308 C   0  0  0  0  0  0  0  0  0  0  0  0
  149.8801  145.2330  160.7851 H   0  0  0  0  0  0  0  0  0  0  0  0
  150.8622  146.2789  159.7588 H   0  0  0  0  0  0  0  0  0  0  0  0
  151.6173  144.9514  160.6600 H   0  0  0  0  0  0  0  0  0  0  0  0
  151.2012  143.9869  157.1211 H   0  0  0  0  0  0  0  0  0  0  0  0
  151.9254  145.3762  157.9270 H   0  0  0  0  0  0  0  0  0  0  0  0
  153.5728  143.5816  158.0166 H   0  0  0  0  0  0  0  0  0  0  0  0
  152.9476  143.7646  159.6348 H   0  0  0  0  0  0  0  0  0  0  0  0
  154.5048  139.6412  160.6586 H   0  0  0  0  0  0  0  0  0  0  0  0
  155.7474  140.1103  162.7588 H   0  0  0  0  0  0  0  0  0  0  0  0
  155.2015  142.1296  164.1058 H   0  0  0  0  0  0  0  0  0  0  0  0
  152.1624  143.2183  161.2523 H   0  0  0  0  0  0  0  0  0  0  0  0
  150.5492  138.1536  157.6476 H   0  0  0  0  0  0  0  0  0  0  0  0
  149.9689  137.4123  153.1662 H   0  0  0  0  0  0  0  0  0  0  0  0
  151.1256  137.3645  154.3876 H   0  0  0  0  0  0  0  0  0  0  0  0
  149.8423  141.2233  154.6832 H   0  0  0  0  0  0  0  0  0  0  0  0
  151.1097  142.8575  156.0659 H   0  0  0  0  0  0  0  0  0  0  0  0
  1  2  1  0  0  0  0
  1 25  1  0  0  0  0
  1 26  1  0  0  0  0
  1 27  1  0  0  0  0
  2  3  1  0  0  0  0
  3  4  1  0  0  0  0
  3 28  1  0  0  0  0
  3 29  1  0  0  0  0
  4  5  1  0  0  0  0
  4 30  1  0  0  0  0
  4 31  1  0  0  0  0
  5 24  1  0  0  0  0
  5  6  1  0  0  0  0
  6  7  1  0  0  0  0
  6 14  2  0  0  0  0
  7 13  1  0  0  0  0
  7  8  2  0  0  0  0
  8  9  1  0  0  0  0
  8 32  1  0  0  0  0
  9 10  2  0  0  0  0
  9 33  1  0  0  0  0
 10 11  1  0  0  0  0
 10 34  1  0  0  0  0
 11 12  1  0  0  0  0
 11 13  2  0  0  0  0
 13 35  1  0  0  0  0
 14 15  1  0  0  0  0
 15 24  2  0  0  0  0
 15 16  1  0  0  0  0
 16 17  2  0  0  0  0
 16 36  1  0  0  0  0
 17 18  1  0  0  0  0
 17 22  1  0  0  0  0
 18 19  1  0  0  0  0
 18 20  2  0  0  0  0
 18 21  2  0  0  0  0
 19 37  1  0  0  0  0
 19 38  1  0  0  0  0
 22 23  2  0  0  0  0
 22 39  1  0  0  0  0
 23 24  1  0  0  0  0
 23 40  1  0  0  0  0
M  END
> <s_m_source_file>
AV-unprocessed.smi

> <i_m_source_file_index>
2867

> <i_lp_mmshare_version>
43012

> <i_f3d_flags>
0

> <s_epik_input>
W05IMl1TKD1PKSg9TyljKFtjSF0xKVtjSF1bY0hdYyhjMTIpbihbQ0gyXVtDSDJdT1tDSDNdKWMobjIpLWMzW2NIXVtjSF1bY0hdYyhGKVtjSF0z

> <s_epik_cmdline>
J2VwaWtfcHl0aG9uJywgJy1waCcsICc3LjAnLCAnLXRuJywgJzgnLCAnLW1hJywgJzIwMCcsICctbWV0YWxfYmluZGluZycsICctaW1hZScsICc8aW5maWxlLm1hZT4nLCAnLW9tYWUnLCAnPG91dGZpbGUubWFlPic=

> <r_epik_Ionization_Penalty>
0.0786023

> <r_epik_Ionization_Penalty_Charging>
0

> <r_epik_Ionization_Penalty_Neutral>
0.0786023

> <r_epik_State_Penalty>
0.0592545

> <r_epik_Charging_Adjusted_Penalty>
0.0592545

> <i_epik_Tot_Q>
0

> <i_epik_Tot_abs_Q>
0

> <r_epik_Metal_State_Penalty>
0.300641

> <b_epik_Metal_Only>
0

> <s_lp_Force_Field>
OPLS_2005

> <r_lp_Energy>
19.4946

> <b_lp_Chiralities_Consistent>
1

> <s_lp_Variant>
AV-unprocessed.smi:2867-1

> <Gold.Version>
5.8.1

> <Gold.Id.Protein>
6NUR|6NUR_protein|mol2

> <Gold.PLP.Fitness>
51.2580

> <Gold.PLP.PLP>
-49.7330

> <Gold.PLP.part.hbond>
-2.2412

> <Gold.PLP.part.metal>
0.0000

> <Gold.PLP.part.buried>
-2.5075

> <Gold.PLP.part.nonpolar>
-43.3588

> <Gold.PLP.part.repulsive>
0.3833

> <Gold.PLP.ligand.clash>
0.0000

> <Gold.PLP.ligand.torsion>
2.1950

> <Gold.PLP.Chemscore.Hbond>
0.9600

> <Gold.PLP.Chemscore.CHOScore>
0.0000

> <Gold.PLP.Chemscore.Metal>
0.0000

> <Gold.Chemscore.Hbonds>
donor molecule, donor type, donor heavy atom, donor atom, acceptor molecule, acceptor atom, score
      L1  H    19    37       P1  7948  1.00

> <Gold.PLP.Chemscore.Internal.Correction>
3.0349

> <Gold.Rescore>
     Score         DG    S(hbond)    S(metal)    S(lipo)     H(rot)  DE(clash)    DE(int)     intcor
     17.39     -19.97       0.98        0.00     127.80       1.45       0.49       2.09       ----

> <Gold.Chemscore.Fitness>
17.3900

> <Gold.Chemscore.DG>
-19.9696

> <Gold.Chemscore.ZeroCoef>
-5.4800

> <Gold.Chemscore.Hbond>
0.9752

> <Gold.Chemscore.Metal>
0.0000

> <Gold.Chemscore.Lipo>
127.7964

> <Gold.Chemscore.Internal_Hbond>
0.0000

> <Gold.Chemscore.DEClash>
0.4852

> <Gold.Chemscore.DEInternal>
2.0944

> <Gold.Chemscore.Rot>
1.4530

> <Gold.Chemscore.Internal.Correction>
   9.000000E+99

> <Gold.Chemscore.Hbonds>
donor molecule, donor type, donor heavy atom, donor atom, acceptor molecule, acceptor atom, score
      L1  H    19    37       P1  7948  0.29

> <Gold.Chemscore.Hbond.Weighted>
-3.2571

> <Gold.Chemscore.Metal.Weighted>
-0.0000

> <Gold.Chemscore.Lipo.Weighted>
-14.9522

> <Gold.Chemscore.Internal_Hbond.Weighted>
0.0000

> <Gold.Chemscore.DEClash.Weighted>
0.4852

> <Gold.Chemscore.DEInternal.Weighted>
2.0944

> <Gold.Chemscore.Rot.Weighted>
3.7196

> <Gold.Chemscore.Internal.Correction.Weighted>
   9.000000E+99

> <Gold.Protein.RotatedTorsions>
[ 6907 6896 6895 6894 ] final -156.86 input  -60.11 | X-H torsion
[ 7974 7965 7964 7962 ] final  -17.06 input  175.53 | X-H torsion
[ 8008 7997 7996 7995 ] final   51.25 input   59.86 | X-H torsion
[ 10167 10162 10161 10158 ] final  -66.76 input  -65.29 | X-H torsion
[ 10718 10713 10712 10709 ] final -150.06 input   66.30 | X-H torsion
[ 10763 10752 10751 10750 ] final  161.43 input  -60.55 | X-H torsion
[ 11005 11000 10999 10996 ] final  -84.09 input  -57.11 | X-H torsion

> <Gold.Protein.ActiveResidues>
 VAL166  LYS551  ARG553  GLY616  TRP617  ASP618  TYR619  PRO620  LYS621  CYS622 
 ASP623  PHE694  ASN695  SER759  ASP760  ASP761  ALA762  ILE779  LEU786  VAL792 
 PHE793  MET794  SER795  GLU796  ALA797  LYS798  CYS799  TRP800  GLU811  SER814 

> <Gold.Protein.RotatedAtoms>
  151.2941  133.4152  159.2634 H   0  0  0  0  0  0  0  0  0  0  0  0  # atno 6907 bound_to 6896
  151.0252  134.9499  159.8091 H   0  0  0  0  0  0  0  0  0  0  0  0  # atno 6908 bound_to 6896
  152.5333  134.2903  159.9093 H   0  0  0  0  0  0  0  0  0  0  0  0  # atno 6909 bound_to 6896
  146.1959  140.3725  142.8441 H   0  0  0  0  0  0  0  0  0  0  0  0  # atno 7974 bound_to 7965
  155.4323  140.3451  155.4281 H   0  0  0  0  0  0  0  0  0  0  0  0  # atno 8008 bound_to 7997
  156.1329  140.1519  156.9069 H   0  0  0  0  0  0  0  0  0  0  0  0  # atno 8009 bound_to 7997
  154.4909  140.0841  156.7571 H   0  0  0  0  0  0  0  0  0  0  0  0  # atno 8010 bound_to 7997
  140.5633  143.2313  151.6684 H   0  0  0  0  0  0  0  0  0  0  0  0  # atno 10167 bound_to 10162
  156.4412  130.8122  151.2352 H   0  0  0  0  0  0  0  0  0  0  0  0  # atno 10718 bound_to 10713
  154.2628  135.2768  155.2771 H   0  0  0  0  0  0  0  0  0  0  0  0  # atno 10763 bound_to 10752
  154.5369  135.5714  153.6809 H   0  0  0  0  0  0  0  0  0  0  0  0  # atno 10764 bound_to 10752
  152.9959  135.6241  154.2780 H   0  0  0  0  0  0  0  0  0  0  0  0  # atno 10765 bound_to 10752
  141.1653  133.7328  156.8816 H   0  0  0  0  0  0  0  0  0  0  0  0  # atno 11005 bound_to 11000
  144.8579  140.7097  143.6126 LP  0  0  0  0  0  0  0  0  0  0  0  0  # atno 17320 bound_to 7965
  145.3646  139.1673  143.4365 LP  0  0  0  0  0  0  0  0  0  0  0  0  # atno 17321 bound_to 7965
  139.5080  144.3624  152.0549 LP  0  0  0  0  0  0  0  0  0  0  0  0  # atno 17342 bound_to 10162
  140.2753  144.3919  150.6137 LP  0  0  0  0  0  0  0  0  0  0  0  0  # atno 17343 bound_to 10162
  157.7506  131.0168  150.3558 LP  0  0  0  0  0  0  0  0  0  0  0  0  # atno 17370 bound_to 10713
  156.3916  130.3899  149.7026 LP  0  0  0  0  0  0  0  0  0  0  0  0  # atno 17371 bound_to 10713
  140.1711  134.9099  157.2834 LP  0  0  0  0  0  0  0  0  0  0  0  0  # atno 17394 bound_to 11000
  140.2501  134.3693  155.7445 LP  0  0  0  0  0  0  0  0  0  0  0  0  # atno 17395 bound_to 11000

$$$$
