AV-unprocessed.smi:2510|AV-procd|sdf|9878|dock5
  -GOLD-   2272013513D 1   1.00000     0.00000
 Structure written by MMmdl.
 48 49  0  0  0  0  0  0  0  0  1 V2000
  145.9637  142.9658  153.6998 C   0  0  0  0  0  0  0  0  0  0  0  0
  147.3390  142.3947  154.0799 C   0  0  0  0  0  0  0  0  0  0  0  0
  147.4031  140.8479  154.1962 C   0  0  0  0  0  0  0  0  0  0  0  0
  147.0969  140.2403  152.8051 C   0  0  0  0  0  0  0  0  0  0  0  0
  146.7371  138.7448  152.8070 C   0  0  0  0  0  0  0  0  0  0  0  0
  148.6419  140.2092  154.8983 C   0  0  1  0  0  0  0  0  0  0  0  0
  149.3044  141.0961  155.8522 N   0  0  0  0  0  0  0  0  0  0  0  0
  150.6285  141.1841  156.0442 C   0  0  0  0  0  0  0  0  0  0  0  0
  151.4437  140.4309  155.5132 O   0  0  0  0  0  0  0  0  0  0  0  0
  151.1026  142.3220  156.9503 C   0  0  0  0  0  0  0  0  0  0  0  0
  151.8349  141.7756  158.1364 C   0  0  0  0  0  0  0  0  0  0  0  0
  152.4769  142.4043  159.1670 C   0  0  0  0  0  0  0  0  0  0  0  0
  153.0310  141.3415  159.9382 C   0  0  0  0  0  0  0  0  0  0  0  0
  153.8723  141.4379  161.1760 C   0  0  0  0  0  0  0  0  0  0  0  0
  152.7373  140.1494  159.4409 N   0  0  0  0  0  0  0  0  0  0  0  0
  152.0072  140.4260  158.3445 N   0  0  0  0  0  0  0  0  0  0  0  0
  147.7002  139.2208  155.6091 C   0  0  1  0  0  0  0  0  0  0  0  0
  147.9979  138.7154  157.0197 C   0  0  0  0  0  0  0  0  0  0  0  0
  146.5635  140.2260  155.3459 C   0  0  1  0  0  0  0  0  0  0  0  0
  146.3844  141.1403  156.4233 O   0  0  0  0  0  0  0  0  0  0  0  0
  145.6926  140.5808  157.5255 C   0  0  0  0  0  0  0  0  0  0  0  0
  151.6510  139.6939  157.7464 H   0  0  0  0  0  0  0  0  0  0  0  0
  145.9726  144.0536  153.7680 H   0  0  0  0  0  0  0  0  0  0  0  0
  145.1830  142.6019  154.3679 H   0  0  0  0  0  0  0  0  0  0  0  0
  145.6832  142.7124  152.6781 H   0  0  0  0  0  0  0  0  0  0  0  0
  148.0923  142.7655  153.3856 H   0  0  0  0  0  0  0  0  0  0  0  0
  147.6023  142.8568  155.0301 H   0  0  0  0  0  0  0  0  0  0  0  0
  146.2596  140.7676  152.3483 H   0  0  0  0  0  0  0  0  0  0  0  0
  147.9239  140.4099  152.1165 H   0  0  0  0  0  0  0  0  0  0  0  0
  146.4118  138.4307  151.8151 H   0  0  0  0  0  0  0  0  0  0  0  0
  145.9271  138.5255  153.5024 H   0  0  0  0  0  0  0  0  0  0  0  0
  147.5895  138.1213  153.0747 H   0  0  0  0  0  0  0  0  0  0  0  0
  149.3323  139.7054  154.2205 H   0  0  0  0  0  0  0  0  0  0  0  0
  148.7144  141.7610  156.3318 H   0  0  0  0  0  0  0  0  0  0  0  0
  151.7529  142.9854  156.3796 H   0  0  0  0  0  0  0  0  0  0  0  0
  150.2479  142.9178  157.2733 H   0  0  0  0  0  0  0  0  0  0  0  0
  152.5623  143.4682  159.3309 H   0  0  0  0  0  0  0  0  0  0  0  0
  154.0114  142.4762  161.4776 H   0  0  0  0  0  0  0  0  0  0  0  0
  154.8601  141.0064  161.0119 H   0  0  0  0  0  0  0  0  0  0  0  0
  153.4099  140.9085  162.0091 H   0  0  0  0  0  0  0  0  0  0  0  0
  147.5556  138.3627  154.9510 H   0  0  0  0  0  0  0  0  0  0  0  0
  148.0708  139.5296  157.7410 H   0  0  0  0  0  0  0  0  0  0  0  0
  148.9396  138.1673  157.0483 H   0  0  0  0  0  0  0  0  0  0  0  0
  147.2160  138.0402  157.3672 H   0  0  0  0  0  0  0  0  0  0  0  0
  145.6321  139.7754  154.9976 H   0  0  0  0  0  0  0  0  0  0  0  0
  145.6241  141.3192  158.3243 H   0  0  0  0  0  0  0  0  0  0  0  0
  146.2057  139.7032  157.9189 H   0  0  0  0  0  0  0  0  0  0  0  0
  144.6785  140.2950  157.2443 H   0  0  0  0  0  0  0  0  0  0  0  0
  1  2  1  0  0  0  0
  1 23  1  0  0  0  0
  1 24  1  0  0  0  0
  1 25  1  0  0  0  0
  2  3  1  0  0  0  0
  2 26  1  0  0  0  0
  2 27  1  0  0  0  0
  3 19  1  0  0  0  0
  3  4  1  0  0  0  0
  3  6  1  0  0  0  0
  4  5  1  0  0  0  0
  4 28  1  0  0  0  0
  4 29  1  0  0  0  0
  5 30  1  0  0  0  0
  5 31  1  0  0  0  0
  5 32  1  0  0  0  0
  6  7  1  0  0  0  0
  6 17  1  0  0  0  0
  6 33  1  0  0  0  0
  7  8  1  0  0  0  0
  7 34  1  0  0  0  0
  8  9  2  0  0  0  0
  8 10  1  0  0  0  0
 10 35  1  0  0  0  0
 10 36  1  0  0  0  0
 10 11  1  0  0  0  0
 11 16  1  0  0  0  0
 11 12  2  0  0  0  0
 12 13  1  0  0  0  0
 12 37  1  0  0  0  0
 13 14  1  0  0  0  0
 13 15  2  0  0  0  0
 14 38  1  0  0  0  0
 14 39  1  0  0  0  0
 14 40  1  0  0  0  0
 15 16  1  0  0  0  0
 16 22  1  0  0  0  0
 17 18  1  0  0  0  0
 17 19  1  0  0  0  0
 17 41  1  0  0  0  0
 18 42  1  0  0  0  0
 18 43  1  0  0  0  0
 18 44  1  0  0  0  0
 19 20  1  0  0  0  0
 19 45  1  0  0  0  0
 20 21  1  0  0  0  0
 21 46  1  0  0  0  0
 21 47  1  0  0  0  0
 21 48  1  0  0  0  0
M  END
> <s_m_source_file>
AV-unprocessed.smi

> <i_m_source_file_index>
2510

> <i_lp_mmshare_version>
43012

> <i_f3d_flags>
0

> <s_epik_input>
W0NIM11PW0NAQEhdMVtDQEhdKFtDSDNdKVtDQEBIXShDMShbQ0gyXVtDSDNdKVtDSDJdW0NIM10pW05IXUMoPU8pW0NIMl1jMltjSF1jKFtDSDNdKVtuSF1uMg==

> <s_epik_cmdline>
J2VwaWtfcHl0aG9uJywgJy1waCcsICc3LjAnLCAnLXRuJywgJzgnLCAnLW1hJywgJzIwMCcsICctbWV0YWxfYmluZGluZycsICctaW1hZScsICc8aW5maWxlLm1hZT4nLCAnLW9tYWUnLCAnPG91dGZpbGUubWFlPic=

> <r_lp_tautomer_probability>
0.5

> <r_epik_Ionization_Penalty>
0.000134763

> <r_epik_Ionization_Penalty_Charging>
0

> <r_epik_Ionization_Penalty_Neutral>
0.000134763

> <r_epik_State_Penalty>
0.41068

> <r_epik_Charging_Adjusted_Penalty>
0.41068

> <i_epik_Tot_Q>
0

> <i_epik_Tot_abs_Q>
0

> <r_epik_Metal_State_Penalty>
0.410661

> <b_epik_Metal_Only>
0

> <s_lp_Force_Field>
OPLS_2005

> <r_lp_Energy>
25.663

> <b_lp_Chiralities_Consistent>
1

> <s_lp_Variant>
AV-unprocessed.smi:2510-9

> <Gold.Version>
5.8.1

> <Gold.Id.Protein>
6NUR|6NUR_protein|mol2

> <Gold.PLP.Fitness>
37.4112

> <Gold.PLP.PLP>
-35.2911

> <Gold.PLP.part.hbond>
-1.0000

> <Gold.PLP.part.metal>
0.0000

> <Gold.PLP.part.buried>
-3.7929

> <Gold.PLP.part.nonpolar>
-30.6781

> <Gold.PLP.part.repulsive>
0.2221

> <Gold.PLP.ligand.clash>
0.0000

> <Gold.PLP.ligand.torsion>
0.5165

> <Gold.PLP.Chemscore.Hbond>
0.8320

> <Gold.PLP.Chemscore.CHOScore>
0.0000

> <Gold.PLP.Chemscore.Metal>
0.0000

> <Gold.Chemscore.Hbonds>
donor molecule, donor type, donor heavy atom, donor atom, acceptor molecule, acceptor atom, score
      P1  H  7989  7998       L1     9  0.80

> <Gold.PLP.Chemscore.Internal.Correction>
0.6571

> <Gold.Rescore>
     Score         DG    S(hbond)    S(metal)    S(lipo)     H(rot)  DE(clash)    DE(int)     intcor
     12.67     -14.62       0.84        0.00      93.73       1.81       0.28       1.66       ----

> <Gold.Chemscore.Fitness>
12.6738

> <Gold.Chemscore.DG>
-14.6157

> <Gold.Chemscore.ZeroCoef>
-5.4800

> <Gold.Chemscore.Hbond>
0.8394

> <Gold.Chemscore.Metal>
0.0000

> <Gold.Chemscore.Lipo>
93.7290

> <Gold.Chemscore.Internal_Hbond>
0.0000

> <Gold.Chemscore.DEClash>
0.2802

> <Gold.Chemscore.DEInternal>
1.6617

> <Gold.Chemscore.Rot>
1.8102

> <Gold.Chemscore.Internal.Correction>
   9.000000E+99

> <Gold.Chemscore.Hbonds>
donor molecule, donor type, donor heavy atom, donor atom, acceptor molecule, acceptor atom, score
      P1  H  7989  7998       L1     9  0.59

> <Gold.Chemscore.Hbond.Weighted>
-2.8035

> <Gold.Chemscore.Metal.Weighted>
-0.0000

> <Gold.Chemscore.Lipo.Weighted>
-10.9663

> <Gold.Chemscore.Internal_Hbond.Weighted>
0.0000

> <Gold.Chemscore.DEClash.Weighted>
0.2802

> <Gold.Chemscore.DEInternal.Weighted>
1.6617

> <Gold.Chemscore.Rot.Weighted>
4.6341

> <Gold.Chemscore.Internal.Correction.Weighted>
   9.000000E+99

> <Gold.Protein.RotatedTorsions>
[ 6907 6896 6895 6894 ] final   73.91 input  -60.11 | X-H torsion
[ 7974 7965 7964 7962 ] final  152.58 input  175.53 | X-H torsion
[ 8008 7997 7996 7995 ] final   94.92 input   59.86 | X-H torsion
[ 10167 10162 10161 10158 ] final   34.24 input  -65.29 | X-H torsion
[ 10718 10713 10712 10709 ] final -107.81 input   66.30 | X-H torsion
[ 10763 10752 10751 10750 ] final  174.64 input  -60.55 | X-H torsion
[ 11005 11000 10999 10996 ] final    9.73 input  -57.11 | X-H torsion

> <Gold.Protein.ActiveResidues>
 VAL166  LYS551  ARG553  GLY616  TRP617  ASP618  TYR619  PRO620  LYS621  CYS622 
 ASP623  PHE694  ASN695  SER759  ASP760  ASP761  ALA762  ILE779  LEU786  VAL792 
 PHE793  MET794  SER795  GLU796  ALA797  LYS798  CYS799  TRP800  GLU811  SER814 

> <Gold.Protein.RotatedAtoms>
  152.4948  134.4351  159.9524 H   0  0  0  0  0  0  0  0  0  0  0  0  # atno 6907 bound_to 6896
  151.4332  133.3658  159.2779 H   0  0  0  0  0  0  0  0  0  0  0  0  # atno 6908 bound_to 6896
  150.9140  134.8580  159.7504 H   0  0  0  0  0  0  0  0  0  0  0  0  # atno 6909 bound_to 6896
  144.8213  139.6687  143.6099 H   0  0  0  0  0  0  0  0  0  0  0  0  # atno 7974 bound_to 7965
  156.0633  140.3293  155.7487 H   0  0  0  0  0  0  0  0  0  0  0  0  # atno 8008 bound_to 7997
  155.5421  140.0602  157.2885 H   0  0  0  0  0  0  0  0  0  0  0  0  # atno 8009 bound_to 7997
  154.4492  140.1909  156.0590 H   0  0  0  0  0  0  0  0  0  0  0  0  # atno 8010 bound_to 7997
  140.4333  144.1293  150.6162 H   0  0  0  0  0  0  0  0  0  0  0  0  # atno 10167 bound_to 10162
  156.0455  130.5681  150.7874 H   0  0  0  0  0  0  0  0  0  0  0  0  # atno 10718 bound_to 10713
  154.4567  135.2766  155.1742 H   0  0  0  0  0  0  0  0  0  0  0  0  # atno 10763 bound_to 10752
  154.3547  135.6142  153.5664 H   0  0  0  0  0  0  0  0  0  0  0  0  # atno 10764 bound_to 10752
  152.9851  135.5820  154.4922 H   0  0  0  0  0  0  0  0  0  0  0  0  # atno 10765 bound_to 10752
  140.5224  134.0545  155.7849 H   0  0  0  0  0  0  0  0  0  0  0  0  # atno 11005 bound_to 11000
  146.2518  139.6216  142.9422 LP  0  0  0  0  0  0  0  0  0  0  0  0  # atno 17320 bound_to 7965
  145.5100  141.0435  143.2493 LP  0  0  0  0  0  0  0  0  0  0  0  0  # atno 17321 bound_to 7965
  140.4402  143.2529  151.9482 LP  0  0  0  0  0  0  0  0  0  0  0  0  # atno 17342 bound_to 10162
  139.4786  144.5661  151.8163 LP  0  0  0  0  0  0  0  0  0  0  0  0  # atno 17343 bound_to 10162
  157.5324  131.0937  150.9937 LP  0  0  0  0  0  0  0  0  0  0  0  0  # atno 17370 bound_to 10713
  157.0240  130.5685  149.5335 LP  0  0  0  0  0  0  0  0  0  0  0  0  # atno 17371 bound_to 10713
  141.1326  133.9275  157.2502 LP  0  0  0  0  0  0  0  0  0  0  0  0  # atno 17394 bound_to 11000
  139.9598  135.0157  156.9230 LP  0  0  0  0  0  0  0  0  0  0  0  0  # atno 17395 bound_to 11000

$$$$
