AV-unprocessed.smi:2482|AV-procd|sdf|9778|dock4
  -GOLD-   2272013423D 1   1.00000     0.00000
 Structure written by MMmdl.
 35 36  0  0  0  0  0  0  0  0  2 V2000
  152.4084  143.6647  160.2386 C   0  0  0  0  0  0  0  0  0  0  0  0
  152.6160  142.2629  159.6961 C   0  0  0  0  0  0  0  0  0  0  0  0
  153.5308  141.5127  160.3480 N   0  0  0  0  0  0  0  0  0  0  0  0
  153.7581  140.2600  159.9034 C   0  0  0  0  0  0  0  0  0  0  0  0
  153.0879  139.6954  158.8014 C   0  0  0  0  0  0  0  0  0  0  0  0
  152.1171  140.4731  158.1256 C   0  0  0  0  0  0  0  0  0  0  0  0
  151.3958  140.0133  156.9892 N   0  0  0  0  0  0  0  0  0  0  0  0
  151.8321  139.2856  155.9438 C   0  0  0  0  0  0  0  0  0  0  0  0
  152.9923  138.8996  155.8019 O   0  0  0  0  0  0  0  0  0  0  0  0
  150.7752  138.9414  154.8827 C   0  0  1  0  0  0  0  0  0  0  0  0
  149.6881  137.9762  155.4113 C   0  0  0  0  0  0  0  0  0  0  0  0
  148.6555  137.7357  154.3772 N   0  3  1  0  0  0  0  0  0  0  0  0
  147.6127  136.7872  154.8230 C   0  0  0  0  0  0  0  0  0  0  0  0
  148.0925  139.0124  153.8839 C   0  0  0  0  0  0  0  0  0  0  0  0
  149.2194  139.9358  153.3956 C   0  0  0  0  0  0  0  0  0  0  0  0
  150.1494  140.1491  154.4501 O   0  0  0  0  0  0  0  0  0  0  0  0
  151.8871  141.7934  158.5781 C   0  0  0  0  0  0  0  0  0  0  0  0
  150.7318  142.8120  157.7848 Cl  0  0  0  0  0  0  0  0  0  0  0  0
  151.3720  143.8008  160.5485 H   0  0  0  0  0  0  0  0  0  0  0  0
  152.6413  144.4065  159.4743 H   0  0  0  0  0  0  0  0  0  0  0  0
  153.0458  143.8592  161.1023 H   0  0  0  0  0  0  0  0  0  0  0  0
  154.5036  139.6908  160.4386 H   0  0  0  0  0  0  0  0  0  0  0  0
  153.3409  138.6928  158.4937 H   0  0  0  0  0  0  0  0  0  0  0  0
  150.4017  140.1903  157.0142 H   0  0  0  0  0  0  0  0  0  0  0  0
  151.2964  138.4853  154.0392 H   0  0  0  0  0  0  0  0  0  0  0  0
  150.1352  137.0219  155.6942 H   0  0  0  0  0  0  0  0  0  0  0  0
  149.2162  138.3880  156.3055 H   0  0  0  0  0  0  0  0  0  0  0  0
  147.0603  137.1837  155.6759 H   0  0  0  0  0  0  0  0  0  0  0  0
  148.0588  135.8364  155.1166 H   0  0  0  0  0  0  0  0  0  0  0  0
  146.9041  136.5882  154.0184 H   0  0  0  0  0  0  0  0  0  0  0  0
  147.3935  138.8172  153.0698 H   0  0  0  0  0  0  0  0  0  0  0  0
  147.5294  139.4992  154.6819 H   0  0  0  0  0  0  0  0  0  0  0  0
  149.7256  139.5103  152.5278 H   0  0  0  0  0  0  0  0  0  0  0  0
  148.8099  140.8974  153.0858 H   0  0  0  0  0  0  0  0  0  0  0  0
  149.1238  137.3033  153.5934 H   0  0  0  0  0  0  0  0  0  0  0  0
  1  2  1  0  0  0  0
  1 19  1  0  0  0  0
  1 20  1  0  0  0  0
  1 21  1  0  0  0  0
  2 17  1  0  0  0  0
  2  3  2  0  0  0  0
  3  4  1  0  0  0  0
  4  5  2  0  0  0  0
  4 22  1  0  0  0  0
  5  6  1  0  0  0  0
  5 23  1  0  0  0  0
  6  7  1  0  0  0  0
  6 17  2  0  0  0  0
  7  8  1  0  0  0  0
  7 24  1  0  0  0  0
  8  9  2  0  0  0  0
  8 10  1  0  0  0  0
 10 16  1  0  0  0  0
 10 11  1  0  0  0  0
 10 25  1  0  0  0  0
 11 12  1  0  0  0  0
 11 26  1  0  0  0  0
 11 27  1  0  0  0  0
 12 13  1  0  0  0  0
 12 14  1  0  0  0  0
 12 35  1  0  0  0  0
 13 28  1  0  0  0  0
 13 29  1  0  0  0  0
 13 30  1  0  0  0  0
 14 15  1  0  0  0  0
 14 31  1  0  0  0  0
 14 32  1  0  0  0  0
 15 16  1  0  0  0  0
 15 33  1  0  0  0  0
 15 34  1  0  0  0  0
 17 18  1  0  0  0  0
M  CHG  1  12   1
M  END
> <s_m_source_file>
AV-unprocessed.smi

> <i_m_source_file_index>
2482

> <i_lp_mmshare_version>
43012

> <i_f3d_flags>
0

> <s_epik_input>
W0NIM11jMW5bY0hdW2NIXWMoYzFDbClbTkhdQyg9TylbQ0BASF0yW0NIMl1OKFtDSDNdKVtDSDJdW0NIMl1PMg==

> <s_epik_cmdline>
J2VwaWtfcHl0aG9uJywgJy1waCcsICc3LjAnLCAnLXRuJywgJzgnLCAnLW1hJywgJzIwMCcsICctbWV0YWxfYmluZGluZycsICctaW1hZScsICc8aW5maWxlLm1hZT4nLCAnLW9tYWUnLCAnPG91dGZpbGUubWFlPic=

> <r_epik_Ionization_Penalty>
0.314226

> <r_epik_Ionization_Penalty_Charging>
0.314023

> <r_epik_Ionization_Penalty_Neutral>
0.00020299

> <r_epik_State_Penalty>
0.308208

> <r_epik_Charging_Adjusted_Penalty>
0.62223

> <i_epik_Tot_Q>
1

> <i_epik_Tot_abs_Q>
1

> <r_epik_Metal_State_Penalty>
0.314444

> <b_epik_Metal_Only>
0

> <s_lp_Force_Field>
OPLS_2005

> <r_lp_Energy>
22.3096

> <b_lp_Chiralities_Consistent>
1

> <s_lp_Variant>
AV-unprocessed.smi:2482-4

> <Gold.Version>
5.8.1

> <Gold.Id.Protein>
6NUR|6NUR_protein|mol2

> <Gold.PLP.Fitness>
39.2585

> <Gold.PLP.PLP>
-28.0754

> <Gold.PLP.part.hbond>
-3.0000

> <Gold.PLP.part.metal>
0.0000

> <Gold.PLP.part.buried>
1.4113

> <Gold.PLP.part.nonpolar>
-26.7283

> <Gold.PLP.part.repulsive>
0.1925

> <Gold.PLP.ligand.clash>
0.0000

> <Gold.PLP.ligand.torsion>
0.4091

> <Gold.PLP.Chemscore.Hbond>
4.0000

> <Gold.PLP.Chemscore.CHOScore>
0.0000

> <Gold.PLP.Chemscore.Metal>
0.0000

> <Gold.Chemscore.Hbonds>
donor molecule, donor type, donor heavy atom, donor atom, acceptor molecule, acceptor atom, score
      L1  H    12    35       P1  7948  1.95
      P1  H  7989  7998       L1    16  0.90
      P1  H  7997  8009       L1     9  1.00

> <Gold.PLP.Chemscore.Internal.Correction>
0.0014

> <Gold.Rescore>
     Score         DG    S(hbond)    S(metal)    S(lipo)     H(rot)  DE(clash)    DE(int)     intcor
     16.16     -19.30       1.93        0.00      84.93       1.00       1.96       1.19       ----

> <Gold.Chemscore.Fitness>
16.1580

> <Gold.Chemscore.DG>
-19.3006

> <Gold.Chemscore.ZeroCoef>
-5.4800

> <Gold.Chemscore.Hbond>
1.9293

> <Gold.Chemscore.Metal>
0.0000

> <Gold.Chemscore.Lipo>
84.9284

> <Gold.Chemscore.Internal_Hbond>
0.0000

> <Gold.Chemscore.DEClash>
1.9564

> <Gold.Chemscore.DEInternal>
1.1862

> <Gold.Chemscore.Rot>
1.0000

> <Gold.Chemscore.Internal.Correction>
   9.000000E+99

> <Gold.Chemscore.Hbonds>
donor molecule, donor type, donor heavy atom, donor atom, acceptor molecule, acceptor atom, score
      L1  H    12    35       P1  7948  0.87
      P1  H  7989  7998       L1    16  0.05
      P1  H  7997  8009       L1     9  0.91

> <Gold.Chemscore.Hbond.Weighted>
-6.4440

> <Gold.Chemscore.Metal.Weighted>
-0.0000

> <Gold.Chemscore.Lipo.Weighted>
-9.9366

> <Gold.Chemscore.Internal_Hbond.Weighted>
0.0000

> <Gold.Chemscore.DEClash.Weighted>
1.9564

> <Gold.Chemscore.DEInternal.Weighted>
1.1862

> <Gold.Chemscore.Rot.Weighted>
2.5600

> <Gold.Chemscore.Internal.Correction.Weighted>
   9.000000E+99

> <Gold.Protein.RotatedTorsions>
[ 6907 6896 6895 6894 ] final -101.85 input  -60.11 | X-H torsion
[ 7974 7965 7964 7962 ] final -129.28 input  175.53 | X-H torsion
[ 8008 7997 7996 7995 ] final -164.61 input   59.86 | X-H torsion
[ 10167 10162 10161 10158 ] final  122.26 input  -65.29 | X-H torsion
[ 10718 10713 10712 10709 ] final  104.28 input   66.30 | X-H torsion
[ 10763 10752 10751 10750 ] final  154.88 input  -60.55 | X-H torsion
[ 11005 11000 10999 10996 ] final  109.96 input  -57.11 | X-H torsion

> <Gold.Protein.ActiveResidues>
 VAL166  LYS551  ARG553  GLY616  TRP617  ASP618  TYR619  PRO620  LYS621  CYS622 
 ASP623  PHE694  ASN695  SER759  ASP760  ASP761  ALA762  ILE779  LEU786  VAL792 
 PHE793  MET794  SER795  GLU796  ALA797  LYS798  CYS799  TRP800  GLU811  SER814 

> <Gold.Protein.RotatedAtoms>
  150.7171  134.0672  159.3851 H   0  0  0  0  0  0  0  0  0  0  0  0  # atno 6907 bound_to 6896
  151.8653  135.0507  160.0483 H   0  0  0  0  0  0  0  0  0  0  0  0  # atno 6908 bound_to 6896
  152.2685  133.5325  159.5461 H   0  0  0  0  0  0  0  0  0  0  0  0  # atno 6909 bound_to 6896
  144.9587  140.7424  143.4742 H   0  0  0  0  0  0  0  0  0  0  0  0  # atno 7974 bound_to 7965
  155.8380  140.0944  157.1752 H   0  0  0  0  0  0  0  0  0  0  0  0  # atno 8008 bound_to 7997
  154.3981  140.1406  156.3755 H   0  0  0  0  0  0  0  0  0  0  0  0  # atno 8009 bound_to 7997
  155.8095  140.3450  155.5451 H   0  0  0  0  0  0  0  0  0  0  0  0  # atno 8010 bound_to 7997
  139.5869  144.7010  151.3385 H   0  0  0  0  0  0  0  0  0  0  0  0  # atno 10167 bound_to 10162
  157.6745  131.0800  150.5682 H   0  0  0  0  0  0  0  0  0  0  0  0  # atno 10718 bound_to 10713
  154.1595  135.2810  155.3113 H   0  0  0  0  0  0  0  0  0  0  0  0  # atno 10763 bound_to 10752
  154.6157  135.5484  153.7525 H   0  0  0  0  0  0  0  0  0  0  0  0  # atno 10764 bound_to 10752
  153.0197  135.6426  154.1737 H   0  0  0  0  0  0  0  0  0  0  0  0  # atno 10765 bound_to 10752
  139.8872  134.9472  156.6205 H   0  0  0  0  0  0  0  0  0  0  0  0  # atno 11005 bound_to 11000
  145.2733  139.1946  143.4830 LP  0  0  0  0  0  0  0  0  0  0  0  0  # atno 17320 bound_to 7965
  146.3346  140.2682  142.8605 LP  0  0  0  0  0  0  0  0  0  0  0  0  # atno 17321 bound_to 7965
  140.7140  143.7317  150.7619 LP  0  0  0  0  0  0  0  0  0  0  0  0  # atno 17342 bound_to 10162
  140.0863  143.4920  152.2503 LP  0  0  0  0  0  0  0  0  0  0  0  0  # atno 17343 bound_to 10162
  156.5984  130.4348  149.5907 LP  0  0  0  0  0  0  0  0  0  0  0  0  # atno 17370 bound_to 10713
  156.2526  130.6916  151.1659 LP  0  0  0  0  0  0  0  0  0  0  0  0  # atno 17371 bound_to 10713
  140.7743  133.8713  155.8516 LP  0  0  0  0  0  0  0  0  0  0  0  0  # atno 17394 bound_to 11000
  140.9815  134.1399  157.4490 LP  0  0  0  0  0  0  0  0  0  0  0  0  # atno 17395 bound_to 11000

$$$$
