#       Name:                AV-unprocessed.smi:1661
#       Creating user name   scv26
#       Creation time:       Fri Mar 27 07:36:25 2020


#       File generated by GOLD software.
#

@<TRIPOS>MOLECULE
AV-unprocessed.smi:1661
    42    43     1
SMALL
NO_CHARGES


@<TRIPOS>ATOM
      1 ****        -3.2133   4.5057   0.2509 C.3            1 S1                 0.0000
      2 ****        -2.7995   3.0726  -0.1121 C.3            1 S1                 0.0000
      3 ****        -2.9777   2.1105   1.0742 C.3            1 S1                 0.0000
      4 ****        -2.5296   0.6849   0.7099 C.3            1 S1                 0.0000
      5 ****        -1.1207   0.6666   0.2382 N.4            1 S1                 1.0000
      6 ****        -0.6251  -0.7135   0.0076 C.3            1 S1                 0.0000
      7 ****         0.9073  -0.8030   0.0733 C.3            1 S1                 0.0000
      8 ****         1.3428  -2.1802  -0.1095 N.am           1 S1                 0.0000
      9 ****         2.6178  -2.5897  -0.1099 C.2            1 S1                 0.0000
     10 ****         3.5246  -1.7709   0.0567 O.2            1 S1                 0.0000
     11 ****         2.7609  -3.9201  -0.3021 N.pl3          1 S1                -1.0000
     12 ****         3.9883  -4.4652  -0.3374 C.2            1 S1                 0.0000
     13 ****         4.6187  -4.7395  -1.4909 N.2            1 S1                 0.0000
     14 ****         5.8737  -5.3038  -1.3065 N.2            1 S1                 0.0000
     15 ****         6.1558  -5.4483  -0.0118 C.2            1 S1                 0.0000
     16 ****         4.9129  -4.9125   1.0992 S.3            1 S1                 0.0000
     17 ****        -0.9284   1.5632  -0.9328 C.3            1 S1                 0.0000
     18 ****        -1.3430   3.0067  -0.6013 C.3            1 S1                 0.0000
     19 ****        -2.6014   4.9034   1.0612 H              1 S1                 0.0000
     20 ****        -4.2550   4.5440   0.5708 H              1 S1                 0.0000
     21 ****        -3.1075   5.1733  -0.6048 H              1 S1                 0.0000
     22 ****        -3.4467   2.7362  -0.9236 H              1 S1                 0.0000
     23 ****        -2.4009   2.4654   1.9297 H              1 S1                 0.0000
     24 ****        -4.0215   2.0966   1.3905 H              1 S1                 0.0000
     25 ****        -2.6336   0.0456   1.5874 H              1 S1                 0.0000
     26 ****        -3.1789   0.2708  -0.0633 H              1 S1                 0.0000
     27 ****        -1.0324  -1.3739   0.7747 H              1 S1                 0.0000
     28 ****        -0.9963  -1.0857  -0.9486 H              1 S1                 0.0000
     29 ****         1.3707  -0.1889  -0.6988 H              1 S1                 0.0000
     30 ****         1.2637  -0.4369   1.0375 H              1 S1                 0.0000
     31 ****         0.6284  -2.8796  -0.2502 H              1 S1                 0.0000
     32 ****         7.0997  -5.8763   0.2907 H              1 S1                 0.0000
     33 ****         0.1149   1.5630  -1.2460 H              1 S1                 0.0000
     34 ****        -1.5104   1.1909  -1.7774 H              1 S1                 0.0000
     35 ****        -1.2170   3.6354  -1.4835 H              1 S1                 0.0000
     36 ****        -0.6761   3.4099   0.1625 H              1 S1                 0.0000
     37 ****        -0.5666   1.0438   0.9939 H              1 S1                 0.0000
     38 ****         3.3069  -0.8043   0.1916 LP             1 S1                 0.0000
     39 ****         4.4778  -2.0735   0.0570 LP             1 S1                 0.0000
     40 ****         1.9534  -4.4984  -0.4179 LP             1 S1                 0.0000
     41 ****         4.2243  -4.5560  -2.3913 LP             1 S1                 0.0000
     42 ****         6.4878  -5.5682  -2.0501 LP             1 S1                 0.0000
@<TRIPOS>BOND
    1    1    2 1     
    2    1   19 1     
    3    1   20 1     
    4    1   21 1     
    5    2   18 1     
    6    2    3 1     
    7    2   22 1     
    8    3    4 1     
    9    3   23 1     
   10    3   24 1     
   11    4    5 1     
   12    4   25 1     
   13    4   26 1     
   14    5    6 1     
   15    5   17 1     
   16    5   37 1     
   17    6    7 1     
   18    6   27 1     
   19    6   28 1     
   20    7    8 1     
   21    7   29 1     
   22    7   30 1     
   23    8    9 am    
   24    8   31 1     
   25    9   10 2     
   26    9   11 1     
   27   11   12 1     
   28   12   16 1     
   29   12   13 2     
   30   13   14 1     
   31   14   15 2     
   32   15   16 1     
   33   15   32 1     
   34   17   18 1     
   35   17   33 1     
   36   17   34 1     
   37   18   35 1     
   38   18   36 1     
   39   10   38 1     
   40   10   39 1     
   41   11   40 1     
   42   13   41 1     
   43   14   42 1     
@<TRIPOS>SUBSTRUCTURE
      1 S1             1
@<TRIPOS>SET
LONE_PAIRS      STATIC     ATOMS    <user>   **** ""
5 38 39 40 41 42
DONOR_HYDROGENS      STATIC     ATOMS    <user>   **** ""
2 37 31
ATOM$BLUE        STATIC     ATOMS    COLORGROUP SYSTEM
5 38 39 40 41 42
ATOM$RED        STATIC     ATOMS    COLORGROUP SYSTEM
2 37 31
