AV-unprocessed.smi:290|AV-procd|sdf|2222|dock2
  -GOLD-   2262022 73D 1   1.00000     0.00000
 Structure written by MMmdl.
 59 62  0  0  0  0  0  0  0  0  2 V2000
  152.3557  141.0561  158.4919 C   0  0  0  0  0  0  0  0  0  0  0  0
  151.6015  142.3057  158.9728 C   0  0  1  0  0  0  0  0  0  0  0  0
  152.5341  143.0048  159.8000 O   0  0  0  0  0  0  0  0  0  0  0  0
  152.5234  144.3909  159.5014 C   0  0  0  0  0  0  0  0  0  0  0  0
  152.1897  144.4281  158.0177 C   0  0  0  0  0  0  0  0  0  0  0  0
  151.1547  143.3202  157.8812 C   0  0  2  0  0  0  0  0  0  0  0  0
  149.9075  143.8652  158.2778 O   0  0  0  0  0  0  0  0  0  0  0  0
  151.0193  142.8229  156.4148 C   0  0  0  0  0  0  0  0  0  0  0  0
  150.1061  141.7040  156.2011 N   0  0  0  0  0  0  0  0  0  0  0  0
  148.7511  141.6527  156.4577 C   0  0  0  0  0  0  0  0  0  0  0  0
  148.1623  140.5308  156.1441 N   0  0  0  0  0  0  0  0  0  0  0  0
  149.1800  139.7593  155.6028 C   0  0  0  0  0  0  0  0  0  0  0  0
  149.2377  138.4537  155.0511 C   0  0  0  0  0  0  0  0  0  0  0  0
  148.1391  137.6695  154.9711 N   0  0  0  0  0  0  0  0  0  0  0  0
  148.3422  136.3087  155.4293 C   0  0  0  0  0  0  0  0  0  0  0  0
  147.1614  135.5096  154.8779 C   0  0  0  0  0  0  0  0  0  0  0  0
  146.5116  136.3969  153.7944 C   0  0  2  0  0  0  0  0  0  0  0  0
  146.2379  135.6178  152.5454 N   0  3  1  0  0  0  0  0  0  0  0  0
  145.5646  134.3298  152.8569 C   0  0  0  0  0  0  0  0  0  0  0  0
  145.5455  136.3723  151.4615 C   0  0  0  0  0  0  0  0  0  0  0  0
  144.7807  135.4805  150.4651 C   0  0  0  0  0  0  0  0  0  0  0  0
  144.6434  136.1375  149.2225 O   0  0  0  0  0  0  0  0  0  0  0  0
  147.4927  137.5878  153.6670 C   0  0  1  0  0  0  0  0  0  0  0  0
  146.8168  138.9352  153.3283 C   0  0  0  0  0  0  0  0  0  0  0  0
  150.4350  138.0103  154.5847 N   0  0  0  0  0  0  0  0  0  0  0  0
  151.5107  138.8004  154.6565 C   0  0  0  0  0  0  0  0  0  0  0  0
  151.6050  140.0393  155.1449 N   0  0  0  0  0  0  0  0  0  0  0  0
  150.4034  140.4837  155.6151 C   0  0  0  0  0  0  0  0  0  0  0  0
  145.5651  136.7785  154.1827 H   0  0  0  0  0  0  0  0  0  0  0  0
  148.2518  137.3526  152.9193 H   0  0  0  0  0  0  0  0  0  0  0  0
  151.6946  140.3549  157.9876 H   0  0  0  0  0  0  0  0  0  0  0  0
  152.7879  140.5208  159.3377 H   0  0  0  0  0  0  0  0  0  0  0  0
  153.1705  141.3133  157.8149 H   0  0  0  0  0  0  0  0  0  0  0  0
  150.7539  141.9896  159.5831 H   0  0  0  0  0  0  0  0  0  0  0  0
  151.7492  144.8842  160.0909 H   0  0  0  0  0  0  0  0  0  0  0  0
  153.4810  144.8582  159.7310 H   0  0  0  0  0  0  0  0  0  0  0  0
  151.8370  145.4045  157.6825 H   0  0  0  0  0  0  0  0  0  0  0  0
  153.0844  144.1827  157.4437 H   0  0  0  0  0  0  0  0  0  0  0  0
  149.4310  144.1190  157.5023 H   0  0  0  0  0  0  0  0  0  0  0  0
  150.6910  143.6429  155.7749 H   0  0  0  0  0  0  0  0  0  0  0  0
  152.0017  142.5360  156.0391 H   0  0  0  0  0  0  0  0  0  0  0  0
  148.1968  142.4748  156.8844 H   0  0  0  0  0  0  0  0  0  0  0  0
  149.2810  135.9050  155.0467 H   0  0  0  0  0  0  0  0  0  0  0  0
  148.3783  136.2682  156.5186 H   0  0  0  0  0  0  0  0  0  0  0  0
  147.5156  134.5550  154.4864 H   0  0  0  0  0  0  0  0  0  0  0  0
  146.4407  135.2908  155.6668 H   0  0  0  0  0  0  0  0  0  0  0  0
  144.5175  134.4908  153.1167 H   0  0  0  0  0  0  0  0  0  0  0  0
  146.0377  133.8155  153.6929 H   0  0  0  0  0  0  0  0  0  0  0  0
  145.6098  133.6406  152.0148 H   0  0  0  0  0  0  0  0  0  0  0  0
  144.8609  137.0937  151.9094 H   0  0  0  0  0  0  0  0  0  0  0  0
  146.2676  136.9373  150.8750 H   0  0  0  0  0  0  0  0  0  0  0  0
  145.2542  134.5095  150.3255 H   0  0  0  0  0  0  0  0  0  0  0  0
  143.7815  135.2763  150.8509 H   0  0  0  0  0  0  0  0  0  0  0  0
  145.2547  135.7582  148.6091 H   0  0  0  0  0  0  0  0  0  0  0  0
  146.2662  138.9117  152.3907 H   0  0  0  0  0  0  0  0  0  0  0  0
  147.5535  139.7343  153.2415 H   0  0  0  0  0  0  0  0  0  0  0  0
  146.1123  139.2254  154.1087 H   0  0  0  0  0  0  0  0  0  0  0  0
  152.4267  138.3812  154.2668 H   0  0  0  0  0  0  0  0  0  0  0  0
  147.1453  135.3822  152.1688 H   0  0  0  0  0  0  0  0  0  0  0  0
  1  2  1  0  0  0  0
  1 31  1  0  0  0  0
  1 32  1  0  0  0  0
  1 33  1  0  0  0  0
  2  6  1  0  0  0  0
  2  3  1  0  0  0  0
  2 34  1  0  0  0  0
  3  4  1  0  0  0  0
  4  5  1  0  0  0  0
  4 35  1  0  0  0  0
  4 36  1  0  0  0  0
  5  6  1  0  0  0  0
  5 37  1  0  0  0  0
  5 38  1  0  0  0  0
  6  7  1  0  0  0  0
  6  8  1  0  0  0  0
  7 39  1  0  0  0  0
  8  9  1  0  0  0  0
  8 40  1  0  0  0  0
  8 41  1  0  0  0  0
  9 28  1  0  0  0  0
  9 10  1  0  0  0  0
 10 11  2  0  0  0  0
 10 42  1  0  0  0  0
 11 12  1  0  0  0  0
 12 28  2  0  0  0  0
 12 13  1  0  0  0  0
 13 14  1  0  0  0  0
 13 25  2  0  0  0  0
 14 23  1  0  0  0  0
 14 15  1  0  0  0  0
 15 16  1  0  0  0  0
 15 43  1  0  0  0  0
 15 44  1  0  0  0  0
 16 17  1  0  0  0  0
 16 45  1  0  0  0  0
 16 46  1  0  0  0  0
 17 29  1  0  0  0  0
 17 18  1  0  0  0  0
 17 23  1  0  0  0  0
 18 19  1  0  0  0  0
 18 20  1  0  0  0  0
 18 59  1  0  0  0  0
 19 47  1  0  0  0  0
 19 48  1  0  0  0  0
 19 49  1  0  0  0  0
 20 21  1  0  0  0  0
 20 50  1  0  0  0  0
 20 51  1  0  0  0  0
 21 22  1  0  0  0  0
 21 52  1  0  0  0  0
 21 53  1  0  0  0  0
 22 54  1  0  0  0  0
 23 30  1  0  0  0  0
 23 24  1  0  0  0  0
 24 55  1  0  0  0  0
 24 56  1  0  0  0  0
 24 57  1  0  0  0  0
 25 26  1  0  0  0  0
 26 27  2  0  0  0  0
 26 58  1  0  0  0  0
 27 28  1  0  0  0  0
M  CHG  1  18   1
M  END
> <s_m_source_file>
AV-unprocessed.smi

> <i_m_source_file_index>
290

> <i_lp_mmshare_version>
43012

> <i_f3d_flags>
0

> <s_epik_input>
W0NIMl0xW0NIMl1PW0NAQEhdKFtDSDNdKVtDQEBdMShbT0hdKVtDSDJdbihbY0hdbjIpYyhjMjMpbltjSF1uYzNONFtDSDJdW0NIMl1bQ0BIXShbQ0BIXTRbQ0gzXSlOKFtDSDNdKVtDSDJdW0NIMl1bT0hd

> <s_epik_cmdline>
J2VwaWtfcHl0aG9uJywgJy1waCcsICc3LjAnLCAnLXRuJywgJzgnLCAnLW1hJywgJzIwMCcsICctbWV0YWxfYmluZGluZycsICctaW1hZScsICc8aW5maWxlLm1hZT4nLCAnLW9tYWUnLCAnPG91dGZpbGUubWFlPic=

> <r_lp_tautomer_probability>
1

> <r_epik_Ionization_Penalty>
0.0036983

> <r_epik_Ionization_Penalty_Charging>
0.0032725

> <r_epik_Ionization_Penalty_Neutral>
0.000425798

> <r_epik_State_Penalty>
-0

> <r_epik_Charging_Adjusted_Penalty>
0.0032725

> <i_epik_Tot_Q>
1

> <i_epik_Tot_abs_Q>
1

> <r_epik_Metal_State_Penalty>
-0

> <b_epik_Metal_Only>
0

> <s_lp_Force_Field>
OPLS_2005

> <r_lp_Energy>
67.3345

> <b_lp_Chiralities_Consistent>
1

> <s_lp_Variant>
AV-unprocessed.smi:290-8

> <Gold.Version>
5.8.1

> <Gold.Id.Protein>
6NUR|6NUR_protein|mol2

> <Gold.PLP.Fitness>
54.3281

> <Gold.PLP.PLP>
-41.6682

> <Gold.PLP.part.hbond>
-5.8023

> <Gold.PLP.part.metal>
0.0000

> <Gold.PLP.part.buried>
-1.1659

> <Gold.PLP.part.nonpolar>
-34.6167

> <Gold.PLP.part.repulsive>
0.3364

> <Gold.PLP.ligand.clash>
0.0000

> <Gold.PLP.ligand.torsion>
0.9766

> <Gold.PLP.Chemscore.Hbond>
4.3500

> <Gold.PLP.Chemscore.CHOScore>
0.4651

> <Gold.PLP.Chemscore.Metal>
0.0000

> <Gold.Chemscore.Hbonds>
donor molecule, donor type, donor heavy atom, donor atom, acceptor molecule, acceptor atom, score
      L1  H     7    39       P1  8028  0.85
      L1  H    18    59       P1  7948  1.63
      L1  H    22    54       P1  7921  1.00
      P1  H  7989  7998       L1    27  0.80
      L1  C    10    42       P1  8028  0.44

> <Gold.PLP.Chemscore.Internal.Correction>
0.1681

> <Gold.Rescore>
     Score         DG    S(hbond)    S(metal)    S(lipo)     H(rot)  DE(clash)    DE(int)     intcor
     11.26     -14.06       1.93        0.00      98.59       3.67       1.87       0.93       ----

> <Gold.Chemscore.Fitness>
11.2605

> <Gold.Chemscore.DG>
-14.0606

> <Gold.Chemscore.ZeroCoef>
-5.4800

> <Gold.Chemscore.Hbond>
1.9252

> <Gold.Chemscore.Metal>
0.0000

> <Gold.Chemscore.Lipo>
98.5877

> <Gold.Chemscore.Internal_Hbond>
0.0000

> <Gold.Chemscore.DEClash>
1.8698

> <Gold.Chemscore.DEInternal>
0.9303

> <Gold.Chemscore.Rot>
3.6658

> <Gold.Chemscore.Internal.Correction>
   9.000000E+99

> <Gold.Chemscore.Hbonds>
donor molecule, donor type, donor heavy atom, donor atom, acceptor molecule, acceptor atom, score
      L1  H     7    39       P1  8028  0.14
      L1  H    18    59       P1  7948  0.79
      L1  H    22    54       P1  7921  0.98
      P1  H  7989  7998       L1    27  0.03

> <Gold.Chemscore.Hbond.Weighted>
-6.4303

> <Gold.Chemscore.Metal.Weighted>
-0.0000

> <Gold.Chemscore.Lipo.Weighted>
-11.5348

> <Gold.Chemscore.Internal_Hbond.Weighted>
0.0000

> <Gold.Chemscore.DEClash.Weighted>
1.8698

> <Gold.Chemscore.DEInternal.Weighted>
0.9303

> <Gold.Chemscore.Rot.Weighted>
9.3844

> <Gold.Chemscore.Internal.Correction.Weighted>
   9.000000E+99

> <Gold.Protein.RotatedTorsions>
[ 6907 6896 6895 6894 ] final   98.70 input  -60.11 | X-H torsion
[ 7974 7965 7964 7962 ] final  -12.47 input  175.53 | X-H torsion
[ 8008 7997 7996 7995 ] final -152.21 input   59.86 | X-H torsion
[ 10167 10162 10161 10158 ] final  -87.72 input  -65.29 | X-H torsion
[ 10718 10713 10712 10709 ] final   -4.06 input   66.30 | X-H torsion
[ 10763 10752 10751 10750 ] final  110.84 input  -60.55 | X-H torsion
[ 11005 11000 10999 10996 ] final  -55.17 input  -57.11 | X-H torsion

> <Gold.Protein.ActiveResidues>
 VAL166  LYS551  ARG553  GLY616  TRP617  ASP618  TYR619  PRO620  LYS621  CYS622 
 ASP623  PHE694  ASN695  SER759  ASP760  ASP761  ALA762  ILE779  LEU786  VAL792 
 PHE793  MET794  SER795  GLU796  ALA797  LYS798  CYS799  TRP800  GLU811  SER814 

> <Gold.Protein.RotatedAtoms>
  152.5405  134.0540  159.8122 H   0  0  0  0  0  0  0  0  0  0  0  0  # atno 6907 bound_to 6896
  151.0678  133.5484  159.2636 H   0  0  0  0  0  0  0  0  0  0  0  0  # atno 6908 bound_to 6896
  151.2358  135.0579  159.9059 H   0  0  0  0  0  0  0  0  0  0  0  0  # atno 6909 bound_to 6896
  146.2150  140.3062  142.8379 H   0  0  0  0  0  0  0  0  0  0  0  0  # atno 7974 bound_to 7965
  155.6516  140.0712  157.2585 H   0  0  0  0  0  0  0  0  0  0  0  0  # atno 8008 bound_to 7997
  154.4161  140.1732  156.1730 H   0  0  0  0  0  0  0  0  0  0  0  0  # atno 8009 bound_to 7997
  155.9772  140.3357  155.6633 H   0  0  0  0  0  0  0  0  0  0  0  0  # atno 8010 bound_to 7997
  140.3817  143.2745  151.9375 H   0  0  0  0  0  0  0  0  0  0  0  0  # atno 10167 bound_to 10162
  156.7669  130.5287  149.5774 H   0  0  0  0  0  0  0  0  0  0  0  0  # atno 10718 bound_to 10713
  153.4547  135.3736  155.2304 H   0  0  0  0  0  0  0  0  0  0  0  0  # atno 10763 bound_to 10752
  154.8757  135.3894  154.3996 H   0  0  0  0  0  0  0  0  0  0  0  0  # atno 10764 bound_to 10752
  153.4560  135.7086  153.6143 H   0  0  0  0  0  0  0  0  0  0  0  0  # atno 10765 bound_to 10752
  141.1061  133.6613  156.4430 H   0  0  0  0  0  0  0  0  0  0  0  0  # atno 11005 bound_to 11000
  144.9021  140.7655  143.5860 LP  0  0  0  0  0  0  0  0  0  0  0  0  # atno 17320 bound_to 7965
  145.2989  139.1857  143.4700 LP  0  0  0  0  0  0  0  0  0  0  0  0  # atno 17321 bound_to 7965
  139.4795  144.5812  151.7930 LP  0  0  0  0  0  0  0  0  0  0  0  0  # atno 17342 bound_to 10162
  140.4930  144.1282  150.5954 LP  0  0  0  0  0  0  0  0  0  0  0  0  # atno 17343 bound_to 10162
  156.1303  130.6173  151.0323 LP  0  0  0  0  0  0  0  0  0  0  0  0  # atno 17370 bound_to 10713
  157.6709  131.0861  150.7615 LP  0  0  0  0  0  0  0  0  0  0  0  0  # atno 17371 bound_to 10713
  140.4898  134.6586  157.5206 LP  0  0  0  0  0  0  0  0  0  0  0  0  # atno 17394 bound_to 11000
  139.9932  134.6952  155.9654 LP  0  0  0  0  0  0  0  0  0  0  0  0  # atno 17395 bound_to 11000

$$$$
