#       Name:                AV-unprocessed.smi:113
#       Creating user name   scv26
#       Creation time:       Thu Mar 26 18:19:59 2020


#       File generated by GOLD software.
#

@<TRIPOS>MOLECULE
AV-unprocessed.smi:113
    63    66     1
SMALL
NO_CHARGES


@<TRIPOS>ATOM
      1 ****        -1.7040  -1.0930  -3.9190 C.3            1 S1                 0.0000
      2 ****        -1.9149  -1.9250  -2.6710 C.ar           1 S1                 0.0000
      3 ****        -1.5662  -1.4237  -1.4043 C.ar           1 S1                 0.0000
      4 ****        -1.7731  -2.2345  -0.2646 C.ar           1 S1                 0.0000
      5 ****        -1.4100  -1.7369   1.1393 C.3            1 S1                 0.0000
      6 ****        -0.8751  -0.3864   1.2383 N.am           1 S1                 0.0000
      7 ****        -1.7950   0.6799   1.3935 C.2            1 S1                 0.0000
      8 ****        -3.0088   0.4786   1.4725 O.2            1 S1                 0.0000
      9 ****        -1.1982   2.0178   1.4265 C.2            1 S1                 0.0000
     10 ****        -2.1254   3.2129   1.5814 C.3            1 S1                 0.0000
     11 ****         0.1439   2.1586   1.3084 C.2            1 S1                 0.0000
     12 ****         1.0190   1.0959   1.1625 N.am           1 S1                 0.0000
     13 ****         2.5007   1.3277   1.0002 C.3            1 S1                 0.0000
     14 ****         2.8433   1.6470  -0.4487 C.3            1 S1                 0.0000
     15 ****         4.1055   2.4707  -0.2836 C.3            1 S1                 0.0000
     16 ****         5.2450   1.6329  -0.3171 O.3            1 S1                 0.0000
     17 ****         3.9549   3.1141   1.1102 C.3            1 S1                 0.0000
     18 ****         3.5984   4.6084   1.0620 C.3            1 S1                 0.0000
     19 ****         4.7079   5.3658   0.6281 O.3            1 S1                 0.0000
     20 ****         2.8736   2.4379   1.7512 O.3            1 S1                 0.0000
     21 ****         0.5214  -0.2208   1.1018 C.2            1 S1                 0.0000
     22 ****         1.2764  -1.1779   0.9140 O.2            1 S1                 0.0000
     23 ****        -2.3262  -3.5286  -0.4609 C.ar           1 S1                 0.0000
     24 ****        -2.5617  -4.4048   0.6262 C.2            1 S1                 0.0000
     25 ****        -3.1090  -5.6820   0.4108 C.2            1 S1                 0.0000
     26 ****        -3.4278  -6.0966  -0.8926 C.2            1 S1                 0.0000
     27 ****        -3.1970  -5.2325  -1.9780 C.2            1 S1                 0.0000
     28 ****        -2.6474  -3.9469  -1.7861 C.ar           1 S1                 0.0000
     29 ****        -2.4402  -3.1512  -2.8584 N.ar           1 S1                 0.0000
     30 ****        -1.5470  -0.0430  -3.6701 H              1 S1                 0.0000
     31 ****        -2.5709  -1.1573  -4.5775 H              1 S1                 0.0000
     32 ****        -0.8304  -1.4492  -4.4655 H              1 S1                 0.0000
     33 ****        -1.1465  -0.4323  -1.3252 H              1 S1                 0.0000
     34 ****        -2.2803  -1.7902   1.7951 H              1 S1                 0.0000
     35 ****        -0.6836  -2.4085   1.5999 H              1 S1                 0.0000
     36 ****        -1.5757   4.1545   1.5924 H              1 S1                 0.0000
     37 ****        -2.6844   3.1426   2.5153 H              1 S1                 0.0000
     38 ****        -2.8382   3.2526   0.7570 H              1 S1                 0.0000
     39 ****         0.5500   3.1600   1.3186 H              1 S1                 0.0000
     40 ****         3.0249   0.4543   1.3921 H              1 S1                 0.0000
     41 ****         2.9594   0.7409  -1.0448 H              1 S1                 0.0000
     42 ****         2.0511   2.2602  -0.8812 H              1 S1                 0.0000
     43 ****         4.2042   3.2091  -1.0800 H              1 S1                 0.0000
     44 ****         5.1783   1.0025   0.3837 H              1 S1                 0.0000
     45 ****         4.8549   2.9721   1.7114 H              1 S1                 0.0000
     46 ****         2.7485   4.7869   0.4023 H              1 S1                 0.0000
     47 ****         3.3154   4.9586   2.0551 H              1 S1                 0.0000
     48 ****         4.4689   6.2801   0.6314 H              1 S1                 0.0000
     49 ****        -2.3283  -4.1178   1.6400 H              1 S1                 0.0000
     50 ****        -3.2839  -6.3432   1.2468 H              1 S1                 0.0000
     51 ****        -3.8488  -7.0769  -1.0613 H              1 S1                 0.0000
     52 ****        -3.4455  -5.5630  -2.9760 H              1 S1                 0.0000
     53 ****        -3.3649  -0.4548   1.4272 LP             1 S1                 0.0000
     54 ****        -3.6373   1.2487   1.5817 LP             1 S1                 0.0000
     55 ****         6.0711   2.1835  -0.1970 LP             1 S1                 0.0000
     56 ****         5.2867   1.1565  -1.1954 LP             1 S1                 0.0000
     57 ****         4.9641   5.0879  -0.2978 LP             1 S1                 0.0000
     58 ****         5.4797   5.2172   1.2463 LP             1 S1                 0.0000
     59 ****         3.1607   2.1414   2.6620 LP             1 S1                 0.0000
     60 ****         2.0949   3.0600   1.8332 LP             1 S1                 0.0000
     61 ****         0.9042  -2.1041   0.8543 LP             1 S1                 0.0000
     62 ****         2.2607  -1.0276   0.8214 LP             1 S1                 0.0000
     63 ****        -2.6735  -3.4680  -3.7778 LP             1 S1                 0.0000
@<TRIPOS>BOND
    1    1    2 1     
    2    1   30 1     
    3    1   31 1     
    4    1   32 1     
    5    2   29 ar    
    6    2    3 ar    
    7    3    4 ar    
    8    3   33 1     
    9    4    5 1     
   10    4   23 ar    
   11    5    6 1     
   12    5   34 1     
   13    5   35 1     
   14    6   21 am    
   15    6    7 am    
   16    7    8 2     
   17    7    9 1     
   18    9   10 1     
   19    9   11 2     
   20   10   36 1     
   21   10   37 1     
   22   10   38 1     
   23   11   12 1     
   24   11   39 1     
   25   12   13 1     
   26   12   21 am    
   27   13   20 1     
   28   13   14 1     
   29   13   40 1     
   30   14   15 1     
   31   14   41 1     
   32   14   42 1     
   33   15   16 1     
   34   15   17 1     
   35   15   43 1     
   36   16   44 1     
   37   17   18 1     
   38   17   20 1     
   39   17   45 1     
   40   18   19 1     
   41   18   46 1     
   42   18   47 1     
   43   19   48 1     
   44   21   22 2     
   45   23   28 ar    
   46   23   24 1     
   47   24   25 2     
   48   24   49 1     
   49   25   26 1     
   50   25   50 1     
   51   26   27 2     
   52   26   51 1     
   53   27   28 1     
   54   27   52 1     
   55   28   29 ar    
   56    8   53 1     
   57    8   54 1     
   58   16   55 1     
   59   16   56 1     
   60   19   57 1     
   61   19   58 1     
   62   20   59 1     
   63   20   60 1     
   64   22   61 1     
   65   22   62 1     
   66   29   63 1     
@<TRIPOS>SUBSTRUCTURE
      1 S1             1
@<TRIPOS>SET
LONE_PAIRS      STATIC     ATOMS    <user>   **** ""
11 53 54 55 56 57 58 59 60 61 62 63
DONOR_HYDROGENS      STATIC     ATOMS    <user>   **** ""
2 44 48
ATOM$BLUE        STATIC     ATOMS    COLORGROUP SYSTEM
11 53 54 55 56 57 58 59 60 61 62 63
ATOM$RED        STATIC     ATOMS    COLORGROUP SYSTEM
2 44 48
