AV-unprocessed.smi:1602|AV-procd|sdf|6439|dock3
  -GOLD-   22720 7 83D 1   1.00000     0.00000
 Structure written by MMmdl.
 36 37  0  0  0  0  0  0  0  0  1 V2000
  152.1986  140.9218  158.3995 C   0  0  0  0  0  0  0  0  0  0  0  0
  151.1099  141.5419  157.5147 C   0  0  2  0  0  0  0  0  0  0  0  0
  150.1626  142.4631  158.3070 C   0  0  0  0  0  0  0  0  0  0  0  0
  150.8563  143.6012  158.8837 N   0  0  0  0  0  0  0  0  0  0  0  0
  151.1642  144.8077  158.2910 C   0  0  0  0  0  0  0  0  0  0  0  0
  151.8392  145.5535  159.2140 C   0  0  0  0  0  0  0  0  0  0  0  0
  151.8929  144.7076  160.3571 C   0  0  0  0  0  0  0  0  0  0  0  0
  151.3007  143.5411  160.1575 N   0  0  0  0  0  0  0  0  0  0  0  0
  150.3431  140.4731  156.8696 N   0  0  0  0  0  0  0  0  0  0  0  0
  151.1432  139.4161  155.7679 S   0  0  0  0  0  0  0  0  0  0  0  0
  150.5972  139.6342  154.4196 O   0  0  0  0  0  0  0  0  0  0  0  0
  152.5889  139.5053  156.0240 O   0  0  0  0  0  0  0  0  0  0  0  0
  150.5588  137.8974  156.3568 N   0  0  0  0  0  0  0  0  0  0  0  0
  151.3340  136.6933  156.0055 C   0  0  0  0  0  0  0  0  0  0  0  0
  150.5870  135.4126  156.4112 C   0  0  0  0  0  0  0  0  0  0  0  0
  150.2417  135.4634  157.7867 O   0  0  0  0  0  0  0  0  0  0  0  0
  149.3604  136.5420  158.0586 C   0  0  0  0  0  0  0  0  0  0  0  0
  150.0461  137.8798  157.7367 C   0  0  0  0  0  0  0  0  0  0  0  0
  152.8082  141.6945  158.8684 H   0  0  0  0  0  0  0  0  0  0  0  0
  152.8654  140.2869  157.8147 H   0  0  0  0  0  0  0  0  0  0  0  0
  151.7664  140.3116  159.1933 H   0  0  0  0  0  0  0  0  0  0  0  0
  151.6042  142.1335  156.7424 H   0  0  0  0  0  0  0  0  0  0  0  0
  149.3595  142.8307  157.6668 H   0  0  0  0  0  0  0  0  0  0  0  0
  149.6866  141.9078  159.1167 H   0  0  0  0  0  0  0  0  0  0  0  0
  150.8869  145.0289  157.2709 H   0  0  0  0  0  0  0  0  0  0  0  0
  152.2366  146.5500  159.0911 H   0  0  0  0  0  0  0  0  0  0  0  0
  152.3420  144.9051  161.3193 H   0  0  0  0  0  0  0  0  0  0  0  0
  149.7409  139.9690  157.5199 H   0  0  0  0  0  0  0  0  0  0  0  0
  151.5354  136.6751  154.9351 H   0  0  0  0  0  0  0  0  0  0  0  0
  152.3000  136.7369  156.5099 H   0  0  0  0  0  0  0  0  0  0  0  0
  149.6908  135.2777  155.8033 H   0  0  0  0  0  0  0  0  0  0  0  0
  151.2191  134.5415  156.2385 H   0  0  0  0  0  0  0  0  0  0  0  0
  148.4402  136.4296  157.4829 H   0  0  0  0  0  0  0  0  0  0  0  0
  149.0795  136.5108  159.1115 H   0  0  0  0  0  0  0  0  0  0  0  0
  150.8770  138.0499  158.4225 H   0  0  0  0  0  0  0  0  0  0  0  0
  149.3408  138.6989  157.8782 H   0  0  0  0  0  0  0  0  0  0  0  0
  1  2  1  0  0  0  0
  1 19  1  0  0  0  0
  1 20  1  0  0  0  0
  1 21  1  0  0  0  0
  2  3  1  0  0  0  0
  2  9  1  0  0  0  0
  2 22  1  0  0  0  0
  3  4  1  0  0  0  0
  3 23  1  0  0  0  0
  3 24  1  0  0  0  0
  4  8  1  0  0  0  0
  4  5  1  0  0  0  0
  5  6  2  0  0  0  0
  5 25  1  0  0  0  0
  6  7  1  0  0  0  0
  6 26  1  0  0  0  0
  7  8  2  0  0  0  0
  7 27  1  0  0  0  0
  9 10  1  0  0  0  0
  9 28  1  0  0  0  0
 10 11  2  0  0  0  0
 10 12  2  0  0  0  0
 10 13  1  0  0  0  0
 13 18  1  0  0  0  0
 13 14  1  0  0  0  0
 14 15  1  0  0  0  0
 14 29  1  0  0  0  0
 14 30  1  0  0  0  0
 15 16  1  0  0  0  0
 15 31  1  0  0  0  0
 15 32  1  0  0  0  0
 16 17  1  0  0  0  0
 17 18  1  0  0  0  0
 17 33  1  0  0  0  0
 17 34  1  0  0  0  0
 18 35  1  0  0  0  0
 18 36  1  0  0  0  0
M  END
> <s_m_source_file>
AV-unprocessed.smi

> <i_m_source_file_index>
1602

> <i_lp_mmshare_version>
43012

> <i_f3d_flags>
0

> <s_epik_input>
bjFbY0hdW2NIXVtjSF1uMVtDSDJdW0NAQEhdKFtDSDNdKVtOSF1TKD1PKSg9TylOMltDSDJdW0NIMl1PW0NIMl1bQ0gyXTI=

> <s_epik_cmdline>
J2VwaWtfcHl0aG9uJywgJy1waCcsICc3LjAnLCAnLXRuJywgJzgnLCAnLW1hJywgJzIwMCcsICctbWV0YWxfYmluZGluZycsICctaW1hZScsICc8aW5maWxlLm1hZT4nLCAnLW9tYWUnLCAnPG91dGZpbGUubWFlPic=

> <r_lp_tautomer_probability>
1

> <r_epik_Ionization_Penalty>
0.114248

> <r_epik_Ionization_Penalty_Charging>
0

> <r_epik_Ionization_Penalty_Neutral>
0.114248

> <r_epik_State_Penalty>
0.103909

> <r_epik_Charging_Adjusted_Penalty>
0.103909

> <i_epik_Tot_Q>
0

> <i_epik_Tot_abs_Q>
0

> <r_epik_Metal_State_Penalty>
0.436178

> <b_epik_Metal_Only>
0

> <s_lp_Force_Field>
OPLS_2005

> <r_lp_Energy>
7.48288

> <b_lp_Chiralities_Consistent>
1

> <s_lp_Variant>
AV-unprocessed.smi:1602-1

> <Gold.Version>
5.8.1

> <Gold.Id.Protein>
6NUR|6NUR_protein|mol2

> <Gold.PLP.Fitness>
39.8319

> <Gold.PLP.PLP>
-30.9446

> <Gold.PLP.part.hbond>
-3.0250

> <Gold.PLP.part.metal>
0.0000

> <Gold.PLP.part.buried>
-5.8470

> <Gold.PLP.part.nonpolar>
-22.3656

> <Gold.PLP.part.repulsive>
0.1869

> <Gold.PLP.ligand.clash>
0.0000

> <Gold.PLP.ligand.torsion>
1.4115

> <Gold.PLP.Chemscore.Hbond>
2.7520

> <Gold.PLP.Chemscore.CHOScore>
0.9018

> <Gold.PLP.Chemscore.Metal>
0.0000

> <Gold.Chemscore.Hbonds>
donor molecule, donor type, donor heavy atom, donor atom, acceptor molecule, acceptor atom, score
      P1  H  6896  6909       L1    16  0.70
      P1  H  7989  7998       L1    11  1.00
      P1  H  7997  8010       L1    12  1.00
      L1  C     5    25       P1  8028  0.98

> <Gold.PLP.Chemscore.Internal.Correction>
0.7491

> <Gold.Rescore>
     Score         DG    S(hbond)    S(metal)    S(lipo)     H(rot)  DE(clash)    DE(int)     intcor
     15.69     -18.45       2.87        0.00      71.94       1.97       0.02       2.74       ----

> <Gold.Chemscore.Fitness>
15.6890

> <Gold.Chemscore.DG>
-18.4482

> <Gold.Chemscore.ZeroCoef>
-5.4800

> <Gold.Chemscore.Hbond>
2.8692

> <Gold.Chemscore.Metal>
0.0000

> <Gold.Chemscore.Lipo>
71.9379

> <Gold.Chemscore.Internal_Hbond>
0.0000

> <Gold.Chemscore.DEClash>
0.0224

> <Gold.Chemscore.DEInternal>
2.7369

> <Gold.Chemscore.Rot>
1.9654

> <Gold.Chemscore.Internal.Correction>
   9.000000E+99

> <Gold.Chemscore.Hbonds>
donor molecule, donor type, donor heavy atom, donor atom, acceptor molecule, acceptor atom, score
      P1  H  6896  6909       L1    16  0.45
      P1  H  7989  7998       L1    11  0.78
      P1  H  7997  8010       L1    12  1.00

> <Gold.Chemscore.Hbond.Weighted>
-9.5830

> <Gold.Chemscore.Metal.Weighted>
-0.0000

> <Gold.Chemscore.Lipo.Weighted>
-8.4167

> <Gold.Chemscore.Internal_Hbond.Weighted>
0.0000

> <Gold.Chemscore.DEClash.Weighted>
0.0224

> <Gold.Chemscore.DEInternal.Weighted>
2.7369

> <Gold.Chemscore.Rot.Weighted>
5.0315

> <Gold.Chemscore.Internal.Correction.Weighted>
   9.000000E+99

> <Gold.Protein.RotatedTorsions>
[ 6907 6896 6895 6894 ] final   50.01 input  -60.11 | X-H torsion
[ 7974 7965 7964 7962 ] final  108.79 input  175.53 | X-H torsion
[ 8008 7997 7996 7995 ] final   89.53 input   59.86 | X-H torsion
[ 10167 10162 10161 10158 ] final  101.80 input  -65.29 | X-H torsion
[ 10718 10713 10712 10709 ] final   44.79 input   66.30 | X-H torsion
[ 10763 10752 10751 10750 ] final    1.11 input  -60.55 | X-H torsion
[ 11005 11000 10999 10996 ] final -171.49 input  -57.11 | X-H torsion

> <Gold.Protein.ActiveResidues>
 VAL166  LYS551  ARG553  GLY616  TRP617  ASP618  TYR619  PRO620  LYS621  CYS622 
 ASP623  PHE694  ASN695  SER759  ASP760  ASP761  ALA762  ILE779  LEU786  VAL792 
 PHE793  MET794  SER795  GLU796  ALA797  LYS798  CYS799  TRP800  GLU811  SER814 

> <Gold.Protein.RotatedAtoms>
  152.2971  134.7654  160.0365 H   0  0  0  0  0  0  0  0  0  0  0  0  # atno 6907 bound_to 6896
  151.8180  133.3385  159.3583 H   0  0  0  0  0  0  0  0  0  0  0  0  # atno 6908 bound_to 6896
  150.7256  134.5530  159.5848 H   0  0  0  0  0  0  0  0  0  0  0  0  # atno 6909 bound_to 6896
  145.2762  139.2649  143.3940 H   0  0  0  0  0  0  0  0  0  0  0  0  # atno 7974 bound_to 7965
  156.0011  140.3359  155.6846 H   0  0  0  0  0  0  0  0  0  0  0  0  # atno 8008 bound_to 7997
  155.6289  140.0683  157.2673 H   0  0  0  0  0  0  0  0  0  0  0  0  # atno 8009 bound_to 7997
  154.4249  140.1763  156.1439 H   0  0  0  0  0  0  0  0  0  0  0  0  # atno 8010 bound_to 7997
  139.7406  144.7012  151.0582 H   0  0  0  0  0  0  0  0  0  0  0  0  # atno 10167 bound_to 10162
  157.4306  130.8023  149.7600 H   0  0  0  0  0  0  0  0  0  0  0  0  # atno 10718 bound_to 10713
  153.3121  135.6963  153.7106 H   0  0  0  0  0  0  0  0  0  0  0  0  # atno 10763 bound_to 10752
  153.5979  135.3467  155.2935 H   0  0  0  0  0  0  0  0  0  0  0  0  # atno 10764 bound_to 10752
  154.8577  135.4333  154.2262 H   0  0  0  0  0  0  0  0  0  0  0  0  # atno 10765 bound_to 10752
  140.5077  134.5832  157.5008 H   0  0  0  0  0  0  0  0  0  0  0  0  # atno 11005 bound_to 11000
  146.3231  140.3217  142.8634 LP  0  0  0  0  0  0  0  0  0  0  0  0  # atno 17320 bound_to 7965
  144.9292  140.7956  143.5699 LP  0  0  0  0  0  0  0  0  0  0  0  0  # atno 17321 bound_to 7965
  140.7785  143.4929  150.9869 LP  0  0  0  0  0  0  0  0  0  0  0  0  # atno 17342 bound_to 10162
  139.8618  143.7305  152.3173 LP  0  0  0  0  0  0  0  0  0  0  0  0  # atno 17343 bound_to 10162
  155.9912  130.3939  150.2995 LP  0  0  0  0  0  0  0  0  0  0  0  0  # atno 17370 bound_to 10713
  157.1152  131.0232  151.3032 LP  0  0  0  0  0  0  0  0  0  0  0  0  # atno 17371 bound_to 10713
  139.9677  134.7345  156.0105 LP  0  0  0  0  0  0  0  0  0  0  0  0  # atno 17394 bound_to 11000
  141.1402  133.6566  156.3708 LP  0  0  0  0  0  0  0  0  0  0  0  0  # atno 17395 bound_to 11000

$$$$
