#       Name:                AV-unprocessed.smi:901
#       Creating user name   scv26
#       Creation time:       Fri Mar 27 01:58:15 2020


#       File generated by GOLD software.
#

@<TRIPOS>MOLECULE
AV-unprocessed.smi:901
    48    49     1
SMALL
NO_CHARGES


@<TRIPOS>ATOM
      1 ****        -0.9825  -2.8127  -4.1670 C.3            1 S1                 0.0000
      2 ****        -1.6384  -1.6424  -3.4617 C.2            1 S1                 0.0000
      3 ****        -1.7598  -0.3829  -4.3013 C.3            1 S1                 0.0000
      4 ****        -2.0685  -1.7329  -2.1885 C.2            1 S1                 0.0000
      5 ****        -2.7323  -0.6557  -1.3976 C.3            1 S1                 0.0000
      6 ****        -1.9977   0.4590  -0.6566 C.3            1 S1                 0.0000
      7 ****        -0.5025   0.5130  -0.6225 C.2            1 S1                 0.0000
      8 ****         0.1976   0.1780  -1.5771 O.2            1 S1                 0.0000
      9 ****        -0.0261   1.0336   0.5223 N.am           1 S1                 0.0000
     10 ****         1.3246   1.2166   0.9136 C.2            1 S1                 0.0000
     11 ****         2.4706   0.6943   0.2424 C.2            1 S1                 0.0000
     12 ****         3.5097   1.1314   1.0132 C.2            1 S1                 0.0000
     13 ****         2.9751   1.8509   2.0637 N.pl3          1 S1                 0.0000
     14 ****         3.6751   2.5122   3.1520 C.3            1 S1                 0.0000
     15 ****         4.1581   1.5127   4.2080 C.2            1 S1                 0.0000
     16 ****         5.4080   1.6595   4.6547 N.am           1 S1                 0.0000
     17 ****         3.4173   0.6215   4.6197 O.2            1 S1                 0.0000
     18 ****         1.6261   1.9017   2.0032 N.2            1 S1                 0.0000
     19 ****        -2.7136  -0.6397   0.1207 C.3            1 S1                 0.0000
     20 ****        -3.9820  -0.2720   0.8700 C.3            1 S1                 0.0000
     21 ****        -1.9542  -1.7076   0.9051 C.3            1 S1                 0.0000
     22 ****         0.0328  -2.5515  -4.4657 H              1 S1                 0.0000
     23 ****        -1.5456  -3.0781  -5.0618 H              1 S1                 0.0000
     24 ****        -0.9309  -3.6923  -3.5246 H              1 S1                 0.0000
     25 ****        -0.7707  -0.0478  -4.6144 H              1 S1                 0.0000
     26 ****        -2.2325   0.4364  -3.7605 H              1 S1                 0.0000
     27 ****        -2.3514  -0.5818  -5.1950 H              1 S1                 0.0000
     28 ****        -1.9385  -2.6741  -1.6752 H              1 S1                 0.0000
     29 ****        -3.6690  -0.3638  -1.8694 H              1 S1                 0.0000
     30 ****        -2.4777   1.4349  -0.7050 H              1 S1                 0.0000
     31 ****        -0.7154   1.3387   1.1939 H              1 S1                 0.0000
     32 ****         2.5365   0.0942  -0.6526 H              1 S1                 0.0000
     33 ****         4.5747   0.9871   0.9066 H              1 S1                 0.0000
     34 ****         4.5170   3.0654   2.7333 H              1 S1                 0.0000
     35 ****         3.0134   3.2417   3.6222 H              1 S1                 0.0000
     36 ****         5.7751   1.0254   5.3493 H              1 S1                 0.0000
     37 ****         5.9834   2.4061   4.2925 H              1 S1                 0.0000
     38 ****        -3.7397   0.1195   1.8584 H              1 S1                 0.0000
     39 ****        -4.6215  -1.1473   0.9875 H              1 S1                 0.0000
     40 ****        -4.5441   0.4905   0.3298 H              1 S1                 0.0000
     41 ****        -1.6859  -1.3311   1.8926 H              1 S1                 0.0000
     42 ****        -1.0366  -2.0100   0.4006 H              1 S1                 0.0000
     43 ****        -2.5748  -2.5951   1.0316 H              1 S1                 0.0000
     44 ****        -0.2297  -0.1470  -2.4208 LP             1 S1                 0.0000
     45 ****         1.1939   0.2307  -1.5093 LP             1 S1                 0.0000
     46 ****         2.4857   0.5420   4.2650 LP             1 S1                 0.0000
     47 ****         3.7465  -0.0237   5.3092 LP             1 S1                 0.0000
     48 ****         0.9992   2.3540   2.6376 LP             1 S1                 0.0000
@<TRIPOS>BOND
    1    1    2 1     
    2    1   22 1     
    3    1   23 1     
    4    1   24 1     
    5    2    3 1     
    6    2    4 2     
    7    3   25 1     
    8    3   26 1     
    9    3   27 1     
   10    4    5 1     
   11    4   28 1     
   12    5   19 1     
   13    5    6 1     
   14    5   29 1     
   15    6    7 1     
   16    6   19 1     
   17    6   30 1     
   18    7    8 2     
   19    7    9 am    
   20    9   10 1     
   21    9   31 1     
   22   10   18 2     
   23   10   11 1     
   24   11   12 2     
   25   11   32 1     
   26   12   13 1     
   27   12   33 1     
   28   13   14 1     
   29   13   18 1     
   30   14   15 1     
   31   14   34 1     
   32   14   35 1     
   33   15   16 am    
   34   15   17 2     
   35   16   36 1     
   36   16   37 1     
   37   19   20 1     
   38   19   21 1     
   39   20   38 1     
   40   20   39 1     
   41   20   40 1     
   42   21   41 1     
   43   21   42 1     
   44   21   43 1     
   45    8   44 1     
   46    8   45 1     
   47   17   46 1     
   48   17   47 1     
   49   18   48 1     
@<TRIPOS>SUBSTRUCTURE
      1 S1             1
@<TRIPOS>SET
LONE_PAIRS      STATIC     ATOMS    <user>   **** ""
5 44 45 46 47 48
DONOR_HYDROGENS      STATIC     ATOMS    <user>   **** ""
3 31 36 37
ATOM$BLUE        STATIC     ATOMS    COLORGROUP SYSTEM
5 44 45 46 47 48
ATOM$RED        STATIC     ATOMS    COLORGROUP SYSTEM
3 31 36 37
