AV-unprocessed.smi:123|AV-procd|sdf|1146|dock4
  -GOLD-   2262018283D 1   1.00000     0.00000
 Structure written by MMmdl.
 43 45  0  0  0  0  0  0  0  0  1 V2000
  146.3550  131.8045  159.8200 C   0  0  0  0  0  0  0  0  0  0  0  0
  147.5024  132.8159  159.9407 C   0  0  1  0  0  0  0  0  0  0  0  0
  147.7160  133.4559  158.6461 N   0  0  0  0  0  0  0  0  0  0  0  0
  148.8355  133.3648  157.9122 C   0  0  0  0  0  0  0  0  0  0  0  0
  149.8159  132.7039  158.2586 O   0  0  0  0  0  0  0  0  0  0  0  0
  148.8302  134.1448  156.5885 C   0  0  0  0  0  0  0  0  0  0  0  0
  148.5496  133.3009  155.4058 N   0  0  0  0  0  0  0  0  0  0  0  0
  149.3662  132.1670  155.1724 C   0  0  0  0  0  0  0  0  0  0  0  0
  150.2804  131.8679  155.9421 O   0  0  0  0  0  0  0  0  0  0  0  0
  149.0557  131.4057  153.9686 C   0  0  0  0  0  0  0  0  0  0  0  0
  149.7873  130.3220  153.6587 F   0  0  0  0  0  0  0  0  0  0  0  0
  148.0453  131.7752  153.1552 C   0  0  0  0  0  0  0  0  0  0  0  0
  147.2422  132.8715  153.4026 N   0  0  0  0  0  0  0  0  0  0  0  0
  146.1674  133.2306  152.3991 C   0  0  1  0  0  0  0  0  0  0  0  0
  146.7006  133.4703  150.9787 C   0  0  0  0  0  0  0  0  0  0  0  0
  145.5667  132.9188  150.1414 C   0  0  0  0  0  0  0  0  0  0  0  0
  145.0786  131.7534  150.9949 C   0  0  0  0  0  0  0  0  0  0  0  0
  145.2282  132.1960  152.3414 O   0  0  0  0  0  0  0  0  0  0  0  0
  147.5024  133.6827  154.5324 C   0  0  0  0  0  0  0  0  0  0  0  0
  146.8447  134.7008  154.7516 O   0  0  0  0  0  0  0  0  0  0  0  0
  147.2513  133.8264  161.0165 C   0  0  0  0  0  0  0  0  0  0  0  0
  146.9611  133.7246  162.3491 C   0  0  0  0  0  0  0  0  0  0  0  0
  146.8267  135.0548  162.8338 C   0  0  0  0  0  0  0  0  0  0  0  0
  147.0398  135.8705  161.7595 C   0  0  0  0  0  0  0  0  0  0  0  0
  147.2961  135.1377  160.6422 O   0  0  0  0  0  0  0  0  0  0  0  0
  146.2021  131.2739  160.7601 H   0  0  0  0  0  0  0  0  0  0  0  0
  146.5664  131.0596  159.0524 H   0  0  0  0  0  0  0  0  0  0  0  0
  145.4167  132.2954  159.5592 H   0  0  0  0  0  0  0  0  0  0  0  0
  148.4037  132.2558  160.1961 H   0  0  0  0  0  0  0  0  0  0  0  0
  146.9605  134.0222  158.2888 H   0  0  0  0  0  0  0  0  0  0  0  0
  148.1079  134.9585  156.6711 H   0  0  0  0  0  0  0  0  0  0  0  0
  149.7891  134.6548  156.4823 H   0  0  0  0  0  0  0  0  0  0  0  0
  147.8620  131.1788  152.2734 H   0  0  0  0  0  0  0  0  0  0  0  0
  145.6675  134.1149  152.7963 H   0  0  0  0  0  0  0  0  0  0  0  0
  146.8934  134.5296  150.8078 H   0  0  0  0  0  0  0  0  0  0  0  0
  147.6189  132.9144  150.7946 H   0  0  0  0  0  0  0  0  0  0  0  0
  144.7773  133.6651  150.0420 H   0  0  0  0  0  0  0  0  0  0  0  0
  145.8799  132.6149  149.1424 H   0  0  0  0  0  0  0  0  0  0  0  0
  144.0455  131.4810  150.7791 H   0  0  0  0  0  0  0  0  0  0  0  0
  145.6984  130.8718  150.8304 H   0  0  0  0  0  0  0  0  0  0  0  0
  146.8615  132.8050  162.9063 H   0  0  0  0  0  0  0  0  0  0  0  0
  146.6022  135.3744  163.8406 H   0  0  0  0  0  0  0  0  0  0  0  0
  147.0452  136.9414  161.6204 H   0  0  0  0  0  0  0  0  0  0  0  0
  1  2  1  0  0  0  0
  1 26  1  0  0  0  0
  1 27  1  0  0  0  0
  1 28  1  0  0  0  0
  2  3  1  0  0  0  0
  2 21  1  0  0  0  0
  2 29  1  0  0  0  0
  3  4  1  0  0  0  0
  3 30  1  0  0  0  0
  4  5  2  0  0  0  0
  4  6  1  0  0  0  0
  6  7  1  0  0  0  0
  6 31  1  0  0  0  0
  6 32  1  0  0  0  0
  7 19  1  0  0  0  0
  7  8  1  0  0  0  0
  8  9  2  0  0  0  0
  8 10  1  0  0  0  0
 10 11  1  0  0  0  0
 10 12  2  0  0  0  0
 12 13  1  0  0  0  0
 12 33  1  0  0  0  0
 13 14  1  0  0  0  0
 13 19  1  0  0  0  0
 14 18  1  0  0  0  0
 14 15  1  0  0  0  0
 14 34  1  0  0  0  0
 15 16  1  0  0  0  0
 15 35  1  0  0  0  0
 15 36  1  0  0  0  0
 16 17  1  0  0  0  0
 16 37  1  0  0  0  0
 16 38  1  0  0  0  0
 17 18  1  0  0  0  0
 17 39  1  0  0  0  0
 17 40  1  0  0  0  0
 19 20  2  0  0  0  0
 21 25  1  0  0  0  0
 21 22  2  0  0  0  0
 22 23  1  0  0  0  0
 22 41  1  0  0  0  0
 23 24  2  0  0  0  0
 23 42  1  0  0  0  0
 24 25  1  0  0  0  0
 24 43  1  0  0  0  0
M  END
> <s_m_source_file>
AV-unprocessed.smi

> <i_m_source_file_index>
123

> <i_lp_mmshare_version>
43012

> <i_f3d_flags>
0

> <s_epik_input>
bzFbY0hdW2NIXVtjSF1jMVtDQEhdKFtDSDNdKVtOSF1DKD1PKVtDSDJdbjJjKD1PKWMoRilbY0hdbihjMj1PKVtDQEBIXTNbQ0gyXVtDSDJdW0NIMl1PMw==

> <s_epik_cmdline>
J2VwaWtfcHl0aG9uJywgJy1waCcsICc3LjAnLCAnLXRuJywgJzgnLCAnLW1hJywgJzIwMCcsICctbWV0YWxfYmluZGluZycsICctaW1hZScsICc8aW5maWxlLm1hZT4nLCAnLW9tYWUnLCAnPG91dGZpbGUubWFlPic=

> <r_lp_tautomer_probability>
1

> <r_epik_Ionization_Penalty>
2.31906e-08

> <r_epik_Ionization_Penalty_Charging>
3.85846e-09

> <r_epik_Ionization_Penalty_Neutral>
1.93321e-08

> <r_epik_State_Penalty>
-0

> <r_epik_Charging_Adjusted_Penalty>
3.85846e-09

> <i_epik_Tot_Q>
0

> <i_epik_Tot_abs_Q>
0

> <r_epik_Metal_State_Penalty>
-0

> <b_epik_Metal_Only>
0

> <s_epik_Chemistry_Notes>
This compound contains an acetal/aminal-like group ( X-CH(R)-Y where X, Y are N, S, or O) that may be acid/base labile, releasing an aldehyde.

> <s_lp_Force_Field>
OPLS_2005

> <r_lp_Energy>
16.2808

> <b_lp_Chiralities_Consistent>
1

> <s_lp_Variant>
AV-unprocessed.smi:123-4

> <Gold.Version>
5.8.1

> <Gold.Id.Protein>
6NUR|6NUR_protein|mol2

> <Gold.PLP.Fitness>
42.5867

> <Gold.PLP.PLP>
-37.5687

> <Gold.PLP.part.hbond>
-1.0000

> <Gold.PLP.part.metal>
0.0000

> <Gold.PLP.part.buried>
-4.1833

> <Gold.PLP.part.nonpolar>
-32.2432

> <Gold.PLP.part.repulsive>
0.2803

> <Gold.PLP.ligand.clash>
0.0000

> <Gold.PLP.ligand.torsion>
0.3636

> <Gold.PLP.Chemscore.Hbond>
1.0000

> <Gold.PLP.Chemscore.CHOScore>
0.8978

> <Gold.PLP.Chemscore.Metal>
0.0000

> <Gold.Chemscore.Hbonds>
donor molecule, donor type, donor heavy atom, donor atom, acceptor molecule, acceptor atom, score
      P1  H  6896  6908       L1     5  0.90
      L1  C    12    33       P1 10747  1.00

> <Gold.PLP.Chemscore.Internal.Correction>
0.0518

> <Gold.Rescore>
     Score         DG    S(hbond)    S(metal)    S(lipo)     H(rot)  DE(clash)    DE(int)     intcor
      8.94     -12.24       0.96        0.00      79.35       2.23       0.01       3.29       ----

> <Gold.Chemscore.Fitness>
8.9415

> <Gold.Chemscore.DG>
-12.2395

> <Gold.Chemscore.ZeroCoef>
-5.4800

> <Gold.Chemscore.Hbond>
0.9571

> <Gold.Chemscore.Metal>
0.0000

> <Gold.Chemscore.Lipo>
79.3472

> <Gold.Chemscore.Internal_Hbond>
0.0000

> <Gold.Chemscore.DEClash>
0.0106

> <Gold.Chemscore.DEInternal>
3.2874

> <Gold.Chemscore.Rot>
2.2347

> <Gold.Chemscore.Internal.Correction>
   9.000000E+99

> <Gold.Chemscore.Hbonds>
donor molecule, donor type, donor heavy atom, donor atom, acceptor molecule, acceptor atom, score
      P1  H  6896  6908       L1     5  0.88

> <Gold.Chemscore.Hbond.Weighted>
-3.1967

> <Gold.Chemscore.Metal.Weighted>
-0.0000

> <Gold.Chemscore.Lipo.Weighted>
-9.2836

> <Gold.Chemscore.Internal_Hbond.Weighted>
0.0000

> <Gold.Chemscore.DEClash.Weighted>
0.0106

> <Gold.Chemscore.DEInternal.Weighted>
3.2874

> <Gold.Chemscore.Rot.Weighted>
5.7208

> <Gold.Chemscore.Internal.Correction.Weighted>
   9.000000E+99

> <Gold.Protein.RotatedTorsions>
[ 6907 6896 6895 6894 ] final   84.01 input  -60.11 | X-H torsion
[ 7974 7965 7964 7962 ] final   69.17 input  175.53 | X-H torsion
[ 8008 7997 7996 7995 ] final   39.05 input   59.86 | X-H torsion
[ 10167 10162 10161 10158 ] final  100.14 input  -65.29 | X-H torsion
[ 10718 10713 10712 10709 ] final   23.74 input   66.30 | X-H torsion
[ 10763 10752 10751 10750 ] final -145.93 input  -60.55 | X-H torsion
[ 11005 11000 10999 10996 ] final -124.18 input  -57.11 | X-H torsion

> <Gold.Protein.ActiveResidues>
 VAL166  LYS551  ARG553  GLY616  TRP617  ASP618  TYR619  PRO620  LYS621  CYS622 
 ASP623  PHE694  ASN695  SER759  ASP760  ASP761  ALA762  ILE779  LEU786  VAL792 
 PHE793  MET794  SER795  GLU796  ALA797  LYS798  CYS799  TRP800  GLU811  SER814 

> <Gold.Protein.RotatedAtoms>
  152.5342  134.2807  159.9006 H   0  0  0  0  0  0  0  0  0  0  0  0  # atno 6907 bound_to 6896
  151.2762  133.4225  159.2632 H   0  0  0  0  0  0  0  0  0  0  0  0  # atno 6908 bound_to 6896
  151.0324  134.9564  159.8175 H   0  0  0  0  0  0  0  0  0  0  0  0  # atno 6909 bound_to 6896
  145.7937  139.2947  143.1195 H   0  0  0  0  0  0  0  0  0  0  0  0  # atno 7974 bound_to 7965
  155.2303  140.3337  155.4304 H   0  0  0  0  0  0  0  0  0  0  0  0  # atno 8008 bound_to 7997
  156.2298  140.1845  156.7318 H   0  0  0  0  0  0  0  0  0  0  0  0  # atno 8009 bound_to 7997
  154.5958  140.0631  156.9287 H   0  0  0  0  0  0  0  0  0  0  0  0  # atno 8010 bound_to 7997
  139.7554  144.6971  151.0370 H   0  0  0  0  0  0  0  0  0  0  0  0  # atno 10167 bound_to 10162
  157.1702  130.6756  149.6075 H   0  0  0  0  0  0  0  0  0  0  0  0  # atno 10718 bound_to 10713
  154.8360  135.3400  154.6582 H   0  0  0  0  0  0  0  0  0  0  0  0  # atno 10763 bound_to 10752
  153.7197  135.6959  153.5020 H   0  0  0  0  0  0  0  0  0  0  0  0  # atno 10764 bound_to 10752
  153.2391  135.4390  155.0631 H   0  0  0  0  0  0  0  0  0  0  0  0  # atno 10765 bound_to 10752
  140.9861  134.0605  157.3709 H   0  0  0  0  0  0  0  0  0  0  0  0  # atno 11005 bound_to 11000
  145.9950  140.8570  143.0047 LP  0  0  0  0  0  0  0  0  0  0  0  0  # atno 17320 bound_to 7965
  144.6778  140.2270  143.7360 LP  0  0  0  0  0  0  0  0  0  0  0  0  # atno 17321 bound_to 7965
  140.7802  143.4759  151.0083 LP  0  0  0  0  0  0  0  0  0  0  0  0  # atno 17342 bound_to 10162
  139.8446  143.7518  152.3179 LP  0  0  0  0  0  0  0  0  0  0  0  0  # atno 17343 bound_to 10162
  155.9739  130.4681  150.6350 LP  0  0  0  0  0  0  0  0  0  0  0  0  # atno 17370 bound_to 10713
  157.4050  131.0815  151.1274 LP  0  0  0  0  0  0  0  0  0  0  0  0  # atno 17371 bound_to 10713
  139.8971  135.0149  156.7084 LP  0  0  0  0  0  0  0  0  0  0  0  0  # atno 17394 bound_to 11000
  140.7112  133.9221  155.8086 LP  0  0  0  0  0  0  0  0  0  0  0  0  # atno 17395 bound_to 11000

$$$$
