#       Name:                AV-unprocessed.smi:713
#       Creating user name   scv26
#       Creation time:       Fri Mar 27 00:47:06 2020


#       File generated by GOLD software.
#

@<TRIPOS>MOLECULE
AV-unprocessed.smi:713
    44    45     1
SMALL
NO_CHARGES


@<TRIPOS>ATOM
      1 ****        -3.2962  -2.3021  -0.5605 C.3            1 S1                 0.0000
      2 ****        -2.7244  -1.2658   0.4282 C.3            1 S1                 0.0000
      3 ****        -1.2059  -1.0907   0.2747 C.2            1 S1                 0.0000
      4 ****        -0.4844  -2.0598   0.0356 O.2            1 S1                 0.0000
      5 ****        -0.7332   0.1579   0.4174 N.am           1 S1                 0.0000
      6 ****         0.6707   0.5461   0.3220 C.3            1 S1                 0.0000
      7 ****         0.8762   1.9049   1.0164 C.3            1 S1                 0.0000
      8 ****         2.3307   2.3841   0.8924 C.3            1 S1                 0.0000
      9 ****         2.7736   2.4459  -0.5774 C.3            1 S1                 0.0000
     10 ****         2.5831   1.0885  -1.2778 C.3            1 S1                 0.0000
     11 ****         3.0942   1.2196  -3.0514 S.o2           1 S1                 0.0000
     12 ****         3.0576  -0.5328  -3.6154 C.3            1 S1                 0.0000
     13 ****         2.0530   1.9535  -3.7871 O.2            1 S1                 0.0000
     14 ****         4.4859   1.6933  -3.0975 O.2            1 S1                 0.0000
     15 ****         1.1228   0.6113  -1.1520 C.3            1 S1                 0.0000
     16 ****        -3.0573  -1.5736   1.8147 N.pl3          1 S1                 0.0000
     17 ****        -3.4410  -0.6955   2.8082 C.2            1 S1                 0.0000
     18 ****        -3.6074  -1.4179   3.9548 C.2            1 S1                 0.0000
     19 ****        -3.2843  -2.7472   3.5660 C.2            1 S1                 0.0000
     20 ****        -2.9468  -2.8363   2.2904 N.2            1 S1                 0.0000
     21 ****        -3.0873  -2.0160  -1.5919 H              1 S1                 0.0000
     22 ****        -4.3788  -2.3804  -0.4568 H              1 S1                 0.0000
     23 ****        -2.8774  -3.2971  -0.4043 H              1 S1                 0.0000
     24 ****        -3.1943  -0.3090   0.1936 H              1 S1                 0.0000
     25 ****        -1.3958   0.8945   0.6119 H              1 S1                 0.0000
     26 ****         1.2755  -0.1977   0.8447 H              1 S1                 0.0000
     27 ****         0.2130   2.6506   0.5751 H              1 S1                 0.0000
     28 ****         0.6024   1.8326   2.0699 H              1 S1                 0.0000
     29 ****         2.4392   3.3660   1.3541 H              1 S1                 0.0000
     30 ****         2.9866   1.7094   1.4439 H              1 S1                 0.0000
     31 ****         2.1997   3.2127  -1.0995 H              1 S1                 0.0000
     32 ****         3.8186   2.7521  -0.6318 H              1 S1                 0.0000
     33 ****         3.2425   0.3558  -0.8111 H              1 S1                 0.0000
     34 ****         3.4351  -0.5887  -4.6361 H              1 S1                 0.0000
     35 ****         2.0365  -0.9115  -3.5949 H              1 S1                 0.0000
     36 ****         3.6871  -1.1403  -2.9654 H              1 S1                 0.0000
     37 ****         1.0129  -0.3701  -1.6117 H              1 S1                 0.0000
     38 ****         0.4672   1.2861  -1.7041 H              1 S1                 0.0000
     39 ****        -3.5629   0.3608   2.6186 H              1 S1                 0.0000
     40 ****        -3.9085  -1.0518   4.9250 H              1 S1                 0.0000
     41 ****        -3.2800  -3.6432   4.1693 H              1 S1                 0.0000
     42 ****        -0.8860  -2.9705  -0.0603 LP             1 S1                 0.0000
     43 ****         0.5031  -1.9358  -0.0626 LP             1 S1                 0.0000
     44 ****        -2.6708  -3.6557   1.7880 LP             1 S1                 0.0000
@<TRIPOS>BOND
    1    1    2 1     
    2    1   21 1     
    3    1   22 1     
    4    1   23 1     
    5    2    3 1     
    6    2   16 1     
    7    2   24 1     
    8    3    4 2     
    9    3    5 am    
   10    5    6 1     
   11    5   25 1     
   12    6   15 1     
   13    6    7 1     
   14    6   26 1     
   15    7    8 1     
   16    7   27 1     
   17    7   28 1     
   18    8    9 1     
   19    8   29 1     
   20    8   30 1     
   21    9   10 1     
   22    9   31 1     
   23    9   32 1     
   24   10   11 1     
   25   10   15 1     
   26   10   33 1     
   27   11   12 1     
   28   11   13 2     
   29   11   14 2     
   30   12   34 1     
   31   12   35 1     
   32   12   36 1     
   33   15   37 1     
   34   15   38 1     
   35   16   20 1     
   36   16   17 1     
   37   17   18 2     
   38   17   39 1     
   39   18   19 1     
   40   18   40 1     
   41   19   20 2     
   42   19   41 1     
   43    4   42 1     
   44    4   43 1     
   45   20   44 1     
@<TRIPOS>SUBSTRUCTURE
      1 S1             1
@<TRIPOS>SET
LONE_PAIRS      STATIC     ATOMS    <user>   **** ""
5 42 43 13 14 44
DONOR_HYDROGENS      STATIC     ATOMS    <user>   **** ""
1 25
ATOM$BLUE        STATIC     ATOMS    COLORGROUP SYSTEM
5 42 43 13 14 44
ATOM$RED        STATIC     ATOMS    COLORGROUP SYSTEM
1 25
