AV-unprocessed.smi:1707|AV-procd|sdf|6887|dock3
  -GOLD-   22720 8 93D 1   1.00000     0.00000
 Structure written by MMmdl.
 41 42  0  0  0  0  0  0  0  0  1 V2000
  150.4554  137.0899  159.5492 O   0  0  0  0  0  0  0  0  0  0  0  0
  149.3226  137.4349  159.2140 C   0  0  0  0  0  0  0  0  0  0  0  0
  149.0864  138.3537  158.2665 N   0  0  0  0  0  0  0  0  0  0  0  0
  150.1148  139.0623  157.5136 C   0  0  0  0  0  0  0  0  0  0  0  0
  149.7562  140.5473  157.3300 C   0  0  0  0  0  0  0  0  0  0  0  0
  150.8213  141.4825  157.8774 C   0  0  0  0  0  0  0  0  0  0  0  0
  151.8801  141.0278  158.5755 C   0  0  0  0  0  0  0  0  0  0  0  0
  152.9664  141.9177  159.1540 C   0  0  0  0  0  0  0  0  0  0  0  0
  152.5645  143.4020  159.1642 C   0  0  0  0  0  0  0  0  0  0  0  0
  151.8910  143.8017  157.8457 C   0  0  0  0  0  0  0  0  0  0  0  0
  150.6240  142.9665  157.5881 C   0  0  0  0  0  0  0  0  0  0  0  0
  148.1690  136.9759  159.7335 N   0  0  0  0  0  0  0  0  0  0  0  0
  147.9542  136.0094  160.7316 C   0  0  0  0  0  0  0  0  0  0  0  0
  148.0565  134.6654  160.5561 C   0  0  0  0  0  0  0  0  0  0  0  0
  147.8089  133.7246  161.6360 C   0  0  0  0  0  0  0  0  0  0  0  0
  148.0021  132.2284  161.4444 C   0  0  0  0  0  0  0  0  0  0  0  0
  148.9989  131.7660  162.2004 F   0  0  0  0  0  0  0  0  0  0  0  0
  146.8882  131.5811  161.7835 F   0  0  0  0  0  0  0  0  0  0  0  0
  148.2756  131.9429  160.1712 F   0  0  0  0  0  0  0  0  0  0  0  0
  147.4811  134.2530  162.8294 C   0  0  0  0  0  0  0  0  0  0  0  0
  147.3559  135.6315  163.0139 N   0  0  0  0  0  0  0  0  0  0  0  0
  147.5693  136.5506  162.0459 C   0  0  0  0  0  0  0  0  0  0  0  0
  147.4394  137.7498  162.2897 O   0  0  0  0  0  0  0  0  0  0  0  0
  147.0919  135.9493  163.9354 H   0  0  0  0  0  0  0  0  0  0  0  0
  148.1267  138.5821  158.0517 H   0  0  0  0  0  0  0  0  0  0  0  0
  151.0786  138.9502  158.0123 H   0  0  0  0  0  0  0  0  0  0  0  0
  150.2110  138.5821  156.5395 H   0  0  0  0  0  0  0  0  0  0  0  0
  149.6027  140.7545  156.2699 H   0  0  0  0  0  0  0  0  0  0  0  0
  148.8117  140.7750  157.8258 H   0  0  0  0  0  0  0  0  0  0  0  0
  151.9977  139.9672  158.7436 H   0  0  0  0  0  0  0  0  0  0  0  0
  153.1996  141.5893  160.1669 H   0  0  0  0  0  0  0  0  0  0  0  0
  153.8691  141.7766  158.5588 H   0  0  0  0  0  0  0  0  0  0  0  0
  151.8742  143.5875  159.9882 H   0  0  0  0  0  0  0  0  0  0  0  0
  153.4404  144.0244  159.3487 H   0  0  0  0  0  0  0  0  0  0  0  0
  151.6410  144.8630  157.8534 H   0  0  0  0  0  0  0  0  0  0  0  0
  152.5956  143.6566  157.0260 H   0  0  0  0  0  0  0  0  0  0  0  0
  150.3063  143.0978  156.5534 H   0  0  0  0  0  0  0  0  0  0  0  0
  149.8116  143.3314  158.2168 H   0  0  0  0  0  0  0  0  0  0  0  0
  147.3236  137.3987  159.3779 H   0  0  0  0  0  0  0  0  0  0  0  0
  148.3099  134.2437  159.5980 H   0  0  0  0  0  0  0  0  0  0  0  0
  147.2977  133.6739  163.7225 H   0  0  0  0  0  0  0  0  0  0  0  0
  1  2  2  0  0  0  0
  2  3  1  0  0  0  0
  2 12  1  0  0  0  0
  3  4  1  0  0  0  0
  3 25  1  0  0  0  0
  4  5  1  0  0  0  0
  4 26  1  0  0  0  0
  4 27  1  0  0  0  0
  5  6  1  0  0  0  0
  5 28  1  0  0  0  0
  5 29  1  0  0  0  0
  6 11  1  0  0  0  0
  6  7  2  0  0  0  0
  7  8  1  0  0  0  0
  7 30  1  0  0  0  0
  8  9  1  0  0  0  0
  8 31  1  0  0  0  0
  8 32  1  0  0  0  0
  9 10  1  0  0  0  0
  9 33  1  0  0  0  0
  9 34  1  0  0  0  0
 10 11  1  0  0  0  0
 10 35  1  0  0  0  0
 10 36  1  0  0  0  0
 11 37  1  0  0  0  0
 11 38  1  0  0  0  0
 12 13  1  0  0  0  0
 12 39  1  0  0  0  0
 13 22  1  0  0  0  0
 13 14  2  0  0  0  0
 14 15  1  0  0  0  0
 14 40  1  0  0  0  0
 15 16  1  0  0  0  0
 15 20  2  0  0  0  0
 16 17  1  0  0  0  0
 16 18  1  0  0  0  0
 16 19  1  0  0  0  0
 20 21  1  0  0  0  0
 20 41  1  0  0  0  0
 21 24  1  0  0  0  0
 21 22  1  0  0  0  0
 22 23  2  0  0  0  0
M  END
> <s_m_source_file>
AV-unprocessed.smi

> <i_m_source_file_index>
1707

> <i_lp_mmshare_version>
43012

> <i_f3d_flags>
0

> <s_epik_input>
Tz1jMVtuSF1bY0hdYyhDKEYpKEYpRilbY0hdYzFbTkhdQyg9TylbTkhdW0NIMl1bQ0gyXUMyPVtDSF1bQ0gyXVtDSDJdW0NIMl1bQ0gyXTI=

> <s_epik_cmdline>
J2VwaWtfcHl0aG9uJywgJy1waCcsICc3LjAnLCAnLXRuJywgJzgnLCAnLW1hJywgJzIwMCcsICctbWV0YWxfYmluZGluZycsICctaW1hZScsICc8aW5maWxlLm1hZT4nLCAnLW9tYWUnLCAnPG91dGZpbGUubWFlPic=

> <r_lp_tautomer_probability>
1

> <r_epik_Ionization_Penalty>
0.00382222

> <r_epik_Ionization_Penalty_Charging>
0.0038016

> <r_epik_Ionization_Penalty_Neutral>
2.06242e-05

> <r_epik_State_Penalty>
-0

> <r_epik_Charging_Adjusted_Penalty>
0.0038016

> <i_epik_Tot_Q>
0

> <i_epik_Tot_abs_Q>
0

> <r_epik_Metal_State_Penalty>
0.371215

> <b_epik_Metal_Only>
0

> <s_lp_Force_Field>
OPLS_2005

> <r_lp_Energy>
19.0753

> <b_lp_Chiralities_Consistent>
1

> <s_lp_Variant>
AV-unprocessed.smi:1707-1

> <Gold.Version>
5.8.1

> <Gold.Id.Protein>
6NUR|6NUR_protein|mol2

> <Gold.PLP.Fitness>
49.2829

> <Gold.PLP.PLP>
-44.8812

> <Gold.PLP.part.hbond>
-3.0000

> <Gold.PLP.part.metal>
0.0000

> <Gold.PLP.part.buried>
-6.1241

> <Gold.PLP.part.nonpolar>
-36.4115

> <Gold.PLP.part.repulsive>
0.4731

> <Gold.PLP.ligand.clash>
0.0000

> <Gold.PLP.ligand.torsion>
1.3181

> <Gold.PLP.Chemscore.Hbond>
2.3280

> <Gold.PLP.Chemscore.CHOScore>
0.0000

> <Gold.PLP.Chemscore.Metal>
0.0000

> <Gold.Chemscore.Hbonds>
donor molecule, donor type, donor heavy atom, donor atom, acceptor molecule, acceptor atom, score
      P1  H  6896  6909       L1     1  0.62
      P1  H  6931  6943       L1    23  0.56
      P1  H  6934  6947       L1    23  0.42

> <Gold.PLP.Chemscore.Internal.Correction>
0.0538

> <Gold.Rescore>
     Score         DG    S(hbond)    S(metal)    S(lipo)     H(rot)  DE(clash)    DE(int)     intcor
     19.77     -21.05       2.54        0.00      94.92       1.57       0.00       1.29       ----

> <Gold.Chemscore.Fitness>
19.7667

> <Gold.Chemscore.DG>
-21.0534

> <Gold.Chemscore.ZeroCoef>
-5.4800

> <Gold.Chemscore.Hbond>
2.5422

> <Gold.Chemscore.Metal>
0.0000

> <Gold.Chemscore.Lipo>
94.9246

> <Gold.Chemscore.Internal_Hbond>
0.0000

> <Gold.Chemscore.DEClash>
0.0000

> <Gold.Chemscore.DEInternal>
1.2867

> <Gold.Chemscore.Rot>
1.5717

> <Gold.Chemscore.Internal.Correction>
   9.000000E+99

> <Gold.Chemscore.Hbonds>
donor molecule, donor type, donor heavy atom, donor atom, acceptor molecule, acceptor atom, score
      P1  H  6896  6909       L1     1  0.61
      P1  H  6931  6943       L1    23  0.14
      P1  H  6934  6947       L1    23  0.42

> <Gold.Chemscore.Hbond.Weighted>
-8.4909

> <Gold.Chemscore.Metal.Weighted>
-0.0000

> <Gold.Chemscore.Lipo.Weighted>
-11.1062

> <Gold.Chemscore.Internal_Hbond.Weighted>
0.0000

> <Gold.Chemscore.DEClash.Weighted>
0.0000

> <Gold.Chemscore.DEInternal.Weighted>
1.2867

> <Gold.Chemscore.Rot.Weighted>
4.0237

> <Gold.Chemscore.Internal.Correction.Weighted>
   9.000000E+99

> <Gold.Protein.RotatedTorsions>
[ 6907 6896 6895 6894 ] final   79.27 input  -60.11 | X-H torsion
[ 7974 7965 7964 7962 ] final  129.64 input  175.53 | X-H torsion
[ 8008 7997 7996 7995 ] final  128.41 input   59.86 | X-H torsion
[ 10167 10162 10161 10158 ] final   14.56 input  -65.29 | X-H torsion
[ 10718 10713 10712 10709 ] final  113.64 input   66.30 | X-H torsion
[ 10763 10752 10751 10750 ] final  176.85 input  -60.55 | X-H torsion
[ 11005 11000 10999 10996 ] final   48.04 input  -57.11 | X-H torsion

> <Gold.Protein.ActiveResidues>
 VAL166  LYS551  ARG553  GLY616  TRP617  ASP618  TYR619  PRO620  LYS621  CYS622 
 ASP623  PHE694  ASN695  SER759  ASP760  ASP761  ALA762  ILE779  LEU786  VAL792 
 PHE793  MET794  SER795  GLU796  ALA797  LYS798  CYS799  TRP800  GLU811  SER814 

> <Gold.Protein.RotatedAtoms>
  152.5192  134.3536  159.9259 H   0  0  0  0  0  0  0  0  0  0  0  0  # atno 6907 bound_to 6896
  151.3488  133.3927  159.2686 H   0  0  0  0  0  0  0  0  0  0  0  0  # atno 6908 bound_to 6896
  150.9744  134.9130  159.7865 H   0  0  0  0  0  0  0  0  0  0  0  0  # atno 6909 bound_to 6896
  145.0264  139.4085  143.5171 H   0  0  0  0  0  0  0  0  0  0  0  0  # atno 7974 bound_to 7965
  156.2914  140.2645  156.2431 H   0  0  0  0  0  0  0  0  0  0  0  0  # atno 8008 bound_to 7997
  154.9957  140.0388  157.2357 H   0  0  0  0  0  0  0  0  0  0  0  0  # atno 8009 bound_to 7997
  154.7646  140.2767  155.6191 H   0  0  0  0  0  0  0  0  0  0  0  0  # atno 8010 bound_to 7997
  140.5927  143.8763  150.6889 H   0  0  0  0  0  0  0  0  0  0  0  0  # atno 10167 bound_to 10162
  157.6326  131.0987  150.7071 H   0  0  0  0  0  0  0  0  0  0  0  0  # atno 10718 bound_to 10713
  154.4866  135.2777  155.1529 H   0  0  0  0  0  0  0  0  0  0  0  0  # atno 10763 bound_to 10752
  154.3217  135.6208  153.5514 H   0  0  0  0  0  0  0  0  0  0  0  0  # atno 10764 bound_to 10752
  152.9882  135.5744  154.5279 H   0  0  0  0  0  0  0  0  0  0  0  0  # atno 10765 bound_to 10752
  140.1226  134.4810  155.8585 H   0  0  0  0  0  0  0  0  0  0  0  0  # atno 11005 bound_to 11000
  146.3493  139.9790  142.8698 LP  0  0  0  0  0  0  0  0  0  0  0  0  # atno 17320 bound_to 7965
  145.1827  140.9775  143.4256 LP  0  0  0  0  0  0  0  0  0  0  0  0  # atno 17321 bound_to 7965
  140.2290  143.3750  152.1581 LP  0  0  0  0  0  0  0  0  0  0  0  0  # atno 17342 bound_to 10162
  139.5238  144.7076  151.5307 LP  0  0  0  0  0  0  0  0  0  0  0  0  # atno 17343 bound_to 10162
  156.7407  130.4738  149.5478 LP  0  0  0  0  0  0  0  0  0  0  0  0  # atno 17370 bound_to 10713
  156.1541  130.6330  151.0634 LP  0  0  0  0  0  0  0  0  0  0  0  0  # atno 17371 bound_to 10713
  141.2155  133.6766  156.6917 LP  0  0  0  0  0  0  0  0  0  0  0  0  # atno 17394 bound_to 11000
  140.2945  134.8213  157.4045 LP  0  0  0  0  0  0  0  0  0  0  0  0  # atno 17395 bound_to 11000

$$$$
