#       Name:                AV-unprocessed.smi:915
#       Creating user name   scv26
#       Creation time:       Fri Mar 27 02:06:18 2020


#       File generated by GOLD software.
#

@<TRIPOS>MOLECULE
AV-unprocessed.smi:915
    37    38     1
SMALL
NO_CHARGES


@<TRIPOS>ATOM
      1 ****        -5.8875  -0.7513  -1.0160 C.3            1 S1                 0.0000
      2 ****        -5.6871  -0.1990   0.3997 C.3            1 S1                 0.0000
      3 ****        -4.5956   0.8258   0.4613 C.2            1 S1                 0.0000
      4 ****        -4.7410   2.1856   0.5274 C.2            1 S1                 0.0000
      5 ****        -3.2002   2.9916   0.5770 S.3            1 S1                 0.0000
      6 ****        -2.3763   1.4321   0.5032 C.2            1 S1                 0.0000
      7 ****        -1.0282   1.3326   0.4997 N.pl3          1 S1                -1.0000
      8 ****        -0.3263   0.1721   0.4404 C.2            1 S1                 0.0000
      9 ****        -0.7743  -0.9756   0.3973 O.2            1 S1                 0.0000
     10 ****         1.0001   0.3587   0.4296 N.am           1 S1                 0.0000
     11 ****         1.9976  -0.7021   0.3619 C.3            1 S1                 0.0000
     12 ****         3.4217  -0.1241   0.3374 C.3            1 S1                 0.0000
     13 ****         4.5035  -1.2106   0.4068 C.3            1 S1                 0.0000
     14 ****         5.7846  -0.6036  -0.1662 C.3            1 S1                 0.0000
     15 ****         5.3795   0.1195  -1.4506 C.3            1 S1                 0.0000
     16 ****         3.7490   0.8512  -1.1621 S.3            1 S1                 0.0000
     17 ****        -3.2592   0.4217   0.4505 N.2            1 S1                 0.0000
     18 ****        -6.6848  -1.4943  -1.0340 H              1 S1                 0.0000
     19 ****        -4.9787  -1.2291  -1.3836 H              1 S1                 0.0000
     20 ****        -6.1551   0.0428  -1.7135 H              1 S1                 0.0000
     21 ****        -6.6250   0.2317   0.7516 H              1 S1                 0.0000
     22 ****        -5.4627  -1.0224   1.0785 H              1 S1                 0.0000
     23 ****        -5.6540   2.7609   0.5487 H              1 S1                 0.0000
     24 ****         1.3400   1.3087   0.4601 H              1 S1                 0.0000
     25 ****         1.8780  -1.3528   1.2295 H              1 S1                 0.0000
     26 ****         1.8220  -1.3133  -0.5249 H              1 S1                 0.0000
     27 ****         3.5573   0.5461   1.1875 H              1 S1                 0.0000
     28 ****         4.6467  -1.5712   1.4260 H              1 S1                 0.0000
     29 ****         4.2115  -2.0683  -0.2008 H              1 S1                 0.0000
     30 ****         6.1993   0.1129   0.5439 H              1 S1                 0.0000
     31 ****         6.5480  -1.3597  -0.3507 H              1 S1                 0.0000
     32 ****         6.1050   0.8781  -1.7449 H              1 S1                 0.0000
     33 ****         5.2913  -0.5948  -2.2698 H              1 S1                 0.0000
     34 ****        -0.5050   2.1837   0.5444 LP             1 S1                 0.0000
     35 ****        -1.7627  -1.1271   0.4042 LP             1 S1                 0.0000
     36 ****        -0.1492  -1.7551   0.3554 LP             1 S1                 0.0000
     37 ****        -2.9830  -0.5384   0.4072 LP             1 S1                 0.0000
@<TRIPOS>BOND
    1    1    2 1     
    2    1   18 1     
    3    1   19 1     
    4    1   20 1     
    5    2    3 1     
    6    2   21 1     
    7    2   22 1     
    8    3   17 1     
    9    3    4 2     
   10    4    5 1     
   11    4   23 1     
   12    5    6 1     
   13    6    7 1     
   14    6   17 2     
   15    7    8 1     
   16    8    9 2     
   17    8   10 am    
   18   10   11 1     
   19   10   24 1     
   20   11   12 1     
   21   11   25 1     
   22   11   26 1     
   23   12   16 1     
   24   12   13 1     
   25   12   27 1     
   26   13   14 1     
   27   13   28 1     
   28   13   29 1     
   29   14   15 1     
   30   14   30 1     
   31   14   31 1     
   32   15   16 1     
   33   15   32 1     
   34   15   33 1     
   35    7   34 1     
   36    9   35 1     
   37    9   36 1     
   38   17   37 1     
@<TRIPOS>SUBSTRUCTURE
      1 S1             1
@<TRIPOS>SET
LONE_PAIRS      STATIC     ATOMS    <user>   **** ""
4 34 35 36 37
DONOR_HYDROGENS      STATIC     ATOMS    <user>   **** ""
1 24
ATOM$BLUE        STATIC     ATOMS    COLORGROUP SYSTEM
4 34 35 36 37
ATOM$RED        STATIC     ATOMS    COLORGROUP SYSTEM
1 24
