#       Name:                AV-unprocessed.smi:1726
#       Creating user name   scv26
#       Creation time:       Fri Mar 27 08:17:43 2020


#       File generated by GOLD software.
#

@<TRIPOS>MOLECULE
AV-unprocessed.smi:1726
    47    48     1
SMALL
NO_CHARGES


@<TRIPOS>ATOM
      1 ****        -1.1188  -1.3640   3.1425 C.3            1 S1                 0.0000
      2 ****        -2.0815  -2.2161   2.3025 C.3            1 S1                 0.0000
      3 ****        -1.9112  -1.9886   0.8460 N.4            1 S1                 1.0000
      4 ****        -2.4158  -3.1232   0.0293 C.3            1 S1                 0.0000
      5 ****        -2.0867  -2.9282  -1.4619 C.3            1 S1                 0.0000
      6 ****        -2.5980  -1.5729  -1.9808 C.3            1 S1                 0.0000
      7 ****        -2.1007  -0.4198  -1.0905 C.3            1 S1                 0.0000
      8 ****        -0.6548  -0.2600  -1.2478 N.am           1 S1                 0.0000
      9 ****         0.0656   0.7851  -0.8170 C.2            1 S1                 0.0000
     10 ****        -0.4323   1.7574  -0.2502 O.2            1 S1                 0.0000
     11 ****         1.3745   0.5924  -1.0575 N.am           1 S1                 0.0000
     12 ****         2.4675   1.4159  -0.7410 C.2            1 S1                 0.0000
     13 ****         2.3815   2.7422  -0.4443 C.2            1 S1                 0.0000
     14 ****         3.5547   3.5479  -0.1300 C.2            1 S1                 0.0000
     15 ****         3.5055   5.0427   0.1322 C.3            1 S1                 0.0000
     16 ****         3.4639   5.2718   1.4440 F              1 S1                 0.0000
     17 ****         4.5835   5.6518  -0.3624 F              1 S1                 0.0000
     18 ****         2.4227   5.5901  -0.4204 F              1 S1                 0.0000
     19 ****         4.7263   2.8195  -0.2031 C.2            1 S1                 0.0000
     20 ****         4.8968   1.5083  -0.4809 N.pl3          1 S1                -1.0000
     21 ****         3.7922   0.7622  -0.7642 C.2            1 S1                 0.0000
     22 ****         3.8753  -0.4368  -1.0339 O.2            1 S1                 0.0000
     23 ****        -2.4860  -0.6991   0.3792 C.3            1 S1                 0.0000
     24 ****        -1.2020  -1.6206   4.1988 H              1 S1                 0.0000
     25 ****        -1.3266  -0.2982   3.0530 H              1 S1                 0.0000
     26 ****        -0.0833  -1.5305   2.8437 H              1 S1                 0.0000
     27 ****        -1.8776  -3.2637   2.5281 H              1 S1                 0.0000
     28 ****        -3.1169  -2.0329   2.5937 H              1 S1                 0.0000
     29 ****        -1.9671  -4.0559   0.3734 H              1 S1                 0.0000
     30 ****        -3.4940  -3.2198   0.1676 H              1 S1                 0.0000
     31 ****        -1.0079  -2.9956  -1.6078 H              1 S1                 0.0000
     32 ****        -2.5234  -3.7378  -2.0472 H              1 S1                 0.0000
     33 ****        -2.2867  -1.4208  -3.0151 H              1 S1                 0.0000
     34 ****        -3.6888  -1.5789  -1.9876 H              1 S1                 0.0000
     35 ****        -2.5826   0.5030  -1.4182 H              1 S1                 0.0000
     36 ****        -0.1626  -1.0105  -1.7106 H              1 S1                 0.0000
     37 ****         1.6314  -0.2904  -1.4746 H              1 S1                 0.0000
     38 ****         1.4304   3.2487  -0.4479 H              1 S1                 0.0000
     39 ****         5.6692   3.3751  -0.0125 H              1 S1                 0.0000
     40 ****        -3.5720  -0.7292   0.4814 H              1 S1                 0.0000
     41 ****        -2.1471   0.1216   1.0098 H              1 S1                 0.0000
     42 ****        -0.9156  -1.9417   0.6815 H              1 S1                 0.0000
     43 ****        -1.4191   1.7927  -0.0919 LP             1 S1                 0.0000
     44 ****         0.1499   2.5121   0.0521 LP             1 S1                 0.0000
     45 ****         5.8082   1.0968  -0.4787 LP             1 S1                 0.0000
     46 ****         3.0488  -0.9624  -1.2356 LP             1 S1                 0.0000
     47 ****         4.7692  -0.8846  -1.0511 LP             1 S1                 0.0000
@<TRIPOS>BOND
    1    1    2 1     
    2    1   24 1     
    3    1   25 1     
    4    1   26 1     
    5    2    3 1     
    6    2   27 1     
    7    2   28 1     
    8    3   23 1     
    9    3    4 1     
   10    3   42 1     
   11    4    5 1     
   12    4   29 1     
   13    4   30 1     
   14    5    6 1     
   15    5   31 1     
   16    5   32 1     
   17    6    7 1     
   18    6   33 1     
   19    6   34 1     
   20    7    8 1     
   21    7   23 1     
   22    7   35 1     
   23    8    9 am    
   24    8   36 1     
   25    9   10 2     
   26    9   11 am    
   27   11   12 1     
   28   11   37 1     
   29   12   21 1     
   30   12   13 2     
   31   13   14 1     
   32   13   38 1     
   33   14   15 1     
   34   14   19 2     
   35   15   16 1     
   36   15   17 1     
   37   15   18 1     
   38   19   20 1     
   39   19   39 1     
   40   20   21 1     
   41   21   22 2     
   42   23   40 1     
   43   23   41 1     
   44   10   43 1     
   45   10   44 1     
   46   20   45 1     
   47   22   46 1     
   48   22   47 1     
@<TRIPOS>SUBSTRUCTURE
      1 S1             1
@<TRIPOS>SET
LONE_PAIRS      STATIC     ATOMS    <user>   **** ""
5 43 44 45 46 47
DONOR_HYDROGENS      STATIC     ATOMS    <user>   **** ""
3 42 36 37
ATOM$BLUE        STATIC     ATOMS    COLORGROUP SYSTEM
5 43 44 45 46 47
ATOM$RED        STATIC     ATOMS    COLORGROUP SYSTEM
3 42 36 37
