#       Name:                AV-unprocessed.smi:2279
#       Creating user name   scv26
#       Creation time:       Fri Mar 27 12:40:36 2020


#       File generated by GOLD software.
#

@<TRIPOS>MOLECULE
AV-unprocessed.smi:2279
    61    63     1
SMALL
NO_CHARGES


@<TRIPOS>ATOM
      1 ****        -7.4641   4.2730  -1.7755 C.3            1 S1                 0.0000
      2 ****        -6.8107   2.9238  -1.5619 C.ar           1 S1                 0.0000
      3 ****        -7.5846   1.7502  -1.4821 C.ar           1 S1                 0.0000
      4 ****        -6.9166   0.5262  -1.2827 C.ar           1 S1                 0.0000
      5 ****        -7.6858  -0.7747  -1.1907 C.3            1 S1                 0.0000
      6 ****        -5.5750   0.4294  -1.1660 N.ar           1 S1                 0.0000
      7 ****        -4.8195   1.5530  -1.2413 C.ar           1 S1                 0.0000
      8 ****        -3.4034   1.5587  -1.1290 N.am           1 S1                 0.0000
      9 ****        -2.5813   0.5103  -0.9457 C.2            1 S1                 0.0000
     10 ****        -2.9345  -0.6655  -0.8493 O.2            1 S1                 0.0000
     11 ****        -1.3000   0.9015  -0.8765 N.am           1 S1                 0.0000
     12 ****        -0.1603   0.0081  -0.6888 C.3            1 S1                 0.0000
     13 ****         0.0060  -0.3735   0.7901 C.3            1 S1                 0.0000
     14 ****         1.2539  -1.2464   0.9964 C.3            1 S1                 0.0000
     15 ****         2.4945  -0.5716   0.5158 N.4            1 S1                 1.0000
     16 ****         3.7317  -1.3499   0.8552 C.3            1 S1                 0.0000
     17 ****         4.0508  -1.2574   2.3659 C.3            1 S1                 0.0000
     18 ****         5.3491  -1.9993   2.7284 C.3            1 S1                 0.0000
     19 ****         6.4707  -1.4426   1.9766 N.3            1 S1                 0.0000
     20 ****         7.7016  -2.1083   2.3796 C.3            1 S1                 0.0000
     21 ****         6.2533  -1.6521   0.5477 C.3            1 S1                 0.0000
     22 ****         4.9965  -0.8940   0.0871 C.3            1 S1                 0.0000
     23 ****         2.3610  -0.1921  -0.9219 C.3            1 S1                 0.0000
     24 ****         1.1253   0.6895  -1.1732 C.3            1 S1                 0.0000
     25 ****        -5.4102   2.8212  -1.4398 C.ar           1 S1                 0.0000
     26 ****        -8.5503   4.1862  -1.8160 H              1 S1                 0.0000
     27 ****        -7.1219   4.7137  -2.7120 H              1 S1                 0.0000
     28 ****        -7.2065   4.9508  -0.9613 H              1 S1                 0.0000
     29 ****        -8.6605   1.7866  -1.5717 H              1 S1                 0.0000
     30 ****        -8.7607  -0.5961  -1.1524 H              1 S1                 0.0000
     31 ****        -7.4009  -1.3240  -0.2929 H              1 S1                 0.0000
     32 ****        -7.4739  -1.3998  -2.0585 H              1 S1                 0.0000
     33 ****        -2.9681   2.4668  -1.1936 H              1 S1                 0.0000
     34 ****        -1.0984   1.8867  -0.9660 H              1 S1                 0.0000
     35 ****        -0.3148  -0.8974  -1.2793 H              1 S1                 0.0000
     36 ****         0.0833   0.5259   1.4028 H              1 S1                 0.0000
     37 ****        -0.8751  -0.9118   1.1419 H              1 S1                 0.0000
     38 ****         1.3217  -1.4832   2.0561 H              1 S1                 0.0000
     39 ****         1.1317  -2.1962   0.4730 H              1 S1                 0.0000
     40 ****         3.5533  -2.3951   0.5955 H              1 S1                 0.0000
     41 ****         4.1376  -0.2110   2.6623 H              1 S1                 0.0000
     42 ****         3.2495  -1.6801   2.9691 H              1 S1                 0.0000
     43 ****         5.5402  -1.8932   3.7972 H              1 S1                 0.0000
     44 ****         5.2477  -3.0668   2.5262 H              1 S1                 0.0000
     45 ****         8.5536  -1.6958   1.8379 H              1 S1                 0.0000
     46 ****         7.6590  -3.1807   2.1842 H              1 S1                 0.0000
     47 ****         7.8852  -1.9620   3.4447 H              1 S1                 0.0000
     48 ****         7.1188  -1.2904  -0.0090 H              1 S1                 0.0000
     49 ****         6.1557  -2.7174   0.3310 H              1 S1                 0.0000
     50 ****         4.8839  -1.0705  -0.9826 H              1 S1                 0.0000
     51 ****         5.1521   0.1780   0.2190 H              1 S1                 0.0000
     52 ****         3.2241   0.3822  -1.2550 H              1 S1                 0.0000
     53 ****         2.3144  -1.0936  -1.5349 H              1 S1                 0.0000
     54 ****         1.0482   0.9171  -2.2372 H              1 S1                 0.0000
     55 ****         1.2544   1.6451  -0.6625 H              1 S1                 0.0000
     56 ****        -4.7979   3.7094  -1.4988 H              1 S1                 0.0000
     57 ****         2.5671   0.2996   1.0218 H              1 S1                 0.0000
     58 ****        -5.1430  -0.4615  -1.0255 LP             1 S1                 0.0000
     59 ****        -3.9043  -0.9026  -0.9067 LP             1 S1                 0.0000
     60 ****        -2.2515  -1.3832  -0.7135 LP             1 S1                 0.0000
     61 ****         6.5421  -0.4628   2.1632 LP             1 S1                 0.0000
@<TRIPOS>BOND
    1    1    2 1     
    2    1   26 1     
    3    1   27 1     
    4    1   28 1     
    5    2   25 ar    
    6    2    3 ar    
    7    3    4 ar    
    8    3   29 1     
    9    4    5 1     
   10    4    6 ar    
   11    5   30 1     
   12    5   31 1     
   13    5   32 1     
   14    6    7 ar    
   15    7    8 1     
   16    7   25 ar    
   17    8    9 am    
   18    8   33 1     
   19    9   10 2     
   20    9   11 am    
   21   11   12 1     
   22   11   34 1     
   23   12   24 1     
   24   12   13 1     
   25   12   35 1     
   26   13   14 1     
   27   13   36 1     
   28   13   37 1     
   29   14   15 1     
   30   14   38 1     
   31   14   39 1     
   32   15   16 1     
   33   15   23 1     
   34   15   57 1     
   35   16   22 1     
   36   16   17 1     
   37   16   40 1     
   38   17   18 1     
   39   17   41 1     
   40   17   42 1     
   41   18   19 1     
   42   18   43 1     
   43   18   44 1     
   44   19   20 1     
   45   19   21 1     
   46   20   45 1     
   47   20   46 1     
   48   20   47 1     
   49   21   22 1     
   50   21   48 1     
   51   21   49 1     
   52   22   50 1     
   53   22   51 1     
   54   23   24 1     
   55   23   52 1     
   56   23   53 1     
   57   24   54 1     
   58   24   55 1     
   59   25   56 1     
   60    6   58 1     
   61   10   59 1     
   62   10   60 1     
   63   19   61 1     
@<TRIPOS>SUBSTRUCTURE
      1 S1             1
@<TRIPOS>SET
LONE_PAIRS      STATIC     ATOMS    <user>   **** ""
4 58 59 60 61
DONOR_HYDROGENS      STATIC     ATOMS    <user>   **** ""
3 33 34 57
ATOM$BLUE        STATIC     ATOMS    COLORGROUP SYSTEM
4 58 59 60 61
ATOM$RED        STATIC     ATOMS    COLORGROUP SYSTEM
3 33 34 57
