AV-unprocessed.smi:2034|AV-procd|sdf|8263|dock3
  -GOLD-   2272010533D 1   1.00000     0.00000
 Structure written by MMmdl.
 50 52  0  0  0  0  0  0  0  0  1 V2000
  151.7256  144.9813  158.7106 C   0  0  0  0  0  0  0  0  0  0  0  0
  152.1957  143.5289  158.5800 C   0  0  2  0  0  0  0  0  0  0  0  0
  151.2792  142.7102  157.6537 C   0  0  0  0  0  0  0  0  0  0  0  0
  151.7006  141.3166  157.6429 N   0  0  0  0  0  0  0  0  0  0  0  0
  151.0244  140.5263  156.7044 C   0  0  0  0  0  0  0  0  0  0  0  0
  151.6990  139.9258  155.6166 C   0  0  0  0  0  0  0  0  0  0  0  0
  150.9615  139.1399  154.7108 C   0  0  0  0  0  0  0  0  0  0  0  0
  149.5726  138.9713  154.9246 C   0  0  0  0  0  0  0  0  0  0  0  0
  148.7153  138.2154  154.0799 N   0  0  0  0  0  0  0  0  0  0  0  0
  147.3723  138.2141  154.0309 C   0  0  0  0  0  0  0  0  0  0  0  0
  146.6329  138.9089  154.7274 O   0  0  0  0  0  0  0  0  0  0  0  0
  146.9250  137.3587  153.1012 N   0  0  0  0  0  0  0  0  0  0  0  0
  145.5207  137.1006  152.8041 C   0  0  0  0  0  0  0  0  0  0  0  0
  145.3626  135.9339  151.8155 C   0  0  2  0  0  0  0  0  0  0  0  0
  143.9562  135.3417  151.7793 C   0  0  0  0  0  0  0  0  0  0  0  0
  144.1832  133.9334  151.2539 C   0  0  0  0  0  0  0  0  0  0  0  0
  145.6780  133.6867  151.4807 C   0  0  0  0  0  0  0  0  0  0  0  0
  146.1413  134.8151  152.2094 O   0  0  0  0  0  0  0  0  0  0  0  0
  148.9956  139.6287  156.0306 C   0  0  0  0  0  0  0  0  0  0  0  0
  149.6962  140.3845  156.9021 N   0  0  0  0  0  0  0  0  0  0  0  0
  151.7270  140.7298  158.9757 C   0  0  0  0  0  0  0  0  0  0  0  0
  152.6019  141.5721  159.9259 C   0  0  1  0  0  0  0  0  0  0  0  0
  154.1120  141.4072  159.6783 C   0  0  0  0  0  0  0  0  0  0  0  0
  152.1968  142.9435  159.8828 O   0  0  0  0  0  0  0  0  0  0  0  0
  151.7118  145.4780  157.7402 H   0  0  0  0  0  0  0  0  0  0  0  0
  152.3887  145.5482  159.3644 H   0  0  0  0  0  0  0  0  0  0  0  0
  150.7201  145.0344  159.1289 H   0  0  0  0  0  0  0  0  0  0  0  0
  153.2099  143.5362  158.1796 H   0  0  0  0  0  0  0  0  0  0  0  0
  150.2459  142.7822  157.9957 H   0  0  0  0  0  0  0  0  0  0  0  0
  151.3135  143.1119  156.6400 H   0  0  0  0  0  0  0  0  0  0  0  0
  152.7600  140.0658  155.4705 H   0  0  0  0  0  0  0  0  0  0  0  0
  151.4734  138.6976  153.8706 H   0  0  0  0  0  0  0  0  0  0  0  0
  149.1833  137.6439  153.3919 H   0  0  0  0  0  0  0  0  0  0  0  0
  147.6050  136.8341  152.5710 H   0  0  0  0  0  0  0  0  0  0  0  0
  144.9541  136.9150  153.7184 H   0  0  0  0  0  0  0  0  0  0  0  0
  145.1068  138.0081  152.3645 H   0  0  0  0  0  0  0  0  0  0  0  0
  145.6592  136.2407  150.8106 H   0  0  0  0  0  0  0  0  0  0  0  0
  143.5419  135.2927  152.7872 H   0  0  0  0  0  0  0  0  0  0  0  0
  143.2703  135.9211  151.1606 H   0  0  0  0  0  0  0  0  0  0  0  0
  143.5642  133.2102  151.7854 H   0  0  0  0  0  0  0  0  0  0  0  0
  143.9442  133.8650  150.1921 H   0  0  0  0  0  0  0  0  0  0  0  0
  145.8709  132.7653  152.0303 H   0  0  0  0  0  0  0  0  0  0  0  0
  146.2064  133.6312  150.5281 H   0  0  0  0  0  0  0  0  0  0  0  0
  147.9370  139.5423  156.2278 H   0  0  0  0  0  0  0  0  0  0  0  0
  150.7091  140.6825  159.3651 H   0  0  0  0  0  0  0  0  0  0  0  0
  152.0969  139.7047  158.9273 H   0  0  0  0  0  0  0  0  0  0  0  0
  152.4110  141.2303  160.9435 H   0  0  0  0  0  0  0  0  0  0  0  0
  154.4207  140.3762  159.8520 H   0  0  0  0  0  0  0  0  0  0  0  0
  154.6880  142.0415  160.3523 H   0  0  0  0  0  0  0  0  0  0  0  0
  154.3942  141.6606  158.6567 H   0  0  0  0  0  0  0  0  0  0  0  0
  1  2  1  0  0  0  0
  1 25  1  0  0  0  0
  1 26  1  0  0  0  0
  1 27  1  0  0  0  0
  2 24  1  0  0  0  0
  2  3  1  0  0  0  0
  2 28  1  0  0  0  0
  3  4  1  0  0  0  0
  3 29  1  0  0  0  0
  3 30  1  0  0  0  0
  4  5  1  0  0  0  0
  4 21  1  0  0  0  0
  5 20  1  0  0  0  0
  5  6  2  0  0  0  0
  6  7  1  0  0  0  0
  6 31  1  0  0  0  0
  7  8  2  0  0  0  0
  7 32  1  0  0  0  0
  8  9  1  0  0  0  0
  8 19  1  0  0  0  0
  9 10  1  0  0  0  0
  9 33  1  0  0  0  0
 10 11  2  0  0  0  0
 10 12  1  0  0  0  0
 12 13  1  0  0  0  0
 12 34  1  0  0  0  0
 13 14  1  0  0  0  0
 13 35  1  0  0  0  0
 13 36  1  0  0  0  0
 14 18  1  0  0  0  0
 14 15  1  0  0  0  0
 14 37  1  0  0  0  0
 15 16  1  0  0  0  0
 15 38  1  0  0  0  0
 15 39  1  0  0  0  0
 16 17  1  0  0  0  0
 16 40  1  0  0  0  0
 16 41  1  0  0  0  0
 17 18  1  0  0  0  0
 17 42  1  0  0  0  0
 17 43  1  0  0  0  0
 19 20  2  0  0  0  0
 19 44  1  0  0  0  0
 21 22  1  0  0  0  0
 21 45  1  0  0  0  0
 21 46  1  0  0  0  0
 22 23  1  0  0  0  0
 22 24  1  0  0  0  0
 22 47  1  0  0  0  0
 23 48  1  0  0  0  0
 23 49  1  0  0  0  0
 23 50  1  0  0  0  0
M  END
> <s_m_source_file>
AV-unprocessed.smi

> <i_m_source_file_index>
2034

> <i_lp_mmshare_version>
43012

> <i_f3d_flags>
0

> <s_epik_input>
W0NIM11bQ0BASF0xW0NIMl1OKFtDSDJdW0NASF0oTzEpW0NIM10pYzJbY0hdW2NIXWMoW2NIXW4yKVtOSF1DKD1PKVtOSF1bQ0gyXVtDQEBIXTNbQ0gyXVtDSDJdW0NIMl1PMw==

> <s_epik_cmdline>
J2VwaWtfcHl0aG9uJywgJy1waCcsICc3LjAnLCAnLXRuJywgJzgnLCAnLW1hJywgJzIwMCcsICctbWV0YWxfYmluZGluZycsICctaW1hZScsICc8aW5maWxlLm1hZT4nLCAnLW9tYWUnLCAnPG91dGZpbGUubWFlPic=

> <r_lp_tautomer_probability>
1

> <r_epik_Ionization_Penalty>
0.00268225

> <r_epik_Ionization_Penalty_Charging>
0

> <r_epik_Ionization_Penalty_Neutral>
0.00268225

> <r_epik_State_Penalty>
0.00184408

> <r_epik_Charging_Adjusted_Penalty>
0.00184408

> <i_epik_Tot_Q>
0

> <i_epik_Tot_abs_Q>
0

> <r_epik_Metal_State_Penalty>
-0

> <b_epik_Metal_Only>
0

> <s_lp_Force_Field>
OPLS_2005

> <r_lp_Energy>
37.5885

> <b_lp_Chiralities_Consistent>
1

> <s_lp_Variant>
AV-unprocessed.smi:2034-1

> <Gold.Version>
5.8.1

> <Gold.Id.Protein>
6NUR|6NUR_protein|mol2

> <Gold.PLP.Fitness>
49.4202

> <Gold.PLP.PLP>
-44.0182

> <Gold.PLP.part.hbond>
-2.0000

> <Gold.PLP.part.metal>
0.0000

> <Gold.PLP.part.buried>
-7.0529

> <Gold.PLP.part.nonpolar>
-36.6833

> <Gold.PLP.part.repulsive>
0.8177

> <Gold.PLP.ligand.clash>
0.0000

> <Gold.PLP.ligand.torsion>
0.2342

> <Gold.PLP.Chemscore.Hbond>
1.9120

> <Gold.PLP.Chemscore.CHOScore>
0.0000

> <Gold.PLP.Chemscore.Metal>
0.0000

> <Gold.Chemscore.Hbonds>
donor molecule, donor type, donor heavy atom, donor atom, acceptor molecule, acceptor atom, score
      L1  H     9    33       P1  7948  0.84
      L1  H    12    34       P1  7948  1.00

> <Gold.PLP.Chemscore.Internal.Correction>
0.1345

> <Gold.Rescore>
     Score         DG    S(hbond)    S(metal)    S(lipo)     H(rot)  DE(clash)    DE(int)     intcor
     19.82     -21.49       1.94        0.00     111.23       1.37       0.03       1.64       ----

> <Gold.Chemscore.Fitness>
19.8197

> <Gold.Chemscore.DG>
-21.4852

> <Gold.Chemscore.ZeroCoef>
-5.4800

> <Gold.Chemscore.Hbond>
1.9426

> <Gold.Chemscore.Metal>
0.0000

> <Gold.Chemscore.Lipo>
111.2347

> <Gold.Chemscore.Internal_Hbond>
0.0000

> <Gold.Chemscore.DEClash>
0.0262

> <Gold.Chemscore.DEInternal>
1.6392

> <Gold.Chemscore.Rot>
1.3663

> <Gold.Chemscore.Internal.Correction>
   9.000000E+99

> <Gold.Chemscore.Hbonds>
donor molecule, donor type, donor heavy atom, donor atom, acceptor molecule, acceptor atom, score
      L1  H     9    33       P1  7948  0.79
      L1  H    12    34       P1  7948  1.00

> <Gold.Chemscore.Hbond.Weighted>
-6.4884

> <Gold.Chemscore.Metal.Weighted>
-0.0000

> <Gold.Chemscore.Lipo.Weighted>
-13.0145

> <Gold.Chemscore.Internal_Hbond.Weighted>
0.0000

> <Gold.Chemscore.DEClash.Weighted>
0.0262

> <Gold.Chemscore.DEInternal.Weighted>
1.6392

> <Gold.Chemscore.Rot.Weighted>
3.4977

> <Gold.Chemscore.Internal.Correction.Weighted>
   9.000000E+99

> <Gold.Protein.RotatedTorsions>
[ 6907 6896 6895 6894 ] final   40.70 input  -60.11 | X-H torsion
[ 7974 7965 7964 7962 ] final   61.58 input  175.53 | X-H torsion
[ 8008 7997 7996 7995 ] final  142.65 input   59.86 | X-H torsion
[ 10167 10162 10161 10158 ] final -122.67 input  -65.29 | X-H torsion
[ 10718 10713 10712 10709 ] final -106.20 input   66.30 | X-H torsion
[ 10763 10752 10751 10750 ] final   12.02 input  -60.55 | X-H torsion
[ 11005 11000 10999 10996 ] final -147.23 input  -57.11 | X-H torsion

> <Gold.Protein.ActiveResidues>
 VAL166  LYS551  ARG553  GLY616  TRP617  ASP618  TYR619  PRO620  LYS621  CYS622 
 ASP623  PHE694  ASN695  SER759  ASP760  ASP761  ALA762  ILE779  LEU786  VAL792 
 PHE793  MET794  SER795  GLU796  ALA797  LYS798  CYS799  TRP800  GLU811  SER814 

> <Gold.Protein.RotatedAtoms>
  152.1859  134.8714  160.0521 H   0  0  0  0  0  0  0  0  0  0  0  0  # atno 6907 bound_to 6896
  151.9621  133.3693  159.4047 H   0  0  0  0  0  0  0  0  0  0  0  0  # atno 6908 bound_to 6896
  150.6926  134.4153  159.5224 H   0  0  0  0  0  0  0  0  0  0  0  0  # atno 6909 bound_to 6896
  145.8832  139.3458  143.0694 H   0  0  0  0  0  0  0  0  0  0  0  0  # atno 7974 bound_to 7965
  156.2945  140.2283  156.4762 H   0  0  0  0  0  0  0  0  0  0  0  0  # atno 8008 bound_to 7997
  154.7892  140.0455  157.1209 H   0  0  0  0  0  0  0  0  0  0  0  0  # atno 8009 bound_to 7997
  154.9665  140.3061  155.5010 H   0  0  0  0  0  0  0  0  0  0  0  0  # atno 8010 bound_to 7997
  140.0117  143.5435  152.2260 H   0  0  0  0  0  0  0  0  0  0  0  0  # atno 10167 bound_to 10162
  156.0379  130.5601  150.7647 H   0  0  0  0  0  0  0  0  0  0  0  0  # atno 10718 bound_to 10713
  153.1866  135.6836  153.8408 H   0  0  0  0  0  0  0  0  0  0  0  0  # atno 10763 bound_to 10752
  153.7721  135.3194  155.3354 H   0  0  0  0  0  0  0  0  0  0  0  0  # atno 10764 bound_to 10752
  154.8092  135.4728  154.0568 H   0  0  0  0  0  0  0  0  0  0  0  0  # atno 10765 bound_to 10752
  140.7738  134.3158  157.5067 H   0  0  0  0  0  0  0  0  0  0  0  0  # atno 11005 bound_to 11000
  145.8998  140.9250  143.0508 LP  0  0  0  0  0  0  0  0  0  0  0  0  # atno 17320 bound_to 7965
  144.6728  140.1018  143.7460 LP  0  0  0  0  0  0  0  0  0  0  0  0  # atno 17321 bound_to 7965
  139.6200  144.7627  151.2761 LP  0  0  0  0  0  0  0  0  0  0  0  0  # atno 17342 bound_to 10162
  140.7379  143.6665  150.8118 LP  0  0  0  0  0  0  0  0  0  0  0  0  # atno 17343 bound_to 10162
  157.5157  131.0928  151.0142 LP  0  0  0  0  0  0  0  0  0  0  0  0  # atno 17370 bound_to 10713
  157.0486  130.5778  149.5367 LP  0  0  0  0  0  0  0  0  0  0  0  0  # atno 17371 bound_to 10713
  139.8752  134.9277  156.3432 LP  0  0  0  0  0  0  0  0  0  0  0  0  # atno 17394 bound_to 11000
  140.9548  133.7427  156.0321 LP  0  0  0  0  0  0  0  0  0  0  0  0  # atno 17395 bound_to 11000

$$$$
