#       Name:                AV-unprocessed.smi:146
#       Creating user name   scv26
#       Creation time:       Thu Mar 26 18:36:06 2020


#       File generated by GOLD software.
#

@<TRIPOS>MOLECULE
AV-unprocessed.smi:146
    67    71     1
SMALL
NO_CHARGES


@<TRIPOS>ATOM
      1 ****        -3.6712  -1.3820  -3.1115 C.3            1 S1                 0.0000
      2 ****        -3.1659  -0.8563  -1.7586 C.3            1 S1                 0.0000
      3 ****        -3.0434  -2.0425  -0.7803 C.3            1 S1                 0.0000
      4 ****        -1.8095  -0.1496  -1.9554 C.3            1 S1                 0.0000
      5 ****        -1.4607   0.6286  -0.7755 N.3            1 S1                 0.0000
      6 ****        -0.1510   0.9631  -0.6717 C.ar           1 S1                 0.0000
      7 ****         0.2229   2.2703  -0.6965 N.ar           1 S1                 0.0000
      8 ****         1.5134   2.6039  -0.6041 C.ar           1 S1                 0.0000
      9 ****         2.5744   1.8050  -0.4774 N.ar           1 S1                 0.0000
     10 ****         2.2060   0.4929  -0.4388 C.ar           1 S1                 0.0000
     11 ****         0.8777  -0.0107  -0.5328 C.ar           1 S1                 0.0000
     12 ****         0.8908  -1.3982  -0.4538 N.2            1 S1                 0.0000
     13 ****         2.1550  -1.6978  -0.3327 C.2            1 S1                 0.0000
     14 ****         3.0146  -0.6222  -0.3014 N.pl3          1 S1                 0.0000
     15 ****         4.4631  -0.6721  -0.1700 C.3            1 S1                 0.0000
     16 ****         4.9764  -0.4542   1.2690 C.3            1 S1                 0.0000
     17 ****         4.3179  -1.4480   2.2423 C.3            1 S1                 0.0000
     18 ****         4.5957  -2.7868   1.8834 O.3            1 S1                 0.0000
     19 ****         6.4975  -0.3170   1.4216 C.3            1 S1                 0.0000
     20 ****         6.3668   0.8963   2.1920 O.3            1 S1                 0.0000
     21 ****         4.9917   0.9986   1.7670 C.3            1 S1                 0.0000
     22 ****        -2.4630   1.6380  -0.4620 C.3            1 S1                 0.0000
     23 ****        -3.8479   0.9850  -0.2613 C.3            1 S1                 0.0000
     24 ****        -4.0117   0.3325   1.1158 C.3            1 S1                 0.0000
     25 ****        -4.8031   1.3406   1.9537 C.3            1 S1                 0.0000
     26 ****        -4.9422   2.4901   1.1356 O.3            1 S1                 0.0000
     27 ****        -4.9391   2.0585  -0.2135 C.3            1 S1                 0.0000
     28 ****        -4.1618   0.0893  -1.3374 O.3            1 S1                 0.0000
     29 ****        -2.9780  -2.1055  -3.5420 H              1 S1                 0.0000
     30 ****        -3.7909  -0.5711  -3.8309 H              1 S1                 0.0000
     31 ****        -4.6398  -1.8722  -3.0076 H              1 S1                 0.0000
     32 ****        -2.4014  -2.8214  -1.1930 H              1 S1                 0.0000
     33 ****        -4.0169  -2.4905  -0.5794 H              1 S1                 0.0000
     34 ****        -2.6035  -1.7529   0.1725 H              1 S1                 0.0000
     35 ****        -1.0409  -0.8822  -2.2012 H              1 S1                 0.0000
     36 ****        -1.8653   0.5335  -2.8043 H              1 S1                 0.0000
     37 ****         1.7261   3.6624  -0.6368 H              1 S1                 0.0000
     38 ****         2.4976  -2.7193  -0.2524 H              1 S1                 0.0000
     39 ****         4.8060  -1.6325  -0.5570 H              1 S1                 0.0000
     40 ****         4.8833   0.0767  -0.8424 H              1 S1                 0.0000
     41 ****         4.6894  -1.2929   3.2558 H              1 S1                 0.0000
     42 ****         3.2384  -1.3064   2.2944 H              1 S1                 0.0000
     43 ****         4.2170  -3.3570   2.5353 H              1 S1                 0.0000
     44 ****         6.9653  -1.1248   1.9857 H              1 S1                 0.0000
     45 ****         7.0236  -0.1440   0.4812 H              1 S1                 0.0000
     46 ****         4.8755   1.7445   0.9799 H              1 S1                 0.0000
     47 ****         4.3072   1.1947   2.5934 H              1 S1                 0.0000
     48 ****        -2.1807   2.1978   0.4310 H              1 S1                 0.0000
     49 ****        -2.5023   2.3511  -1.2869 H              1 S1                 0.0000
     50 ****        -4.5815  -0.5947   1.0488 H              1 S1                 0.0000
     51 ****        -3.0514   0.0968   1.5754 H              1 S1                 0.0000
     52 ****        -5.7913   0.9472   2.1954 H              1 S1                 0.0000
     53 ****        -4.2994   1.5918   2.8874 H              1 S1                 0.0000
     54 ****        -4.7660   2.8842  -0.9041 H              1 S1                 0.0000
     55 ****        -5.9155   1.6292  -0.4449 H              1 S1                 0.0000
     56 ****        -1.5189   0.0141   0.0113 LP             1 S1                 0.0000
     57 ****        -0.4710   2.9850  -0.7843 LP             1 S1                 0.0000
     58 ****         3.5192   2.1274  -0.4183 LP             1 S1                 0.0000
     59 ****         0.1108  -2.0232  -0.4830 LP             1 S1                 0.0000
     60 ****         5.5851  -2.9276   1.8459 LP             1 S1                 0.0000
     61 ****         4.1966  -2.9858   0.9884 LP             1 S1                 0.0000
     62 ****         6.9501   1.6461   1.8793 LP             1 S1                 0.0000
     63 ****         6.4838   0.7717   3.1773 LP             1 S1                 0.0000
     64 ****        -4.1791   3.1165   1.2950 LP             1 S1                 0.0000
     65 ****        -5.8033   2.9542   1.3432 LP             1 S1                 0.0000
     66 ****        -4.9667  -0.4348  -1.0592 LP             1 S1                 0.0000
     67 ****        -4.3887   0.6520  -2.1323 LP             1 S1                 0.0000
@<TRIPOS>BOND
    1    1    2 1     
    2    1   29 1     
    3    1   30 1     
    4    1   31 1     
    5    2   28 1     
    6    2    3 1     
    7    2    4 1     
    8    3   32 1     
    9    3   33 1     
   10    3   34 1     
   11    4    5 1     
   12    4   35 1     
   13    4   36 1     
   14    5    6 1     
   15    5   22 1     
   16    6   11 ar    
   17    6    7 ar    
   18    7    8 ar    
   19    8    9 ar    
   20    8   37 1     
   21    9   10 ar    
   22   10   14 1     
   23   10   11 ar    
   24   11   12 1     
   25   12   13 2     
   26   13   14 1     
   27   13   38 1     
   28   14   15 1     
   29   15   16 1     
   30   15   39 1     
   31   15   40 1     
   32   16   21 1     
   33   16   17 1     
   34   16   19 1     
   35   17   18 1     
   36   17   41 1     
   37   17   42 1     
   38   18   43 1     
   39   19   20 1     
   40   19   44 1     
   41   19   45 1     
   42   20   21 1     
   43   21   46 1     
   44   21   47 1     
   45   22   23 1     
   46   22   48 1     
   47   22   49 1     
   48   23   27 1     
   49   23   24 1     
   50   23   28 1     
   51   24   25 1     
   52   24   50 1     
   53   24   51 1     
   54   25   26 1     
   55   25   52 1     
   56   25   53 1     
   57   26   27 1     
   58   27   54 1     
   59   27   55 1     
   60    5   56 1     
   61    7   57 1     
   62    9   58 1     
   63   12   59 1     
   64   18   60 1     
   65   18   61 1     
   66   20   62 1     
   67   20   63 1     
   68   26   64 1     
   69   26   65 1     
   70   28   66 1     
   71   28   67 1     
@<TRIPOS>SUBSTRUCTURE
      1 S1             1
@<TRIPOS>SET
LONE_PAIRS      STATIC     ATOMS    <user>   **** ""
12 56 57 58 59 60 61 62 63 64 65 66 67
DONOR_HYDROGENS      STATIC     ATOMS    <user>   **** ""
1 43
ATOM$BLUE        STATIC     ATOMS    COLORGROUP SYSTEM
12 56 57 58 59 60 61 62 63 64 65 66 67
ATOM$RED        STATIC     ATOMS    COLORGROUP SYSTEM
1 43
