AV-unprocessed.smi:463|AV-procd|sdf|2634|dock10
  -GOLD-   2262023 43D 1   1.00000     0.00000
 Structure written by MMmdl.
 42 44  0  0  0  0  0  0  0  0  1 V2000
  147.1982  135.4014  162.6419 C   0  0  0  0  0  0  0  0  0  0  0  0
  147.6086  135.6054  161.1982 C   0  0  0  0  0  0  0  0  0  0  0  0
  147.2161  134.6791  160.2118 C   0  0  0  0  0  0  0  0  0  0  0  0
  147.6058  134.8707  158.8733 C   0  0  0  0  0  0  0  0  0  0  0  0
  148.3880  135.9861  158.5157 C   0  0  0  0  0  0  0  0  0  0  0  0
  148.7876  136.9253  159.4994 C   0  0  0  0  0  0  0  0  0  0  0  0
  149.5492  138.0434  159.2399 O   0  0  0  0  0  0  0  0  0  0  0  0
  149.8209  138.3781  157.8855 C   0  0  0  0  0  0  0  0  0  0  0  0
  151.2547  138.9137  157.7723 C   0  0  0  0  0  0  0  0  0  0  0  0
  151.2809  140.3604  157.6095 N   0  0  0  0  0  0  0  0  0  0  0  0
  150.8726  141.1082  156.5515 C   0  0  0  0  0  0  0  0  0  0  0  0
  150.2811  140.5103  155.3075 C   0  0  0  0  0  0  0  0  0  0  0  0
  149.1573  141.3623  154.6964 C   0  0  0  0  0  0  0  0  0  0  0  0
  149.2342  141.3684  153.2863 O   0  0  0  0  0  0  0  0  0  0  0  0
  151.0220  142.4273  156.6843 N   0  0  0  0  0  0  0  0  0  0  0  0
  151.5867  142.5468  157.9387 C   0  0  0  0  0  0  0  0  0  0  0  0
  151.9906  143.6937  158.6594 C   0  0  0  0  0  0  0  0  0  0  0  0
  152.5541  143.5663  159.9460 C   0  0  0  0  0  0  0  0  0  0  0  0
  152.7216  142.2935  160.5290 C   0  0  0  0  0  0  0  0  0  0  0  0
  152.3249  141.1383  159.8283 C   0  0  0  0  0  0  0  0  0  0  0  0
  151.7624  141.2711  158.5447 C   0  0  0  0  0  0  0  0  0  0  0  0
  148.3910  136.7210  160.8369 C   0  0  0  0  0  0  0  0  0  0  0  0
  146.2658  134.8400  162.7076 H   0  0  0  0  0  0  0  0  0  0  0  0
  147.0517  136.3591  163.1420 H   0  0  0  0  0  0  0  0  0  0  0  0
  147.9705  134.8490  163.1773 H   0  0  0  0  0  0  0  0  0  0  0  0
  146.6175  133.8204  160.4776 H   0  0  0  0  0  0  0  0  0  0  0  0
  147.3047  134.1598  158.1180 H   0  0  0  0  0  0  0  0  0  0  0  0
  148.6679  136.0988  157.4795 H   0  0  0  0  0  0  0  0  0  0  0  0
  149.7076  137.4983  157.2507 H   0  0  0  0  0  0  0  0  0  0  0  0
  149.1216  139.1395  157.5358 H   0  0  0  0  0  0  0  0  0  0  0  0
  151.8406  138.6267  158.6441 H   0  0  0  0  0  0  0  0  0  0  0  0
  151.7523  138.4616  156.9140 H   0  0  0  0  0  0  0  0  0  0  0  0
  151.0845  140.4207  154.5756 H   0  0  0  0  0  0  0  0  0  0  0  0
  149.9419  139.4907  155.4864 H   0  0  0  0  0  0  0  0  0  0  0  0
  148.1769  141.0067  155.0150 H   0  0  0  0  0  0  0  0  0  0  0  0
  149.2515  142.3933  155.0379 H   0  0  0  0  0  0  0  0  0  0  0  0
  149.0055  140.5080  152.9690 H   0  0  0  0  0  0  0  0  0  0  0  0
  151.8681  144.6729  158.2208 H   0  0  0  0  0  0  0  0  0  0  0  0
  152.8603  144.4494  160.4877 H   0  0  0  0  0  0  0  0  0  0  0  0
  153.1552  142.2042  161.5143 H   0  0  0  0  0  0  0  0  0  0  0  0
  152.4527  140.1619  160.2713 H   0  0  0  0  0  0  0  0  0  0  0  0
  148.6936  137.4310  161.5928 H   0  0  0  0  0  0  0  0  0  0  0  0
  1  2  1  0  0  0  0
  1 23  1  0  0  0  0
  1 24  1  0  0  0  0
  1 25  1  0  0  0  0
  2 22  1  0  0  0  0
  2  3  2  0  0  0  0
  3  4  1  0  0  0  0
  3 26  1  0  0  0  0
  4  5  2  0  0  0  0
  4 27  1  0  0  0  0
  5  6  1  0  0  0  0
  5 28  1  0  0  0  0
  6  7  1  0  0  0  0
  6 22  2  0  0  0  0
  7  8  1  0  0  0  0
  8  9  1  0  0  0  0
  8 29  1  0  0  0  0
  8 30  1  0  0  0  0
  9 10  1  0  0  0  0
  9 31  1  0  0  0  0
  9 32  1  0  0  0  0
 10 21  1  0  0  0  0
 10 11  1  0  0  0  0
 11 12  1  0  0  0  0
 11 15  2  0  0  0  0
 12 13  1  0  0  0  0
 12 33  1  0  0  0  0
 12 34  1  0  0  0  0
 13 14  1  0  0  0  0
 13 35  1  0  0  0  0
 13 36  1  0  0  0  0
 14 37  1  0  0  0  0
 15 16  1  0  0  0  0
 16 21  2  0  0  0  0
 16 17  1  0  0  0  0
 17 18  2  0  0  0  0
 17 38  1  0  0  0  0
 18 19  1  0  0  0  0
 18 39  1  0  0  0  0
 19 20  2  0  0  0  0
 19 40  1  0  0  0  0
 20 21  1  0  0  0  0
 20 41  1  0  0  0  0
 22 42  1  0  0  0  0
M  END
> <s_m_source_file>
AV-unprocessed.smi

> <i_m_source_file_index>
463

> <i_lp_mmshare_version>
43012

> <i_f3d_flags>
0

> <s_epik_input>
W0NIM11jMVtjSF1bY0hdW2NIXWMoW2NIXTEpT1tDSDJdW0NIMl1uKGMobjIpW0NIMl1bQ0gyXVtPSF0pYyhjMjMpW2NIXVtjSF1bY0hdW2NIXTM=

> <s_epik_cmdline>
J2VwaWtfcHl0aG9uJywgJy1waCcsICc3LjAnLCAnLXRuJywgJzgnLCAnLW1hJywgJzIwMCcsICctbWV0YWxfYmluZGluZycsICctaW1hZScsICc8aW5maWxlLm1hZT4nLCAnLW9tYWUnLCAnPG91dGZpbGUubWFlPic=

> <r_lp_tautomer_probability>
1

> <r_epik_Ionization_Penalty>
0.206757

> <r_epik_Ionization_Penalty_Charging>
0

> <r_epik_Ionization_Penalty_Neutral>
0.206757

> <r_epik_State_Penalty>
0.196743

> <r_epik_Charging_Adjusted_Penalty>
0.196743

> <i_epik_Tot_Q>
0

> <i_epik_Tot_abs_Q>
0

> <r_epik_Metal_State_Penalty>
0.000233299

> <b_epik_Metal_Only>
0

> <s_lp_Force_Field>
OPLS_2005

> <r_lp_Energy>
15.5684

> <b_lp_Chiralities_Consistent>
1

> <s_lp_Variant>
AV-unprocessed.smi:463-1

> <Gold.Version>
5.8.1

> <Gold.Id.Protein>
6NUR|6NUR_protein|mol2

> <Gold.PLP.Fitness>
48.7197

> <Gold.PLP.PLP>
-47.2089

> <Gold.PLP.part.hbond>
-3.7772

> <Gold.PLP.part.metal>
0.0000

> <Gold.PLP.part.buried>
-2.3348

> <Gold.PLP.part.nonpolar>
-40.1800

> <Gold.PLP.part.repulsive>
0.1043

> <Gold.PLP.ligand.clash>
0.0000

> <Gold.PLP.ligand.torsion>
1.3178

> <Gold.PLP.Chemscore.Hbond>
1.3520

> <Gold.PLP.Chemscore.CHOScore>
0.0000

> <Gold.PLP.Chemscore.Metal>
0.0000

> <Gold.Chemscore.Hbonds>
donor molecule, donor type, donor heavy atom, donor atom, acceptor molecule, acceptor atom, score
      L1  H    14    37       P1  7957  0.34
      P1  H  8011  8017       L1    14  0.98

> <Gold.PLP.Chemscore.Internal.Correction>
0.0903

> <Gold.Rescore>
     Score         DG    S(hbond)    S(metal)    S(lipo)     H(rot)  DE(clash)    DE(int)     intcor
     15.80     -17.13       1.15        0.00     116.80       2.28       0.17       1.17       ----

> <Gold.Chemscore.Fitness>
15.7953

> <Gold.Chemscore.DG>
-17.1314

> <Gold.Chemscore.ZeroCoef>
-5.4800

> <Gold.Chemscore.Hbond>
1.1460

> <Gold.Chemscore.Metal>
0.0000

> <Gold.Chemscore.Lipo>
116.8032

> <Gold.Chemscore.Internal_Hbond>
0.0000

> <Gold.Chemscore.DEClash>
0.1696

> <Gold.Chemscore.DEInternal>
1.1665

> <Gold.Chemscore.Rot>
2.2821

> <Gold.Chemscore.Internal.Correction>
   9.000000E+99

> <Gold.Chemscore.Hbonds>
donor molecule, donor type, donor heavy atom, donor atom, acceptor molecule, acceptor atom, score
      L1  H    14    37       P1  7957  0.32
      P1  H  8011  8017       L1    14  0.86

> <Gold.Chemscore.Hbond.Weighted>
-3.8275

> <Gold.Chemscore.Metal.Weighted>
-0.0000

> <Gold.Chemscore.Lipo.Weighted>
-13.6660

> <Gold.Chemscore.Internal_Hbond.Weighted>
0.0000

> <Gold.Chemscore.DEClash.Weighted>
0.1696

> <Gold.Chemscore.DEInternal.Weighted>
1.1665

> <Gold.Chemscore.Rot.Weighted>
5.8421

> <Gold.Chemscore.Internal.Correction.Weighted>
   9.000000E+99

> <Gold.Protein.RotatedTorsions>
[ 6907 6896 6895 6894 ] final -135.21 input  -60.11 | X-H torsion
[ 7974 7965 7964 7962 ] final  150.08 input  175.53 | X-H torsion
[ 8008 7997 7996 7995 ] final   50.23 input   59.86 | X-H torsion
[ 10167 10162 10161 10158 ] final -118.51 input  -65.29 | X-H torsion
[ 10718 10713 10712 10709 ] final  158.53 input   66.30 | X-H torsion
[ 10763 10752 10751 10750 ] final  148.36 input  -60.55 | X-H torsion
[ 11005 11000 10999 10996 ] final  -29.07 input  -57.11 | X-H torsion

> <Gold.Protein.ActiveResidues>
 VAL166  LYS551  ARG553  GLY616  TRP617  ASP618  TYR619  PRO620  LYS621  CYS622 
 ASP623  PHE694  ASN695  SER759  ASP760  ASP761  ALA762  ILE779  LEU786  VAL792 
 PHE793  MET794  SER795  GLU796  ALA797  LYS798  CYS799  TRP800  GLU811  SER814 

> <Gold.Protein.RotatedAtoms>
  150.9951  133.6111  159.2702 H   0  0  0  0  0  0  0  0  0  0  0  0  # atno 6907 bound_to 6896
  151.3317  135.0842  159.9350 H   0  0  0  0  0  0  0  0  0  0  0  0  # atno 6908 bound_to 6896
  152.5257  133.9579  159.7757 H   0  0  0  0  0  0  0  0  0  0  0  0  # atno 6909 bound_to 6896
  144.8390  139.6363  143.6025 H   0  0  0  0  0  0  0  0  0  0  0  0  # atno 7974 bound_to 7965
  155.4154  140.3444  155.4267 H   0  0  0  0  0  0  0  0  0  0  0  0  # atno 8008 bound_to 7997
  156.1424  140.1546  156.8931 H   0  0  0  0  0  0  0  0  0  0  0  0  # atno 8009 bound_to 7997
  154.4982  140.0822  156.7723 H   0  0  0  0  0  0  0  0  0  0  0  0  # atno 8010 bound_to 7997
  140.0567  143.5007  152.2053 H   0  0  0  0  0  0  0  0  0  0  0  0  # atno 10167 bound_to 10162
  157.1766  131.0622  151.2154 H   0  0  0  0  0  0  0  0  0  0  0  0  # atno 10718 bound_to 10713
  154.0534  135.2880  155.3337 H   0  0  0  0  0  0  0  0  0  0  0  0  # atno 10763 bound_to 10752
  154.6854  135.5247  153.8323 H   0  0  0  0  0  0  0  0  0  0  0  0  # atno 10764 bound_to 10752
  153.0551  135.6592  154.0728 H   0  0  0  0  0  0  0  0  0  0  0  0  # atno 10765 bound_to 10752
  140.9264  133.7366  156.0873 H   0  0  0  0  0  0  0  0  0  0  0  0  # atno 11005 bound_to 11000
  146.2685  139.6578  142.9312 LP  0  0  0  0  0  0  0  0  0  0  0  0  # atno 17320 bound_to 7965
  145.4734  141.0436  143.2686 LP  0  0  0  0  0  0  0  0  0  0  0  0  # atno 17321 bound_to 7965
  139.5919  144.7553  151.3380 LP  0  0  0  0  0  0  0  0  0  0  0  0  # atno 17342 bound_to 10162
  140.7191  143.7185  150.7714 LP  0  0  0  0  0  0  0  0  0  0  0  0  # atno 17343 bound_to 10162
  157.3993  130.7324  149.6755 LP  0  0  0  0  0  0  0  0  0  0  0  0  # atno 17370 bound_to 10713
  155.9730  130.4125  150.4035 LP  0  0  0  0  0  0  0  0  0  0  0  0  # atno 17371 bound_to 10713
  140.7921  134.3606  157.5462 LP  0  0  0  0  0  0  0  0  0  0  0  0  # atno 17394 bound_to 11000
  139.8786  134.9146  156.3112 LP  0  0  0  0  0  0  0  0  0  0  0  0  # atno 17395 bound_to 11000

$$$$
