AV-unprocessed.smi:158|AV-procd|sdf|1328|dock3
  -GOLD-   2262019 23D 1   1.00000     0.00000
 Structure written by MMmdl.
 31 33  0  0  0  0  0  0  0  0  1 V2000
  154.2901  135.3087  158.7476 N   0  0  0  0  0  0  0  0  0  0  0  0
  154.0436  136.6080  158.5297 C   0  0  0  0  0  0  0  0  0  0  0  0
  154.6392  137.5205  159.3328 N   0  0  0  0  0  0  0  0  0  0  0  0
  154.4215  138.8289  159.1485 C   0  0  0  0  0  0  0  0  0  0  0  0
  155.2326  139.8997  160.2295 Cl  0  0  0  0  0  0  0  0  0  0  0  0
  153.6450  139.3996  158.2205 N   0  0  0  0  0  0  0  0  0  0  0  0
  153.0433  138.4810  157.4113 C   0  0  0  0  0  0  0  0  0  0  0  0
  153.1905  137.0717  157.4989 C   0  0  0  0  0  0  0  0  0  0  0  0
  152.4330  136.4557  156.5119 N   0  0  0  0  0  0  0  0  0  0  0  0
  151.8722  137.4516  155.8780 C   0  0  0  0  0  0  0  0  0  0  0  0
  152.1800  138.7068  156.3622 N   0  0  0  0  0  0  0  0  0  0  0  0
  151.7281  140.0509  155.8834 C   0  0  1  0  0  0  0  0  0  0  0  0
  150.8978  139.8706  154.7747 O   0  0  0  0  0  0  0  0  0  0  0  0
  149.5344  139.9473  155.1816 C   0  0  2  0  0  0  0  0  0  0  0  0
  148.6064  140.2069  153.9825 C   0  0  0  0  0  0  0  0  0  0  0  0
  148.5186  139.0474  153.1823 O   0  0  0  0  0  0  0  0  0  0  0  0
  149.5799  141.0559  156.2404 C   0  0  2  0  0  0  0  0  0  0  0  0
  149.6199  142.3339  155.6283 O   0  0  0  0  0  0  0  0  0  0  0  0
  150.8787  140.7349  156.9668 C   0  0  2  0  0  0  0  0  0  0  0  0
  151.4925  141.8146  157.4549 F   0  0  0  0  0  0  0  0  0  0  0  0
  152.6433  140.5803  155.6156 H   0  0  0  0  0  0  0  0  0  0  0  0
  149.2542  139.0149  155.6758 H   0  0  0  0  0  0  0  0  0  0  0  0
  148.7203  141.0178  156.9101 H   0  0  0  0  0  0  0  0  0  0  0  0
  150.6971  140.0492  157.7962 H   0  0  0  0  0  0  0  0  0  0  0  0
  153.8571  134.6104  158.1603 H   0  0  0  0  0  0  0  0  0  0  0  0
  154.9089  135.0304  159.4955 H   0  0  0  0  0  0  0  0  0  0  0  0
  151.2151  137.2897  155.0356 H   0  0  0  0  0  0  0  0  0  0  0  0
  147.5995  140.4406  154.3300 H   0  0  0  0  0  0  0  0  0  0  0  0
  148.9514  141.0519  153.3859 H   0  0  0  0  0  0  0  0  0  0  0  0
  148.6450  139.2947  152.2790 H   0  0  0  0  0  0  0  0  0  0  0  0
  149.2706  142.9700  156.2335 H   0  0  0  0  0  0  0  0  0  0  0  0
  1  2  1  0  0  0  0
  1 25  1  0  0  0  0
  1 26  1  0  0  0  0
  2  8  1  0  0  0  0
  2  3  2  0  0  0  0
  3  4  1  0  0  0  0
  4  5  1  0  0  0  0
  4  6  2  0  0  0  0
  6  7  1  0  0  0  0
  7 11  1  0  0  0  0
  7  8  2  0  0  0  0
  8  9  1  0  0  0  0
  9 10  2  0  0  0  0
 10 11  1  0  0  0  0
 10 27  1  0  0  0  0
 11 12  1  0  0  0  0
 12 21  1  0  0  0  0
 12 19  1  0  0  0  0
 12 13  1  0  0  0  0
 13 14  1  0  0  0  0
 14 22  1  0  0  0  0
 14 15  1  0  0  0  0
 14 17  1  0  0  0  0
 15 16  1  0  0  0  0
 15 28  1  0  0  0  0
 15 29  1  0  0  0  0
 16 30  1  0  0  0  0
 17 23  1  0  0  0  0
 17 18  1  0  0  0  0
 17 19  1  0  0  0  0
 18 31  1  0  0  0  0
 19 24  1  0  0  0  0
 19 20  1  0  0  0  0
M  END
> <s_m_source_file>
AV-unprocessed.smi

> <i_m_source_file_index>
158

> <i_lp_mmshare_version>
43012

> <i_f3d_flags>
0

> <s_epik_input>
Q2xjKG4xKW5jKFtOSDJdKWMoYzEyKW5bY0hdbjJbQ0BASF0zT1tDQEhdKFtDSDJdW09IXSlbQ0BASF0oW09IXSlbQ0BASF0zRg==

> <s_epik_cmdline>
J2VwaWtfcHl0aG9uJywgJy1waCcsICc3LjAnLCAnLXRuJywgJzgnLCAnLW1hJywgJzIwMCcsICctbWV0YWxfYmluZGluZycsICctaW1hZScsICc8aW5maWxlLm1hZT4nLCAnLW9tYWUnLCAnPG91dGZpbGUubWFlPic=

> <r_lp_tautomer_probability>
1

> <r_epik_Ionization_Penalty>
6.51543e-05

> <r_epik_Ionization_Penalty_Charging>
0

> <r_epik_Ionization_Penalty_Neutral>
6.51543e-05

> <r_epik_State_Penalty>
-0

> <r_epik_Charging_Adjusted_Penalty>
0

> <i_epik_Tot_Q>
0

> <i_epik_Tot_abs_Q>
0

> <r_epik_Metal_State_Penalty>
-0

> <b_epik_Metal_Only>
0

> <s_epik_Chemistry_Notes>
This compound contains an acetal/aminal-like group ( X-CH(R)-Y where X, Y are N, S, or O) that may be acid/base labile, releasing an aldehyde.

> <s_lp_Force_Field>
OPLS_2005

> <r_lp_Energy>
37.0626

> <b_lp_Chiralities_Consistent>
1

> <s_lp_Variant>
AV-unprocessed.smi:158-6

> <Gold.Version>
5.8.1

> <Gold.Id.Protein>
6NUR|6NUR_protein|mol2

> <Gold.PLP.Fitness>
38.4681

> <Gold.PLP.PLP>
-25.3127

> <Gold.PLP.part.hbond>
-5.5977

> <Gold.PLP.part.metal>
0.0000

> <Gold.PLP.part.buried>
-2.4787

> <Gold.PLP.part.nonpolar>
-17.7039

> <Gold.PLP.part.repulsive>
0.1926

> <Gold.PLP.ligand.clash>
0.0000

> <Gold.PLP.ligand.torsion>
0.0798

> <Gold.PLP.Chemscore.Hbond>
4.4320

> <Gold.PLP.Chemscore.CHOScore>
0.0000

> <Gold.PLP.Chemscore.Metal>
0.0000

> <Gold.Chemscore.Hbonds>
donor molecule, donor type, donor heavy atom, donor atom, acceptor molecule, acceptor atom, score
      L1  H    16    30       P1  7957  0.98
      L1  H    18    31       P1  8028  0.42
      P1  H  7989  7998       L1    13  1.00
      P1  H  7997  8008       L1     6  0.95
      P1  H 10752 10763       L1     9  1.00

> <Gold.PLP.Chemscore.Internal.Correction>
0.0190

> <Gold.Rescore>
     Score         DG    S(hbond)    S(metal)    S(lipo)     H(rot)  DE(clash)    DE(int)     intcor
     11.05     -11.26       2.94        0.00      33.87       3.12       0.04       0.18       ----

> <Gold.Chemscore.Fitness>
11.0456

> <Gold.Chemscore.DG>
-11.2610

> <Gold.Chemscore.ZeroCoef>
-5.4800

> <Gold.Chemscore.Hbond>
2.9381

> <Gold.Chemscore.Metal>
0.0000

> <Gold.Chemscore.Lipo>
33.8683

> <Gold.Chemscore.Internal_Hbond>
0.0000

> <Gold.Chemscore.DEClash>
0.0383

> <Gold.Chemscore.DEInternal>
0.1771

> <Gold.Chemscore.Rot>
3.1230

> <Gold.Chemscore.Internal.Correction>
   9.000000E+99

> <Gold.Chemscore.Hbonds>
donor molecule, donor type, donor heavy atom, donor atom, acceptor molecule, acceptor atom, score
      L1  H    16    30       P1  7957  0.93
      L1  H    18    31       P1  8028  0.42
      P1  H  7989  7998       L1    13  0.50
      P1  H  7997  8008       L1     6  0.07
      P1  H 10752 10763       L1     9  0.61

> <Gold.Chemscore.Hbond.Weighted>
-9.8133

> <Gold.Chemscore.Metal.Weighted>
-0.0000

> <Gold.Chemscore.Lipo.Weighted>
-3.9626

> <Gold.Chemscore.Internal_Hbond.Weighted>
0.0000

> <Gold.Chemscore.DEClash.Weighted>
0.0383

> <Gold.Chemscore.DEInternal.Weighted>
0.1771

> <Gold.Chemscore.Rot.Weighted>
7.9950

> <Gold.Chemscore.Internal.Correction.Weighted>
   9.000000E+99

> <Gold.Protein.RotatedTorsions>
[ 6907 6896 6895 6894 ] final  -41.80 input  -60.11 | X-H torsion
[ 7974 7965 7964 7962 ] final   37.96 input  175.53 | X-H torsion
[ 8008 7997 7996 7995 ] final -104.30 input   59.86 | X-H torsion
[ 10167 10162 10161 10158 ] final   53.40 input  -65.29 | X-H torsion
[ 10718 10713 10712 10709 ] final   19.06 input   66.30 | X-H torsion
[ 10763 10752 10751 10750 ] final  115.06 input  -60.55 | X-H torsion
[ 11005 11000 10999 10996 ] final   50.99 input  -57.11 | X-H torsion

> <Gold.Protein.ActiveResidues>
 VAL166  LYS551  ARG553  GLY616  TRP617  ASP618  TYR619  PRO620  LYS621  CYS622 
 ASP623  PHE694  ASN695  SER759  ASP760  ASP761  ALA762  ILE779  LEU786  VAL792 
 PHE793  MET794  SER795  GLU796  ALA797  LYS798  CYS799  TRP800  GLU811  SER814 

> <Gold.Protein.RotatedAtoms>
  150.9626  134.9011  159.7739 H   0  0  0  0  0  0  0  0  0  0  0  0  # atno 6907 bound_to 6896
  152.5161  134.3652  159.9309 H   0  0  0  0  0  0  0  0  0  0  0  0  # atno 6908 bound_to 6896
  151.3664  133.3830  159.2729 H   0  0  0  0  0  0  0  0  0  0  0  0  # atno 6909 bound_to 6896
  146.1098  139.5830  142.9360 H   0  0  0  0  0  0  0  0  0  0  0  0  # atno 7974 bound_to 7965
  154.8833  140.0418  157.1795 H   0  0  0  0  0  0  0  0  0  0  0  0  # atno 8008 bound_to 7997
  154.8617  140.2945  155.5514 H   0  0  0  0  0  0  0  0  0  0  0  0  # atno 8009 bound_to 7997
  156.2998  140.2445  156.3592 H   0  0  0  0  0  0  0  0  0  0  0  0  # atno 8010 bound_to 7997
  140.2412  144.3581  150.6379 H   0  0  0  0  0  0  0  0  0  0  0  0  # atno 10167 bound_to 10162
  157.1051  130.6485  149.5882 H   0  0  0  0  0  0  0  0  0  0  0  0  # atno 10718 bound_to 10713
  153.5166  135.3606  155.2612 H   0  0  0  0  0  0  0  0  0  0  0  0  # atno 10763 bound_to 10752
  154.8738  135.4035  154.3308 H   0  0  0  0  0  0  0  0  0  0  0  0  # atno 10764 bound_to 10752
  153.3970  135.7073  153.6520 H   0  0  0  0  0  0  0  0  0  0  0  0  # atno 10765 bound_to 10752
  140.0970  134.5132  155.8798 H   0  0  0  0  0  0  0  0  0  0  0  0  # atno 11005 bound_to 11000
  145.5687  141.0396  143.2186 LP  0  0  0  0  0  0  0  0  0  0  0  0  # atno 17320 bound_to 7965
  144.7502  139.7215  143.7276 LP  0  0  0  0  0  0  0  0  0  0  0  0  # atno 17321 bound_to 7965
  140.6112  143.2169  151.6882 LP  0  0  0  0  0  0  0  0  0  0  0  0  # atno 17342 bound_to 10162
  139.5077  144.3638  152.0536 LP  0  0  0  0  0  0  0  0  0  0  0  0  # atno 17343 bound_to 10162
  155.9864  130.4898  150.7077 LP  0  0  0  0  0  0  0  0  0  0  0  0  # atno 17370 bound_to 10713
  157.4607  131.0883  151.0748 LP  0  0  0  0  0  0  0  0  0  0  0  0  # atno 17371 bound_to 10713
  141.2095  133.6684  156.6442 LP  0  0  0  0  0  0  0  0  0  0  0  0  # atno 17394 bound_to 11000
  140.3272  134.7958  157.4299 LP  0  0  0  0  0  0  0  0  0  0  0  0  # atno 17395 bound_to 11000

$$$$
