#       Name:                AV-unprocessed.smi:1940
#       Creating user name   scv26
#       Creation time:       Fri Mar 27 09:58:28 2020


#       File generated by GOLD software.
#

@<TRIPOS>MOLECULE
AV-unprocessed.smi:1940
    55    57     1
SMALL
NO_CHARGES


@<TRIPOS>ATOM
      1 ****        -4.5110  -3.0080  -1.5233 C.3            1 S1                 0.0000
      2 ****        -4.0747  -2.1485  -0.3278 C.3            1 S1                 0.0000
      3 ****        -2.6182  -2.0190  -0.3415 N.am           1 S1                 0.0000
      4 ****        -1.9289  -0.8697  -0.3899 C.2            1 S1                 0.0000
      5 ****        -2.4585   0.2394  -0.4402 O.2            1 S1                 0.0000
      6 ****        -0.6056  -1.1055  -0.3783 N.am           1 S1                 0.0000
      7 ****         0.4790  -0.1860  -0.4184 C.ar           1 S1                 0.0000
      8 ****         0.3586   1.2203  -0.3170 C.ar           1 S1                 0.0000
      9 ****         1.5237   2.0098  -0.3656 C.ar           1 S1                 0.0000
     10 ****         2.7822   1.3814  -0.5111 C.ar           1 S1                 0.0000
     11 ****         3.9592   2.1587  -0.5658 N.3            1 S1                 0.0000
     12 ****         5.2363   1.4726  -0.3538 C.3            1 S1                 0.0000
     13 ****         6.3667   2.4767  -0.0716 C.3            1 S1                 0.0000
     14 ****         6.4469   3.5408  -1.1756 C.3            1 S1                 0.0000
     15 ****         5.0827   4.2260  -1.3452 C.3            1 S1                 0.0000
     16 ****         3.9716   3.1934  -1.6020 C.3            1 S1                 0.0000
     17 ****         2.8952   0.0337  -0.5974 N.ar           1 S1                 0.0000
     18 ****         1.7766  -0.7189  -0.5520 C.ar           1 S1                 0.0000
     19 ****        -4.5393  -2.7476   1.0142 C.3            1 S1                 0.0000
     20 ****        -4.1227  -1.9501   2.2514 C.3            1 S1                 0.0000
     21 ****        -5.1455  -2.4078   3.2652 C.3            1 S1                 0.0000
     22 ****        -6.4056  -2.5207   2.4117 C.3            1 S1                 0.0000
     23 ****        -5.9627  -2.7852   1.0823 O.3            1 S1                 0.0000
     24 ****        -5.5966  -3.1013  -1.5651 H              1 S1                 0.0000
     25 ****        -4.0932  -4.0137  -1.4651 H              1 S1                 0.0000
     26 ****        -4.1851  -2.5650  -2.4649 H              1 S1                 0.0000
     27 ****        -4.5410  -1.1679  -0.4392 H              1 S1                 0.0000
     28 ****        -2.0925  -2.8799  -0.3019 H              1 S1                 0.0000
     29 ****        -0.3368  -2.0783  -0.3614 H              1 S1                 0.0000
     30 ****        -0.5906   1.7161  -0.1947 H              1 S1                 0.0000
     31 ****         1.4420   3.0829  -0.2760 H              1 S1                 0.0000
     32 ****         5.1566   0.7811   0.4860 H              1 S1                 0.0000
     33 ****         5.4756   0.8807  -1.2384 H              1 S1                 0.0000
     34 ****         6.1920   2.9610   0.8902 H              1 S1                 0.0000
     35 ****         7.3187   1.9525   0.0142 H              1 S1                 0.0000
     36 ****         7.2132   4.2779  -0.9342 H              1 S1                 0.0000
     37 ****         6.7445   3.0746  -2.1158 H              1 S1                 0.0000
     38 ****         4.8474   4.7983  -0.4468 H              1 S1                 0.0000
     39 ****         5.1229   4.9417  -2.1666 H              1 S1                 0.0000
     40 ****         4.1289   2.7127  -2.5684 H              1 S1                 0.0000
     41 ****         3.0157   3.7118  -1.6644 H              1 S1                 0.0000
     42 ****         1.9254  -1.7863  -0.6268 H              1 S1                 0.0000
     43 ****        -4.1755  -3.7720   1.1152 H              1 S1                 0.0000
     44 ****        -3.0962  -2.1474   2.5619 H              1 S1                 0.0000
     45 ****        -4.2265  -0.8789   2.0722 H              1 S1                 0.0000
     46 ****        -4.8685  -3.3869   3.6581 H              1 S1                 0.0000
     47 ****        -5.2578  -1.7211   4.1045 H              1 S1                 0.0000
     48 ****        -7.0768  -3.3020   2.7689 H              1 S1                 0.0000
     49 ****        -6.9535  -1.5779   2.4112 H              1 S1                 0.0000
     50 ****        -3.4554   0.3176  -0.4467 LP             1 S1                 0.0000
     51 ****        -1.8921   1.0629  -0.4747 LP             1 S1                 0.0000
     52 ****         3.8836   2.6692   0.2907 LP             1 S1                 0.0000
     53 ****         3.7932  -0.3958  -0.6932 LP             1 S1                 0.0000
     54 ****        -6.2818  -3.6908   0.8030 LP             1 S1                 0.0000
     55 ****        -6.3401  -2.0941   0.4659 LP             1 S1                 0.0000
@<TRIPOS>BOND
    1    1    2 1     
    2    1   24 1     
    3    1   25 1     
    4    1   26 1     
    5    2    3 1     
    6    2   19 1     
    7    2   27 1     
    8    3    4 am    
    9    3   28 1     
   10    4    5 2     
   11    4    6 am    
   12    6    7 1     
   13    6   29 1     
   14    7   18 ar    
   15    7    8 ar    
   16    8    9 ar    
   17    8   30 1     
   18    9   10 ar    
   19    9   31 1     
   20   10   11 1     
   21   10   17 ar    
   22   11   16 1     
   23   11   12 1     
   24   12   13 1     
   25   12   32 1     
   26   12   33 1     
   27   13   14 1     
   28   13   34 1     
   29   13   35 1     
   30   14   15 1     
   31   14   36 1     
   32   14   37 1     
   33   15   16 1     
   34   15   38 1     
   35   15   39 1     
   36   16   40 1     
   37   16   41 1     
   38   17   18 ar    
   39   18   42 1     
   40   19   23 1     
   41   19   20 1     
   42   19   43 1     
   43   20   21 1     
   44   20   44 1     
   45   20   45 1     
   46   21   22 1     
   47   21   46 1     
   48   21   47 1     
   49   22   23 1     
   50   22   48 1     
   51   22   49 1     
   52    5   50 1     
   53    5   51 1     
   54   11   52 1     
   55   17   53 1     
   56   23   54 1     
   57   23   55 1     
@<TRIPOS>SUBSTRUCTURE
      1 S1             1
@<TRIPOS>SET
LONE_PAIRS      STATIC     ATOMS    <user>   **** ""
6 50 51 52 53 54 55
DONOR_HYDROGENS      STATIC     ATOMS    <user>   **** ""
2 28 29
ATOM$BLUE        STATIC     ATOMS    COLORGROUP SYSTEM
6 50 51 52 53 54 55
ATOM$RED        STATIC     ATOMS    COLORGROUP SYSTEM
2 28 29
