#       Name:                AV-unprocessed.smi:235
#       Creating user name   scv26
#       Creation time:       Thu Mar 26 20:38:51 2020


#       File generated by GOLD software.
#

@<TRIPOS>MOLECULE
AV-unprocessed.smi:235
    63    67     1
SMALL
NO_CHARGES


@<TRIPOS>ATOM
      1 ****        -3.8312   0.5881  -2.6315 O.2            1 S1                 0.0000
      2 ****        -4.0334   1.3047  -1.6502 C.2            1 S1                 0.0000
      3 ****        -4.3567   2.6030  -1.7370 N.am           1 S1                 0.0000
      4 ****        -4.5103   3.3398  -2.9491 C.3            1 S1                 0.0000
      5 ****        -4.0335   4.7758  -2.9657 C.3            1 S1                 0.0000
      6 ****        -5.5074   4.4780  -2.9542 C.3            1 S1                 0.0000
      7 ****        -3.9339   0.7266  -0.2291 C.3            1 S1                 0.0000
      8 ****        -5.1960  -0.0694   0.1413 C.3            1 S1                 0.0000
      9 ****        -4.6956  -1.0941   1.1538 C.3            1 S1                 0.0000
     10 ****        -3.2925  -1.4287   0.6507 C.3            1 S1                 0.0000
     11 ****        -2.8540  -0.2557  -0.0952 N.pl3          1 S1                 0.0000
     12 ****        -1.5392   0.0937  -0.0915 C.ar           1 S1                 0.0000
     13 ****        -1.1989   1.4100  -0.0549 N.ar           1 S1                 0.0000
     14 ****         0.0844   1.7808  -0.0529 C.ar           1 S1                 0.0000
     15 ****         1.1743   1.0129  -0.0875 N.ar           1 S1                 0.0000
     16 ****         0.8433  -0.3088  -0.1331 C.ar           1 S1                 0.0000
     17 ****        -0.4735  -0.8522  -0.1365 C.ar           1 S1                 0.0000
     18 ****        -0.4060  -2.2403  -0.1997 N.2            1 S1                 0.0000
     19 ****         0.8725  -2.5006  -0.2261 C.2            1 S1                 0.0000
     20 ****         1.6939  -1.3975  -0.1911 N.pl3          1 S1                 0.0000
     21 ****         3.1455  -1.3898  -0.2143 C.3            1 S1                 0.0000
     22 ****         3.7548  -1.2501   1.1940 C.3            1 S1                 0.0000
     23 ****         3.3495  -2.3233   2.0230 O.3            1 S1                 0.0000
     24 ****         5.2929  -1.1444   1.1703 C.3            1 S1                 0.0000
     25 ****         5.9910  -1.0702   2.5395 C.3            1 S1                 0.0000
     26 ****         7.0617  -2.1468   2.4619 C.3            1 S1                 0.0000
     27 ****         7.2032  -2.3922   0.9644 C.3            1 S1                 0.0000
     28 ****         5.8734  -2.2543   0.4937 O.3            1 S1                 0.0000
     29 ****        -4.5029   3.1099  -0.8763 H              1 S1                 0.0000
     30 ****        -4.4091   2.7911  -3.8846 H              1 S1                 0.0000
     31 ****        -3.5939   5.1763  -2.0538 H              1 S1                 0.0000
     32 ****        -3.6039   5.1505  -3.8925 H              1 S1                 0.0000
     33 ****        -6.0628   4.6529  -3.8735 H              1 S1                 0.0000
     34 ****        -6.0530   4.6826  -2.0348 H              1 S1                 0.0000
     35 ****        -3.7863   1.5247   0.5013 H              1 S1                 0.0000
     36 ****        -5.9853   0.5637   0.5478 H              1 S1                 0.0000
     37 ****        -5.6028  -0.5912  -0.7272 H              1 S1                 0.0000
     38 ****        -4.6339  -0.6330   2.1404 H              1 S1                 0.0000
     39 ****        -5.3399  -1.9703   1.2299 H              1 S1                 0.0000
     40 ****        -2.6303  -1.6731   1.4826 H              1 S1                 0.0000
     41 ****        -3.3212  -2.2833  -0.0265 H              1 S1                 0.0000
     42 ****         0.2626   2.8456  -0.0204 H              1 S1                 0.0000
     43 ****         1.2538  -3.5103  -0.2728 H              1 S1                 0.0000
     44 ****         3.4895  -2.3067  -0.6946 H              1 S1                 0.0000
     45 ****         3.4714  -0.5647  -0.8488 H              1 S1                 0.0000
     46 ****         3.3640  -0.3395   1.6503 H              1 S1                 0.0000
     47 ****         3.7211  -3.1209   1.6783 H              1 S1                 0.0000
     48 ****         5.5699  -0.2547   0.6020 H              1 S1                 0.0000
     49 ****         6.4406  -0.0862   2.6770 H              1 S1                 0.0000
     50 ****         5.3196  -1.2424   3.3813 H              1 S1                 0.0000
     51 ****         7.9993  -1.8528   2.9343 H              1 S1                 0.0000
     52 ****         6.7063  -3.0552   2.9504 H              1 S1                 0.0000
     53 ****         7.8367  -1.6339   0.5012 H              1 S1                 0.0000
     54 ****         7.6141  -3.3754   0.7337 H              1 S1                 0.0000
     55 ****        -3.9055   0.9695  -3.5529 LP             1 S1                 0.0000
     56 ****        -3.5928  -0.3750  -2.5067 LP             1 S1                 0.0000
     57 ****        -1.9160   2.1066  -0.0292 LP             1 S1                 0.0000
     58 ****         2.1117   1.3611  -0.0808 LP             1 S1                 0.0000
     59 ****        -1.1651  -2.8910  -0.2202 LP             1 S1                 0.0000
     60 ****         2.3517  -2.3892   2.0272 LP             1 S1                 0.0000
     61 ****         3.6775  -2.1728   2.9557 LP             1 S1                 0.0000
     62 ****         5.8757  -2.0897  -0.4926 LP             1 S1                 0.0000
     63 ****         5.3532  -3.0850   0.6919 LP             1 S1                 0.0000
@<TRIPOS>BOND
    1    1    2 2     
    2    2    3 am    
    3    2    7 1     
    4    3    4 1     
    5    3   29 1     
    6    4    6 1     
    7    4    5 1     
    8    4   30 1     
    9    5    6 1     
   10    5   31 1     
   11    5   32 1     
   12    6   33 1     
   13    6   34 1     
   14    7   11 1     
   15    7    8 1     
   16    7   35 1     
   17    8    9 1     
   18    8   36 1     
   19    8   37 1     
   20    9   10 1     
   21    9   38 1     
   22    9   39 1     
   23   10   11 1     
   24   10   40 1     
   25   10   41 1     
   26   11   12 1     
   27   12   17 ar    
   28   12   13 ar    
   29   13   14 ar    
   30   14   15 ar    
   31   14   42 1     
   32   15   16 ar    
   33   16   20 1     
   34   16   17 ar    
   35   17   18 1     
   36   18   19 2     
   37   19   20 1     
   38   19   43 1     
   39   20   21 1     
   40   21   22 1     
   41   21   44 1     
   42   21   45 1     
   43   22   23 1     
   44   22   24 1     
   45   22   46 1     
   46   23   47 1     
   47   24   28 1     
   48   24   25 1     
   49   24   48 1     
   50   25   26 1     
   51   25   49 1     
   52   25   50 1     
   53   26   27 1     
   54   26   51 1     
   55   26   52 1     
   56   27   28 1     
   57   27   53 1     
   58   27   54 1     
   59    1   55 1     
   60    1   56 1     
   61   13   57 1     
   62   15   58 1     
   63   18   59 1     
   64   23   60 1     
   65   23   61 1     
   66   28   62 1     
   67   28   63 1     
@<TRIPOS>SUBSTRUCTURE
      1 S1             1
@<TRIPOS>SET
LONE_PAIRS      STATIC     ATOMS    <user>   **** ""
9 55 56 57 58 59 60 61 62 63
DONOR_HYDROGENS      STATIC     ATOMS    <user>   **** ""
2 29 47
ATOM$BLUE        STATIC     ATOMS    COLORGROUP SYSTEM
9 55 56 57 58 59 60 61 62 63
ATOM$RED        STATIC     ATOMS    COLORGROUP SYSTEM
2 29 47
