AV-unprocessed.smi:1007|AV-procd|sdf|4407|dock3
  -GOLD-   22720 2353D 1   1.00000     0.00000
 Structure written by MMmdl.
 57 59  0  0  0  0  0  0  0  0  3 V2000
  147.1800  132.7790  152.2241 C   0  0  0  0  0  0  0  0  0  0  0  0
  146.9449  134.0270  151.5957 O   0  0  0  0  0  0  0  0  0  0  0  0
  145.8878  134.7514  152.2023 C   0  0  0  0  0  0  0  0  0  0  0  0
  145.6413  136.0343  151.3931 C   0  0  0  0  0  0  0  0  0  0  0  0
  146.3025  137.2200  151.9953 N   0  3  2  0  0  0  0  0  0  0  0  0
  145.7750  137.5365  153.3451 C   0  0  0  0  0  0  0  0  0  0  0  0
  146.5501  138.7005  153.9887 C   0  0  0  0  0  0  0  0  0  0  0  0
  146.5379  139.9035  153.1174 N   0  3  1  0  0  0  0  0  0  0  0  0
  147.2252  141.0766  153.7169 C   0  0  0  0  0  0  0  0  0  0  0  0
  148.5763  140.7221  154.3703 C   0  0  1  0  0  0  0  0  0  0  0  0
  149.5718  140.8481  153.3751 O   0  0  0  0  0  0  0  0  0  0  0  0
  148.9230  141.6365  155.5636 C   0  0  0  0  0  0  0  0  0  0  0  0
  149.8748  141.0256  156.4740 N   0  0  0  0  0  0  0  0  0  0  0  0
  150.2101  139.7230  156.5443 C   0  0  0  0  0  0  0  0  0  0  0  0
  151.1117  139.3747  157.4572 N   0  0  0  0  0  0  0  0  0  0  0  0
  151.3933  140.5930  158.0514 C   0  0  0  0  0  0  0  0  0  0  0  0
  152.2788  140.9189  159.1020 C   0  0  0  0  0  0  0  0  0  0  0  0
  152.4096  142.2520  159.5521 C   0  0  0  0  0  0  0  0  0  0  0  0
  153.3755  142.5584  160.6830 C   0  0  0  0  0  0  0  0  0  0  0  0
  151.6463  143.2839  158.9492 C   0  0  0  0  0  0  0  0  0  0  0  0
  151.7702  144.7236  159.4160 C   0  0  0  0  0  0  0  0  0  0  0  0
  150.7572  142.9759  157.8986 C   0  0  0  0  0  0  0  0  0  0  0  0
  150.6356  141.6458  157.4596 C   0  0  0  0  0  0  0  0  0  0  0  0
  147.0574  139.5847  151.7643 C   0  0  0  0  0  0  0  0  0  0  0  0
  146.2792  138.4218  151.1235 C   0  0  0  0  0  0  0  0  0  0  0  0
  147.9964  132.2629  151.7189 H   0  0  0  0  0  0  0  0  0  0  0  0
  146.2971  132.1400  152.1757 H   0  0  0  0  0  0  0  0  0  0  0  0
  147.4605  132.9102  153.2701 H   0  0  0  0  0  0  0  0  0  0  0  0
  144.9880  134.1393  152.2661 H   0  0  0  0  0  0  0  0  0  0  0  0
  146.1657  135.0157  153.2236 H   0  0  0  0  0  0  0  0  0  0  0  0
  145.9760  135.9072  150.3626 H   0  0  0  0  0  0  0  0  0  0  0  0
  144.5639  136.2000  151.3470 H   0  0  0  0  0  0  0  0  0  0  0  0
  144.7148  137.7857  153.2731 H   0  0  0  0  0  0  0  0  0  0  0  0
  145.8514  136.6571  153.9859 H   0  0  0  0  0  0  0  0  0  0  0  0
  146.1043  138.9274  154.9563 H   0  0  0  0  0  0  0  0  0  0  0  0
  147.5817  138.3994  154.1793 H   0  0  0  0  0  0  0  0  0  0  0  0
  147.3588  141.8426  152.9509 H   0  0  0  0  0  0  0  0  0  0  0  0
  146.5836  141.5206  154.4800 H   0  0  0  0  0  0  0  0  0  0  0  0
  148.5837  139.6813  154.6927 H   0  0  0  0  0  0  0  0  0  0  0  0
  149.3765  140.2458  152.6724 H   0  0  0  0  0  0  0  0  0  0  0  0
  149.3350  142.5839  155.2131 H   0  0  0  0  0  0  0  0  0  0  0  0
  148.0241  141.8809  156.1305 H   0  0  0  0  0  0  0  0  0  0  0  0
  149.7693  138.9885  155.8863 H   0  0  0  0  0  0  0  0  0  0  0  0
  152.8604  140.1329  159.5608 H   0  0  0  0  0  0  0  0  0  0  0  0
  152.8448  142.9872  161.5333 H   0  0  0  0  0  0  0  0  0  0  0  0
  154.1349  143.2681  160.3545 H   0  0  0  0  0  0  0  0  0  0  0  0
  153.8862  141.6583  161.0264 H   0  0  0  0  0  0  0  0  0  0  0  0
  151.1061  145.3823  158.8553 H   0  0  0  0  0  0  0  0  0  0  0  0
  152.7905  145.0830  159.2803 H   0  0  0  0  0  0  0  0  0  0  0  0
  151.5104  144.8069  160.4713 H   0  0  0  0  0  0  0  0  0  0  0  0
  150.1728  143.7536  157.4298 H   0  0  0  0  0  0  0  0  0  0  0  0
  146.9802  140.4641  151.1233 H   0  0  0  0  0  0  0  0  0  0  0  0
  148.1174  139.3333  151.8318 H   0  0  0  0  0  0  0  0  0  0  0  0
  146.7183  138.1970  150.1522 H   0  0  0  0  0  0  0  0  0  0  0  0
  145.2456  138.7205  150.9408 H   0  0  0  0  0  0  0  0  0  0  0  0
  145.5718  140.1720  152.9936 H   0  0  0  0  0  0  0  0  0  0  0  0
  147.2715  136.9628  152.1231 H   0  0  0  0  0  0  0  0  0  0  0  0
  1  2  1  0  0  0  0
  1 26  1  0  0  0  0
  1 27  1  0  0  0  0
  1 28  1  0  0  0  0
  2  3  1  0  0  0  0
  3  4  1  0  0  0  0
  3 29  1  0  0  0  0
  3 30  1  0  0  0  0
  4  5  1  0  0  0  0
  4 31  1  0  0  0  0
  4 32  1  0  0  0  0
  5 25  1  0  0  0  0
  5  6  1  0  0  0  0
  5 57  1  0  0  0  0
  6  7  1  0  0  0  0
  6 33  1  0  0  0  0
  6 34  1  0  0  0  0
  7  8  1  0  0  0  0
  7 35  1  0  0  0  0
  7 36  1  0  0  0  0
  8  9  1  0  0  0  0
  8 24  1  0  0  0  0
  8 56  1  0  0  0  0
  9 10  1  0  0  0  0
  9 37  1  0  0  0  0
  9 38  1  0  0  0  0
 10 11  1  0  0  0  0
 10 12  1  0  0  0  0
 10 39  1  0  0  0  0
 11 40  1  0  0  0  0
 12 13  1  0  0  0  0
 12 41  1  0  0  0  0
 12 42  1  0  0  0  0
 13 23  1  0  0  0  0
 13 14  1  0  0  0  0
 14 15  2  0  0  0  0
 14 43  1  0  0  0  0
 15 16  1  0  0  0  0
 16 23  2  0  0  0  0
 16 17  1  0  0  0  0
 17 18  2  0  0  0  0
 17 44  1  0  0  0  0
 18 19  1  0  0  0  0
 18 20  1  0  0  0  0
 19 45  1  0  0  0  0
 19 46  1  0  0  0  0
 19 47  1  0  0  0  0
 20 21  1  0  0  0  0
 20 22  2  0  0  0  0
 21 48  1  0  0  0  0
 21 49  1  0  0  0  0
 21 50  1  0  0  0  0
 22 23  1  0  0  0  0
 22 51  1  0  0  0  0
 24 25  1  0  0  0  0
 24 52  1  0  0  0  0
 24 53  1  0  0  0  0
 25 54  1  0  0  0  0
 25 55  1  0  0  0  0
M  CHG  1   5   1
M  CHG  1   8   1
M  END
> <s_m_source_file>
AV-unprocessed.smi

> <i_m_source_file_index>
1007

> <i_lp_mmshare_version>
43012

> <i_f3d_flags>
0

> <s_epik_input>
W0NIM11PW0NIMl1bQ0gyXU4xW0NIMl1bQ0gyXU4oW0NIMl1bQ0gyXTEpW0NIMl1bQ0BIXShbT0hdKVtDSDJdbihbY0hdbjIpYyhjMjMpW2NIXWMoW0NIM10pYyhbY0hdMylbQ0gzXQ==

> <s_epik_cmdline>
J2VwaWtfcHl0aG9uJywgJy1waCcsICc3LjAnLCAnLXRuJywgJzgnLCAnLW1hJywgJzIwMCcsICctbWV0YWxfYmluZGluZycsICctaW1hZScsICc8aW5maWxlLm1hZT4nLCAnLW9tYWUnLCAnPG91dGZpbGUubWFlPic=

> <r_epik_Ionization_Penalty>
3.88944

> <r_epik_Ionization_Penalty_Charging>
3.80608

> <r_epik_Ionization_Penalty_Neutral>
0.0833653

> <r_epik_State_Penalty>
2.70739

> <r_epik_Charging_Adjusted_Penalty>
6.51347

> <i_epik_Tot_Q>
2

> <i_epik_Tot_abs_Q>
2

> <r_epik_Metal_State_Penalty>
2.62239

> <b_epik_Metal_Only>
0

> <s_lp_Force_Field>
OPLS_2005

> <r_lp_Energy>
30.0741

> <b_lp_Chiralities_Consistent>
1

> <s_lp_Variant>
AV-unprocessed.smi:1007-10

> <Gold.Version>
5.8.1

> <Gold.Id.Protein>
6NUR|6NUR_protein|mol2

> <Gold.PLP.Fitness>
63.8811

> <Gold.PLP.PLP>
-48.2102

> <Gold.PLP.part.hbond>
-4.2534

> <Gold.PLP.part.metal>
0.0000

> <Gold.PLP.part.buried>
-0.0277

> <Gold.PLP.part.nonpolar>
-46.0336

> <Gold.PLP.part.repulsive>
0.8239

> <Gold.PLP.ligand.clash>
0.0000

> <Gold.PLP.ligand.torsion>
1.2825

> <Gold.PLP.Chemscore.Hbond>
6.0243

> <Gold.PLP.Chemscore.CHOScore>
0.0000

> <Gold.PLP.Chemscore.Metal>
0.0000

> <Gold.Chemscore.Hbonds>
donor molecule, donor type, donor heavy atom, donor atom, acceptor molecule, acceptor atom, score
      L1  H     5    57       P1  7948  2.00
      L1  H     8    56       P1 10175  2.00
      L1  H    11    40       P1  7957  0.82
      P1  H  7989  7998       L1    11  0.27
      P1  H  8011  8017       L1    11  0.90

> <Gold.PLP.Chemscore.Internal.Correction>
0.1630

> <Gold.Rescore>
     Score         DG    S(hbond)    S(metal)    S(lipo)     H(rot)  DE(clash)    DE(int)     intcor
     22.14     -25.97       3.27        0.00     139.39       2.63       2.74       1.08       ----

> <Gold.Chemscore.Fitness>
22.1410

> <Gold.Chemscore.DG>
-25.9672

> <Gold.Chemscore.ZeroCoef>
-5.4800

> <Gold.Chemscore.Hbond>
3.2705

> <Gold.Chemscore.Metal>
0.0000

> <Gold.Chemscore.Lipo>
139.3896

> <Gold.Chemscore.Internal_Hbond>
0.0000

> <Gold.Chemscore.DEClash>
2.7449

> <Gold.Chemscore.DEInternal>
1.0814

> <Gold.Chemscore.Rot>
2.6347

> <Gold.Chemscore.Internal.Correction>
   9.000000E+99

> <Gold.Chemscore.Hbonds>
donor molecule, donor type, donor heavy atom, donor atom, acceptor molecule, acceptor atom, score
      L1  H     5    57       P1  7948  1.00
      L1  H     8    56       P1 10175  0.96
      L1  H    11    40       P1  7957  0.77
      P1  H  7989  7998       L1    11  0.12
      P1  H  8011  8017       L1    11  0.18

> <Gold.Chemscore.Hbond.Weighted>
-10.9234

> <Gold.Chemscore.Metal.Weighted>
-0.0000

> <Gold.Chemscore.Lipo.Weighted>
-16.3086

> <Gold.Chemscore.Internal_Hbond.Weighted>
0.0000

> <Gold.Chemscore.DEClash.Weighted>
2.7449

> <Gold.Chemscore.DEInternal.Weighted>
1.0814

> <Gold.Chemscore.Rot.Weighted>
6.7448

> <Gold.Chemscore.Internal.Correction.Weighted>
   9.000000E+99

> <Gold.Protein.RotatedTorsions>
[ 6907 6896 6895 6894 ] final   63.13 input  -60.11 | X-H torsion
[ 7974 7965 7964 7962 ] final -145.30 input  175.53 | X-H torsion
[ 8008 7997 7996 7995 ] final -176.90 input   59.86 | X-H torsion
[ 10167 10162 10161 10158 ] final  -36.09 input  -65.29 | X-H torsion
[ 10718 10713 10712 10709 ] final  154.11 input   66.30 | X-H torsion
[ 10763 10752 10751 10750 ] final  -90.57 input  -60.55 | X-H torsion
[ 11005 11000 10999 10996 ] final -115.44 input  -57.11 | X-H torsion

> <Gold.Protein.ActiveResidues>
 VAL166  LYS551  ARG553  GLY616  TRP617  ASP618  TYR619  PRO620  LYS621  CYS622 
 ASP623  PHE694  ASN695  SER759  ASP760  ASP761  ALA762  ILE779  LEU786  VAL792 
 PHE793  MET794  SER795  GLU796  ALA797  LYS798  CYS799  TRP800  GLU811  SER814 

> <Gold.Protein.RotatedAtoms>
  152.4228  134.5923  159.9977 H   0  0  0  0  0  0  0  0  0  0  0  0  # atno 6907 bound_to 6896
  151.6068  133.3345  159.3067 H   0  0  0  0  0  0  0  0  0  0  0  0  # atno 6908 bound_to 6896
  150.8117  134.7313  159.6759 H   0  0  0  0  0  0  0  0  0  0  0  0  # atno 6909 bound_to 6896
  144.8237  140.5601  143.5561 H   0  0  0  0  0  0  0  0  0  0  0  0  # atno 7974 bound_to 7965
  156.0005  140.1219  157.0552 H   0  0  0  0  0  0  0  0  0  0  0  0  # atno 8008 bound_to 7997
  154.4241  140.1107  156.5759 H   0  0  0  0  0  0  0  0  0  0  0  0  # atno 8009 bound_to 7997
  155.6219  140.3472  155.4657 H   0  0  0  0  0  0  0  0  0  0  0  0  # atno 8010 bound_to 7997
  140.7150  143.3432  151.2312 H   0  0  0  0  0  0  0  0  0  0  0  0  # atno 10167 bound_to 10162
  157.2360  131.0749  151.1823 H   0  0  0  0  0  0  0  0  0  0  0  0  # atno 10718 bound_to 10713
  154.6672  135.5299  153.8092 H   0  0  0  0  0  0  0  0  0  0  0  0  # atno 10763 bound_to 10752
  153.0478  135.6520  154.0781 H   0  0  0  0  0  0  0  0  0  0  0  0  # atno 10764 bound_to 10752
  154.0684  135.2956  155.3292 H   0  0  0  0  0  0  0  0  0  0  0  0  # atno 10765 bound_to 10752
  141.0487  133.9721  157.2873 H   0  0  0  0  0  0  0  0  0  0  0  0  # atno 11005 bound_to 11000
  145.5048  139.1481  143.3637 LP  0  0  0  0  0  0  0  0  0  0  0  0  # atno 17320 bound_to 7965
  146.2542  140.5188  142.8880 LP  0  0  0  0  0  0  0  0  0  0  0  0  # atno 17321 bound_to 7965
  139.6945  143.9636  152.2876 LP  0  0  0  0  0  0  0  0  0  0  0  0  # atno 17342 bound_to 10162
  139.9309  144.6742  150.8364 LP  0  0  0  0  0  0  0  0  0  0  0  0  # atno 17343 bound_to 10162
  157.3429  130.7042  149.6392 LP  0  0  0  0  0  0  0  0  0  0  0  0  # atno 17370 bound_to 10713
  155.9672  130.4275  150.4745 LP  0  0  0  0  0  0  0  0  0  0  0  0  # atno 17371 bound_to 10713
  139.9333  135.0198  156.8472 LP  0  0  0  0  0  0  0  0  0  0  0  0  # atno 17394 bound_to 11000
  140.6097  134.0094  155.7571 LP  0  0  0  0  0  0  0  0  0  0  0  0  # atno 17395 bound_to 11000

$$$$
