AV-unprocessed.smi:2642|AV-procd|sdf|10275|dock5
  -GOLD-   2272014283D 1   1.00000     0.00000
 Structure written by MMmdl.
 31 32  0  0  0  0  0  0  0  0  2 V2000
  146.0285  134.2581  154.5378 O   0  0  0  0  0  0  0  0  0  0  0  0
  146.8702  134.7192  153.7671 C   0  0  0  0  0  0  0  0  0  0  0  0
  147.8862  135.4994  154.1611 N   0  0  0  0  0  0  0  0  0  0  0  0
  148.1398  135.9164  155.5345 C   0  0  0  0  0  0  0  0  0  0  0  0
  148.7184  137.3415  155.5899 C   0  0  0  0  0  0  0  0  0  0  0  0
  150.1569  137.3442  155.3087 N   0  0  0  0  0  0  0  0  0  0  0  0
  150.7820  138.2821  154.5907 C   0  0  0  0  0  0  0  0  0  0  0  0
  150.2915  139.2725  154.0481 O   0  0  0  0  0  0  0  0  0  0  0  0
  152.2495  137.9236  154.5537 C   0  0  0  0  0  0  0  0  0  0  0  0
  152.2919  136.7112  155.3398 N   0  5  0  0  0  0  0  0  0  0  0  0
  151.0359  136.4274  155.7573 C   0  0  0  0  0  0  0  0  0  0  0  0
  150.6913  135.4760  156.4579 O   0  0  0  0  0  0  0  0  0  0  0  0
  146.8902  134.5345  152.4358 N   0  0  0  0  0  0  0  0  0  0  0  0
  146.0024  133.7682  151.6329 C   0  0  0  0  0  0  0  0  0  0  0  0
  144.6078  133.6671  151.8574 C   0  0  0  0  0  0  0  0  0  0  0  0
  143.8385  132.8574  150.9994 C   0  0  0  0  0  0  0  0  0  0  0  0
  144.4902  132.1751  149.9540 C   0  0  0  0  0  0  0  0  0  0  0  0
  145.8201  132.2517  149.7365 N   0  0  0  0  0  0  0  0  0  0  0  0
  146.5513  133.0284  150.5641 C   0  0  0  0  0  0  0  0  0  0  0  0
  148.5264  135.8401  153.4591 H   0  0  0  0  0  0  0  0  0  0  0  0
  147.2264  135.8473  156.1279 H   0  0  0  0  0  0  0  0  0  0  0  0
  148.8462  135.2093  155.9703 H   0  0  0  0  0  0  0  0  0  0  0  0
  148.2034  137.9825  154.8723 H   0  0  0  0  0  0  0  0  0  0  0  0
  148.5285  137.7858  156.5686 H   0  0  0  0  0  0  0  0  0  0  0  0
  152.5704  137.7792  153.5216 H   0  0  0  0  0  0  0  0  0  0  0  0
  152.8407  138.7340  154.9809 H   0  0  0  0  0  0  0  0  0  0  0  0
  147.5968  135.0477  151.9293 H   0  0  0  0  0  0  0  0  0  0  0  0
  144.1169  134.1773  152.6714 H   0  0  0  0  0  0  0  0  0  0  0  0
  142.7726  132.7587  151.1426 H   0  0  0  0  0  0  0  0  0  0  0  0
  143.9294  131.5464  149.2782 H   0  0  0  0  0  0  0  0  0  0  0  0
  147.6120  133.0633  150.3621 H   0  0  0  0  0  0  0  0  0  0  0  0
  1  2  2  0  0  0  0
  2  3  1  0  0  0  0
  2 13  1  0  0  0  0
  3  4  1  0  0  0  0
  3 20  1  0  0  0  0
  4  5  1  0  0  0  0
  4 21  1  0  0  0  0
  4 22  1  0  0  0  0
  5  6  1  0  0  0  0
  5 23  1  0  0  0  0
  5 24  1  0  0  0  0
  6 11  1  0  0  0  0
  6  7  1  0  0  0  0
  7  8  2  0  0  0  0
  7  9  1  0  0  0  0
  9 10  1  0  0  0  0
  9 25  1  0  0  0  0
  9 26  1  0  0  0  0
 10 11  1  0  0  0  0
 11 12  2  0  0  0  0
 13 14  1  0  0  0  0
 13 27  1  0  0  0  0
 14 19  1  0  0  0  0
 14 15  2  0  0  0  0
 15 16  1  0  0  0  0
 15 28  1  0  0  0  0
 16 17  2  0  0  0  0
 16 29  1  0  0  0  0
 17 18  1  0  0  0  0
 17 30  1  0  0  0  0
 18 19  2  0  0  0  0
 19 31  1  0  0  0  0
M  CHG  1  10  -1
M  END
> <s_m_source_file>
AV-unprocessed.smi

> <i_m_source_file_index>
2642

> <i_lp_mmshare_version>
43012

> <i_f3d_flags>
0

> <s_epik_input>
W2NIXTFuW2NIXVtjSF1bY0hdYzFbTkhdQyg9TylbTkhdW0NIMl1bQ0gyXU4yQyg9TylbQ0gyXVtOSF1DMj1P

> <s_epik_cmdline>
J2VwaWtfcHl0aG9uJywgJy1waCcsICc3LjAnLCAnLXRuJywgJzgnLCAnLW1hJywgJzIwMCcsICctbWV0YWxfYmluZGluZycsICctaW1hZScsICc8aW5maWxlLm1hZT4nLCAnLW9tYWUnLCAnPG91dGZpbGUubWFlPic=

> <r_lp_tautomer_probability>
1

> <r_epik_Ionization_Penalty>
5.82623

> <r_epik_Ionization_Penalty_Charging>
5.82164

> <r_epik_Ionization_Penalty_Neutral>
0.00459419

> <r_epik_State_Penalty>
5.8249

> <r_epik_Charging_Adjusted_Penalty>
11.6465

> <i_epik_Tot_Q>
-1

> <i_epik_Tot_abs_Q>
1

> <r_epik_Metal_State_Penalty>
1.79397

> <b_epik_Metal_Only>
1

> <s_lp_Force_Field>
OPLS_2005

> <r_lp_Energy>
16.7854

> <b_lp_Chiralities_Consistent>
1

> <s_lp_Variant>
AV-unprocessed.smi:2642-2

> <Gold.Version>
5.8.1

> <Gold.Id.Protein>
6NUR|6NUR_protein|mol2

> <Gold.PLP.Fitness>
42.5711

> <Gold.PLP.PLP>
-26.7253

> <Gold.PLP.part.hbond>
-4.0000

> <Gold.PLP.part.metal>
0.0000

> <Gold.PLP.part.buried>
-4.9616

> <Gold.PLP.part.nonpolar>
-20.0651

> <Gold.PLP.part.repulsive>
2.3313

> <Gold.PLP.ligand.clash>
0.0393

> <Gold.PLP.ligand.torsion>
0.8497

> <Gold.PLP.Chemscore.Hbond>
4.9913

> <Gold.PLP.Chemscore.CHOScore>
0.8664

> <Gold.PLP.Chemscore.Metal>
0.0000

> <Gold.Chemscore.Hbonds>
donor molecule, donor type, donor heavy atom, donor atom, acceptor molecule, acceptor atom, score
      L1  H     3    20       P1  7948  1.00
      L1  H    13    27       P1  7948  1.00
      P1  H  7989  7998       L1     8  0.71
      P1  H 10752 10765       L1    10  1.56
      L1  C    19    31       P1 10747  0.71

> <Gold.PLP.Chemscore.Internal.Correction>
0.0117

> <Gold.Rescore>
     Score         DG    S(hbond)    S(metal)    S(lipo)     H(rot)  DE(clash)    DE(int)     intcor
     15.48     -18.42       3.78        0.00      44.29       1.90       0.01       2.93       ----

> <Gold.Chemscore.Fitness>
15.4803

> <Gold.Chemscore.DG>
-18.4176

> <Gold.Chemscore.ZeroCoef>
-5.4800

> <Gold.Chemscore.Hbond>
3.7760

> <Gold.Chemscore.Metal>
0.0000

> <Gold.Chemscore.Lipo>
44.2899

> <Gold.Chemscore.Internal_Hbond>
0.0000

> <Gold.Chemscore.DEClash>
0.0060

> <Gold.Chemscore.DEInternal>
2.9313

> <Gold.Chemscore.Rot>
1.8969

> <Gold.Chemscore.Internal.Correction>
   9.000000E+99

> <Gold.Chemscore.Hbonds>
donor molecule, donor type, donor heavy atom, donor atom, acceptor molecule, acceptor atom, score
      L1  H     3    20       P1  7948  0.97
      L1  H    13    27       P1  7948  0.83
      P1  H  7989  7998       L1     8  0.66
      P1  H 10752 10765       L1    10  0.63

> <Gold.Chemscore.Hbond.Weighted>
-12.6118

> <Gold.Chemscore.Metal.Weighted>
-0.0000

> <Gold.Chemscore.Lipo.Weighted>
-5.1819

> <Gold.Chemscore.Internal_Hbond.Weighted>
0.0000

> <Gold.Chemscore.DEClash.Weighted>
0.0060

> <Gold.Chemscore.DEInternal.Weighted>
2.9313

> <Gold.Chemscore.Rot.Weighted>
4.8561

> <Gold.Chemscore.Internal.Correction.Weighted>
   9.000000E+99

> <Gold.Protein.RotatedTorsions>
[ 6907 6896 6895 6894 ] final  -74.36 input  -60.11 | X-H torsion
[ 7974 7965 7964 7962 ] final  116.87 input  175.53 | X-H torsion
[ 8008 7997 7996 7995 ] final   -0.60 input   59.86 | X-H torsion
[ 10167 10162 10161 10158 ] final  112.11 input  -65.29 | X-H torsion
[ 10718 10713 10712 10709 ] final  -18.37 input   66.30 | X-H torsion
[ 10763 10752 10751 10750 ] final -166.73 input  -60.55 | X-H torsion
[ 11005 11000 10999 10996 ] final   90.33 input  -57.11 | X-H torsion

> <Gold.Protein.ActiveResidues>
 VAL166  LYS551  ARG553  GLY616  TRP617  ASP618  TYR619  PRO620  LYS621  CYS622 
 ASP623  PHE694  ASN695  SER759  ASP760  ASP761  ALA762  ILE779  LEU786  VAL792 
 PHE793  MET794  SER795  GLU796  ALA797  LYS798  CYS799  TRP800  GLU811  SER814 

> <Gold.Protein.RotatedAtoms>
  150.7096  134.4880  159.5501 H   0  0  0  0  0  0  0  0  0  0  0  0  # atno 6907 bound_to 6896
  152.2504  134.8136  160.0456 H   0  0  0  0  0  0  0  0  0  0  0  0  # atno 6908 bound_to 6896
  151.8885  133.3475  159.3827 H   0  0  0  0  0  0  0  0  0  0  0  0  # atno 6909 bound_to 6896
  145.1744  139.3084  143.4451 H   0  0  0  0  0  0  0  0  0  0  0  0  # atno 7974 bound_to 7965
  154.6562  140.2580  155.7158 H   0  0  0  0  0  0  0  0  0  0  0  0  # atno 8008 bound_to 7997
  156.2598  140.2858  156.0938 H   0  0  0  0  0  0  0  0  0  0  0  0  # atno 8009 bound_to 7997
  155.1376  140.0379  157.2781 H   0  0  0  0  0  0  0  0  0  0  0  0  # atno 8010 bound_to 7997
  139.6560  144.7129  151.1956 H   0  0  0  0  0  0  0  0  0  0  0  0  # atno 10167 bound_to 10162
  156.5605  130.4724  149.6409 H   0  0  0  0  0  0  0  0  0  0  0  0  # atno 10718 bound_to 10713
  154.6803  135.2953  154.9622 H   0  0  0  0  0  0  0  0  0  0  0  0  # atno 10763 bound_to 10752
  154.0619  135.6630  153.4817 H   0  0  0  0  0  0  0  0  0  0  0  0  # atno 10764 bound_to 10752
  153.0543  135.5154  154.7843 H   0  0  0  0  0  0  0  0  0  0  0  0  # atno 10765 bound_to 10752
  139.8858  134.8607  156.3269 H   0  0  0  0  0  0  0  0  0  0  0  0  # atno 11005 bound_to 11000
  146.3463  140.1900  142.8589 LP  0  0  0  0  0  0  0  0  0  0  0  0  # atno 17320 bound_to 7965
  145.0200  140.8786  143.5172 LP  0  0  0  0  0  0  0  0  0  0  0  0  # atno 17321 bound_to 7965
  140.7559  143.6071  150.8642 LP  0  0  0  0  0  0  0  0  0  0  0  0  # atno 17342 bound_to 10162
  139.9724  143.6042  152.2969 LP  0  0  0  0  0  0  0  0  0  0  0  0  # atno 17343 bound_to 10162
  156.2803  130.7067  151.1889 LP  0  0  0  0  0  0  0  0  0  0  0  0  # atno 17370 bound_to 10713
  157.7369  131.0557  150.5385 LP  0  0  0  0  0  0  0  0  0  0  0  0  # atno 17371 bound_to 10713
  140.9749  133.7304  156.0588 LP  0  0  0  0  0  0  0  0  0  0  0  0  # atno 17394 bound_to 11000
  140.7824  134.3711  157.5484 LP  0  0  0  0  0  0  0  0  0  0  0  0  # atno 17395 bound_to 11000

$$$$
