AV-unprocessed.smi:2120|AV-procd|sdf|8639|dock7
  -GOLD-   2272011383D 1   1.00000     0.00000
 Structure written by MMmdl.
 46 49  0  0  0  0  0  0  0  0  2 V2000
  151.2696  138.1438  159.2822 O   0  0  0  0  0  0  0  0  0  0  0  0
  151.3616  138.9395  158.3464 C   0  0  0  0  0  0  0  0  0  0  0  0
  151.9572  140.1362  158.4845 N   0  0  0  0  0  0  0  0  0  0  0  0
  152.5474  140.6424  159.7178 C   0  0  0  0  0  0  0  0  0  0  0  0
  153.3175  141.9539  159.4854 C   0  0  0  0  0  0  0  0  0  0  0  0
  152.3913  143.1276  159.2323 C   0  0  0  0  0  0  0  0  0  0  0  0
  152.3036  144.1828  160.1673 C   0  0  0  0  0  0  0  0  0  0  0  0
  151.4355  145.2643  159.9108 C   0  0  0  0  0  0  0  0  0  0  0  0
  150.6763  145.2678  158.7229 C   0  0  0  0  0  0  0  0  0  0  0  0
  150.7875  144.2416  157.8508 N   0  3  0  0  0  0  0  0  0  0  0  0
  151.6056  143.1868  158.0608 C   0  0  0  0  0  0  0  0  0  0  0  0
  150.7845  138.5616  156.9615 C   0  0  0  0  0  0  0  0  0  0  0  0
  151.4062  137.2147  156.5017 C   0  0  0  0  0  0  0  0  0  0  0  0
  150.8099  136.7831  155.1441 C   0  0  1  0  0  0  0  0  0  0  0  0
  149.2841  136.6023  155.2853 C   0  0  0  0  0  0  0  0  0  0  0  0
  148.6520  137.9412  155.7201 C   0  0  2  0  0  0  0  0  0  0  0  0
  148.9431  139.0210  154.6579 C   0  0  0  0  0  0  0  0  0  0  0  0
  150.4693  139.1955  154.5162 C   0  0  2  0  0  0  0  0  0  0  0  0
  151.1075  137.8601  154.0802 C   0  0  0  0  0  0  0  0  0  0  0  0
  151.0680  139.6360  155.8690 C   0  0  0  0  0  0  0  0  0  0  0  0
  149.2456  138.3755  157.0774 C   0  0  0  0  0  0  0  0  0  0  0  0
  151.9966  140.7399  157.6758 H   0  0  0  0  0  0  0  0  0  0  0  0
  151.7437  140.8058  160.4364 H   0  0  0  0  0  0  0  0  0  0  0  0
  153.2007  139.8823  160.1495 H   0  0  0  0  0  0  0  0  0  0  0  0
  153.9381  142.1902  160.3507 H   0  0  0  0  0  0  0  0  0  0  0  0
  153.9996  141.8409  158.6415 H   0  0  0  0  0  0  0  0  0  0  0  0
  152.8935  144.1631  161.0725 H   0  0  0  0  0  0  0  0  0  0  0  0
  151.3538  146.0794  160.6153 H   0  0  0  0  0  0  0  0  0  0  0  0
  149.9891  146.0542  158.4464 H   0  0  0  0  0  0  0  0  0  0  0  0
  151.6062  142.4295  157.2902 H   0  0  0  0  0  0  0  0  0  0  0  0
  152.4900  137.3077  156.4140 H   0  0  0  0  0  0  0  0  0  0  0  0
  151.2272  136.4330  157.2420 H   0  0  0  0  0  0  0  0  0  0  0  0
  151.2587  135.8379  154.8368 H   0  0  0  0  0  0  0  0  0  0  0  0
  148.8533  136.2696  154.3402 H   0  0  0  0  0  0  0  0  0  0  0  0
  149.0615  135.8243  156.0164 H   0  0  0  0  0  0  0  0  0  0  0  0
  147.5736  137.8154  155.8218 H   0  0  0  0  0  0  0  0  0  0  0  0
  148.5042  138.7372  153.7005 H   0  0  0  0  0  0  0  0  0  0  0  0
  148.4787  139.9660  154.9425 H   0  0  0  0  0  0  0  0  0  0  0  0
  150.6766  139.9573  153.7641 H   0  0  0  0  0  0  0  0  0  0  0  0
  152.1842  137.9787  153.9522 H   0  0  0  0  0  0  0  0  0  0  0  0
  150.7146  137.5520  153.1105 H   0  0  0  0  0  0  0  0  0  0  0  0
  150.6430  140.5989  156.1575 H   0  0  0  0  0  0  0  0  0  0  0  0
  152.1413  139.7930  155.7501 H   0  0  0  0  0  0  0  0  0  0  0  0
  149.0001  137.6270  157.8327 H   0  0  0  0  0  0  0  0  0  0  0  0
  148.7752  139.3038  157.4053 H   0  0  0  0  0  0  0  0  0  0  0  0
  150.2300  144.2646  156.9963 H   0  0  0  0  0  0  0  0  0  0  0  0
  1  2  2  0  0  0  0
  2  3  1  0  0  0  0
  2 12  1  0  0  0  0
  3  4  1  0  0  0  0
  3 22  1  0  0  0  0
  4  5  1  0  0  0  0
  4 23  1  0  0  0  0
  4 24  1  0  0  0  0
  5  6  1  0  0  0  0
  5 25  1  0  0  0  0
  5 26  1  0  0  0  0
  6 11  1  0  0  0  0
  6  7  2  0  0  0  0
  7  8  1  0  0  0  0
  7 27  1  0  0  0  0
  8  9  2  0  0  0  0
  8 28  1  0  0  0  0
  9 10  1  0  0  0  0
  9 29  1  0  0  0  0
 10 11  2  0  0  0  0
 10 46  1  0  0  0  0
 11 30  1  0  0  0  0
 12 20  1  0  0  0  0
 12 21  1  0  0  0  0
 12 13  1  0  0  0  0
 13 14  1  0  0  0  0
 13 31  1  0  0  0  0
 13 32  1  0  0  0  0
 14 19  1  0  0  0  0
 14 15  1  0  0  0  0
 14 33  1  0  0  0  0
 15 16  1  0  0  0  0
 15 34  1  0  0  0  0
 15 35  1  0  0  0  0
 16 17  1  0  0  0  0
 16 21  1  0  0  0  0
 16 36  1  0  0  0  0
 17 18  1  0  0  0  0
 17 37  1  0  0  0  0
 17 38  1  0  0  0  0
 18 19  1  0  0  0  0
 18 20  1  0  0  0  0
 18 39  1  0  0  0  0
 19 40  1  0  0  0  0
 19 41  1  0  0  0  0
 20 42  1  0  0  0  0
 20 43  1  0  0  0  0
 21 44  1  0  0  0  0
 21 45  1  0  0  0  0
M  CHG  1  10   1
M  END
> <s_m_source_file>
AV-unprocessed.smi

> <i_m_source_file_index>
2120

> <i_lp_mmshare_version>
43012

> <i_f3d_flags>
0

> <s_epik_input>
W0NIMl0xW0NASF0oW0NIMl0yKVtDSDJdW0NASF0oW0NIMl0zKVtDSDJdW0NAQEhdMVtDSDJdQzIzQyg9TylbTkhdW0NIMl1bQ0gyXWM0W2NIXVtjSF1bY0hdbltjSF00

> <s_epik_cmdline>
J2VwaWtfcHl0aG9uJywgJy1waCcsICc3LjAnLCAnLXRuJywgJzgnLCAnLW1hJywgJzIwMCcsICctbWV0YWxfYmluZGluZycsICctaW1hZScsICc8aW5maWxlLm1hZT4nLCAnLW9tYWUnLCAnPG91dGZpbGUubWFlPic=

> <r_epik_Ionization_Penalty>
2.23732

> <r_epik_Ionization_Penalty_Charging>
2.23732

> <r_epik_Ionization_Penalty_Neutral>
2.68417e-08

> <r_epik_State_Penalty>
2.38345

> <r_epik_Charging_Adjusted_Penalty>
4.62076

> <i_epik_Tot_Q>
1

> <i_epik_Tot_abs_Q>
1

> <r_epik_Metal_State_Penalty>
2.39692

> <b_epik_Metal_Only>
0

> <s_lp_Force_Field>
OPLS_2005

> <r_lp_Energy>
42.1143

> <b_lp_Chiralities_Consistent>
1

> <s_lp_Variant>
AV-unprocessed.smi:2120-2

> <Gold.Version>
5.8.1

> <Gold.Id.Protein>
6NUR|6NUR_protein|mol2

> <Gold.PLP.Fitness>
45.2176

> <Gold.PLP.PLP>
-39.5272

> <Gold.PLP.part.hbond>
-1.0000

> <Gold.PLP.part.metal>
0.0000

> <Gold.PLP.part.buried>
-4.8588

> <Gold.PLP.part.nonpolar>
-33.1887

> <Gold.PLP.part.repulsive>
0.1436

> <Gold.PLP.ligand.clash>
0.0000

> <Gold.PLP.ligand.torsion>
0.1605

> <Gold.PLP.Chemscore.Hbond>
2.0000

> <Gold.PLP.Chemscore.CHOScore>
0.0000

> <Gold.PLP.Chemscore.Metal>
0.0000

> <Gold.Chemscore.Hbonds>
donor molecule, donor type, donor heavy atom, donor atom, acceptor molecule, acceptor atom, score
      L1  H    10    46       P1  8028  2.00

> <Gold.PLP.Chemscore.Internal.Correction>
0.0114

> <Gold.Rescore>
     Score         DG    S(hbond)    S(metal)    S(lipo)     H(rot)  DE(clash)    DE(int)     intcor
     19.52     -19.92       0.93        0.00     127.75       1.41       0.16       0.25       ----

> <Gold.Chemscore.Fitness>
19.5162

> <Gold.Chemscore.DG>
-19.9229

> <Gold.Chemscore.ZeroCoef>
-5.4800

> <Gold.Chemscore.Hbond>
0.9334

> <Gold.Chemscore.Metal>
0.0000

> <Gold.Chemscore.Lipo>
127.7461

> <Gold.Chemscore.Internal_Hbond>
0.0000

> <Gold.Chemscore.DEClash>
0.1609

> <Gold.Chemscore.DEInternal>
0.2457

> <Gold.Chemscore.Rot>
1.4145

> <Gold.Chemscore.Internal.Correction>
   9.000000E+99

> <Gold.Chemscore.Hbonds>
donor molecule, donor type, donor heavy atom, donor atom, acceptor molecule, acceptor atom, score
      L1  H    10    46       P1  8028  0.88

> <Gold.Chemscore.Hbond.Weighted>
-3.1176

> <Gold.Chemscore.Metal.Weighted>
-0.0000

> <Gold.Chemscore.Lipo.Weighted>
-14.9463

> <Gold.Chemscore.Internal_Hbond.Weighted>
0.0000

> <Gold.Chemscore.DEClash.Weighted>
0.1609

> <Gold.Chemscore.DEInternal.Weighted>
0.2457

> <Gold.Chemscore.Rot.Weighted>
3.6210

> <Gold.Chemscore.Internal.Correction.Weighted>
   9.000000E+99

> <Gold.Protein.RotatedTorsions>
[ 6907 6896 6895 6894 ] final  106.26 input  -60.11 | X-H torsion
[ 7974 7965 7964 7962 ] final  109.78 input  175.53 | X-H torsion
[ 8008 7997 7996 7995 ] final  141.03 input   59.86 | X-H torsion
[ 10167 10162 10161 10158 ] final   58.67 input  -65.29 | X-H torsion
[ 10718 10713 10712 10709 ] final    6.99 input   66.30 | X-H torsion
[ 10763 10752 10751 10750 ] final   64.67 input  -60.55 | X-H torsion
[ 11005 11000 10999 10996 ] final  -10.33 input  -57.11 | X-H torsion

> <Gold.Protein.ActiveResidues>
 VAL166  LYS551  ARG553  GLY616  TRP617  ASP618  TYR619  PRO620  LYS621  CYS622 
 ASP623  PHE694  ASN695  SER759  ASP760  ASP761  ALA762  ILE779  LEU786  VAL792 
 PHE793  MET794  SER795  GLU796  ALA797  LYS798  CYS799  TRP800  GLU811  SER814 

> <Gold.Protein.RotatedAtoms>
  152.5200  133.9407  159.7624 H   0  0  0  0  0  0  0  0  0  0  0  0  # atno 6907 bound_to 6896
  150.9737  133.6308  159.2740 H   0  0  0  0  0  0  0  0  0  0  0  0  # atno 6908 bound_to 6896
  151.3511  135.0890  159.9456 H   0  0  0  0  0  0  0  0  0  0  0  0  # atno 6909 bound_to 6896
  145.2633  139.2694  143.4005 H   0  0  0  0  0  0  0  0  0  0  0  0  # atno 7974 bound_to 7965
  156.2971  140.2326  156.4498 H   0  0  0  0  0  0  0  0  0  0  0  0  # atno 8008 bound_to 7997
  154.8112  140.0443  157.1364 H   0  0  0  0  0  0  0  0  0  0  0  0  # atno 8009 bound_to 7997
  154.9421  140.3031  155.5119 H   0  0  0  0  0  0  0  0  0  0  0  0  # atno 8010 bound_to 7997
  140.1847  144.4146  150.6599 H   0  0  0  0  0  0  0  0  0  0  0  0  # atno 10167 bound_to 10162
  156.9303  130.5823  149.5649 H   0  0  0  0  0  0  0  0  0  0  0  0  # atno 10718 bound_to 10713
  153.0065  135.5384  154.6546 H   0  0  0  0  0  0  0  0  0  0  0  0  # atno 10763 bound_to 10752
  154.5770  135.2846  155.0773 H   0  0  0  0  0  0  0  0  0  0  0  0  # atno 10764 bound_to 10752
  154.1917  135.6499  153.5114 H   0  0  0  0  0  0  0  0  0  0  0  0  # atno 10765 bound_to 10752
  140.7436  133.8650  155.8988 H   0  0  0  0  0  0  0  0  0  0  0  0  # atno 11005 bound_to 11000
  146.3268  140.3057  142.8623 LP  0  0  0  0  0  0  0  0  0  0  0  0  # atno 17320 bound_to 7965
  144.9399  140.8067  143.5637 LP  0  0  0  0  0  0  0  0  0  0  0  0  # atno 17321 bound_to 7965
  140.6496  143.2221  151.6107 LP  0  0  0  0  0  0  0  0  0  0  0  0  # atno 17342 bound_to 10162
  139.5281  144.2998  152.1083 LP  0  0  0  0  0  0  0  0  0  0  0  0  # atno 17343 bound_to 10162
  156.0450  130.5528  150.8860 LP  0  0  0  0  0  0  0  0  0  0  0  0  # atno 17370 bound_to 10713
  157.5851  131.0945  150.9209 LP  0  0  0  0  0  0  0  0  0  0  0  0  # atno 17371 bound_to 10713
  140.9814  134.1400  157.4491 LP  0  0  0  0  0  0  0  0  0  0  0  0  # atno 17394 bound_to 11000
  139.8801  135.0012  156.6052 LP  0  0  0  0  0  0  0  0  0  0  0  0  # atno 17395 bound_to 11000

$$$$
