#       Name:                AV-unprocessed.smi:1389
#       Creating user name   scv26
#       Creation time:       Fri Mar 27 05:26:49 2020


#       File generated by GOLD software.
#

@<TRIPOS>MOLECULE
AV-unprocessed.smi:1389
    58    60     1
SMALL
NO_CHARGES


@<TRIPOS>ATOM
      1 ****        -2.8272   0.4567  -1.5819 C.3            1 S1                 0.0000
      2 ****        -1.9119  -0.7566  -1.8773 C.3            1 S1                 0.0000
      3 ****        -0.4228  -0.3249  -1.8292 C.3            1 S1                 0.0000
      4 ****        -0.0422   0.2670  -0.5504 N.am           1 S1                 0.0000
      5 ****         0.2331  -0.4271   0.5624 C.2            1 S1                 0.0000
      6 ****         0.1975  -1.6561   0.6199 O.2            1 S1                 0.0000
      7 ****         0.5559   0.3929   1.5762 N.am           1 S1                 0.0000
      8 ****         1.0009   0.0519   2.8851 C.ar           1 S1                 0.0000
      9 ****         0.5718  -1.1307   3.5366 C.ar           1 S1                 0.0000
     10 ****         0.9918  -1.3843   4.8537 C.ar           1 S1                 0.0000
     11 ****         1.8157  -0.4368   5.4829 C.ar           1 S1                 0.0000
     12 ****         2.2208   0.7001   4.8831 N.ar           1 S1                 0.0000
     13 ****         1.8360   0.9523   3.6077 C.ar           1 S1                 0.0000
     14 ****         2.3031   2.1530   3.0253 N.3            1 S1                 0.0000
     15 ****         2.8737   3.2063   3.8579 C.3            1 S1                 0.0000
     16 ****         3.5907   4.1339   2.8816 C.3            1 S1                 0.0000
     17 ****         4.1314   3.1570   1.8418 C.3            1 S1                 0.0000
     18 ****         3.0621   2.0606   1.7813 C.3            1 S1                 0.0000
     19 ****        -2.2108  -1.4298  -3.1836 N.4            1 S1                 1.0000
     20 ****        -1.6967  -2.8256  -3.2351 C.3            1 S1                 0.0000
     21 ****        -1.9283  -3.4492  -4.6209 C.3            1 S1                 0.0000
     22 ****        -3.3153  -3.4241  -4.9242 O.3            1 S1                 0.0000
     23 ****        -3.8126  -2.0952  -4.9790 C.3            1 S1                 0.0000
     24 ****        -3.6370  -1.4115  -3.6116 C.3            1 S1                 0.0000
     25 ****        -2.5702   0.9359  -0.6374 H              1 S1                 0.0000
     26 ****        -3.8738   0.1670  -1.4875 H              1 S1                 0.0000
     27 ****        -2.7500   1.2142  -2.3627 H              1 S1                 0.0000
     28 ****        -2.0938  -1.4846  -1.0846 H              1 S1                 0.0000
     29 ****         0.2513  -1.1562  -2.0326 H              1 S1                 0.0000
     30 ****        -0.2295   0.4135  -2.6082 H              1 S1                 0.0000
     31 ****         0.0153   1.2743  -0.5107 H              1 S1                 0.0000
     32 ****         0.6066   1.3759   1.3512 H              1 S1                 0.0000
     33 ****        -0.0904  -1.8365   3.0598 H              1 S1                 0.0000
     34 ****         0.6788  -2.2780   5.3730 H              1 S1                 0.0000
     35 ****         2.1541  -0.5918   6.4967 H              1 S1                 0.0000
     36 ****         2.1015   3.7294   4.4227 H              1 S1                 0.0000
     37 ****         3.5964   2.7944   4.5634 H              1 S1                 0.0000
     38 ****         2.8751   4.8143   2.4176 H              1 S1                 0.0000
     39 ****         4.3702   4.7303   3.3566 H              1 S1                 0.0000
     40 ****         4.3146   3.6235   0.8736 H              1 S1                 0.0000
     41 ****         5.0728   2.7328   2.1940 H              1 S1                 0.0000
     42 ****         3.5097   1.0749   1.6447 H              1 S1                 0.0000
     43 ****         2.3890   2.2463   0.9441 H              1 S1                 0.0000
     44 ****        -0.6322  -2.8633  -3.0115 H              1 S1                 0.0000
     45 ****        -2.1980  -3.4263  -2.4742 H              1 S1                 0.0000
     46 ****        -1.3611  -2.9202  -5.3888 H              1 S1                 0.0000
     47 ****        -1.5854  -4.4840  -4.6288 H              1 S1                 0.0000
     48 ****        -3.3003  -1.5351  -5.7631 H              1 S1                 0.0000
     49 ****        -4.8682  -2.1253  -5.2499 H              1 S1                 0.0000
     50 ****        -4.2526  -1.9098  -2.8609 H              1 S1                 0.0000
     51 ****        -4.0006  -0.3891  -3.7099 H              1 S1                 0.0000
     52 ****        -1.7104  -0.9073  -3.8883 H              1 S1                 0.0000
     53 ****        -0.0465  -2.1877  -0.1912 LP             1 S1                 0.0000
     54 ****         0.4126  -2.1229   1.4777 LP             1 S1                 0.0000
     55 ****         2.7996   1.3513   5.3739 LP             1 S1                 0.0000
     56 ****         1.3740   2.4579   2.8161 LP             1 S1                 0.0000
     57 ****        -3.8116  -3.9278  -4.2171 LP             1 S1                 0.0000
     58 ****        -3.4619  -3.8626  -5.8109 LP             1 S1                 0.0000
@<TRIPOS>BOND
    1    1    2 1     
    2    1   25 1     
    3    1   26 1     
    4    1   27 1     
    5    2    3 1     
    6    2   19 1     
    7    2   28 1     
    8    3    4 1     
    9    3   29 1     
   10    3   30 1     
   11    4    5 am    
   12    4   31 1     
   13    5    6 2     
   14    5    7 am    
   15    7    8 1     
   16    7   32 1     
   17    8   13 ar    
   18    8    9 ar    
   19    9   10 ar    
   20    9   33 1     
   21   10   11 ar    
   22   10   34 1     
   23   11   12 ar    
   24   11   35 1     
   25   12   13 ar    
   26   13   14 1     
   27   14   18 1     
   28   14   15 1     
   29   15   16 1     
   30   15   36 1     
   31   15   37 1     
   32   16   17 1     
   33   16   38 1     
   34   16   39 1     
   35   17   18 1     
   36   17   40 1     
   37   17   41 1     
   38   18   42 1     
   39   18   43 1     
   40   19   24 1     
   41   19   20 1     
   42   19   52 1     
   43   20   21 1     
   44   20   44 1     
   45   20   45 1     
   46   21   22 1     
   47   21   46 1     
   48   21   47 1     
   49   22   23 1     
   50   23   24 1     
   51   23   48 1     
   52   23   49 1     
   53   24   50 1     
   54   24   51 1     
   55    6   53 1     
   56    6   54 1     
   57   12   55 1     
   58   14   56 1     
   59   22   57 1     
   60   22   58 1     
@<TRIPOS>SUBSTRUCTURE
      1 S1             1
@<TRIPOS>SET
LONE_PAIRS      STATIC     ATOMS    <user>   **** ""
6 53 54 55 56 57 58
DONOR_HYDROGENS      STATIC     ATOMS    <user>   **** ""
3 31 32 52
ATOM$BLUE        STATIC     ATOMS    COLORGROUP SYSTEM
6 53 54 55 56 57 58
ATOM$RED        STATIC     ATOMS    COLORGROUP SYSTEM
3 31 32 52
