#       Name:                AV-unprocessed.smi:598
#       Creating user name   scv26
#       Creation time:       Thu Mar 26 23:53:41 2020


#       File generated by GOLD software.
#

@<TRIPOS>MOLECULE
AV-unprocessed.smi:598
    49    50     1
SMALL
NO_CHARGES


@<TRIPOS>ATOM
      1 ****        -3.8911   1.4388  -1.7473 C.3            1 S1                 0.0000
      2 ****        -3.3865   0.0755  -2.2636 C.3            1 S1                 0.0000
      3 ****        -4.1413  -1.0962  -1.6031 C.3            1 S1                 0.0000
      4 ****        -3.7273  -1.3008  -0.1375 C.3            1 S1                 0.0000
      5 ****        -2.2107  -1.5006  -0.0133 C.3            1 S1                 0.0000
      6 ****        -1.4218  -0.3429  -0.6594 C.3            1 S1                 0.0000
      7 ****         0.0103  -0.6258  -0.5844 N.am           1 S1                 0.0000
      8 ****         0.8086  -0.3330   0.4531 C.2            1 S1                 0.0000
      9 ****         0.4043   0.1973   1.4887 O.2            1 S1                 0.0000
     10 ****         2.2852  -0.7215   0.2942 C.3            1 S1                 0.0000
     11 ****         3.1863   0.0632   1.1551 N.am           1 S1                 0.0000
     12 ****         3.5797  -0.5230   2.3745 C.2            1 S1                 0.0000
     13 ****         4.3953   0.1081   3.2420 C.2            1 S1                 0.0000
     14 ****         4.7842  -0.5064   4.4924 N.pl3          1 S1                 1.0000
     15 ****         5.5147   0.1198   5.2537 O.2            1 S1                 0.0000
     16 ****         4.3744  -1.6334   4.7549 O.2            1 S1                -1.0000
     17 ****         4.8687   1.4307   2.8821 C.2            1 S1                 0.0000
     18 ****         4.4935   1.9979   1.7187 C.2            1 S1                 0.0000
     19 ****         3.6029   1.3107   0.7777 C.2            1 S1                 0.0000
     20 ****         3.2526   1.8252  -0.2845 O.2            1 S1                 0.0000
     21 ****        -1.8526  -0.1261  -2.1334 C.3            1 S1                 0.0000
     22 ****        -1.0522   0.9887  -2.8361 C.3            1 S1                 0.0000
     23 ****        -3.6479   1.5981  -0.6973 H              1 S1                 0.0000
     24 ****        -4.9742   1.5143  -1.8469 H              1 S1                 0.0000
     25 ****        -3.4640   2.2656  -2.3144 H              1 S1                 0.0000
     26 ****        -3.6291   0.0445  -3.3268 H              1 S1                 0.0000
     27 ****        -5.2183  -0.9378  -1.6676 H              1 S1                 0.0000
     28 ****        -3.9386  -2.0124  -2.1594 H              1 S1                 0.0000
     29 ****        -4.0365  -0.4444   0.4624 H              1 S1                 0.0000
     30 ****        -4.2478  -2.1654   0.2751 H              1 S1                 0.0000
     31 ****        -1.9424  -1.5977   1.0393 H              1 S1                 0.0000
     32 ****        -1.9349  -2.4431  -0.4886 H              1 S1                 0.0000
     33 ****        -1.6270   0.5742  -0.1046 H              1 S1                 0.0000
     34 ****         0.4267  -1.0678  -1.3911 H              1 S1                 0.0000
     35 ****         2.3798  -1.7865   0.5097 H              1 S1                 0.0000
     36 ****         2.5793  -0.6159  -0.7520 H              1 S1                 0.0000
     37 ****         3.1678  -1.5058   2.5528 H              1 S1                 0.0000
     38 ****         5.5266   1.9762   3.5428 H              1 S1                 0.0000
     39 ****         4.8573   2.9845   1.4714 H              1 S1                 0.0000
     40 ****        -1.6205  -1.0475  -2.6705 H              1 S1                 0.0000
     41 ****        -1.1197   1.9332  -2.2957 H              1 S1                 0.0000
     42 ****        -1.4179   1.1551  -3.8495 H              1 S1                 0.0000
     43 ****         0.0048   0.7338  -2.9150 H              1 S1                 0.0000
     44 ****        -0.5631   0.4312   1.5860 LP             1 S1                 0.0000
     45 ****         1.0434   0.3938   2.2323 LP             1 S1                 0.0000
     46 ****         5.8289   1.0358   5.0046 LP             1 S1                 0.0000
     47 ****         5.7959  -0.2859   6.1234 LP             1 S1                 0.0000
     48 ****         2.6439   1.3290  -0.9036 LP             1 S1                 0.0000
     49 ****         3.5768   2.7392  -0.5281 LP             1 S1                 0.0000
@<TRIPOS>BOND
    1    1    2 1     
    2    1   23 1     
    3    1   24 1     
    4    1   25 1     
    5    2   21 1     
    6    2    3 1     
    7    2   26 1     
    8    3    4 1     
    9    3   27 1     
   10    3   28 1     
   11    4    5 1     
   12    4   29 1     
   13    4   30 1     
   14    5    6 1     
   15    5   31 1     
   16    5   32 1     
   17    6    7 1     
   18    6   21 1     
   19    6   33 1     
   20    7    8 am    
   21    7   34 1     
   22    8    9 2     
   23    8   10 1     
   24   10   11 1     
   25   10   35 1     
   26   10   36 1     
   27   11   19 am    
   28   11   12 1     
   29   12   13 2     
   30   12   37 1     
   31   13   14 1     
   32   13   17 1     
   33   14   15 2     
   34   14   16 1     
   35   17   18 2     
   36   17   38 1     
   37   18   19 1     
   38   18   39 1     
   39   19   20 2     
   40   21   22 1     
   41   21   40 1     
   42   22   41 1     
   43   22   42 1     
   44   22   43 1     
   45    9   44 1     
   46    9   45 1     
   47   15   46 1     
   48   15   47 1     
   49   20   48 1     
   50   20   49 1     
@<TRIPOS>SUBSTRUCTURE
      1 S1             1
@<TRIPOS>SET
LONE_PAIRS      STATIC     ATOMS    <user>   **** ""
7 44 45 46 47 16 48 49
DONOR_HYDROGENS      STATIC     ATOMS    <user>   **** ""
1 34
ATOM$BLUE        STATIC     ATOMS    COLORGROUP SYSTEM
7 44 45 46 47 16 48 49
ATOM$RED        STATIC     ATOMS    COLORGROUP SYSTEM
1 34
