#       Name:                AV-unprocessed.smi:2090
#       Creating user name   scv26
#       Creation time:       Fri Mar 27 11:25:41 2020


#       File generated by GOLD software.
#

@<TRIPOS>MOLECULE
AV-unprocessed.smi:2090
    47    48     1
SMALL
NO_CHARGES


@<TRIPOS>ATOM
      1 ****        -7.2082   4.0347  -1.5787 C.3            1 S1                 0.0000
      2 ****        -6.1370   3.4083  -0.7530 C.2            1 S1                 0.0000
      3 ****        -5.3578   2.3004  -0.9301 C.2            1 S1                 0.0000
      4 ****        -4.5407   2.2886   0.2332 C.2            1 S1                 0.0000
      5 ****        -3.6054   1.3724   0.5282 N.pl3          1 S1                -1.0000
      6 ****        -2.3397   1.5215   0.0755 C.2            1 S1                 0.0000
      7 ****        -1.9091   2.4549  -0.6055 O.2            1 S1                 0.0000
      8 ****        -1.5206   0.5234   0.4319 N.am           1 S1                 0.0000
      9 ****        -0.1117   0.4248   0.0775 C.3            1 S1                 0.0000
     10 ****         0.4104  -0.9917   0.3614 C.3            1 S1                 0.0000
     11 ****         1.8331  -1.1569  -0.0286 N.4            1 S1                 1.0000
     12 ****         2.1799  -2.5768  -0.2946 C.3            1 S1                 0.0000
     13 ****         3.6169  -2.7106  -0.8297 C.3            1 S1                 0.0000
     14 ****         4.6511  -2.0726   0.1149 C.3            1 S1                 0.0000
     15 ****         4.8953  -2.9098   1.3828 C.3            1 S1                 0.0000
     16 ****         4.2317  -0.6248   0.4281 C.3            1 S1                 0.0000
     17 ****         2.7802  -0.5331   0.9335 C.3            1 S1                 0.0000
     18 ****        -4.8133   3.2902   1.0529 N.2            1 S1                 0.0000
     19 ****        -5.8306   4.0178   0.4236 O.3            1 S1                 0.0000
     20 ****        -7.8733   3.2748  -1.9890 H              1 S1                 0.0000
     21 ****        -6.7762   4.5906  -2.4106 H              1 S1                 0.0000
     22 ****        -7.8094   4.7242  -0.9857 H              1 S1                 0.0000
     23 ****        -5.3671   1.6103  -1.7603 H              1 S1                 0.0000
     24 ****        -1.9110  -0.2199   0.9924 H              1 S1                 0.0000
     25 ****         0.0230   0.6623  -0.9791 H              1 S1                 0.0000
     26 ****         0.4360   1.1729   0.6504 H              1 S1                 0.0000
     27 ****         0.2801  -1.2528   1.4129 H              1 S1                 0.0000
     28 ****        -0.2019  -1.6935  -0.2075 H              1 S1                 0.0000
     29 ****         2.0525  -3.1627   0.6166 H              1 S1                 0.0000
     30 ****         1.4904  -2.9906  -1.0314 H              1 S1                 0.0000
     31 ****         3.8572  -3.7606  -1.0004 H              1 S1                 0.0000
     32 ****         3.6767  -2.2255  -1.8052 H              1 S1                 0.0000
     33 ****         5.6029  -2.0332  -0.4165 H              1 S1                 0.0000
     34 ****         3.9985  -3.0041   1.9944 H              1 S1                 0.0000
     35 ****         5.6711  -2.4606   2.0032 H              1 S1                 0.0000
     36 ****         5.2259  -3.9168   1.1267 H              1 S1                 0.0000
     37 ****         4.9109  -0.1842   1.1588 H              1 S1                 0.0000
     38 ****         4.3289  -0.0212  -0.4756 H              1 S1                 0.0000
     39 ****         2.5300   0.5166   1.0819 H              1 S1                 0.0000
     40 ****         2.6846  -1.0151   1.9073 H              1 S1                 0.0000
     41 ****         1.9438  -0.6724  -0.9079 H              1 S1                 0.0000
     42 ****        -3.8451   0.5768   1.0846 LP             1 S1                 0.0000
     43 ****        -2.5190   3.2001  -0.8751 LP             1 S1                 0.0000
     44 ****        -0.9499   2.4667  -0.8881 LP             1 S1                 0.0000
     45 ****        -4.3840   3.4861   1.9346 LP             1 S1                 0.0000
     46 ****        -6.6396   4.0425   1.0108 LP             1 S1                 0.0000
     47 ****        -5.5177   4.9512   0.2479 LP             1 S1                 0.0000
@<TRIPOS>BOND
    1    1    2 1     
    2    1   20 1     
    3    1   21 1     
    4    1   22 1     
    5    2   19 1     
    6    2    3 2     
    7    3    4 1     
    8    3   23 1     
    9    4    5 1     
   10    4   18 2     
   11    5    6 1     
   12    6    7 2     
   13    6    8 am    
   14    8    9 1     
   15    8   24 1     
   16    9   10 1     
   17    9   25 1     
   18    9   26 1     
   19   10   11 1     
   20   10   27 1     
   21   10   28 1     
   22   11   17 1     
   23   11   12 1     
   24   11   41 1     
   25   12   13 1     
   26   12   29 1     
   27   12   30 1     
   28   13   14 1     
   29   13   31 1     
   30   13   32 1     
   31   14   15 1     
   32   14   16 1     
   33   14   33 1     
   34   15   34 1     
   35   15   35 1     
   36   15   36 1     
   37   16   17 1     
   38   16   37 1     
   39   16   38 1     
   40   17   39 1     
   41   17   40 1     
   42   18   19 1     
   43    5   42 1     
   44    7   43 1     
   45    7   44 1     
   46   18   45 1     
   47   19   46 1     
   48   19   47 1     
@<TRIPOS>SUBSTRUCTURE
      1 S1             1
@<TRIPOS>SET
LONE_PAIRS      STATIC     ATOMS    <user>   **** ""
6 42 43 44 45 46 47
DONOR_HYDROGENS      STATIC     ATOMS    <user>   **** ""
2 24 41
ATOM$BLUE        STATIC     ATOMS    COLORGROUP SYSTEM
6 42 43 44 45 46 47
ATOM$RED        STATIC     ATOMS    COLORGROUP SYSTEM
2 24 41
