#       Name:                AV-unprocessed.smi:283
#       Creating user name   scv26
#       Creation time:       Thu Mar 26 21:45:19 2020


#       File generated by GOLD software.
#

@<TRIPOS>MOLECULE
AV-unprocessed.smi:283
    59    62     1
SMALL
NO_CHARGES


@<TRIPOS>ATOM
      1 ****        -5.2607  -0.5824  -0.8708 C.3            1 S1                 0.0000
      2 ****        -3.7589  -0.6129  -0.5557 C.3            1 S1                 0.0000
      3 ****        -3.1688   0.6896  -0.8556 N.pl3          1 S1                 0.0000
      4 ****        -1.8423   0.9187  -0.7322 C.ar           1 S1                 0.0000
      5 ****        -1.4882   2.2216  -0.6289 N.ar           1 S1                 0.0000
      6 ****        -0.2036   2.5589  -0.4907 C.ar           1 S1                 0.0000
      7 ****         0.8643   1.7632  -0.4354 N.ar           1 S1                 0.0000
      8 ****         0.5221   0.4478  -0.5507 C.ar           1 S1                 0.0000
      9 ****        -0.8016  -0.0577  -0.7058 C.ar           1 S1                 0.0000
     10 ****        -0.7519  -1.4437  -0.8043 N.2            1 S1                 0.0000
     11 ****         0.5151  -1.7336  -0.6959 C.2            1 S1                 0.0000
     12 ****         1.3542  -0.6548  -0.5412 N.pl3          1 S1                 0.0000
     13 ****         2.8434  -0.6805  -0.4083 C.3            1 S1                 0.0000
     14 ****         3.2315   0.3331   0.4684 O.3            1 S1                 0.0000
     15 ****         4.3945   0.9583  -0.0491 C.3            1 S1                 0.0000
     16 ****         4.7253   2.2998   0.6396 C.3            1 S1                 0.0000
     17 ****         3.8192   3.3371   0.3273 O.3            1 S1                 0.0000
     18 ****         4.2641   0.8822  -1.5783 C.3            1 S1                 0.0000
     19 ****         3.5124   1.9444  -2.1306 O.3            1 S1                 0.0000
     20 ****         3.5161  -0.4343  -1.7759 C.3            1 S1                 0.0000
     21 ****         4.4356  -1.4645  -2.0803 O.3            1 S1                 0.0000
     22 ****        -3.5259  -1.1130   0.8731 C.ar           1 S1                 0.0000
     23 ****        -3.4798  -0.1939   1.9476 C.ar           1 S1                 0.0000
     24 ****        -3.2628  -0.6392   3.2650 C.ar           1 S1                 0.0000
     25 ****        -3.0991  -2.0115   3.5252 C.ar           1 S1                 0.0000
     26 ****        -3.1583  -2.9367   2.4670 C.ar           1 S1                 0.0000
     27 ****        -3.3744  -2.4964   1.1459 C.ar           1 S1                 0.0000
     28 ****        -3.4505  -3.6800  -0.1126 Cl             1 S1                 0.0000
     29 ****         3.0648  -1.6594   0.0198 H              1 S1                 0.0000
     30 ****         5.2078   0.2810   0.2192 H              1 S1                 0.0000
     31 ****         5.2434   0.8883  -2.0592 H              1 S1                 0.0000
     32 ****         2.7765  -0.3808  -2.5771 H              1 S1                 0.0000
     33 ****        -5.7107  -1.5665  -0.7372 H              1 S1                 0.0000
     34 ****        -5.4402  -0.2785  -1.9027 H              1 S1                 0.0000
     35 ****        -5.7889   0.1159  -0.2204 H              1 S1                 0.0000
     36 ****        -3.3053  -1.3146  -1.2534 H              1 S1                 0.0000
     37 ****        -3.8335   1.4449  -0.9388 H              1 S1                 0.0000
     38 ****        -0.0013   3.6168  -0.4102 H              1 S1                 0.0000
     39 ****         0.8753  -2.7514  -0.7328 H              1 S1                 0.0000
     40 ****         4.7483   2.1678   1.7215 H              1 S1                 0.0000
     41 ****         5.7215   2.6270   0.3413 H              1 S1                 0.0000
     42 ****         4.0694   4.1106   0.8091 H              1 S1                 0.0000
     43 ****         3.8527   2.7592  -1.7933 H              1 S1                 0.0000
     44 ****         3.9548  -2.2702  -2.1937 H              1 S1                 0.0000
     45 ****        -3.6078   0.8636   1.7686 H              1 S1                 0.0000
     46 ****        -3.2237   0.0730   4.0761 H              1 S1                 0.0000
     47 ****        -2.9331  -2.3549   4.5356 H              1 S1                 0.0000
     48 ****        -3.0390  -3.9906   2.6712 H              1 S1                 0.0000
     49 ****        -2.1905   2.9330  -0.6562 LP             1 S1                 0.0000
     50 ****         1.8024   2.0908  -0.3230 LP             1 S1                 0.0000
     51 ****        -1.5161  -2.0763  -0.9300 LP             1 S1                 0.0000
     52 ****         3.4304  -0.0570   1.3674 LP             1 S1                 0.0000
     53 ****         2.4963   1.0058   0.5522 LP             1 S1                 0.0000
     54 ****         2.8924   3.0642   0.5856 LP             1 S1                 0.0000
     55 ****         3.8494   3.5269  -0.6541 LP             1 S1                 0.0000
     56 ****         2.5511   1.8475  -1.8724 LP             1 S1                 0.0000
     57 ****         3.5926   1.9320  -3.1273 LP             1 S1                 0.0000
     58 ****         5.0904  -1.5647  -1.3313 LP             1 S1                 0.0000
     59 ****         4.9250  -1.2419  -2.9234 LP             1 S1                 0.0000
@<TRIPOS>BOND
    1    1    2 1     
    2    1   33 1     
    3    1   34 1     
    4    1   35 1     
    5    2    3 1     
    6    2   22 1     
    7    2   36 1     
    8    3    4 1     
    9    3   37 1     
   10    4    9 ar    
   11    4    5 ar    
   12    5    6 ar    
   13    6    7 ar    
   14    6   38 1     
   15    7    8 ar    
   16    8   12 1     
   17    8    9 ar    
   18    9   10 1     
   19   10   11 2     
   20   11   12 1     
   21   11   39 1     
   22   12   13 1     
   23   13   29 1     
   24   13   20 1     
   25   13   14 1     
   26   14   15 1     
   27   15   30 1     
   28   15   16 1     
   29   15   18 1     
   30   16   17 1     
   31   16   40 1     
   32   16   41 1     
   33   17   42 1     
   34   18   31 1     
   35   18   19 1     
   36   18   20 1     
   37   19   43 1     
   38   20   32 1     
   39   20   21 1     
   40   21   44 1     
   41   22   27 ar    
   42   22   23 ar    
   43   23   24 ar    
   44   23   45 1     
   45   24   25 ar    
   46   24   46 1     
   47   25   26 ar    
   48   25   47 1     
   49   26   27 ar    
   50   26   48 1     
   51   27   28 1     
   52    5   49 1     
   53    7   50 1     
   54   10   51 1     
   55   14   52 1     
   56   14   53 1     
   57   17   54 1     
   58   17   55 1     
   59   19   56 1     
   60   19   57 1     
   61   21   58 1     
   62   21   59 1     
@<TRIPOS>SUBSTRUCTURE
      1 S1             1
@<TRIPOS>SET
LONE_PAIRS      STATIC     ATOMS    <user>   **** ""
11 49 50 51 52 53 54 55 56 57 58 59
DONOR_HYDROGENS      STATIC     ATOMS    <user>   **** ""
4 37 42 43 44
ATOM$BLUE        STATIC     ATOMS    COLORGROUP SYSTEM
11 49 50 51 52 53 54 55 56 57 58 59
ATOM$RED        STATIC     ATOMS    COLORGROUP SYSTEM
4 37 42 43 44
