AV-unprocessed.smi:2732|AV-procd|sdf|10532|dock9
  -GOLD-   2272014573D 1   1.00000     0.00000
 Structure written by MMmdl.
 34 35  0  0  0  0  0  0  0  0  1 V2000
  151.6795  144.0473  157.2620 C   0  0  0  0  0  0  0  0  0  0  0  0
  151.2710  142.7054  157.8875 C   0  0  2  0  0  0  0  0  0  0  0  0
  152.4226  142.1662  158.5310 O   0  0  0  0  0  0  0  0  0  0  0  0
  152.9738  142.9677  159.5688 C   0  0  0  0  0  0  0  0  0  0  0  0
  152.5310  142.4047  160.9018 C   0  0  0  0  0  0  0  0  0  0  0  0
  152.7538  143.1871  162.1761 C   0  0  0  0  0  0  0  0  0  0  0  0
  153.5520  141.9353  161.9134 C   0  0  0  0  0  0  0  0  0  0  0  0
  150.7497  141.7263  156.8230 C   0  0  0  0  0  0  0  0  0  0  0  0
  151.3658  140.6841  156.6000 O   0  0  0  0  0  0  0  0  0  0  0  0
  149.6212  142.0966  156.1900 N   0  0  0  0  0  0  0  0  0  0  0  0
  148.8842  141.3834  155.2065 C   0  0  0  0  0  0  0  0  0  0  0  0
  149.2173  140.0850  154.7514 C   0  0  0  0  0  0  0  0  0  0  0  0
  148.3922  139.4681  153.7912 C   0  0  0  0  0  0  0  0  0  0  0  0
  147.2596  140.1659  153.3273 C   0  0  0  0  0  0  0  0  0  0  0  0
  146.4203  139.5851  152.3800 N   0  0  0  0  0  0  0  0  0  0  0  0
  146.9242  141.3984  153.7626 N   0  0  0  0  0  0  0  0  0  0  0  0
  147.7196  141.9840  154.6836 C   0  0  0  0  0  0  0  0  0  0  0  0
  150.8450  144.5100  156.7337 H   0  0  0  0  0  0  0  0  0  0  0  0
  152.5007  143.9275  156.5539 H   0  0  0  0  0  0  0  0  0  0  0  0
  152.0090  144.7460  158.0314 H   0  0  0  0  0  0  0  0  0  0  0  0
  150.4958  142.8953  158.6327 H   0  0  0  0  0  0  0  0  0  0  0  0
  154.0633  142.9506  159.5211 H   0  0  0  0  0  0  0  0  0  0  0  0
  152.6514  144.0070  159.4912 H   0  0  0  0  0  0  0  0  0  0  0  0
  151.6114  141.8245  160.8510 H   0  0  0  0  0  0  0  0  0  0  0  0
  153.2735  144.1404  162.1010 H   0  0  0  0  0  0  0  0  0  0  0  0
  151.9759  143.1397  162.9353 H   0  0  0  0  0  0  0  0  0  0  0  0
  153.3090  141.0523  162.5009 H   0  0  0  0  0  0  0  0  0  0  0  0
  154.6048  142.0553  161.6653 H   0  0  0  0  0  0  0  0  0  0  0  0
  149.2773  143.0215  156.4048 H   0  0  0  0  0  0  0  0  0  0  0  0
  150.0729  139.5467  155.1288 H   0  0  0  0  0  0  0  0  0  0  0  0
  148.6249  138.4784  153.4266 H   0  0  0  0  0  0  0  0  0  0  0  0
  146.5999  138.6636  152.0077 H   0  0  0  0  0  0  0  0  0  0  0  0
  145.5996  140.0657  152.0404 H   0  0  0  0  0  0  0  0  0  0  0  0
  147.4158  142.9675  155.0113 H   0  0  0  0  0  0  0  0  0  0  0  0
  1  2  1  0  0  0  0
  1 18  1  0  0  0  0
  1 19  1  0  0  0  0
  1 20  1  0  0  0  0
  2  3  1  0  0  0  0
  2  8  1  0  0  0  0
  2 21  1  0  0  0  0
  3  4  1  0  0  0  0
  4  5  1  0  0  0  0
  4 22  1  0  0  0  0
  4 23  1  0  0  0  0
  5  7  1  0  0  0  0
  5  6  1  0  0  0  0
  5 24  1  0  0  0  0
  6  7  1  0  0  0  0
  6 25  1  0  0  0  0
  6 26  1  0  0  0  0
  7 27  1  0  0  0  0
  7 28  1  0  0  0  0
  8  9  2  0  0  0  0
  8 10  1  0  0  0  0
 10 11  1  0  0  0  0
 10 29  1  0  0  0  0
 11 17  1  0  0  0  0
 11 12  2  0  0  0  0
 12 13  1  0  0  0  0
 12 30  1  0  0  0  0
 13 14  2  0  0  0  0
 13 31  1  0  0  0  0
 14 15  1  0  0  0  0
 14 16  1  0  0  0  0
 15 32  1  0  0  0  0
 15 33  1  0  0  0  0
 16 17  2  0  0  0  0
 17 34  1  0  0  0  0
M  END
> <s_m_source_file>
AV-unprocessed.smi

> <i_m_source_file_index>
2732

> <i_lp_mmshare_version>
43012

> <i_f3d_flags>
0

> <s_epik_input>
W0NIMl0xW0NIMl1bQ0hdMVtDSDJdT1tDQEBIXShbQ0gzXSlDKD1PKVtOSF1jMltjSF1bY0hdYyhbTkgyXSluW2NIXTI=

> <s_epik_cmdline>
J2VwaWtfcHl0aG9uJywgJy1waCcsICc3LjAnLCAnLXRuJywgJzgnLCAnLW1hJywgJzIwMCcsICctbWV0YWxfYmluZGluZycsICctaW1hZScsICc8aW5maWxlLm1hZT4nLCAnLW9tYWUnLCAnPG91dGZpbGUubWFlPic=

> <r_lp_tautomer_probability>
1

> <r_epik_Ionization_Penalty>
0.0764773

> <r_epik_Ionization_Penalty_Charging>
0

> <r_epik_Ionization_Penalty_Neutral>
0.0764773

> <r_epik_State_Penalty>
0.0673619

> <r_epik_Charging_Adjusted_Penalty>
0.0673619

> <i_epik_Tot_Q>
0

> <i_epik_Tot_abs_Q>
0

> <r_epik_Metal_State_Penalty>
0.0594329

> <b_epik_Metal_Only>
0

> <s_lp_Force_Field>
OPLS_2005

> <r_lp_Energy>
19.1894

> <b_lp_Chiralities_Consistent>
1

> <s_lp_Variant>
AV-unprocessed.smi:2732-1

> <Gold.Version>
5.8.1

> <Gold.Id.Protein>
6NUR|6NUR_protein|mol2

> <Gold.PLP.Fitness>
45.4263

> <Gold.PLP.PLP>
-38.1049

> <Gold.PLP.part.hbond>
-2.0000

> <Gold.PLP.part.metal>
0.0000

> <Gold.PLP.part.buried>
-2.4713

> <Gold.PLP.part.nonpolar>
-33.1958

> <Gold.PLP.part.repulsive>
0.2979

> <Gold.PLP.ligand.clash>
0.0000

> <Gold.PLP.ligand.torsion>
0.7256

> <Gold.PLP.Chemscore.Hbond>
1.8080

> <Gold.PLP.Chemscore.CHOScore>
0.9303

> <Gold.PLP.Chemscore.Metal>
0.0000

> <Gold.Chemscore.Hbonds>
donor molecule, donor type, donor heavy atom, donor atom, acceptor molecule, acceptor atom, score
      L1  H    10    29       P1  8028  0.88
      L1  H    15    33       P1 10175  0.90
      L1  C    17    34       P1  8028  0.93

> <Gold.PLP.Chemscore.Internal.Correction>
0.5577

> <Gold.Rescore>
     Score         DG    S(hbond)    S(metal)    S(lipo)     H(rot)  DE(clash)    DE(int)     intcor
     15.63     -18.03       1.83        0.00      92.83       1.72       0.37       2.03       ----

> <Gold.Chemscore.Fitness>
15.6338

> <Gold.Chemscore.DG>
-18.0342

> <Gold.Chemscore.ZeroCoef>
-5.4800

> <Gold.Chemscore.Hbond>
1.8282

> <Gold.Chemscore.Metal>
0.0000

> <Gold.Chemscore.Lipo>
92.8256

> <Gold.Chemscore.Internal_Hbond>
0.0000

> <Gold.Chemscore.DEClash>
0.3683

> <Gold.Chemscore.DEInternal>
2.0321

> <Gold.Chemscore.Rot>
1.7237

> <Gold.Chemscore.Internal.Correction>
   9.000000E+99

> <Gold.Chemscore.Hbonds>
donor molecule, donor type, donor heavy atom, donor atom, acceptor molecule, acceptor atom, score
      L1  H    10    29       P1  8028  0.86
      L1  H    15    33       P1 10175  0.46

> <Gold.Chemscore.Hbond.Weighted>
-6.1063

> <Gold.Chemscore.Metal.Weighted>
-0.0000

> <Gold.Chemscore.Lipo.Weighted>
-10.8606

> <Gold.Chemscore.Internal_Hbond.Weighted>
0.0000

> <Gold.Chemscore.DEClash.Weighted>
0.3683

> <Gold.Chemscore.DEInternal.Weighted>
2.0321

> <Gold.Chemscore.Rot.Weighted>
4.4127

> <Gold.Chemscore.Internal.Correction.Weighted>
   9.000000E+99

> <Gold.Protein.RotatedTorsions>
[ 6907 6896 6895 6894 ] final   79.45 input  -60.11 | X-H torsion
[ 7974 7965 7964 7962 ] final -126.90 input  175.53 | X-H torsion
[ 8008 7997 7996 7995 ] final   72.82 input   59.86 | X-H torsion
[ 10167 10162 10161 10158 ] final  110.81 input  -65.29 | X-H torsion
[ 10718 10713 10712 10709 ] final  -57.86 input   66.30 | X-H torsion
[ 10763 10752 10751 10750 ] final   22.20 input  -60.55 | X-H torsion
[ 11005 11000 10999 10996 ] final  -72.84 input  -57.11 | X-H torsion

> <Gold.Protein.ActiveResidues>
 VAL166  LYS551  ARG553  GLY616  TRP617  ASP618  TYR619  PRO620  LYS621  CYS622 
 ASP623  PHE694  ASN695  SER759  ASP760  ASP761  ALA762  ILE779  LEU786  VAL792 
 PHE793  MET794  SER795  GLU796  ALA797  LYS798  CYS799  TRP800  GLU811  SER814 

> <Gold.Protein.RotatedAtoms>
  152.5199  134.3509  159.9250 H   0  0  0  0  0  0  0  0  0  0  0  0  # atno 6907 bound_to 6896
  151.3460  133.3937  159.2683 H   0  0  0  0  0  0  0  0  0  0  0  0  # atno 6908 bound_to 6896
  150.9765  134.9147  159.7877 H   0  0  0  0  0  0  0  0  0  0  0  0  # atno 6909 bound_to 6896
  144.9826  140.7655  143.4603 H   0  0  0  0  0  0  0  0  0  0  0  0  # atno 7974 bound_to 7965
  155.7745  140.3483  155.5264 H   0  0  0  0  0  0  0  0  0  0  0  0  # atno 8008 bound_to 7997
  155.8789  140.0999  157.1519 H   0  0  0  0  0  0  0  0  0  0  0  0  # atno 8009 bound_to 7997
  154.4023  140.1326  156.4159 H   0  0  0  0  0  0  0  0  0  0  0  0  # atno 8010 bound_to 7997
  139.6660  144.7127  151.1776 H   0  0  0  0  0  0  0  0  0  0  0  0  # atno 10167 bound_to 10162
  156.1179  130.4169  150.0498 H   0  0  0  0  0  0  0  0  0  0  0  0  # atno 10718 bound_to 10713
  153.0934  135.6653  153.9810 H   0  0  0  0  0  0  0  0  0  0  0  0  # atno 10763 bound_to 10752
  153.9400  135.2995  155.3444 H   0  0  0  0  0  0  0  0  0  0  0  0  # atno 10764 bound_to 10752
  154.7350  135.5105  153.9101 H   0  0  0  0  0  0  0  0  0  0  0  0  # atno 10765 bound_to 10752
  141.1614  133.6859  156.7120 H   0  0  0  0  0  0  0  0  0  0  0  0  # atno 11005 bound_to 11000
  145.2400  139.2077  143.4998 LP  0  0  0  0  0  0  0  0  0  0  0  0  # atno 17320 bound_to 7965
  146.3412  140.2293  142.8593 LP  0  0  0  0  0  0  0  0  0  0  0  0  # atno 17321 bound_to 7965
  140.7599  143.5919  150.8787 LP  0  0  0  0  0  0  0  0  0  0  0  0  # atno 17342 bound_to 10162
  139.9581  143.6195  152.3010 LP  0  0  0  0  0  0  0  0  0  0  0  0  # atno 17343 bound_to 10162
  156.8444  130.9437  151.3630 LP  0  0  0  0  0  0  0  0  0  0  0  0  # atno 17370 bound_to 10713
  157.6362  130.8768  149.9363 LP  0  0  0  0  0  0  0  0  0  0  0  0  # atno 17371 bound_to 10713
  140.2880  134.8263  157.3992 LP  0  0  0  0  0  0  0  0  0  0  0  0  # atno 17394 bound_to 11000
  140.1372  134.5018  155.8059 LP  0  0  0  0  0  0  0  0  0  0  0  0  # atno 17395 bound_to 11000

$$$$
