AV-unprocessed.smi:1308|AV-procd|sdf|5441|dock1
  -GOLD-   22720 5 03D 1   1.00000     0.00000
 Structure written by MMmdl.
 45 45  0  0  0  0  0  0  0  0  1 V2000
  149.4160  132.8998  153.5292 C   0  0  0  0  0  0  0  0  0  0  0  0
  149.4418  133.7367  154.7896 C   0  0  0  0  0  0  0  0  0  0  0  0
  149.3566  135.0992  154.5546 N   0  0  0  0  0  0  0  0  0  0  0  0
  149.3651  135.9468  155.6485 C   0  0  0  0  0  0  0  0  0  0  0  0
  149.2674  137.4231  155.3044 C   0  0  0  0  0  0  0  0  0  0  0  0
  149.4587  135.4608  156.9126 C   0  0  0  0  0  0  0  0  0  0  0  0
  149.4716  136.3624  158.1468 C   0  0  0  0  0  0  0  0  0  0  0  0
  150.6884  137.2776  158.3062 C   0  0  0  0  0  0  0  0  0  0  0  0
  151.7443  136.8412  158.7648 O   0  0  0  0  0  0  0  0  0  0  0  0
  150.5180  138.5488  157.9055 N   0  0  0  0  0  0  0  0  0  0  0  0
  151.5178  139.6199  157.8931 C   0  0  1  0  0  0  0  0  0  0  0  0
  151.8227  140.0984  156.4624 C   0  0  0  0  0  0  0  0  0  0  0  0
  151.1588  140.7872  158.8403 C   0  0  0  0  0  0  0  0  0  0  0  0
  151.5323  142.1774  158.2874 C   0  0  0  0  0  0  0  0  0  0  0  0
  151.6675  143.2698  159.3677 C   0  0  0  0  0  0  0  0  0  0  0  0
  152.0478  144.6383  158.7774 C   0  0  0  0  0  0  0  0  0  0  0  0
  152.6864  142.8503  160.4385 C   0  0  0  0  0  0  0  0  0  0  0  0
  149.5586  133.9942  157.1000 C   0  0  0  0  0  0  0  0  0  0  0  0
  149.6637  133.4935  158.2190 O   0  0  0  0  0  0  0  0  0  0  0  0
  149.5361  133.1777  155.9577 N   0  0  0  0  0  0  0  0  0  0  0  0
  149.2871  135.5023  153.6314 H   0  0  0  0  0  0  0  0  0  0  0  0
  149.5152  131.8390  153.7627 H   0  0  0  0  0  0  0  0  0  0  0  0
  150.2367  133.1807  152.8686 H   0  0  0  0  0  0  0  0  0  0  0  0
  148.4757  133.0443  152.9961 H   0  0  0  0  0  0  0  0  0  0  0  0
  150.1283  137.9654  155.6961 H   0  0  0  0  0  0  0  0  0  0  0  0
  148.3631  137.8557  155.7324 H   0  0  0  0  0  0  0  0  0  0  0  0
  149.2360  137.5828  154.2258 H   0  0  0  0  0  0  0  0  0  0  0  0
  149.3627  135.7703  159.0560 H   0  0  0  0  0  0  0  0  0  0  0  0
  148.5820  136.9922  158.1176 H   0  0  0  0  0  0  0  0  0  0  0  0
  149.6060  138.7957  157.5493 H   0  0  0  0  0  0  0  0  0  0  0  0
  152.4321  139.1638  158.2741 H   0  0  0  0  0  0  0  0  0  0  0  0
  152.6641  140.7917  156.4568 H   0  0  0  0  0  0  0  0  0  0  0  0
  150.9729  140.6148  156.0157 H   0  0  0  0  0  0  0  0  0  0  0  0
  152.0838  139.2615  155.8140 H   0  0  0  0  0  0  0  0  0  0  0  0
  150.0864  140.7498  159.0298 H   0  0  0  0  0  0  0  0  0  0  0  0
  151.6359  140.6426  159.8100 H   0  0  0  0  0  0  0  0  0  0  0  0
  152.4829  142.0988  157.7589 H   0  0  0  0  0  0  0  0  0  0  0  0
  150.7989  142.4867  157.5415 H   0  0  0  0  0  0  0  0  0  0  0  0
  150.7029  143.3750  159.8661 H   0  0  0  0  0  0  0  0  0  0  0  0
  152.9878  144.5850  158.2274 H   0  0  0  0  0  0  0  0  0  0  0  0
  152.1670  145.3835  159.5643 H   0  0  0  0  0  0  0  0  0  0  0  0
  151.2833  145.0130  158.0973 H   0  0  0  0  0  0  0  0  0  0  0  0
  153.6794  142.7139  160.0090 H   0  0  0  0  0  0  0  0  0  0  0  0
  152.3971  141.9123  160.9136 H   0  0  0  0  0  0  0  0  0  0  0  0
  152.7643  143.6028  161.2238 H   0  0  0  0  0  0  0  0  0  0  0  0
  1 22  1  0  0  0  0
  1 23  1  0  0  0  0
  1 24  1  0  0  0  0
  1  2  1  0  0  0  0
  2  3  1  0  0  0  0
  2 20  2  0  0  0  0
  3  4  1  0  0  0  0
  3 21  1  0  0  0  0
  4  6  2  0  0  0  0
  4  5  1  0  0  0  0
  5 25  1  0  0  0  0
  5 26  1  0  0  0  0
  5 27  1  0  0  0  0
  6 18  1  0  0  0  0
  6  7  1  0  0  0  0
  7  8  1  0  0  0  0
  7 28  1  0  0  0  0
  7 29  1  0  0  0  0
  8  9  2  0  0  0  0
  8 10  1  0  0  0  0
 10 11  1  0  0  0  0
 10 30  1  0  0  0  0
 11 12  1  0  0  0  0
 11 13  1  0  0  0  0
 11 31  1  0  0  0  0
 12 32  1  0  0  0  0
 12 33  1  0  0  0  0
 12 34  1  0  0  0  0
 13 14  1  0  0  0  0
 13 35  1  0  0  0  0
 13 36  1  0  0  0  0
 14 15  1  0  0  0  0
 14 37  1  0  0  0  0
 14 38  1  0  0  0  0
 15 16  1  0  0  0  0
 15 17  1  0  0  0  0
 15 39  1  0  0  0  0
 16 40  1  0  0  0  0
 16 41  1  0  0  0  0
 16 42  1  0  0  0  0
 17 43  1  0  0  0  0
 17 44  1  0  0  0  0
 17 45  1  0  0  0  0
 18 19  2  0  0  0  0
 18 20  1  0  0  0  0
M  END
> <s_m_source_file>
AV-unprocessed.smi

> <i_m_source_file_index>
1308

> <i_lp_mmshare_version>
43012

> <i_f3d_flags>
0

> <s_epik_input>
W0NIM11jMW5jKFtDSDNdKWMoYyg9TylbbkhdMSlbQ0gyXUMoPU8pW05IXVtDQEhdKFtDSDNdKVtDSDJdW0NIMl1bQ0hdKFtDSDNdKVtDSDNd

> <s_epik_cmdline>
J2VwaWtfcHl0aG9uJywgJy1waCcsICc3LjAnLCAnLXRuJywgJzgnLCAnLW1hJywgJzIwMCcsICctbWV0YWxfYmluZGluZycsICctaW1hZScsICc8aW5maWxlLm1hZT4nLCAnLW9tYWUnLCAnPG91dGZpbGUubWFlPic=

> <r_lp_tautomer_probability>
0.156392

> <r_epik_Ionization_Penalty>
0.0141156

> <r_epik_Ionization_Penalty_Charging>
0.0139937

> <r_epik_Ionization_Penalty_Neutral>
0.00012188

> <r_epik_State_Penalty>
1.52994

> <r_epik_Charging_Adjusted_Penalty>
1.54393

> <i_epik_Tot_Q>
0

> <i_epik_Tot_abs_Q>
0

> <r_epik_Metal_State_Penalty>
1.70663

> <b_epik_Metal_Only>
0

> <s_lp_Force_Field>
OPLS_2005

> <r_lp_Energy>
10.3869

> <b_lp_Chiralities_Consistent>
1

> <s_lp_Variant>
AV-unprocessed.smi:1308-4

> <Gold.Version>
5.8.1

> <Gold.Id.Protein>
6NUR|6NUR_protein|mol2

> <Gold.PLP.Fitness>
40.5718

> <Gold.PLP.PLP>
-33.7202

> <Gold.PLP.part.hbond>
-3.0000

> <Gold.PLP.part.metal>
0.0000

> <Gold.PLP.part.buried>
-5.1746

> <Gold.PLP.part.nonpolar>
-26.8023

> <Gold.PLP.part.repulsive>
0.0812

> <Gold.PLP.ligand.clash>
0.0000

> <Gold.PLP.ligand.torsion>
1.0352

> <Gold.PLP.Chemscore.Hbond>
2.8640

> <Gold.PLP.Chemscore.CHOScore>
0.0000

> <Gold.PLP.Chemscore.Metal>
0.0000

> <Gold.Chemscore.Hbonds>
donor molecule, donor type, donor heavy atom, donor atom, acceptor molecule, acceptor atom, score
      L1  H     3    21       P1  7948  1.00
      P1  H  6896  6907       L1    19  1.00
      P1  H  6896  6908       L1     9  0.77

> <Gold.PLP.Chemscore.Internal.Correction>
0.3300

> <Gold.Rescore>
     Score         DG    S(hbond)    S(metal)    S(lipo)     H(rot)  DE(clash)    DE(int)     intcor
     17.93     -19.12       2.78        0.00      80.62       1.98       0.15       1.05       ----

> <Gold.Chemscore.Fitness>
17.9298

> <Gold.Chemscore.DG>
-19.1232

> <Gold.Chemscore.ZeroCoef>
-5.4800

> <Gold.Chemscore.Hbond>
2.7809

> <Gold.Chemscore.Metal>
0.0000

> <Gold.Chemscore.Lipo>
80.6221

> <Gold.Chemscore.Internal_Hbond>
0.0000

> <Gold.Chemscore.DEClash>
0.1460

> <Gold.Chemscore.DEInternal>
1.0474

> <Gold.Chemscore.Rot>
1.9835

> <Gold.Chemscore.Internal.Correction>
   9.000000E+99

> <Gold.Chemscore.Hbonds>
donor molecule, donor type, donor heavy atom, donor atom, acceptor molecule, acceptor atom, score
      L1  H     3    21       P1  7948  0.40
      P1  H  6896  6907       L1    19  0.97
      P1  H  6896  6908       L1     9  0.67

> <Gold.Chemscore.Hbond.Weighted>
-9.2881

> <Gold.Chemscore.Metal.Weighted>
-0.0000

> <Gold.Chemscore.Lipo.Weighted>
-9.4328

> <Gold.Chemscore.Internal_Hbond.Weighted>
0.0000

> <Gold.Chemscore.DEClash.Weighted>
0.1460

> <Gold.Chemscore.DEInternal.Weighted>
1.0474

> <Gold.Chemscore.Rot.Weighted>
5.0778

> <Gold.Chemscore.Internal.Correction.Weighted>
   9.000000E+99

> <Gold.Protein.RotatedTorsions>
[ 6907 6896 6895 6894 ] final -122.35 input  -60.11 | X-H torsion
[ 7974 7965 7964 7962 ] final   27.34 input  175.53 | X-H torsion
[ 8008 7997 7996 7995 ] final  -90.39 input   59.86 | X-H torsion
[ 10167 10162 10161 10158 ] final -148.47 input  -65.29 | X-H torsion
[ 10718 10713 10712 10709 ] final -117.81 input   66.30 | X-H torsion
[ 10763 10752 10751 10750 ] final  112.23 input  -60.55 | X-H torsion
[ 11005 11000 10999 10996 ] final  -19.93 input  -57.11 | X-H torsion

> <Gold.Protein.ActiveResidues>
 VAL166  LYS551  ARG553  GLY616  TRP617  ASP618  TYR619  PRO620  LYS621  CYS622 
 ASP623  PHE694  ASN695  SER759  ASP760  ASP761  ALA762  ILE779  LEU786  VAL792 
 PHE793  MET794  SER795  GLU796  ALA797  LYS798  CYS799  TRP800  GLU811  SER814 

> <Gold.Protein.RotatedAtoms>
  150.8568  133.7703  159.3005 H   0  0  0  0  0  0  0  0  0  0  0  0  # atno 6907 bound_to 6896
  151.5358  135.1067  159.9923 H   0  0  0  0  0  0  0  0  0  0  0  0  # atno 6908 bound_to 6896
  152.4596  133.7750  159.6875 H   0  0  0  0  0  0  0  0  0  0  0  0  # atno 6909 bound_to 6896
  146.1789  139.7204  142.8914 H   0  0  0  0  0  0  0  0  0  0  0  0  # atno 7974 bound_to 7965
  154.6981  140.0531  157.0430 H   0  0  0  0  0  0  0  0  0  0  0  0  # atno 8008 bound_to 7997
  155.0723  140.3201  155.4607 H   0  0  0  0  0  0  0  0  0  0  0  0  # atno 8009 bound_to 7997
  156.2751  140.2079  156.5851 H   0  0  0  0  0  0  0  0  0  0  0  0  # atno 8010 bound_to 7997
  139.7529  143.8492  152.2590 H   0  0  0  0  0  0  0  0  0  0  0  0  # atno 10167 bound_to 10162
  156.1061  130.6211  150.9211 H   0  0  0  0  0  0  0  0  0  0  0  0  # atno 10718 bound_to 10713
  153.4748  135.3692  155.2410 H   0  0  0  0  0  0  0  0  0  0  0  0  # atno 10763 bound_to 10752
  154.8756  135.3940  154.3769 H   0  0  0  0  0  0  0  0  0  0  0  0  # atno 10764 bound_to 10752
  153.4363  135.7083  153.6262 H   0  0  0  0  0  0  0  0  0  0  0  0  # atno 10765 bound_to 10752
  140.8415  133.7923  155.9865 H   0  0  0  0  0  0  0  0  0  0  0  0  # atno 11005 bound_to 11000
  145.4132  141.0399  143.3005 LP  0  0  0  0  0  0  0  0  0  0  0  0  # atno 17320 bound_to 7965
  144.8282  139.5673  143.6956 LP  0  0  0  0  0  0  0  0  0  0  0  0  # atno 17321 bound_to 7965
  139.8475  144.7180  150.9254 LP  0  0  0  0  0  0  0  0  0  0  0  0  # atno 17342 bound_to 10162
  140.7799  143.3928  151.1280 LP  0  0  0  0  0  0  0  0  0  0  0  0  # atno 17343 bound_to 10162
  157.6237  131.0927  150.8574 LP  0  0  0  0  0  0  0  0  0  0  0  0  # atno 17370 bound_to 10713
  156.8692  130.5140  149.5298 LP  0  0  0  0  0  0  0  0  0  0  0  0  # atno 17371 bound_to 10713
  140.8890  134.2518  157.5104 LP  0  0  0  0  0  0  0  0  0  0  0  0  # atno 17394 bound_to 11000
  139.8703  134.9652  156.4521 LP  0  0  0  0  0  0  0  0  0  0  0  0  # atno 17395 bound_to 11000

$$$$
