AV-unprocessed.smi:1054|AV-procd|sdf|4623|dock7
  -GOLD-   22720 3123D 1   1.00000     0.00000
 Structure written by MMmdl.
 35 36  0  0  0  0  0  0  0  0  1 V2000
  152.1015  139.8335  158.2056 O   0  0  0  0  0  0  0  0  0  0  0  0
  151.4930  140.7773  157.7011 C   0  0  0  0  0  0  0  0  0  0  0  0
  151.3709  141.9997  158.2479 N   0  0  0  0  0  0  0  0  0  0  0  0
  151.8911  142.4666  159.4844 C   0  0  0  0  0  0  0  0  0  0  0  0
  152.9967  141.7390  159.9802 C   0  0  0  0  0  0  0  0  0  0  0  0
  153.5870  142.1210  161.2005 C   0  0  0  0  0  0  0  0  0  0  0  0
  153.0558  143.2224  161.8948 C   0  0  0  0  0  0  0  0  0  0  0  0
  151.9544  143.8926  161.3315 C   0  0  0  0  0  0  0  0  0  0  0  0
  151.3868  143.5280  160.1623 N   0  0  0  0  0  0  0  0  0  0  0  0
  150.8561  140.7157  156.5191 N   0  0  0  0  0  0  0  0  0  0  0  0
  150.7219  139.5672  155.6098 C   0  0  0  0  0  0  0  0  0  0  0  0
  149.5606  139.8091  154.6044 C   0  0  0  0  0  0  0  0  0  0  0  0
  149.8038  140.9264  153.7724 O   0  0  0  0  0  0  0  0  0  0  0  0
  152.0836  139.4052  154.8894 C   0  0  0  0  0  0  0  0  0  0  0  0
  152.2120  138.0645  154.1461 C   0  0  0  0  0  0  0  0  0  0  0  0
  152.0093  136.9884  155.0513 O   0  0  0  0  0  0  0  0  0  0  0  0
  150.7061  136.9908  155.6177 C   0  0  0  0  0  0  0  0  0  0  0  0
  150.4824  138.2756  156.4357 C   0  0  0  0  0  0  0  0  0  0  0  0
  150.8402  142.6750  157.7186 H   0  0  0  0  0  0  0  0  0  0  0  0
  153.3921  140.8950  159.4338 H   0  0  0  0  0  0  0  0  0  0  0  0
  154.4322  141.5773  161.5961 H   0  0  0  0  0  0  0  0  0  0  0  0
  153.4808  143.5451  162.8338 H   0  0  0  0  0  0  0  0  0  0  0  0
  151.5172  144.7437  161.8325 H   0  0  0  0  0  0  0  0  0  0  0  0
  150.3902  141.5579  156.2151 H   0  0  0  0  0  0  0  0  0  0  0  0
  149.4131  138.9440  153.9592 H   0  0  0  0  0  0  0  0  0  0  0  0
  148.6128  139.9615  155.1202 H   0  0  0  0  0  0  0  0  0  0  0  0
  149.4298  140.7536  152.9221 H   0  0  0  0  0  0  0  0  0  0  0  0
  152.2639  140.2305  154.1999 H   0  0  0  0  0  0  0  0  0  0  0  0
  152.8884  139.4550  155.6248 H   0  0  0  0  0  0  0  0  0  0  0  0
  151.5080  137.9997  153.3157 H   0  0  0  0  0  0  0  0  0  0  0  0
  153.2099  137.9732  153.7174 H   0  0  0  0  0  0  0  0  0  0  0  0
  149.9555  136.8830  154.8341 H   0  0  0  0  0  0  0  0  0  0  0  0
  150.6067  136.1191  156.2645 H   0  0  0  0  0  0  0  0  0  0  0  0
  151.1663  138.2562  157.2858 H   0  0  0  0  0  0  0  0  0  0  0  0
  149.4768  138.2613  156.8561 H   0  0  0  0  0  0  0  0  0  0  0  0
  1  2  2  0  0  0  0
  2  3  1  0  0  0  0
  2 10  1  0  0  0  0
  3  4  1  0  0  0  0
  3 19  1  0  0  0  0
  4  9  1  0  0  0  0
  4  5  2  0  0  0  0
  5  6  1  0  0  0  0
  5 20  1  0  0  0  0
  6  7  2  0  0  0  0
  6 21  1  0  0  0  0
  7  8  1  0  0  0  0
  7 22  1  0  0  0  0
  8  9  2  0  0  0  0
  8 23  1  0  0  0  0
 10 11  1  0  0  0  0
 10 24  1  0  0  0  0
 11 18  1  0  0  0  0
 11 12  1  0  0  0  0
 11 14  1  0  0  0  0
 12 13  1  0  0  0  0
 12 25  1  0  0  0  0
 12 26  1  0  0  0  0
 13 27  1  0  0  0  0
 14 15  1  0  0  0  0
 14 28  1  0  0  0  0
 14 29  1  0  0  0  0
 15 16  1  0  0  0  0
 15 30  1  0  0  0  0
 15 31  1  0  0  0  0
 16 17  1  0  0  0  0
 17 18  1  0  0  0  0
 17 32  1  0  0  0  0
 17 33  1  0  0  0  0
 18 34  1  0  0  0  0
 18 35  1  0  0  0  0
M  END
> <s_m_source_file>
AV-unprocessed.smi

> <i_m_source_file_index>
1054

> <i_lp_mmshare_version>
43012

> <i_f3d_flags>
0

> <s_epik_input>
W0NIMl0xW0NIMl1PW0NIMl1bQ0gyXUMxKFtDSDJdW09IXSlbTkhdQyg9TylbTkhdYzJbY0hdW2NIXVtjSF1bY0hdbjI=

> <s_epik_cmdline>
J2VwaWtfcHl0aG9uJywgJy1waCcsICc3LjAnLCAnLXRuJywgJzgnLCAnLW1hJywgJzIwMCcsICctbWV0YWxfYmluZGluZycsICctaW1hZScsICc8aW5maWxlLm1hZT4nLCAnLW9tYWUnLCAnPG91dGZpbGUubWFlPic=

> <r_lp_tautomer_probability>
1

> <r_epik_Ionization_Penalty>
4.33411e-05

> <r_epik_Ionization_Penalty_Charging>
0

> <r_epik_Ionization_Penalty_Neutral>
4.33411e-05

> <r_epik_State_Penalty>
-0

> <r_epik_Charging_Adjusted_Penalty>
0

> <i_epik_Tot_Q>
0

> <i_epik_Tot_abs_Q>
0

> <r_epik_Metal_State_Penalty>
-0

> <b_epik_Metal_Only>
0

> <s_lp_Force_Field>
OPLS_2005

> <r_lp_Energy>
17.545

> <b_lp_Chiralities_Consistent>
1

> <s_lp_Variant>
AV-unprocessed.smi:1054-1

> <Gold.Version>
5.8.1

> <Gold.Id.Protein>
6NUR|6NUR_protein|mol2

> <Gold.PLP.Fitness>
42.2993

> <Gold.PLP.PLP>
-35.9971

> <Gold.PLP.part.hbond>
-3.9157

> <Gold.PLP.part.metal>
0.0000

> <Gold.PLP.part.buried>
-4.1693

> <Gold.PLP.part.nonpolar>
-27.9080

> <Gold.PLP.part.repulsive>
0.2935

> <Gold.PLP.ligand.clash>
0.0000

> <Gold.PLP.ligand.torsion>
0.4779

> <Gold.PLP.Chemscore.Hbond>
2.4160

> <Gold.PLP.Chemscore.CHOScore>
0.0000

> <Gold.PLP.Chemscore.Metal>
0.0000

> <Gold.Chemscore.Hbonds>
donor molecule, donor type, donor heavy atom, donor atom, acceptor molecule, acceptor atom, score
      L1  H    13    27       P1  7957  0.99
      P1  H  7989  7998       L1    13  0.40
      P1  H 10752 10764       L1    16  0.90

> <Gold.PLP.Chemscore.Internal.Correction>
0.0100

> <Gold.Rescore>
     Score         DG    S(hbond)    S(metal)    S(lipo)     H(rot)  DE(clash)    DE(int)     intcor
     14.03     -17.43       2.12        0.00      82.78       1.88       0.10       3.30       ----

> <Gold.Chemscore.Fitness>
14.0285

> <Gold.Chemscore.DG>
-17.4319

> <Gold.Chemscore.ZeroCoef>
-5.4800

> <Gold.Chemscore.Hbond>
2.1171

> <Gold.Chemscore.Metal>
0.0000

> <Gold.Chemscore.Lipo>
82.7814

> <Gold.Chemscore.Internal_Hbond>
0.0000

> <Gold.Chemscore.DEClash>
0.1008

> <Gold.Chemscore.DEInternal>
3.3025

> <Gold.Chemscore.Rot>
1.8769

> <Gold.Chemscore.Internal.Correction>
   9.000000E+99

> <Gold.Chemscore.Hbonds>
donor molecule, donor type, donor heavy atom, donor atom, acceptor molecule, acceptor atom, score
      L1  H    13    27       P1  7957  0.94
      P1  H  7989  7998       L1    13  0.08
      P1  H 10752 10764       L1    16  0.81

> <Gold.Chemscore.Hbond.Weighted>
-7.0712

> <Gold.Chemscore.Metal.Weighted>
-0.0000

> <Gold.Chemscore.Lipo.Weighted>
-9.6854

> <Gold.Chemscore.Internal_Hbond.Weighted>
0.0000

> <Gold.Chemscore.DEClash.Weighted>
0.1008

> <Gold.Chemscore.DEInternal.Weighted>
3.3025

> <Gold.Chemscore.Rot.Weighted>
4.8048

> <Gold.Chemscore.Internal.Correction.Weighted>
   9.000000E+99

> <Gold.Protein.RotatedTorsions>
[ 6907 6896 6895 6894 ] final  129.38 input  -60.11 | X-H torsion
[ 7974 7965 7964 7962 ] final -151.52 input  175.53 | X-H torsion
[ 8008 7997 7996 7995 ] final  148.30 input   59.86 | X-H torsion
[ 10167 10162 10161 10158 ] final  -89.40 input  -65.29 | X-H torsion
[ 10718 10713 10712 10709 ] final  -85.33 input   66.30 | X-H torsion
[ 10763 10752 10751 10750 ] final  -46.59 input  -60.55 | X-H torsion
[ 11005 11000 10999 10996 ] final   21.71 input  -57.11 | X-H torsion

> <Gold.Protein.ActiveResidues>
 VAL166  LYS551  ARG553  GLY616  TRP617  ASP618  TYR619  PRO620  LYS621  CYS622 
 ASP623  PHE694  ASN695  SER759  ASP760  ASP761  ALA762  ILE779  LEU786  VAL792 
 PHE793  MET794  SER795  GLU796  ALA797  LYS798  CYS799  TRP800  GLU811  SER814 

> <Gold.Protein.RotatedAtoms>
  152.3629  133.6320  159.6028 H   0  0  0  0  0  0  0  0  0  0  0  0  # atno 6907 bound_to 6896
  150.7614  133.9394  159.3460 H   0  0  0  0  0  0  0  0  0  0  0  0  # atno 6908 bound_to 6896
  151.7230  135.0891  160.0338 H   0  0  0  0  0  0  0  0  0  0  0  0  # atno 6909 bound_to 6896
  144.7845  140.4787  143.5816 H   0  0  0  0  0  0  0  0  0  0  0  0  # atno 7974 bound_to 7965
  156.2796  140.2132  156.5676 H   0  0  0  0  0  0  0  0  0  0  0  0  # atno 8008 bound_to 7997
  154.7162  140.0507  157.0620 H   0  0  0  0  0  0  0  0  0  0  0  0  # atno 8009 bound_to 7997
  155.0539  140.3159  155.4686 H   0  0  0  0  0  0  0  0  0  0  0  0  # atno 8010 bound_to 7997
  140.3652  143.2822  151.9567 H   0  0  0  0  0  0  0  0  0  0  0  0  # atno 10167 bound_to 10162
  155.9998  130.4727  150.4545 H   0  0  0  0  0  0  0  0  0  0  0  0  # atno 10718 bound_to 10713
  154.0474  135.6636  153.4796 H   0  0  0  0  0  0  0  0  0  0  0  0  # atno 10763 bound_to 10752
  153.0477  135.5104  154.7783 H   0  0  0  0  0  0  0  0  0  0  0  0  # atno 10764 bound_to 10752
  154.6779  135.3040  154.9620 H   0  0  0  0  0  0  0  0  0  0  0  0  # atno 10765 bound_to 10752
  140.3886  134.1843  155.7663 H   0  0  0  0  0  0  0  0  0  0  0  0  # atno 11005 bound_to 11000
  145.5958  139.1499  143.3156 LP  0  0  0  0  0  0  0  0  0  0  0  0  # atno 17320 bound_to 7965
  146.2070  140.6082  142.9076 LP  0  0  0  0  0  0  0  0  0  0  0  0  # atno 17321 bound_to 7965
  139.4809  144.5957  151.7694 LP  0  0  0  0  0  0  0  0  0  0  0  0  # atno 17342 bound_to 10162
  140.5088  144.1057  150.5989 LP  0  0  0  0  0  0  0  0  0  0  0  0  # atno 17343 bound_to 10162
  157.2575  131.0560  151.2341 LP  0  0  0  0  0  0  0  0  0  0  0  0  # atno 17370 bound_to 10713
  157.3467  130.7061  149.6415 LP  0  0  0  0  0  0  0  0  0  0  0  0  # atno 17371 bound_to 10713
  141.1899  133.8229  157.0940 LP  0  0  0  0  0  0  0  0  0  0  0  0  # atno 17394 bound_to 11000
  140.0424  134.9848  157.0986 LP  0  0  0  0  0  0  0  0  0  0  0  0  # atno 17395 bound_to 11000

$$$$
