AV-unprocessed.smi:3127|AV-procd|sdf|11917|dock4
  -GOLD-   2272017293D 1   1.00000     0.00000
 Structure written by MMmdl.
 33 34  0  0  0  0  0  0  0  0  1 V2000
  150.2495  144.4454  159.2260 C   0  0  0  0  0  0  0  0  0  0  0  0
  151.7678  144.2583  159.4159 C   0  0  0  0  0  0  0  0  0  0  0  0
  152.5310  145.0091  158.3070 C   0  0  0  0  0  0  0  0  0  0  0  0
  152.1590  144.8852  160.7712 C   0  0  0  0  0  0  0  0  0  0  0  0
  152.1162  142.7836  159.3743 C   0  0  0  0  0  0  0  0  0  0  0  0
  152.7388  142.0300  160.3429 C   0  0  0  0  0  0  0  0  0  0  0  0
  152.9308  140.3657  159.8656 S   0  0  0  0  0  0  0  0  0  0  0  0
  152.1655  140.7486  158.3310 C   0  0  0  0  0  0  0  0  0  0  0  0
  151.9062  139.7229  157.2744 C   0  0  1  0  0  0  0  0  0  0  0  0
  151.3206  140.3417  155.9904 C   0  0  0  0  0  0  0  0  0  0  0  0
  151.1605  139.3156  154.9613 N   0  0  0  0  0  0  0  0  0  0  0  0
  152.4203  138.6162  154.7121 C   0  0  0  0  0  0  0  0  0  0  0  0
  152.9840  138.0434  156.0252 C   0  0  0  0  0  0  0  0  0  0  0  0
  153.1492  139.0931  156.9724 O   0  0  0  0  0  0  0  0  0  0  0  0
  151.7911  142.0280  158.2401 N   0  0  0  0  0  0  0  0  0  0  0  0
  149.9698  145.4986  159.2703 H   0  0  0  0  0  0  0  0  0  0  0  0
  149.6861  143.9227  159.9999 H   0  0  0  0  0  0  0  0  0  0  0  0
  149.9144  144.0628  158.2613 H   0  0  0  0  0  0  0  0  0  0  0  0
  152.2660  144.6396  157.3155 H   0  0  0  0  0  0  0  0  0  0  0  0
  153.6097  144.8956  158.4221 H   0  0  0  0  0  0  0  0  0  0  0  0
  152.3086  146.0765  158.3240 H   0  0  0  0  0  0  0  0  0  0  0  0
  151.9138  145.9475  160.8027 H   0  0  0  0  0  0  0  0  0  0  0  0
  153.2294  144.7951  160.9604 H   0  0  0  0  0  0  0  0  0  0  0  0
  151.6340  144.4078  161.5995 H   0  0  0  0  0  0  0  0  0  0  0  0
  153.0952  142.3466  161.3117 H   0  0  0  0  0  0  0  0  0  0  0  0
  151.2157  138.9835  157.6845 H   0  0  0  0  0  0  0  0  0  0  0  0
  150.3600  140.8111  156.2035 H   0  0  0  0  0  0  0  0  0  0  0  0
  151.9815  141.1292  155.6258 H   0  0  0  0  0  0  0  0  0  0  0  0
  150.8340  139.7450  154.1014 H   0  0  0  0  0  0  0  0  0  0  0  0
  152.2672  137.8149  153.9889 H   0  0  0  0  0  0  0  0  0  0  0  0
  153.1450  139.3019  154.2717 H   0  0  0  0  0  0  0  0  0  0  0  0
  152.3275  137.2705  156.4284 H   0  0  0  0  0  0  0  0  0  0  0  0
  153.9521  137.5758  155.8450 H   0  0  0  0  0  0  0  0  0  0  0  0
  1  2  1  0  0  0  0
  1 16  1  0  0  0  0
  1 17  1  0  0  0  0
  1 18  1  0  0  0  0
  2  3  1  0  0  0  0
  2  4  1  0  0  0  0
  2  5  1  0  0  0  0
  3 19  1  0  0  0  0
  3 20  1  0  0  0  0
  3 21  1  0  0  0  0
  4 22  1  0  0  0  0
  4 23  1  0  0  0  0
  4 24  1  0  0  0  0
  5 15  1  0  0  0  0
  5  6  2  0  0  0  0
  6  7  1  0  0  0  0
  6 25  1  0  0  0  0
  7  8  1  0  0  0  0
  8  9  1  0  0  0  0
  8 15  2  0  0  0  0
  9 14  1  0  0  0  0
  9 10  1  0  0  0  0
  9 26  1  0  0  0  0
 10 11  1  0  0  0  0
 10 27  1  0  0  0  0
 10 28  1  0  0  0  0
 11 12  1  0  0  0  0
 11 29  1  0  0  0  0
 12 13  1  0  0  0  0
 12 30  1  0  0  0  0
 12 31  1  0  0  0  0
 13 14  1  0  0  0  0
 13 32  1  0  0  0  0
 13 33  1  0  0  0  0
M  END
> <s_m_source_file>
AV-unprocessed.smi

> <i_m_source_file_index>
3127

> <i_lp_mmshare_version>
43012

> <i_f3d_flags>
0

> <s_epik_input>
W0NIM11DKFtDSDNdKShbQ0gzXSljMVtjSF1zYyhuMSlbQ0BASF0yW0NIMl1bTkhdW0NIMl1bQ0gyXU8y

> <s_epik_cmdline>
J2VwaWtfcHl0aG9uJywgJy1waCcsICc3LjAnLCAnLXRuJywgJzgnLCAnLW1hJywgJzIwMCcsICctbWV0YWxfYmluZGluZycsICctaW1hZScsICc8aW5maWxlLm1hZT4nLCAnLW9tYWUnLCAnPG91dGZpbGUubWFlPic=

> <r_epik_Ionization_Penalty>
0.982256

> <r_epik_Ionization_Penalty_Charging>
0

> <r_epik_Ionization_Penalty_Neutral>
0.982256

> <r_epik_State_Penalty>
2.16535

> <r_epik_Charging_Adjusted_Penalty>
2.16535

> <i_epik_Tot_Q>
0

> <i_epik_Tot_abs_Q>
0

> <r_epik_Metal_State_Penalty>
2.16345

> <b_epik_Metal_Only>
0

> <s_lp_Force_Field>
OPLS_2005

> <r_lp_Energy>
6.45536

> <b_lp_Chiralities_Consistent>
1

> <s_lp_Variant>
AV-unprocessed.smi:3127-4

> <Gold.Version>
5.8.1

> <Gold.Id.Protein>
6NUR|6NUR_protein|mol2

> <Gold.PLP.Fitness>
40.0551

> <Gold.PLP.PLP>
-37.2236

> <Gold.PLP.part.hbond>
-1.8420

> <Gold.PLP.part.metal>
0.0000

> <Gold.PLP.part.buried>
-5.6454

> <Gold.PLP.part.nonpolar>
-30.3191

> <Gold.PLP.part.repulsive>
0.0135

> <Gold.PLP.ligand.clash>
0.0000

> <Gold.PLP.ligand.torsion>
0.0901

> <Gold.PLP.Chemscore.Hbond>
1.0000

> <Gold.PLP.Chemscore.CHOScore>
0.0000

> <Gold.PLP.Chemscore.Metal>
0.0000

> <Gold.Chemscore.Hbonds>
donor molecule, donor type, donor heavy atom, donor atom, acceptor molecule, acceptor atom, score
      P1  H  7997  8008       L1    14  1.00

> <Gold.PLP.Chemscore.Internal.Correction>
0.0117

> <Gold.Rescore>
     Score         DG    S(hbond)    S(metal)    S(lipo)     H(rot)  DE(clash)    DE(int)     intcor
     18.45     -18.69       0.97        0.00     109.65       1.12       0.09       0.15       ----

> <Gold.Chemscore.Fitness>
18.4482

> <Gold.Chemscore.DG>
-18.6948

> <Gold.Chemscore.ZeroCoef>
-5.4800

> <Gold.Chemscore.Hbond>
0.9713

> <Gold.Chemscore.Metal>
0.0000

> <Gold.Chemscore.Lipo>
109.6542

> <Gold.Chemscore.Internal_Hbond>
0.0000

> <Gold.Chemscore.DEClash>
0.0930

> <Gold.Chemscore.DEInternal>
0.1536

> <Gold.Chemscore.Rot>
1.1167

> <Gold.Chemscore.Internal.Correction>
   9.000000E+99

> <Gold.Chemscore.Hbonds>
donor molecule, donor type, donor heavy atom, donor atom, acceptor molecule, acceptor atom, score
      P1  H  7997  8008       L1    14  0.84

> <Gold.Chemscore.Hbond.Weighted>
-3.2441

> <Gold.Chemscore.Metal.Weighted>
-0.0000

> <Gold.Chemscore.Lipo.Weighted>
-12.8295

> <Gold.Chemscore.Internal_Hbond.Weighted>
0.0000

> <Gold.Chemscore.DEClash.Weighted>
0.0930

> <Gold.Chemscore.DEInternal.Weighted>
0.1536

> <Gold.Chemscore.Rot.Weighted>
2.8588

> <Gold.Chemscore.Internal.Correction.Weighted>
   9.000000E+99

> <Gold.Protein.RotatedTorsions>
[ 6907 6896 6895 6894 ] final -128.57 input  -60.11 | X-H torsion
[ 7974 7965 7964 7962 ] final  -21.93 input  175.53 | X-H torsion
[ 8008 7997 7996 7995 ] final  -63.66 input   59.86 | X-H torsion
[ 10167 10162 10161 10158 ] final -142.70 input  -65.29 | X-H torsion
[ 10718 10713 10712 10709 ] final   27.74 input   66.30 | X-H torsion
[ 10763 10752 10751 10750 ] final  -46.98 input  -60.55 | X-H torsion
[ 11005 11000 10999 10996 ] final  156.68 input  -57.11 | X-H torsion

> <Gold.Protein.ActiveResidues>
 VAL166  LYS551  ARG553  GLY616  TRP617  ASP618  TYR619  PRO620  LYS621  CYS622 
 ASP623  PHE694  ASN695  SER759  ASP760  ASP761  ALA762  ILE779  LEU786  VAL792 
 PHE793  MET794  SER795  GLU796  ALA797  LYS798  CYS799  TRP800  GLU811  SER814 

> <Gold.Protein.RotatedAtoms>
  150.9193  133.6900  159.2835 H   0  0  0  0  0  0  0  0  0  0  0  0  # atno 6907 bound_to 6896
  151.4360  135.1014  159.9666 H   0  0  0  0  0  0  0  0  0  0  0  0  # atno 6908 bound_to 6896
  152.4971  133.8612  159.7306 H   0  0  0  0  0  0  0  0  0  0  0  0  # atno 6909 bound_to 6896
  146.1705  140.4408  142.8534 H   0  0  0  0  0  0  0  0  0  0  0  0  # atno 7974 bound_to 7965
  154.4567  140.0970  156.6777 H   0  0  0  0  0  0  0  0  0  0  0  0  # atno 8008 bound_to 7997
  155.5118  140.3476  155.4371 H   0  0  0  0  0  0  0  0  0  0  0  0  # atno 8009 bound_to 7997
  156.0791  140.1368  156.9724 H   0  0  0  0  0  0  0  0  0  0  0  0  # atno 8010 bound_to 7997
  139.8064  143.7763  152.2661 H   0  0  0  0  0  0  0  0  0  0  0  0  # atno 10167 bound_to 10162
  157.2243  130.6993  149.6284 H   0  0  0  0  0  0  0  0  0  0  0  0  # atno 10718 bound_to 10713
  154.0539  135.6627  153.4803 H   0  0  0  0  0  0  0  0  0  0  0  0  # atno 10763 bound_to 10752
  153.0453  135.5118  154.7724 H   0  0  0  0  0  0  0  0  0  0  0  0  # atno 10764 bound_to 10752
  154.6739  135.3034  154.9671 H   0  0  0  0  0  0  0  0  0  0  0  0  # atno 10765 bound_to 10752
  140.1698  134.8551  157.2676 H   0  0  0  0  0  0  0  0  0  0  0  0  # atno 11005 bound_to 11000
  144.8156  140.6462  143.6386 LP  0  0  0  0  0  0  0  0  0  0  0  0  # atno 17320 bound_to 7965
  145.4353  139.1543  143.4000 LP  0  0  0  0  0  0  0  0  0  0  0  0  # atno 17321 bound_to 7965
  139.7898  144.7414  150.9970 LP  0  0  0  0  0  0  0  0  0  0  0  0  # atno 17342 bound_to 10162
  140.7819  143.4453  151.0491 LP  0  0  0  0  0  0  0  0  0  0  0  0  # atno 17343 bound_to 10162
  155.9680  130.4510  150.5717 LP  0  0  0  0  0  0  0  0  0  0  0  0  # atno 17370 bound_to 10713
  157.3544  131.0739  151.1687 LP  0  0  0  0  0  0  0  0  0  0  0  0  # atno 17371 bound_to 10713
  140.2391  134.3817  155.7488 LP  0  0  0  0  0  0  0  0  0  0  0  0  # atno 17394 bound_to 11000
  141.2216  133.7255  156.8761 LP  0  0  0  0  0  0  0  0  0  0  0  0  # atno 17395 bound_to 11000

$$$$
