AV-unprocessed.smi:3166|AV-procd|sdf|12096|dock5
  -GOLD-   2272017533D 1   1.00000     0.00000
 Structure written by MMmdl.
 40 41  0  0  0  0  0  0  0  0  1 V2000
  147.1836  141.8346  155.7675 C   0  0  0  0  0  0  0  0  0  0  0  0
  148.5367  141.1090  155.8356 C   0  0  1  0  0  0  0  0  0  0  0  0
  148.9120  140.4293  154.4946 C   0  0  0  0  0  0  0  0  0  0  0  0
  150.1045  139.5997  154.5717 N   0  0  0  0  0  0  0  0  0  0  0  0
  150.2375  138.2606  154.2679 C   0  0  0  0  0  0  0  0  0  0  0  0
  151.5404  137.9192  154.4901 C   0  0  0  0  0  0  0  0  0  0  0  0
  152.1367  139.1334  154.9311 C   0  0  0  0  0  0  0  0  0  0  0  0
  151.2767  140.1380  154.9745 N   0  0  0  0  0  0  0  0  0  0  0  0
  149.5635  142.0424  156.3108 N   0  0  0  0  0  0  0  0  0  0  0  0
  149.4036  142.5159  157.6879 C   0  0  0  0  0  0  0  0  0  0  0  0
  150.6952  143.1577  158.2433 C   0  0  0  0  0  0  0  0  0  0  0  0
  151.2283  143.9758  157.2170 O   0  0  0  0  0  0  0  0  0  0  0  0
  150.3397  144.0773  159.4358 C   0  0  0  0  0  0  0  0  0  0  0  0
  151.5768  144.6909  160.1161 C   0  0  0  0  0  0  0  0  0  0  0  0
  152.5683  143.6039  160.5523 C   0  0  0  0  0  0  0  0  0  0  0  0
  152.9748  142.7245  159.3619 C   0  0  0  0  0  0  0  0  0  0  0  0
  151.7455  142.1024  158.6756 C   0  0  0  0  0  0  0  0  0  0  0  0
  146.3955  141.1616  155.4292 H   0  0  0  0  0  0  0  0  0  0  0  0
  147.2132  142.6835  155.0834 H   0  0  0  0  0  0  0  0  0  0  0  0
  146.8930  142.2132  156.7479 H   0  0  0  0  0  0  0  0  0  0  0  0
  148.4295  140.3166  156.5774 H   0  0  0  0  0  0  0  0  0  0  0  0
  148.0925  139.8219  154.1114 H   0  0  0  0  0  0  0  0  0  0  0  0
  149.0786  141.1974  153.7377 H   0  0  0  0  0  0  0  0  0  0  0  0
  149.4022  137.6685  153.9245 H   0  0  0  0  0  0  0  0  0  0  0  0
  151.9980  136.9500  154.3577 H   0  0  0  0  0  0  0  0  0  0  0  0
  153.1624  139.3140  155.2172 H   0  0  0  0  0  0  0  0  0  0  0  0
  149.6103  142.8423  155.6873 H   0  0  0  0  0  0  0  0  0  0  0  0
  148.5866  143.2368  157.7408 H   0  0  0  0  0  0  0  0  0  0  0  0
  149.1229  141.6857  158.3349 H   0  0  0  0  0  0  0  0  0  0  0  0
  150.5096  144.3643  156.7420 H   0  0  0  0  0  0  0  0  0  0  0  0
  149.6662  144.8728  159.1132 H   0  0  0  0  0  0  0  0  0  0  0  0
  149.7877  143.5014  160.1801 H   0  0  0  0  0  0  0  0  0  0  0  0
  152.0693  145.3856  159.4347 H   0  0  0  0  0  0  0  0  0  0  0  0
  151.2684  145.2786  160.9812 H   0  0  0  0  0  0  0  0  0  0  0  0
  153.4525  144.0623  160.9961 H   0  0  0  0  0  0  0  0  0  0  0  0
  152.1170  142.9846  161.3285 H   0  0  0  0  0  0  0  0  0  0  0  0
  153.5379  143.3198  158.6421 H   0  0  0  0  0  0  0  0  0  0  0  0
  153.6479  141.9354  159.6983 H   0  0  0  0  0  0  0  0  0  0  0  0
  151.2797  141.3965  159.3645 H   0  0  0  0  0  0  0  0  0  0  0  0
  152.0770  141.5141  157.8194 H   0  0  0  0  0  0  0  0  0  0  0  0
  1  2  1  0  0  0  0
  1 18  1  0  0  0  0
  1 19  1  0  0  0  0
  1 20  1  0  0  0  0
  2  3  1  0  0  0  0
  2  9  1  0  0  0  0
  2 21  1  0  0  0  0
  3  4  1  0  0  0  0
  3 22  1  0  0  0  0
  3 23  1  0  0  0  0
  4  8  1  0  0  0  0
  4  5  1  0  0  0  0
  5  6  2  0  0  0  0
  5 24  1  0  0  0  0
  6  7  1  0  0  0  0
  6 25  1  0  0  0  0
  7  8  2  0  0  0  0
  7 26  1  0  0  0  0
  9 10  1  0  0  0  0
  9 27  1  0  0  0  0
 10 11  1  0  0  0  0
 10 28  1  0  0  0  0
 10 29  1  0  0  0  0
 11 17  1  0  0  0  0
 11 12  1  0  0  0  0
 11 13  1  0  0  0  0
 12 30  1  0  0  0  0
 13 14  1  0  0  0  0
 13 31  1  0  0  0  0
 13 32  1  0  0  0  0
 14 15  1  0  0  0  0
 14 33  1  0  0  0  0
 14 34  1  0  0  0  0
 15 16  1  0  0  0  0
 15 35  1  0  0  0  0
 15 36  1  0  0  0  0
 16 17  1  0  0  0  0
 16 37  1  0  0  0  0
 16 38  1  0  0  0  0
 17 39  1  0  0  0  0
 17 40  1  0  0  0  0
M  END
> <s_m_source_file>
AV-unprocessed.smi

> <i_m_source_file_index>
3166

> <i_lp_mmshare_version>
43012

> <i_f3d_flags>
0

> <s_epik_input>
bjFbY0hdW2NIXVtjSF1uMVtDSDJdW0NAQEhdKFtDSDNdKVtOSF1bQ0gyXUMyKFtPSF0pW0NIMl1bQ0gyXVtDSDJdW0NIMl1bQ0gyXTI=

> <s_epik_cmdline>
J2VwaWtfcHl0aG9uJywgJy1waCcsICc3LjAnLCAnLXRuJywgJzgnLCAnLW1hJywgJzIwMCcsICctbWV0YWxfYmluZGluZycsICctaW1hZScsICc8aW5maWxlLm1hZT4nLCAnLW9tYWUnLCAnPG91dGZpbGUubWFlPic=

> <r_lp_tautomer_probability>
1

> <r_epik_Ionization_Penalty>
2.35964

> <r_epik_Ionization_Penalty_Charging>
0

> <r_epik_Ionization_Penalty_Neutral>
2.35964

> <r_epik_State_Penalty>
2.51455

> <r_epik_Charging_Adjusted_Penalty>
2.51455

> <i_epik_Tot_Q>
0

> <i_epik_Tot_abs_Q>
0

> <r_epik_Metal_State_Penalty>
2.51451

> <b_epik_Metal_Only>
0

> <s_lp_Force_Field>
OPLS_2005

> <r_lp_Energy>
22.3921

> <b_lp_Chiralities_Consistent>
1

> <s_lp_Variant>
AV-unprocessed.smi:3166-4

> <Gold.Version>
5.8.1

> <Gold.Id.Protein>
6NUR|6NUR_protein|mol2

> <Gold.PLP.Fitness>
48.2607

> <Gold.PLP.PLP>
-38.3000

> <Gold.PLP.part.hbond>
-3.0000

> <Gold.PLP.part.metal>
0.0000

> <Gold.PLP.part.buried>
-3.9212

> <Gold.PLP.part.nonpolar>
-32.1136

> <Gold.PLP.part.repulsive>
0.0534

> <Gold.PLP.ligand.clash>
0.0000

> <Gold.PLP.ligand.torsion>
0.3752

> <Gold.PLP.Chemscore.Hbond>
2.5590

> <Gold.PLP.Chemscore.CHOScore>
1.0000

> <Gold.PLP.Chemscore.Metal>
0.0000

> <Gold.Chemscore.Hbonds>
donor molecule, donor type, donor heavy atom, donor atom, acceptor molecule, acceptor atom, score
      L1  H     9    27       P1  8028  0.74
      L1  H    12    30       P1  8028  1.00
      P1  H  7989  7998       L1     8  0.76
      L1  C     5    24       P1  7948  1.00

> <Gold.PLP.Chemscore.Internal.Correction>
0.0342

> <Gold.Rescore>
     Score         DG    S(hbond)    S(metal)    S(lipo)     H(rot)  DE(clash)    DE(int)     intcor
     17.64     -18.34       1.79        0.00     105.10       2.12       0.25       0.46       ----

> <Gold.Chemscore.Fitness>
17.6371

> <Gold.Chemscore.DG>
-18.3417

> <Gold.Chemscore.ZeroCoef>
-5.4800

> <Gold.Chemscore.Hbond>
1.7949

> <Gold.Chemscore.Metal>
0.0000

> <Gold.Chemscore.Lipo>
105.0965

> <Gold.Chemscore.Internal_Hbond>
0.0000

> <Gold.Chemscore.DEClash>
0.2463

> <Gold.Chemscore.DEInternal>
0.4583

> <Gold.Chemscore.Rot>
2.1209

> <Gold.Chemscore.Internal.Correction>
   9.000000E+99

> <Gold.Chemscore.Hbonds>
donor molecule, donor type, donor heavy atom, donor atom, acceptor molecule, acceptor atom, score
      L1  H     9    27       P1  8028  0.70
      L1  H    12    30       P1  8028  0.97
      P1  H  7989  7998       L1     8  0.03

> <Gold.Chemscore.Hbond.Weighted>
-5.9951

> <Gold.Chemscore.Metal.Weighted>
-0.0000

> <Gold.Chemscore.Lipo.Weighted>
-12.2963

> <Gold.Chemscore.Internal_Hbond.Weighted>
0.0000

> <Gold.Chemscore.DEClash.Weighted>
0.2463

> <Gold.Chemscore.DEInternal.Weighted>
0.4583

> <Gold.Chemscore.Rot.Weighted>
5.4296

> <Gold.Chemscore.Internal.Correction.Weighted>
   9.000000E+99

> <Gold.Protein.RotatedTorsions>
[ 6907 6896 6895 6894 ] final   96.89 input  -60.11 | X-H torsion
[ 7974 7965 7964 7962 ] final    1.04 input  175.53 | X-H torsion
[ 8008 7997 7996 7995 ] final  -13.15 input   59.86 | X-H torsion
[ 10167 10162 10161 10158 ] final -115.39 input  -65.29 | X-H torsion
[ 10718 10713 10712 10709 ] final  132.05 input   66.30 | X-H torsion
[ 10763 10752 10751 10750 ] final  161.84 input  -60.55 | X-H torsion
[ 11005 11000 10999 10996 ] final -153.59 input  -57.11 | X-H torsion

> <Gold.Protein.ActiveResidues>
 VAL166  LYS551  ARG553  GLY616  TRP617  ASP618  TYR619  PRO620  LYS621  CYS622 
 ASP623  PHE694  ASN695  SER759  ASP760  ASP761  ALA762  ILE779  LEU786  VAL792 
 PHE793  MET794  SER795  GLU796  ALA797  LYS798  CYS799  TRP800  GLU811  SER814 

> <Gold.Protein.RotatedAtoms>
  152.5430  134.0817  159.8238 H   0  0  0  0  0  0  0  0  0  0  0  0  # atno 6907 bound_to 6896
  151.0918  133.5302  159.2622 H   0  0  0  0  0  0  0  0  0  0  0  0  # atno 6908 bound_to 6896
  151.2091  135.0482  159.8958 H   0  0  0  0  0  0  0  0  0  0  0  0  # atno 6909 bound_to 6896
  146.2438  140.1047  142.8346 H   0  0  0  0  0  0  0  0  0  0  0  0  # atno 7974 bound_to 7965
  154.5316  140.2257  155.8794 H   0  0  0  0  0  0  0  0  0  0  0  0  # atno 8008 bound_to 7997
  156.1770  140.3109  155.9040 H   0  0  0  0  0  0  0  0  0  0  0  0  # atno 8009 bound_to 7997
  155.3439  140.0452  157.3036 H   0  0  0  0  0  0  0  0  0  0  0  0  # atno 8010 bound_to 7997
  140.0906  143.4703  152.1872 H   0  0  0  0  0  0  0  0  0  0  0  0  # atno 10167 bound_to 10162
  157.4909  131.1090  150.9558 H   0  0  0  0  0  0  0  0  0  0  0  0  # atno 10718 bound_to 10713
  154.2692  135.2766  155.2745 H   0  0  0  0  0  0  0  0  0  0  0  0  # atno 10763 bound_to 10752
  154.5316  135.5728  153.6767 H   0  0  0  0  0  0  0  0  0  0  0  0  # atno 10764 bound_to 10752
  152.9948  135.6229  154.2846 H   0  0  0  0  0  0  0  0  0  0  0  0  # atno 10765 bound_to 10752
  140.7065  134.3880  157.5203 H   0  0  0  0  0  0  0  0  0  0  0  0  # atno 11005 bound_to 11000
  145.0538  140.9037  143.4979 LP  0  0  0  0  0  0  0  0  0  0  0  0  # atno 17320 bound_to 7965
  145.1150  139.2731  143.5618 LP  0  0  0  0  0  0  0  0  0  0  0  0  # atno 17321 bound_to 7965
  139.5727  144.7471  151.3848 LP  0  0  0  0  0  0  0  0  0  0  0  0  # atno 17342 bound_to 10162
  140.7030  143.7583  150.7435 LP  0  0  0  0  0  0  0  0  0  0  0  0  # atno 17343 bound_to 10162
  157.0260  130.5692  149.5337 LP  0  0  0  0  0  0  0  0  0  0  0  0  # atno 17370 bound_to 10713
  156.0173  130.5267  150.8172 LP  0  0  0  0  0  0  0  0  0  0  0  0  # atno 17371 bound_to 10713
  139.8883  134.8860  156.2483 LP  0  0  0  0  0  0  0  0  0  0  0  0  # atno 17394 bound_to 11000
  141.0120  133.7090  156.1127 LP  0  0  0  0  0  0  0  0  0  0  0  0  # atno 17395 bound_to 11000

$$$$
