#       Name:                AV-unprocessed.smi:1850
#       Creating user name   scv26
#       Creation time:       Fri Mar 27 09:23:08 2020


#       File generated by GOLD software.
#

@<TRIPOS>MOLECULE
AV-unprocessed.smi:1850
    44    45     1
SMALL
NO_CHARGES


@<TRIPOS>ATOM
      1 ****        -3.9636   0.9436   4.0166 C.3            1 S1                 0.0000
      2 ****        -3.4638  -0.4849   3.7589 C.3            1 S1                 0.0000
      3 ****        -1.9959  -0.5462   3.7526 N.am           1 S1                 0.0000
      4 ****        -1.3571  -0.3491   2.5129 C.2            1 S1                 0.0000
      5 ****        -0.0132  -0.3738   2.3778 C.2            1 S1                 0.0000
      6 ****         0.6853  -0.1572   1.1806 N.am           1 S1                 0.0000
      7 ****         0.2146  -0.1058  -0.0798 C.2            1 S1                 0.0000
      8 ****        -0.9474  -0.3200  -0.4246 O.2            1 S1                 0.0000
      9 ****         1.1931   0.2020  -0.9434 N.am           1 S1                 0.0000
     10 ****         1.0352   0.3305  -2.3892 C.3            1 S1                 0.0000
     11 ****         1.2191  -1.0392  -3.0748 C.3            1 S1                 0.0000
     12 ****         1.1386  -0.9182  -4.6052 C.3            1 S1                 0.0000
     13 ****         2.1519   0.1069  -5.1381 C.3            1 S1                 0.0000
     14 ****         1.9651   1.4741  -4.4619 C.3            1 S1                 0.0000
     15 ****         2.0491   1.3557  -2.9314 C.3            1 S1                 0.0000
     16 ****         0.7602  -0.6048   3.5789 C.2            1 S1                 0.0000
     17 ****         0.1601  -0.7829   4.7716 C.2            1 S1                 0.0000
     18 ****        -1.2979  -0.7513   4.9092 C.2            1 S1                 0.0000
     19 ****        -1.8549  -0.8969   5.9976 O.2            1 S1                 0.0000
     20 ****        -5.0529   0.9810   4.0034 H              1 S1                 0.0000
     21 ****        -3.5990   1.6325   3.2541 H              1 S1                 0.0000
     22 ****        -3.6312   1.3112   4.9878 H              1 S1                 0.0000
     23 ****        -3.8808  -1.1631   4.5054 H              1 S1                 0.0000
     24 ****        -3.8573  -0.8406   2.8055 H              1 S1                 0.0000
     25 ****        -2.0457  -0.1572   1.7051 H              1 S1                 0.0000
     26 ****         1.6785  -0.0157   1.2912 H              1 S1                 0.0000
     27 ****         2.1190   0.3607  -0.5737 H              1 S1                 0.0000
     28 ****         0.0326   0.7017  -2.6106 H              1 S1                 0.0000
     29 ****         2.1850  -1.4640  -2.7976 H              1 S1                 0.0000
     30 ****         0.4613  -1.7406  -2.7239 H              1 S1                 0.0000
     31 ****         1.3167  -1.8911  -5.0644 H              1 S1                 0.0000
     32 ****         0.1302  -0.6195  -4.8946 H              1 S1                 0.0000
     33 ****         3.1655  -0.2543  -4.9596 H              1 S1                 0.0000
     34 ****         2.0451   0.2087  -6.2185 H              1 S1                 0.0000
     35 ****         2.7196   2.1737  -4.8226 H              1 S1                 0.0000
     36 ****         0.9973   1.8913  -4.7431 H              1 S1                 0.0000
     37 ****         1.8716   2.3319  -2.4786 H              1 S1                 0.0000
     38 ****         3.0610   1.0628  -2.6474 H              1 S1                 0.0000
     39 ****         1.8387  -0.6374   3.5233 H              1 S1                 0.0000
     40 ****         0.7666  -0.9538   5.6490 H              1 S1                 0.0000
     41 ****        -1.6366  -0.5567   0.2603 LP             1 S1                 0.0000
     42 ****        -1.2023  -0.2574  -1.3895 LP             1 S1                 0.0000
     43 ****        -2.8527  -0.8670   6.0566 LP             1 S1                 0.0000
     44 ****        -1.3095  -1.0451   6.8226 LP             1 S1                 0.0000
@<TRIPOS>BOND
    1    1    2 1     
    2    1   20 1     
    3    1   21 1     
    4    1   22 1     
    5    2    3 1     
    6    2   23 1     
    7    2   24 1     
    8    3   18 am    
    9    3    4 1     
   10    4    5 2     
   11    4   25 1     
   12    5    6 1     
   13    5   16 1     
   14    6    7 am    
   15    6   26 1     
   16    7    8 2     
   17    7    9 am    
   18    9   10 1     
   19    9   27 1     
   20   10   15 1     
   21   10   11 1     
   22   10   28 1     
   23   11   12 1     
   24   11   29 1     
   25   11   30 1     
   26   12   13 1     
   27   12   31 1     
   28   12   32 1     
   29   13   14 1     
   30   13   33 1     
   31   13   34 1     
   32   14   15 1     
   33   14   35 1     
   34   14   36 1     
   35   15   37 1     
   36   15   38 1     
   37   16   17 2     
   38   16   39 1     
   39   17   18 1     
   40   17   40 1     
   41   18   19 2     
   42    8   41 1     
   43    8   42 1     
   44   19   43 1     
   45   19   44 1     
@<TRIPOS>SUBSTRUCTURE
      1 S1             1
@<TRIPOS>SET
LONE_PAIRS      STATIC     ATOMS    <user>   **** ""
4 41 42 43 44
DONOR_HYDROGENS      STATIC     ATOMS    <user>   **** ""
2 26 27
ATOM$BLUE        STATIC     ATOMS    COLORGROUP SYSTEM
4 41 42 43 44
ATOM$RED        STATIC     ATOMS    COLORGROUP SYSTEM
2 26 27
