AV-unprocessed.smi:153|AV-procd|sdf|1258|dock2
  -GOLD-   2262018503D 1   1.00000     0.00000
 Structure written by MMmdl.
 59 62  0  0  0  0  0  0  0  0  1 V2000
  142.4462  135.1151  153.3616 C   0  0  0  0  0  0  0  0  0  0  0  0
  143.2817  135.7838  152.2594 C   0  0  2  0  0  0  0  0  0  0  0  0
  143.6565  134.7872  151.3135 O   0  0  0  0  0  0  0  0  0  0  0  0
  144.8493  135.2061  150.6757 C   0  0  0  0  0  0  0  0  0  0  0  0
  145.6590  135.7530  151.8410 C   0  0  0  0  0  0  0  0  0  0  0  0
  144.6101  136.4666  152.6936 C   0  0  1  0  0  0  0  0  0  0  0  0
  144.5541  137.8185  152.2708 O   0  0  0  0  0  0  0  0  0  0  0  0
  144.9338  136.4480  154.2115 C   0  0  0  0  0  0  0  0  0  0  0  0
  146.3039  136.8357  154.5137 N   0  0  0  0  0  0  0  0  0  0  0  0
  147.2769  136.0440  155.0772 C   0  0  0  0  0  0  0  0  0  0  0  0
  148.4352  136.6207  155.2388 N   0  0  0  0  0  0  0  0  0  0  0  0
  148.2541  137.9146  154.7587 C   0  0  0  0  0  0  0  0  0  0  0  0
  149.0924  139.0659  154.6290 C   0  0  0  0  0  0  0  0  0  0  0  0
  150.4134  139.1099  154.9761 N   0  0  0  0  0  0  0  0  0  0  0  0
  151.2826  138.0081  154.5798 C   0  0  0  0  0  0  0  0  0  0  0  0
  151.0498  140.3944  155.2794 C   0  0  0  0  0  0  0  0  0  0  0  0
  150.6522  140.9441  156.6679 C   0  0  2  0  0  0  0  0  0  0  0  0
  149.7372  142.0056  156.4811 O   0  0  0  0  0  0  0  0  0  0  0  0
  151.8725  141.5086  157.4265 C   0  0  0  0  0  0  0  0  0  0  0  0
  151.5707  142.5335  158.4269 N   0  0  0  0  0  0  0  0  0  0  0  0
  151.6597  143.8693  157.8465 C   0  0  0  0  0  0  0  0  0  0  0  0
  151.3521  144.9680  158.8787 C   0  0  0  0  0  0  0  0  0  0  0  0
  152.2419  144.8448  159.9831 O   0  0  0  0  0  0  0  0  0  0  0  0
  152.1607  143.5702  160.6118 C   0  0  0  0  0  0  0  0  0  0  0  0
  152.4637  142.4653  159.5847 C   0  0  0  0  0  0  0  0  0  0  0  0
  148.5108  140.1870  154.1200 N   0  0  0  0  0  0  0  0  0  0  0  0
  147.2291  140.1907  153.7470 C   0  0  0  0  0  0  0  0  0  0  0  0
  146.3466  139.1941  153.7954 N   0  0  0  0  0  0  0  0  0  0  0  0
  146.9070  138.0655  154.3143 C   0  0  0  0  0  0  0  0  0  0  0  0
  142.1267  135.8386  154.1115 H   0  0  0  0  0  0  0  0  0  0  0  0
  143.0015  134.3229  153.8633 H   0  0  0  0  0  0  0  0  0  0  0  0
  141.5474  134.6645  152.9402 H   0  0  0  0  0  0  0  0  0  0  0  0
  142.6441  136.4984  151.7349 H   0  0  0  0  0  0  0  0  0  0  0  0
  145.3458  134.3811  150.1647 H   0  0  0  0  0  0  0  0  0  0  0  0
  144.6282  135.9872  149.9464 H   0  0  0  0  0  0  0  0  0  0  0  0
  146.0813  134.9119  152.3920 H   0  0  0  0  0  0  0  0  0  0  0  0
  146.4856  136.3923  151.5275 H   0  0  0  0  0  0  0  0  0  0  0  0
  144.1332  137.8519  151.4253 H   0  0  0  0  0  0  0  0  0  0  0  0
  144.2610  137.1116  154.7565 H   0  0  0  0  0  0  0  0  0  0  0  0
  144.7807  135.4490  154.6201 H   0  0  0  0  0  0  0  0  0  0  0  0
  147.1023  135.0162  155.3614 H   0  0  0  0  0  0  0  0  0  0  0  0
  151.1269  137.1458  155.2283 H   0  0  0  0  0  0  0  0  0  0  0  0
  152.3332  138.2900  154.6558 H   0  0  0  0  0  0  0  0  0  0  0  0
  151.0950  137.7132  153.5467 H   0  0  0  0  0  0  0  0  0  0  0  0
  152.1311  140.2687  155.2116 H   0  0  0  0  0  0  0  0  0  0  0  0
  150.8094  141.1156  154.4968 H   0  0  0  0  0  0  0  0  0  0  0  0
  150.1630  140.1622  157.2465 H   0  0  0  0  0  0  0  0  0  0  0  0
  148.9591  141.6630  156.0692 H   0  0  0  0  0  0  0  0  0  0  0  0
  152.3968  140.6908  157.9235 H   0  0  0  0  0  0  0  0  0  0  0  0
  152.5800  141.9023  156.6948 H   0  0  0  0  0  0  0  0  0  0  0  0
  152.6582  144.0299  157.4368 H   0  0  0  0  0  0  0  0  0  0  0  0
  150.9623  143.9572  157.0126 H   0  0  0  0  0  0  0  0  0  0  0  0
  151.4741  145.9542  158.4305 H   0  0  0  0  0  0  0  0  0  0  0  0
  150.3192  144.8970  159.2235 H   0  0  0  0  0  0  0  0  0  0  0  0
  152.8771  143.5314  161.4323 H   0  0  0  0  0  0  0  0  0  0  0  0
  151.1686  143.4328  161.0446 H   0  0  0  0  0  0  0  0  0  0  0  0
  152.3781  141.5010  160.0828 H   0  0  0  0  0  0  0  0  0  0  0  0
  153.5010  142.5547  159.2581 H   0  0  0  0  0  0  0  0  0  0  0  0
  146.8597  141.1251  153.3502 H   0  0  0  0  0  0  0  0  0  0  0  0
  1  2  1  0  0  0  0
  1 30  1  0  0  0  0
  1 31  1  0  0  0  0
  1 32  1  0  0  0  0
  2  6  1  0  0  0  0
  2  3  1  0  0  0  0
  2 33  1  0  0  0  0
  3  4  1  0  0  0  0
  4  5  1  0  0  0  0
  4 34  1  0  0  0  0
  4 35  1  0  0  0  0
  5  6  1  0  0  0  0
  5 36  1  0  0  0  0
  5 37  1  0  0  0  0
  6  7  1  0  0  0  0
  6  8  1  0  0  0  0
  7 38  1  0  0  0  0
  8  9  1  0  0  0  0
  8 39  1  0  0  0  0
  8 40  1  0  0  0  0
  9 29  1  0  0  0  0
  9 10  1  0  0  0  0
 10 11  2  0  0  0  0
 10 41  1  0  0  0  0
 11 12  1  0  0  0  0
 12 29  2  0  0  0  0
 12 13  1  0  0  0  0
 13 14  1  0  0  0  0
 13 26  2  0  0  0  0
 14 15  1  0  0  0  0
 14 16  1  0  0  0  0
 15 42  1  0  0  0  0
 15 43  1  0  0  0  0
 15 44  1  0  0  0  0
 16 17  1  0  0  0  0
 16 45  1  0  0  0  0
 16 46  1  0  0  0  0
 17 18  1  0  0  0  0
 17 19  1  0  0  0  0
 17 47  1  0  0  0  0
 18 48  1  0  0  0  0
 19 20  1  0  0  0  0
 19 49  1  0  0  0  0
 19 50  1  0  0  0  0
 20 25  1  0  0  0  0
 20 21  1  0  0  0  0
 21 22  1  0  0  0  0
 21 51  1  0  0  0  0
 21 52  1  0  0  0  0
 22 23  1  0  0  0  0
 22 53  1  0  0  0  0
 22 54  1  0  0  0  0
 23 24  1  0  0  0  0
 24 25  1  0  0  0  0
 24 55  1  0  0  0  0
 24 56  1  0  0  0  0
 25 57  1  0  0  0  0
 25 58  1  0  0  0  0
 26 27  1  0  0  0  0
 27 28  2  0  0  0  0
 27 59  1  0  0  0  0
 28 29  1  0  0  0  0
M  END
> <s_m_source_file>
AV-unprocessed.smi

> <i_m_source_file_index>
153

> <i_lp_mmshare_version>
43012

> <i_f3d_flags>
0

> <s_epik_input>
W0NIMl0xW0NIMl1PW0NAQEhdKFtDSDNdKVtDQEBdMShbT0hdKVtDSDJdbihbY0hdbjIpYyhjMjMpbltjSF1uYzNOKFtDSDNdKVtDSDJdW0NASF0oW09IXSlbQ0gyXU40W0NIMl1bQ0gyXU9bQ0gyXVtDSDJdNA==

> <s_epik_cmdline>
J2VwaWtfcHl0aG9uJywgJy1waCcsICc3LjAnLCAnLXRuJywgJzgnLCAnLW1hJywgJzIwMCcsICctbWV0YWxfYmluZGluZycsICctaW1hZScsICc8aW5maWxlLm1hZT4nLCAnLW9tYWUnLCAnPG91dGZpbGUubWFlPic=

> <r_lp_tautomer_probability>
1

> <r_epik_Ionization_Penalty>
0.424123

> <r_epik_Ionization_Penalty_Charging>
0

> <r_epik_Ionization_Penalty_Neutral>
0.424123

> <r_epik_State_Penalty>
0.421495

> <r_epik_Charging_Adjusted_Penalty>
0.421495

> <i_epik_Tot_Q>
0

> <i_epik_Tot_abs_Q>
0

> <r_epik_Metal_State_Penalty>
0.421223

> <b_epik_Metal_Only>
0

> <s_lp_Force_Field>
OPLS_2005

> <r_lp_Energy>
56.4475

> <b_lp_Chiralities_Consistent>
1

> <s_lp_Variant>
AV-unprocessed.smi:153-9

> <Gold.Version>
5.8.1

> <Gold.Id.Protein>
6NUR|6NUR_protein|mol2

> <Gold.PLP.Fitness>
45.0954

> <Gold.PLP.PLP>
-45.1726

> <Gold.PLP.part.hbond>
-3.0000

> <Gold.PLP.part.metal>
0.0000

> <Gold.PLP.part.buried>
-7.3809

> <Gold.PLP.part.nonpolar>
-36.4331

> <Gold.PLP.part.repulsive>
0.7177

> <Gold.PLP.ligand.clash>
0.0000

> <Gold.PLP.ligand.torsion>
2.0773

> <Gold.PLP.Chemscore.Hbond>
1.0000

> <Gold.PLP.Chemscore.CHOScore>
0.0000

> <Gold.PLP.Chemscore.Metal>
0.0000

> <Gold.Chemscore.Hbonds>
donor molecule, donor type, donor heavy atom, donor atom, acceptor molecule, acceptor atom, score
      L1  H     7    38       P1 10171  1.00

> <Gold.PLP.Chemscore.Internal.Correction>
1.0775

> <Gold.Rescore>
     Score         DG    S(hbond)    S(metal)    S(lipo)     H(rot)  DE(clash)    DE(int)     intcor
      7.42     -11.50       0.97        0.00     100.74       3.52       0.53       3.55       ----

> <Gold.Chemscore.Fitness>
7.4214

> <Gold.Chemscore.DG>
-11.4991

> <Gold.Chemscore.ZeroCoef>
-5.4800

> <Gold.Chemscore.Hbond>
0.9690

> <Gold.Chemscore.Metal>
0.0000

> <Gold.Chemscore.Lipo>
100.7370

> <Gold.Chemscore.Internal_Hbond>
0.0000

> <Gold.Chemscore.DEClash>
0.5325

> <Gold.Chemscore.DEInternal>
3.5452

> <Gold.Chemscore.Rot>
3.5170

> <Gold.Chemscore.Internal.Correction>
   9.000000E+99

> <Gold.Chemscore.Hbonds>
donor molecule, donor type, donor heavy atom, donor atom, acceptor molecule, acceptor atom, score
      L1  H     7    38       P1 10171  0.96

> <Gold.Chemscore.Hbond.Weighted>
-3.2364

> <Gold.Chemscore.Metal.Weighted>
-0.0000

> <Gold.Chemscore.Lipo.Weighted>
-11.7862

> <Gold.Chemscore.Internal_Hbond.Weighted>
0.0000

> <Gold.Chemscore.DEClash.Weighted>
0.5325

> <Gold.Chemscore.DEInternal.Weighted>
3.5452

> <Gold.Chemscore.Rot.Weighted>
9.0036

> <Gold.Chemscore.Internal.Correction.Weighted>
   9.000000E+99

> <Gold.Protein.RotatedTorsions>
[ 6907 6896 6895 6894 ] final  -51.25 input  -60.11 | X-H torsion
[ 7974 7965 7964 7962 ] final  -26.29 input  175.53 | X-H torsion
[ 8008 7997 7996 7995 ] final -122.28 input   59.86 | X-H torsion
[ 10167 10162 10161 10158 ] final  146.61 input  -65.29 | X-H torsion
[ 10718 10713 10712 10709 ] final   41.75 input   66.30 | X-H torsion
[ 10763 10752 10751 10750 ] final  173.47 input  -60.55 | X-H torsion
[ 11005 11000 10999 10996 ] final  -30.77 input  -57.11 | X-H torsion

> <Gold.Protein.ActiveResidues>
 VAL166  LYS551  ARG553  GLY616  TRP617  ASP618  TYR619  PRO620  LYS621  CYS622 
 ASP623  PHE694  ASN695  SER759  ASP760  ASP761  ALA762  ILE779  LEU786  VAL792 
 PHE793  MET794  SER795  GLU796  ALA797  LYS798  CYS799  TRP800  GLU811  SER814 

> <Gold.Protein.RotatedAtoms>
  150.8629  134.7985  159.7096 H   0  0  0  0  0  0  0  0  0  0  0  0  # atno 6907 bound_to 6896
  152.4660  134.5070  159.9752 H   0  0  0  0  0  0  0  0  0  0  0  0  # atno 6908 bound_to 6896
  151.5171  133.3435  159.2930 H   0  0  0  0  0  0  0  0  0  0  0  0  # atno 6909 bound_to 6896
  146.1435  140.5000  142.8642 H   0  0  0  0  0  0  0  0  0  0  0  0  # atno 7974 bound_to 7965
  155.1617  140.0406  157.2844 H   0  0  0  0  0  0  0  0  0  0  0  0  # atno 8008 bound_to 7997
  154.6332  140.2529  155.7382 H   0  0  0  0  0  0  0  0  0  0  0  0  # atno 8009 bound_to 7997
  156.2495  140.2871  156.0692 H   0  0  0  0  0  0  0  0  0  0  0  0  # atno 8010 bound_to 7997
  139.4904  144.5817  151.6859 H   0  0  0  0  0  0  0  0  0  0  0  0  # atno 10167 bound_to 10162
  157.3971  130.7839  149.7317 H   0  0  0  0  0  0  0  0  0  0  0  0  # atno 10718 bound_to 10713
  154.4405  135.2762  155.1851 H   0  0  0  0  0  0  0  0  0  0  0  0  # atno 10763 bound_to 10752
  154.3719  135.6106  153.5748 H   0  0  0  0  0  0  0  0  0  0  0  0  # atno 10764 bound_to 10752
  152.9840  135.5859  154.4731 H   0  0  0  0  0  0  0  0  0  0  0  0  # atno 10765 bound_to 10752
  140.9412  133.7278  156.1078 H   0  0  0  0  0  0  0  0  0  0  0  0  # atno 11005 bound_to 11000
  144.7819  140.5859  143.6599 LP  0  0  0  0  0  0  0  0  0  0  0  0  # atno 17320 bound_to 7965
  145.4991  139.1484  143.3667 LP  0  0  0  0  0  0  0  0  0  0  0  0  # atno 17321 bound_to 7965
  140.5424  144.0557  150.6094 LP  0  0  0  0  0  0  0  0  0  0  0  0  # atno 17342 bound_to 10162
  140.3584  143.2922  152.0411 LP  0  0  0  0  0  0  0  0  0  0  0  0  # atno 17343 bound_to 10162
  155.9813  130.4021  150.3479 LP  0  0  0  0  0  0  0  0  0  0  0  0  # atno 17370 bound_to 10713
  157.1602  131.0343  151.2844 LP  0  0  0  0  0  0  0  0  0  0  0  0  # atno 17371 bound_to 10713
  140.7732  134.3809  157.5503 LP  0  0  0  0  0  0  0  0  0  0  0  0  # atno 17394 bound_to 11000
  139.8821  134.9035  156.2856 LP  0  0  0  0  0  0  0  0  0  0  0  0  # atno 17395 bound_to 11000

$$$$
