AV-unprocessed.smi:82|AV-procd|sdf|797|dock1
  -GOLD-   2262017173D 1   1.00000     0.00000
 Structure written by MMmdl.
 59 62  0  0  0  0  0  0  0  0  2 V2000
  145.5746  142.3075  158.3387 C   0  0  0  0  0  0  0  0  0  0  0  0
  146.4550  141.1991  158.2694 O   0  0  0  0  0  0  0  0  0  0  0  0
  145.8279  140.0371  157.7525 C   0  0  0  0  0  0  0  0  0  0  0  0
  145.2165  140.3710  156.3820 C   0  0  0  0  0  0  0  0  0  0  0  0
  146.2482  140.5361  155.3178 N   0  3  1  0  0  0  0  0  0  0  0  0
  147.1880  141.6478  155.6412 C   0  0  0  0  0  0  0  0  0  0  0  0
  148.2210  141.8831  154.5276 C   0  0  0  0  0  0  0  0  0  0  0  0
  148.9056  140.6528  154.1639 N   0  0  0  0  0  0  0  0  0  0  0  0
  150.0316  140.3674  154.8538 C   0  0  0  0  0  0  0  0  0  0  0  0
  150.9520  139.5145  154.3350 N   0  0  0  0  0  0  0  0  0  0  0  0
  152.0628  139.2347  155.0230 C   0  0  0  0  0  0  0  0  0  0  0  0
  152.4398  139.6910  156.2194 N   0  0  0  0  0  0  0  0  0  0  0  0
  151.5168  140.5502  156.7416 C   0  0  0  0  0  0  0  0  0  0  0  0
  150.2941  140.9385  156.1259 C   0  0  0  0  0  0  0  0  0  0  0  0
  149.6061  141.8250  156.9426 N   0  0  0  0  0  0  0  0  0  0  0  0
  150.3789  141.9552  157.9865 C   0  0  0  0  0  0  0  0  0  0  0  0
  151.5475  141.2256  157.9517 N   0  0  0  0  0  0  0  0  0  0  0  0
  152.5606  141.1915  158.9697 C   0  0  0  0  0  0  0  0  0  0  0  0
  152.2249  140.8428  160.4210 C   0  0  0  0  0  0  0  0  0  0  0  0
  153.3440  141.7965  160.9004 C   0  0  0  0  0  0  0  0  0  0  0  0
  152.9681  142.6487  162.1254 C   0  0  0  0  0  0  0  0  0  0  0  0
  151.6053  143.0210  162.1151 O   0  0  0  0  0  0  0  0  0  0  0  0
  154.6908  141.0904  161.1637 C   0  0  0  0  0  0  0  0  0  0  0  0
  154.6509  140.2675  162.3115 O   0  0  0  0  0  0  0  0  0  0  0  0
  153.1802  142.4762  159.5203 C   0  0  0  0  0  0  0  0  0  0  0  0
  148.0331  139.5278  153.8615 C   0  0  0  0  0  0  0  0  0  0  0  0
  146.9693  139.2722  154.9567 C   0  0  2  0  0  0  0  0  0  0  0  0
  146.0267  138.1598  154.4532 C   0  0  0  0  0  0  0  0  0  0  0  0
  146.1060  143.1729  158.7350 H   0  0  0  0  0  0  0  0  0  0  0  0
  144.7304  142.1007  158.9980 H   0  0  0  0  0  0  0  0  0  0  0  0
  145.1924  142.5702  157.3514 H   0  0  0  0  0  0  0  0  0  0  0  0
  146.5343  139.2094  157.6941 H   0  0  0  0  0  0  0  0  0  0  0  0
  145.0338  139.7237  158.4318 H   0  0  0  0  0  0  0  0  0  0  0  0
  144.5060  139.5984  156.0852 H   0  0  0  0  0  0  0  0  0  0  0  0
  144.6297  141.2752  156.5199 H   0  0  0  0  0  0  0  0  0  0  0  0
  146.6452  142.5778  155.7991 H   0  0  0  0  0  0  0  0  0  0  0  0
  147.6962  141.4266  156.5803 H   0  0  0  0  0  0  0  0  0  0  0  0
  147.7235  142.2708  153.6378 H   0  0  0  0  0  0  0  0  0  0  0  0
  148.9429  142.6415  154.8343 H   0  0  0  0  0  0  0  0  0  0  0  0
  152.7475  138.5475  154.5484 H   0  0  0  0  0  0  0  0  0  0  0  0
  150.1127  142.5929  158.8172 H   0  0  0  0  0  0  0  0  0  0  0  0
  153.3478  140.5310  158.6013 H   0  0  0  0  0  0  0  0  0  0  0  0
  151.2268  141.1691  160.7160 H   0  0  0  0  0  0  0  0  0  0  0  0
  152.3761  139.7934  160.6759 H   0  0  0  0  0  0  0  0  0  0  0  0
  153.1450  142.0965  163.0488 H   0  0  0  0  0  0  0  0  0  0  0  0
  153.5808  143.5487  162.1855 H   0  0  0  0  0  0  0  0  0  0  0  0
  151.5365  143.9205  162.3962 H   0  0  0  0  0  0  0  0  0  0  0  0
  154.9890  140.4827  160.3087 H   0  0  0  0  0  0  0  0  0  0  0  0
  155.4916  141.8154  161.3108 H   0  0  0  0  0  0  0  0  0  0  0  0
  154.1415  140.7031  162.9773 H   0  0  0  0  0  0  0  0  0  0  0  0
  154.1120  142.7680  159.0354 H   0  0  0  0  0  0  0  0  0  0  0  0
  152.4795  143.3123  159.5437 H   0  0  0  0  0  0  0  0  0  0  0  0
  147.5405  139.7411  152.9121 H   0  0  0  0  0  0  0  0  0  0  0  0
  148.6327  138.6305  153.6990 H   0  0  0  0  0  0  0  0  0  0  0  0
  147.4733  138.9085  155.8529 H   0  0  0  0  0  0  0  0  0  0  0  0
  146.5974  137.3325  154.0297 H   0  0  0  0  0  0  0  0  0  0  0  0
  145.3578  138.5274  153.6743 H   0  0  0  0  0  0  0  0  0  0  0  0
  145.4212  137.7271  155.2479 H   0  0  0  0  0  0  0  0  0  0  0  0
  145.7503  140.8120  154.4833 H   0  0  0  0  0  0  0  0  0  0  0  0
  1  2  1  0  0  0  0
  1 29  1  0  0  0  0
  1 30  1  0  0  0  0
  1 31  1  0  0  0  0
  2  3  1  0  0  0  0
  3  4  1  0  0  0  0
  3 32  1  0  0  0  0
  3 33  1  0  0  0  0
  4  5  1  0  0  0  0
  4 34  1  0  0  0  0
  4 35  1  0  0  0  0
  5 27  1  0  0  0  0
  5  6  1  0  0  0  0
  5 59  1  0  0  0  0
  6  7  1  0  0  0  0
  6 36  1  0  0  0  0
  6 37  1  0  0  0  0
  7  8  1  0  0  0  0
  7 38  1  0  0  0  0
  7 39  1  0  0  0  0
  8  9  1  0  0  0  0
  8 26  1  0  0  0  0
  9 14  1  0  0  0  0
  9 10  2  0  0  0  0
 10 11  1  0  0  0  0
 11 12  2  0  0  0  0
 11 40  1  0  0  0  0
 12 13  1  0  0  0  0
 13 17  1  0  0  0  0
 13 14  2  0  0  0  0
 14 15  1  0  0  0  0
 15 16  2  0  0  0  0
 16 17  1  0  0  0  0
 16 41  1  0  0  0  0
 17 18  1  0  0  0  0
 18 25  1  0  0  0  0
 18 19  1  0  0  0  0
 18 42  1  0  0  0  0
 19 20  1  0  0  0  0
 19 43  1  0  0  0  0
 19 44  1  0  0  0  0
 20 21  1  0  0  0  0
 20 23  1  0  0  0  0
 20 25  1  0  0  0  0
 21 22  1  0  0  0  0
 21 45  1  0  0  0  0
 21 46  1  0  0  0  0
 22 47  1  0  0  0  0
 23 24  1  0  0  0  0
 23 48  1  0  0  0  0
 23 49  1  0  0  0  0
 24 50  1  0  0  0  0
 25 51  1  0  0  0  0
 25 52  1  0  0  0  0
 26 27  1  0  0  0  0
 26 53  1  0  0  0  0
 26 54  1  0  0  0  0
 27 28  1  0  0  0  0
 27 55  1  0  0  0  0
 28 56  1  0  0  0  0
 28 57  1  0  0  0  0
 28 58  1  0  0  0  0
M  CHG  1   5   1
M  END
> <s_m_source_file>
AV-unprocessed.smi

> <i_m_source_file_index>
82

> <i_lp_mmshare_version>
43012

> <i_f3d_flags>
0

> <s_epik_input>
W0NIM11PW0NIMl1bQ0gyXU4xW0NIMl1bQ0gyXU4oW0NIMl1bQ0BIXTFbQ0gzXSljKG5bY0hdbjIpYyhjMjMpbltjSF1uM1tDSF0oW0NIMl00KVtDSDJdQzQoW0NIMl1bT0hdKVtDSDJdW09IXQ==

> <s_epik_cmdline>
J2VwaWtfcHl0aG9uJywgJy1waCcsICc3LjAnLCAnLXRuJywgJzgnLCAnLW1hJywgJzIwMCcsICctbWV0YWxfYmluZGluZycsICctaW1hZScsICc8aW5maWxlLm1hZT4nLCAnLW9tYWUnLCAnPG91dGZpbGUubWFlPic=

> <r_lp_tautomer_probability>
1

> <r_epik_Ionization_Penalty>
0.304275

> <r_epik_Ionization_Penalty_Charging>
0.304214

> <r_epik_Ionization_Penalty_Neutral>
6.13137e-05

> <r_epik_State_Penalty>
0.300354

> <r_epik_Charging_Adjusted_Penalty>
0.604567

> <i_epik_Tot_Q>
1

> <i_epik_Tot_abs_Q>
1

> <r_epik_Metal_State_Penalty>
0.301147

> <b_epik_Metal_Only>
0

> <s_lp_Force_Field>
OPLS_2005

> <r_lp_Energy>
60.5055

> <b_lp_Chiralities_Consistent>
1

> <s_lp_Variant>
AV-unprocessed.smi:82-4

> <Gold.Version>
5.8.1

> <Gold.Id.Protein>
6NUR|6NUR_protein|mol2

> <Gold.PLP.Fitness>
48.6008

> <Gold.PLP.PLP>
-42.0043

> <Gold.PLP.part.hbond>
-5.0000

> <Gold.PLP.part.metal>
0.0000

> <Gold.PLP.part.buried>
-2.9076

> <Gold.PLP.part.nonpolar>
-34.5257

> <Gold.PLP.part.repulsive>
0.3890

> <Gold.PLP.ligand.clash>
0.0000

> <Gold.PLP.ligand.torsion>
0.7191

> <Gold.PLP.Chemscore.Hbond>
2.2930

> <Gold.PLP.Chemscore.CHOScore>
0.0000

> <Gold.PLP.Chemscore.Metal>
0.0000

> <Gold.Chemscore.Hbonds>
donor molecule, donor type, donor heavy atom, donor atom, acceptor molecule, acceptor atom, score
      P1  H  6933  6945       L1    22  0.82
      P1  H  7989  7998       L1    10  0.30
      P1  H  7997  8010       L1    12  1.00

> <Gold.PLP.Chemscore.Internal.Correction>
1.1556

> <Gold.Rescore>
     Score         DG    S(hbond)    S(metal)    S(lipo)     H(rot)  DE(clash)    DE(int)     intcor
      4.15     -10.44       1.50        0.00      85.12       3.91       1.50       4.78       ----

> <Gold.Chemscore.Fitness>
4.1537

> <Gold.Chemscore.DG>
-10.4390

> <Gold.Chemscore.ZeroCoef>
-5.4800

> <Gold.Chemscore.Hbond>
1.4963

> <Gold.Chemscore.Metal>
0.0000

> <Gold.Chemscore.Lipo>
85.1245

> <Gold.Chemscore.Internal_Hbond>
0.0000

> <Gold.Chemscore.DEClash>
1.5011

> <Gold.Chemscore.DEInternal>
4.7842

> <Gold.Chemscore.Rot>
3.9055

> <Gold.Chemscore.Internal.Correction>
   9.000000E+99

> <Gold.Chemscore.Hbonds>
donor molecule, donor type, donor heavy atom, donor atom, acceptor molecule, acceptor atom, score
      P1  H  6933  6945       L1    22  0.77
      P1  H  7997  8010       L1    12  0.68

> <Gold.Chemscore.Hbond.Weighted>
-4.9975

> <Gold.Chemscore.Metal.Weighted>
-0.0000

> <Gold.Chemscore.Lipo.Weighted>
-9.9596

> <Gold.Chemscore.Internal_Hbond.Weighted>
0.0000

> <Gold.Chemscore.DEClash.Weighted>
1.5011

> <Gold.Chemscore.DEInternal.Weighted>
4.7842

> <Gold.Chemscore.Rot.Weighted>
9.9980

> <Gold.Chemscore.Internal.Correction.Weighted>
   9.000000E+99

> <Gold.Protein.RotatedTorsions>
[ 6907 6896 6895 6894 ] final   46.00 input  -60.11 | X-H torsion
[ 7974 7965 7964 7962 ] final  -32.17 input  175.53 | X-H torsion
[ 8008 7997 7996 7995 ] final   88.56 input   59.86 | X-H torsion
[ 10167 10162 10161 10158 ] final   91.54 input  -65.29 | X-H torsion
[ 10718 10713 10712 10709 ] final  125.29 input   66.30 | X-H torsion
[ 10763 10752 10751 10750 ] final   -1.18 input  -60.55 | X-H torsion
[ 11005 11000 10999 10996 ] final  116.91 input  -57.11 | X-H torsion

> <Gold.Protein.ActiveResidues>
 VAL166  LYS551  ARG553  GLY616  TRP617  ASP618  TYR619  PRO620  LYS621  CYS622 
 ASP623  PHE694  ASN695  SER759  ASP760  ASP761  ALA762  ILE779  LEU786  VAL792 
 PHE793  MET794  SER795  GLU796  ALA797  LYS798  CYS799  TRP800  GLU811  SER814 

> <Gold.Protein.RotatedAtoms>
  152.2512  134.8130  160.0445 H   0  0  0  0  0  0  0  0  0  0  0  0  # atno 6907 bound_to 6896
  151.8810  133.3490  159.3774 H   0  0  0  0  0  0  0  0  0  0  0  0  # atno 6908 bound_to 6896
  150.7085  134.4945  159.5576 H   0  0  0  0  0  0  0  0  0  0  0  0  # atno 6909 bound_to 6896
  146.1011  140.5758  142.8820 H   0  0  0  0  0  0  0  0  0  0  0  0  # atno 7974 bound_to 7965
  155.9892  140.3370  155.6737 H   0  0  0  0  0  0  0  0  0  0  0  0  # atno 8008 bound_to 7997
  155.6443  140.0698  157.2626 H   0  0  0  0  0  0  0  0  0  0  0  0  # atno 8009 bound_to 7997
  154.4214  140.1737  156.1594 H   0  0  0  0  0  0  0  0  0  0  0  0  # atno 8010 bound_to 7997
  139.8364  144.6662  150.9336 H   0  0  0  0  0  0  0  0  0  0  0  0  # atno 10167 bound_to 10162
  157.5515  131.1094  150.8694 H   0  0  0  0  0  0  0  0  0  0  0  0  # atno 10718 bound_to 10713
  153.3416  135.6981  153.6863 H   0  0  0  0  0  0  0  0  0  0  0  0  # atno 10763 bound_to 10752
  153.5625  135.3532  155.2806 H   0  0  0  0  0  0  0  0  0  0  0  0  # atno 10764 bound_to 10752
  154.8637  135.4253  154.2630 H   0  0  0  0  0  0  0  0  0  0  0  0  # atno 10765 bound_to 10752
  139.9057  134.9604  156.7271 H   0  0  0  0  0  0  0  0  0  0  0  0  # atno 11005 bound_to 11000
  144.7433  140.5002  143.6853 LP  0  0  0  0  0  0  0  0  0  0  0  0  # atno 17320 bound_to 7965
  145.5852  139.1491  143.3213 LP  0  0  0  0  0  0  0  0  0  0  0  0  # atno 17321 bound_to 7965
  140.7802  143.3953  151.1240 LP  0  0  0  0  0  0  0  0  0  0  0  0  # atno 17342 bound_to 10162
  139.7603  143.8646  152.3098 LP  0  0  0  0  0  0  0  0  0  0  0  0  # atno 17343 bound_to 10162
  156.9218  130.5317  149.5279 LP  0  0  0  0  0  0  0  0  0  0  0  0  # atno 17370 bound_to 10713
  156.0581  130.5638  150.9134 LP  0  0  0  0  0  0  0  0  0  0  0  0  # atno 17371 bound_to 10713
  140.6955  133.9352  155.7992 LP  0  0  0  0  0  0  0  0  0  0  0  0  # atno 17394 bound_to 11000
  141.0410  134.0621  157.3901 LP  0  0  0  0  0  0  0  0  0  0  0  0  # atno 17395 bound_to 11000

$$$$
