AV-unprocessed.smi:759|AV-procd|sdf|3626|dock9
  -GOLD-   22720 1 23D 1   1.00000     0.00000
 Structure written by MMmdl.
 23 24  0  0  0  0  0  0  0  0  3 V2000
  151.5690  137.8340  154.4669 C   0  0  0  0  0  0  0  0  0  0  0  0
  151.7634  137.1156  155.5809 N   0  5  0  0  0  0  0  0  0  0  0  0
  151.5712  137.9114  156.6154 N   0  0  0  0  0  0  0  0  0  0  0  0
  151.2567  139.1164  156.1036 C   0  0  0  0  0  0  0  0  0  0  0  0
  150.9400  140.3442  156.9343 C   0  0  1  0  0  0  0  0  0  0  0  0
  152.0620  140.6740  157.9357 C   0  0  0  0  0  0  0  0  0  0  0  0
  151.7107  141.9368  158.7373 C   0  0  0  0  0  0  0  0  0  0  0  0
  151.3736  143.1079  157.7987 C   0  0  0  0  0  0  0  0  0  0  0  0
  150.2771  142.7408  156.8758 N   0  3  0  0  0  0  0  0  0  0  0  0
  150.5907  141.5554  156.0487 C   0  0  0  0  0  0  0  0  0  0  0  0
  151.2506  139.0854  154.7614 N   0  0  0  0  0  0  0  0  0  0  0  0
  151.6715  137.3860  153.4861 H   0  0  0  0  0  0  0  0  0  0  0  0
  150.0494  140.0991  157.5158 H   0  0  0  0  0  0  0  0  0  0  0  0
  152.2260  139.8336  158.6112 H   0  0  0  0  0  0  0  0  0  0  0  0
  153.0001  140.8327  157.4016 H   0  0  0  0  0  0  0  0  0  0  0  0
  150.8602  141.7319  159.3890 H   0  0  0  0  0  0  0  0  0  0  0  0
  152.5419  142.2075  159.3892 H   0  0  0  0  0  0  0  0  0  0  0  0
  151.0743  143.9822  158.3769 H   0  0  0  0  0  0  0  0  0  0  0  0
  152.2516  143.3943  157.2180 H   0  0  0  0  0  0  0  0  0  0  0  0
  149.4508  142.5406  157.4210 H   0  0  0  0  0  0  0  0  0  0  0  0
  151.4225  141.7963  155.3849 H   0  0  0  0  0  0  0  0  0  0  0  0
  149.7326  141.3287  155.4153 H   0  0  0  0  0  0  0  0  0  0  0  0
  150.0848  143.5223  156.2657 H   0  0  0  0  0  0  0  0  0  0  0  0
  1 11  2  0  0  0  0
  1 12  1  0  0  0  0
  1  2  1  0  0  0  0
  2  3  1  0  0  0  0
  3  4  2  0  0  0  0
  4 11  1  0  0  0  0
  4  5  1  0  0  0  0
  5 10  1  0  0  0  0
  5  6  1  0  0  0  0
  5 13  1  0  0  0  0
  6  7  1  0  0  0  0
  6 14  1  0  0  0  0
  6 15  1  0  0  0  0
  7  8  1  0  0  0  0
  7 16  1  0  0  0  0
  7 17  1  0  0  0  0
  8  9  1  0  0  0  0
  8 18  1  0  0  0  0
  8 19  1  0  0  0  0
  9 10  1  0  0  0  0
  9 20  1  0  0  0  0
  9 23  1  0  0  0  0
 10 21  1  0  0  0  0
 10 22  1  0  0  0  0
M  CHG  1   2  -1
M  CHG  1   9   1
M  END
> <s_m_source_file>
AV-unprocessed.smi

> <i_m_source_file_index>
759

> <i_lp_mmshare_version>
43012

> <i_f3d_flags>
0

> <s_epik_input>
W25IXTFbY0hdbm5jMVtDQEBIXTJbQ0gyXVtDSDJdW0NIMl1bTkhdW0NIMl0y

> <s_epik_cmdline>
J2VwaWtfcHl0aG9uJywgJy1waCcsICc3LjAnLCAnLXRuJywgJzgnLCAnLW1hJywgJzIwMCcsICctbWV0YWxfYmluZGluZycsICctaW1hZScsICc8aW5maWxlLm1hZT4nLCAnLW9tYWUnLCAnPG91dGZpbGUubWFlPic=

> <r_lp_tautomer_probability>
0.948284

> <r_epik_Ionization_Penalty>
7.12535

> <r_epik_Ionization_Penalty_Charging>
7.12535

> <r_epik_Ionization_Penalty_Neutral>
7.15677e-14

> <r_epik_State_Penalty>
3.13859

> <r_epik_Charging_Adjusted_Penalty>
10.2639

> <i_epik_Tot_Q>
0

> <i_epik_Tot_abs_Q>
2

> <r_epik_Metal_State_Penalty>
0.603007

> <b_epik_Metal_Only>
1

> <s_lp_Force_Field>
OPLS_2005

> <r_lp_Energy>
6.41651

> <b_lp_Chiralities_Consistent>
1

> <s_lp_Variant>
AV-unprocessed.smi:759-8

> <Gold.Version>
5.8.1

> <Gold.Id.Protein>
6NUR|6NUR_protein|mol2

> <Gold.PLP.Fitness>
37.4999

> <Gold.PLP.PLP>
-19.5650

> <Gold.PLP.part.hbond>
-3.0000

> <Gold.PLP.part.metal>
0.0000

> <Gold.PLP.part.buried>
-3.4201

> <Gold.PLP.part.nonpolar>
-13.3090

> <Gold.PLP.part.repulsive>
0.2434

> <Gold.PLP.ligand.clash>
0.0000

> <Gold.PLP.ligand.torsion>
0.0293

> <Gold.PLP.Chemscore.Hbond>
4.9840

> <Gold.PLP.Chemscore.CHOScore>
1.0000

> <Gold.PLP.Chemscore.Metal>
0.0000

> <Gold.Chemscore.Hbonds>
donor molecule, donor type, donor heavy atom, donor atom, acceptor molecule, acceptor atom, score
      L1  H     9    23       P1  8028  1.92
      P1  H  7989  7998       L1    11  0.55
      P1  H 10752 10763       L1     2  0.95
      L1  C     1    12       P1  7949  1.00

> <Gold.PLP.Chemscore.Internal.Correction>
0.0414

> <Gold.Rescore>
     Score         DG    S(hbond)    S(metal)    S(lipo)     H(rot)  DE(clash)    DE(int)     intcor
     16.30     -16.46       2.78        0.00      36.39       1.00       0.13       0.02       ----

> <Gold.Chemscore.Fitness>
16.3026

> <Gold.Chemscore.DG>
-16.4583

> <Gold.Chemscore.ZeroCoef>
-5.4800

> <Gold.Chemscore.Hbond>
2.7787

> <Gold.Chemscore.Metal>
0.0000

> <Gold.Chemscore.Lipo>
36.3882

> <Gold.Chemscore.Internal_Hbond>
0.0000

> <Gold.Chemscore.DEClash>
0.1343

> <Gold.Chemscore.DEInternal>
0.0214

> <Gold.Chemscore.Rot>
1.0000

> <Gold.Chemscore.Internal.Correction>
   9.000000E+99

> <Gold.Chemscore.Hbonds>
donor molecule, donor type, donor heavy atom, donor atom, acceptor molecule, acceptor atom, score
      L1  H     9    23       P1  8028  0.92
      P1  H  7989  7998       L1    11  0.54
      P1  H 10752 10763       L1     2  0.05

> <Gold.Chemscore.Hbond.Weighted>
-9.2809

> <Gold.Chemscore.Metal.Weighted>
-0.0000

> <Gold.Chemscore.Lipo.Weighted>
-4.2574

> <Gold.Chemscore.Internal_Hbond.Weighted>
0.0000

> <Gold.Chemscore.DEClash.Weighted>
0.1343

> <Gold.Chemscore.DEInternal.Weighted>
0.0214

> <Gold.Chemscore.Rot.Weighted>
2.5600

> <Gold.Chemscore.Internal.Correction.Weighted>
   9.000000E+99

> <Gold.Protein.RotatedTorsions>
[ 6907 6896 6895 6894 ] final   49.12 input  -60.11 | X-H torsion
[ 7974 7965 7964 7962 ] final   97.52 input  175.53 | X-H torsion
[ 8008 7997 7996 7995 ] final   15.57 input   59.86 | X-H torsion
[ 10167 10162 10161 10158 ] final  -54.75 input  -65.29 | X-H torsion
[ 10718 10713 10712 10709 ] final -142.61 input   66.30 | X-H torsion
[ 10763 10752 10751 10750 ] final   58.58 input  -60.55 | X-H torsion
[ 11005 11000 10999 10996 ] final  127.32 input  -57.11 | X-H torsion

> <Gold.Protein.ActiveResidues>
 VAL166  LYS551  ARG553  GLY616  TRP617  ASP618  TYR619  PRO620  LYS621  CYS622 
 ASP623  PHE694  ASN695  SER759  ASP760  ASP761  ALA762  ILE779  LEU786  VAL792 
 PHE793  MET794  SER795  GLU796  ALA797  LYS798  CYS799  TRP800  GLU811  SER814 

> <Gold.Protein.RotatedAtoms>
  152.2872  134.7763  160.0384 H   0  0  0  0  0  0  0  0  0  0  0  0  # atno 6907 bound_to 6896
  151.8321  133.3405  159.3625 H   0  0  0  0  0  0  0  0  0  0  0  0  # atno 6908 bound_to 6896
  150.7214  134.5401  159.5787 H   0  0  0  0  0  0  0  0  0  0  0  0  # atno 6909 bound_to 6896
  145.4244  139.2317  143.3178 H   0  0  0  0  0  0  0  0  0  0  0  0  # atno 7974 bound_to 7965
  154.8645  140.2949  155.5519 H   0  0  0  0  0  0  0  0  0  0  0  0  # atno 8008 bound_to 7997
  156.3020  140.2472  156.3557 H   0  0  0  0  0  0  0  0  0  0  0  0  # atno 8009 bound_to 7997
  154.8883  140.0395  157.1812 H   0  0  0  0  0  0  0  0  0  0  0  0  # atno 8010 bound_to 7997
  140.6413  143.2509  151.4981 H   0  0  0  0  0  0  0  0  0  0  0  0  # atno 10167 bound_to 10162
  156.3480  130.7673  151.1821 H   0  0  0  0  0  0  0  0  0  0  0  0  # atno 10718 bound_to 10713
  152.9874  135.5602  154.5575 H   0  0  0  0  0  0  0  0  0  0  0  0  # atno 10763 bound_to 10752
  154.5000  135.2797  155.1430 H   0  0  0  0  0  0  0  0  0  0  0  0  # atno 10764 bound_to 10752
  154.2865  135.6334  153.5421 H   0  0  0  0  0  0  0  0  0  0  0  0  # atno 10765 bound_to 10752
  139.9502  134.9623  156.8838 H   0  0  0  0  0  0  0  0  0  0  0  0  # atno 11005 bound_to 11000
  146.2640  140.4973  142.8842 LP  0  0  0  0  0  0  0  0  0  0  0  0  # atno 17320 bound_to 7965
  144.8224  140.6572  143.6344 LP  0  0  0  0  0  0  0  0  0  0  0  0  # atno 17321 bound_to 7965
  139.5622  144.2128  152.1710 LP  0  0  0  0  0  0  0  0  0  0  0  0  # atno 17342 bound_to 10162
  140.1399  144.5212  150.6750 LP  0  0  0  0  0  0  0  0  0  0  0  0  # atno 17343 bound_to 10162
  157.7457  131.0435  150.4750 LP  0  0  0  0  0  0  0  0  0  0  0  0  # atno 17370 bound_to 10713
  156.4940  130.4102  149.6390 LP  0  0  0  0  0  0  0  0  0  0  0  0  # atno 17371 bound_to 10713
  140.5738  134.0417  155.7440 LP  0  0  0  0  0  0  0  0  0  0  0  0  # atno 17394 bound_to 11000
  141.1162  133.9536  157.2817 LP  0  0  0  0  0  0  0  0  0  0  0  0  # atno 17395 bound_to 11000

$$$$
