AV-unprocessed.smi:1835|AV-procd|sdf|7476|dock2
  -GOLD-   22720 9173D 1   1.00000     0.00000
 Structure written by MMmdl.
 42 43  0  0  0  0  0  0  0  0  2 V2000
  147.0773  133.5842  155.6417 C   0  0  0  0  0  0  0  0  0  0  0  0
  147.7438  134.6551  154.7467 C   0  0  1  0  0  0  0  0  0  0  0  0
  149.2933  134.5726  154.8473 C   0  0  0  0  0  0  0  0  0  0  0  0
  149.9570  135.7829  154.3694 N   0  0  0  0  0  0  0  0  0  0  0  0
  151.0111  136.3757  154.9511 C   0  0  0  0  0  0  0  0  0  0  0  0
  151.5641  135.9343  155.9590 O   0  0  0  0  0  0  0  0  0  0  0  0
  151.5145  137.6634  154.2850 C   0  0  0  0  0  0  0  0  0  0  0  0
  150.6843  138.8360  154.6069 N   0  0  0  0  0  0  0  0  0  0  0  0
  149.3759  138.8625  154.0840 C   0  0  0  0  0  0  0  0  0  0  0  0
  148.5381  139.8847  154.3189 C   0  0  0  0  0  0  0  0  0  0  0  0
  149.0088  140.9804  155.1327 C   0  0  0  0  0  0  0  0  0  0  0  0
  150.2593  140.9667  155.6357 C   0  0  0  0  0  0  0  0  0  0  0  0
  151.1790  139.8519  155.3806 C   0  0  0  0  0  0  0  0  0  0  0  0
  152.3242  139.8319  155.8338 O   0  0  0  0  0  0  0  0  0  0  0  0
  147.2258  134.5426  153.3429 N   0  3  0  0  0  0  0  0  0  0  0  0
  147.3654  133.1675  152.7894 C   0  0  0  0  0  0  0  0  0  0  0  0
  146.9209  133.1149  151.3192 C   0  0  0  0  0  0  0  0  0  0  0  0
  145.5732  133.5496  151.2180 O   0  0  0  0  0  0  0  0  0  0  0  0
  145.4271  134.8952  151.6461 C   0  0  0  0  0  0  0  0  0  0  0  0
  145.8330  135.0233  153.1248 C   0  0  0  0  0  0  0  0  0  0  0  0
  147.3616  133.6969  156.6873 H   0  0  0  0  0  0  0  0  0  0  0  0
  147.3634  132.5794  155.3295 H   0  0  0  0  0  0  0  0  0  0  0  0
  145.9905  133.6357  155.6275 H   0  0  0  0  0  0  0  0  0  0  0  0
  147.4571  135.6385  155.1232 H   0  0  0  0  0  0  0  0  0  0  0  0
  149.5967  134.3391  155.8695 H   0  0  0  0  0  0  0  0  0  0  0  0
  149.6761  133.7690  154.2182 H   0  0  0  0  0  0  0  0  0  0  0  0
  149.5736  136.2143  153.5406 H   0  0  0  0  0  0  0  0  0  0  0  0
  152.5483  137.8220  154.5943 H   0  0  0  0  0  0  0  0  0  0  0  0
  151.5564  137.5289  153.2023 H   0  0  0  0  0  0  0  0  0  0  0  0
  149.1017  138.0090  153.4811 H   0  0  0  0  0  0  0  0  0  0  0  0
  147.5393  139.8886  153.9077 H   0  0  0  0  0  0  0  0  0  0  0  0
  148.3555  141.8156  155.3381 H   0  0  0  0  0  0  0  0  0  0  0  0
  150.5942  141.7957  156.2417 H   0  0  0  0  0  0  0  0  0  0  0  0
  148.3946  132.8189  152.8483 H   0  0  0  0  0  0  0  0  0  0  0  0
  146.7642  132.4740  153.3796 H   0  0  0  0  0  0  0  0  0  0  0  0
  147.5678  133.7305  150.6918 H   0  0  0  0  0  0  0  0  0  0  0  0
  146.9904  132.0943  150.9428 H   0  0  0  0  0  0  0  0  0  0  0  0
  146.0274  135.5564  151.0189 H   0  0  0  0  0  0  0  0  0  0  0  0
  144.3868  135.1941  151.5165 H   0  0  0  0  0  0  0  0  0  0  0  0
  145.1456  134.4543  153.7529 H   0  0  0  0  0  0  0  0  0  0  0  0
  145.7350  136.0737  153.3970 H   0  0  0  0  0  0  0  0  0  0  0  0
  147.8113  135.1448  152.7818 H   0  0  0  0  0  0  0  0  0  0  0  0
  1  2  1  0  0  0  0
  1 21  1  0  0  0  0
  1 22  1  0  0  0  0
  1 23  1  0  0  0  0
  2  3  1  0  0  0  0
  2 15  1  0  0  0  0
  2 24  1  0  0  0  0
  3  4  1  0  0  0  0
  3 25  1  0  0  0  0
  3 26  1  0  0  0  0
  4  5  1  0  0  0  0
  4 27  1  0  0  0  0
  5  6  2  0  0  0  0
  5  7  1  0  0  0  0
  7  8  1  0  0  0  0
  7 28  1  0  0  0  0
  7 29  1  0  0  0  0
  8 13  1  0  0  0  0
  8  9  1  0  0  0  0
  9 10  2  0  0  0  0
  9 30  1  0  0  0  0
 10 11  1  0  0  0  0
 10 31  1  0  0  0  0
 11 12  2  0  0  0  0
 11 32  1  0  0  0  0
 12 13  1  0  0  0  0
 12 33  1  0  0  0  0
 13 14  2  0  0  0  0
 15 20  1  0  0  0  0
 15 16  1  0  0  0  0
 15 42  1  0  0  0  0
 16 17  1  0  0  0  0
 16 34  1  0  0  0  0
 16 35  1  0  0  0  0
 17 18  1  0  0  0  0
 17 36  1  0  0  0  0
 17 37  1  0  0  0  0
 18 19  1  0  0  0  0
 19 20  1  0  0  0  0
 19 38  1  0  0  0  0
 19 39  1  0  0  0  0
 20 40  1  0  0  0  0
 20 41  1  0  0  0  0
M  CHG  1  15   1
M  END
> <s_m_source_file>
AV-unprocessed.smi

> <i_m_source_file_index>
1835

> <i_lp_mmshare_version>
43012

> <i_f3d_flags>
0

> <s_epik_input>
W0NIMl0xW0NIMl1PW0NIMl1bQ0gyXU4xW0NASF0oW0NIM10pW0NIMl1bTkhdQyg9TylbQ0gyXW4yW2NIXVtjSF1bY0hdW2NIXWMyPU8=

> <s_epik_cmdline>
J2VwaWtfcHl0aG9uJywgJy1waCcsICc3LjAnLCAnLXRuJywgJzgnLCAnLW1hJywgJzIwMCcsICctbWV0YWxfYmluZGluZycsICctaW1hZScsICc8aW5maWxlLm1hZT4nLCAnLW9tYWUnLCAnPG91dGZpbGUubWFlPic=

> <r_lp_tautomer_probability>
1

> <r_epik_Ionization_Penalty>
0.656654

> <r_epik_Ionization_Penalty_Charging>
0.656654

> <r_epik_Ionization_Penalty_Neutral>
9.12373e-08

> <r_epik_State_Penalty>
0.675641

> <r_epik_Charging_Adjusted_Penalty>
1.33229

> <i_epik_Tot_Q>
1

> <i_epik_Tot_abs_Q>
1

> <r_epik_Metal_State_Penalty>
0.675692

> <b_epik_Metal_Only>
0

> <s_lp_Force_Field>
OPLS_2005

> <r_lp_Energy>
28.3698

> <b_lp_Chiralities_Consistent>
1

> <s_lp_Variant>
AV-unprocessed.smi:1835-4

> <Gold.Version>
5.8.1

> <Gold.Id.Protein>
6NUR|6NUR_protein|mol2

> <Gold.PLP.Fitness>
49.8678

> <Gold.PLP.PLP>
-33.9628

> <Gold.PLP.part.hbond>
-4.7674

> <Gold.PLP.part.metal>
0.0000

> <Gold.PLP.part.buried>
0.3014

> <Gold.PLP.part.nonpolar>
-29.7838

> <Gold.PLP.part.repulsive>
0.2195

> <Gold.PLP.ligand.clash>
0.0000

> <Gold.PLP.ligand.torsion>
0.7207

> <Gold.PLP.Chemscore.Hbond>
4.7600

> <Gold.PLP.Chemscore.CHOScore>
0.9983

> <Gold.PLP.Chemscore.Metal>
0.0000

> <Gold.Chemscore.Hbonds>
donor molecule, donor type, donor heavy atom, donor atom, acceptor molecule, acceptor atom, score
      L1  H     4    27       P1  7948  1.00
      L1  H    15    42       P1  7948  2.00
      P1  H  7997  8010       L1    14  0.86
      P1  H 10752 10765       L1     6  0.80
      L1  C     9    30       P1  7948  1.00

> <Gold.PLP.Chemscore.Internal.Correction>
0.0717

> <Gold.Rescore>
     Score         DG    S(hbond)    S(metal)    S(lipo)     H(rot)  DE(clash)    DE(int)     intcor
     18.16     -18.94       3.42        0.00      60.34       1.96       0.04       0.75       ----

> <Gold.Chemscore.Fitness>
18.1557

> <Gold.Chemscore.DG>
-18.9385

> <Gold.Chemscore.ZeroCoef>
-5.4800

> <Gold.Chemscore.Hbond>
3.4220

> <Gold.Chemscore.Metal>
0.0000

> <Gold.Chemscore.Lipo>
60.3354

> <Gold.Chemscore.Internal_Hbond>
0.0000

> <Gold.Chemscore.DEClash>
0.0374

> <Gold.Chemscore.DEInternal>
0.7454

> <Gold.Chemscore.Rot>
1.9649

> <Gold.Chemscore.Internal.Correction>
   9.000000E+99

> <Gold.Chemscore.Hbonds>
donor molecule, donor type, donor heavy atom, donor atom, acceptor molecule, acceptor atom, score
      L1  H     4    27       P1  7948  0.44
      L1  H    15    42       P1  7948  0.99
      P1  H  7997  8010       L1    14  0.84
      P1  H 10752 10765       L1     6  0.12

> <Gold.Chemscore.Hbond.Weighted>
-11.4293

> <Gold.Chemscore.Metal.Weighted>
-0.0000

> <Gold.Chemscore.Lipo.Weighted>
-7.0592

> <Gold.Chemscore.Internal_Hbond.Weighted>
0.0000

> <Gold.Chemscore.DEClash.Weighted>
0.0374

> <Gold.Chemscore.DEInternal.Weighted>
0.7454

> <Gold.Chemscore.Rot.Weighted>
5.0300

> <Gold.Chemscore.Internal.Correction.Weighted>
   9.000000E+99

> <Gold.Protein.RotatedTorsions>
[ 6907 6896 6895 6894 ] final   -0.00 input  -60.11 | X-H torsion
[ 7974 7965 7964 7962 ] final -149.17 input  175.53 | X-H torsion
[ 8008 7997 7996 7995 ] final   78.06 input   59.86 | X-H torsion
[ 10167 10162 10161 10158 ] final   99.19 input  -65.29 | X-H torsion
[ 10718 10713 10712 10709 ] final  -73.63 input   66.30 | X-H torsion
[ 10763 10752 10751 10750 ] final -145.92 input  -60.55 | X-H torsion
[ 11005 11000 10999 10996 ] final  -48.02 input  -57.11 | X-H torsion

> <Gold.Protein.ActiveResidues>
 VAL166  LYS551  ARG553  GLY616  TRP617  ASP618  TYR619  PRO620  LYS621  CYS622 
 ASP623  PHE694  ASN695  SER759  ASP760  ASP761  ALA762  ILE779  LEU786  VAL792 
 PHE793  MET794  SER795  GLU796  ALA797  LYS798  CYS799  TRP800  GLU811  SER814 

> <Gold.Protein.RotatedAtoms>
  151.5693  135.1063  159.9991 H   0  0  0  0  0  0  0  0  0  0  0  0  # atno 6907 bound_to 6896
  152.4408  133.7441  159.6668 H   0  0  0  0  0  0  0  0  0  0  0  0  # atno 6908 bound_to 6896
  150.8314  133.8016  159.3120 H   0  0  0  0  0  0  0  0  0  0  0  0  # atno 6909 bound_to 6896
  144.7984  140.5099  143.5724 H   0  0  0  0  0  0  0  0  0  0  0  0  # atno 7974 bound_to 7965
  155.8503  140.3458  155.5689 H   0  0  0  0  0  0  0  0  0  0  0  0  # atno 8008 bound_to 7997
  155.8044  140.0890  157.1958 H   0  0  0  0  0  0  0  0  0  0  0  0  # atno 8009 bound_to 7997
  154.4007  140.1459  156.3300 H   0  0  0  0  0  0  0  0  0  0  0  0  # atno 8010 bound_to 7997
  139.7640  144.6945  151.0251 H   0  0  0  0  0  0  0  0  0  0  0  0  # atno 10167 bound_to 10162
  156.0273  130.4398  150.2771 H   0  0  0  0  0  0  0  0  0  0  0  0  # atno 10718 bound_to 10713
  154.8361  135.3400  154.6580 H   0  0  0  0  0  0  0  0  0  0  0  0  # atno 10763 bound_to 10752
  153.7195  135.6959  153.5021 H   0  0  0  0  0  0  0  0  0  0  0  0  # atno 10764 bound_to 10752
  153.2392  135.4390  155.0632 H   0  0  0  0  0  0  0  0  0  0  0  0  # atno 10765 bound_to 10752
  141.0675  133.6689  156.3381 H   0  0  0  0  0  0  0  0  0  0  0  0  # atno 11005 bound_to 11000
  145.5616  139.1479  143.3338 LP  0  0  0  0  0  0  0  0  0  0  0  0  # atno 17320 bound_to 7965
  146.2258  140.5752  142.8997 LP  0  0  0  0  0  0  0  0  0  0  0  0  # atno 17321 bound_to 7965
  140.7809  143.4664  151.0206 LP  0  0  0  0  0  0  0  0  0  0  0  0  # atno 17342 bound_to 10162
  139.8350  143.7640  152.3180 LP  0  0  0  0  0  0  0  0  0  0  0  0  # atno 17343 bound_to 10162
  157.0874  131.0160  151.3134 LP  0  0  0  0  0  0  0  0  0  0  0  0  # atno 17370 bound_to 10713
  157.4880  130.7805  149.7479 LP  0  0  0  0  0  0  0  0  0  0  0  0  # atno 17371 bound_to 10713
  140.5742  134.5810  157.5464 LP  0  0  0  0  0  0  0  0  0  0  0  0  # atno 17394 bound_to 11000
  139.9491  134.7649  156.0491 LP  0  0  0  0  0  0  0  0  0  0  0  0  # atno 17395 bound_to 11000

$$$$
