AV-unprocessed.smi:2815|AV-procd|sdf|10841|dock5
  -GOLD-   2272015283D 1   1.00000     0.00000
 Structure written by MMmdl.
 47 48  0  0  0  0  0  0  0  0  1 V2000
  151.2176  144.0155  158.5060 C   0  0  0  0  0  0  0  0  0  0  0  0
  150.7699  142.7026  158.7952 O   0  0  0  0  0  0  0  0  0  0  0  0
  150.0053  142.1461  157.7392 C   0  0  0  0  0  0  0  0  0  0  0  0
  150.8471  142.1522  156.4572 C   0  0  0  0  0  0  0  0  0  0  0  0
  150.5735  140.9873  155.6315 N   0  0  0  0  0  0  0  0  0  0  0  0
  151.5212  140.0229  155.5392 N   0  0  0  0  0  0  0  0  0  0  0  0
  151.0104  139.1033  154.7378 C   0  0  0  0  0  0  0  0  0  0  0  0
  151.8130  137.8798  154.4001 C   0  0  0  0  0  0  0  0  0  0  0  0
  149.6962  139.4595  154.3347 C   0  0  0  0  0  0  0  0  0  0  0  0
  148.8868  138.6832  153.4677 N   0  0  0  0  0  0  0  0  0  0  0  0
  147.5455  138.6521  153.4371 C   0  0  0  0  0  0  0  0  0  0  0  0
  146.8091  139.3306  154.1532 O   0  0  0  0  0  0  0  0  0  0  0  0
  147.0973  137.7662  152.5361 N   0  0  0  0  0  0  0  0  0  0  0  0
  145.6919  137.4811  152.2618 C   0  0  0  0  0  0  0  0  0  0  0  0
  144.8751  137.4516  153.5706 C   0  0  0  0  0  0  0  0  0  0  0  0
  143.4075  137.0751  153.3097 C   0  0  0  0  0  0  0  0  0  0  0  0
  143.2975  135.7383  152.5604 C   0  0  0  0  0  0  0  0  0  0  0  0
  144.1051  135.7679  151.2536 C   0  0  0  0  0  0  0  0  0  0  0  0
  145.5738  136.1391  151.5147 C   0  0  0  0  0  0  0  0  0  0  0  0
  149.4430  140.6893  154.8839 C   0  0  0  0  0  0  0  0  0  0  0  0
  148.2738  141.6200  154.7803 C   0  0  0  0  0  0  0  0  0  0  0  0
  151.7971  144.3983  159.3460 H   0  0  0  0  0  0  0  0  0  0  0  0
  150.3779  144.6916  158.3404 H   0  0  0  0  0  0  0  0  0  0  0  0
  151.8571  144.0282  157.6225 H   0  0  0  0  0  0  0  0  0  0  0  0
  149.7107  141.1255  157.9890 H   0  0  0  0  0  0  0  0  0  0  0  0
  149.0931  142.7269  157.5948 H   0  0  0  0  0  0  0  0  0  0  0  0
  150.6565  143.0538  155.8754 H   0  0  0  0  0  0  0  0  0  0  0  0
  151.9086  142.1695  156.7100 H   0  0  0  0  0  0  0  0  0  0  0  0
  151.4179  137.3762  153.5179 H   0  0  0  0  0  0  0  0  0  0  0  0
  151.7997  137.1658  155.2236 H   0  0  0  0  0  0  0  0  0  0  0  0
  152.8534  138.1332  154.1951 H   0  0  0  0  0  0  0  0  0  0  0  0
  149.3691  137.9922  152.9119 H   0  0  0  0  0  0  0  0  0  0  0  0
  147.7777  137.2505  151.9976 H   0  0  0  0  0  0  0  0  0  0  0  0
  145.2926  138.2642  151.6144 H   0  0  0  0  0  0  0  0  0  0  0  0
  145.3144  136.7329  154.2639 H   0  0  0  0  0  0  0  0  0  0  0  0
  144.9181  138.4225  154.0650 H   0  0  0  0  0  0  0  0  0  0  0  0
  142.8655  137.0174  154.2538 H   0  0  0  0  0  0  0  0  0  0  0  0
  142.9281  137.8613  152.7256 H   0  0  0  0  0  0  0  0  0  0  0  0
  143.6615  134.9312  153.1974 H   0  0  0  0  0  0  0  0  0  0  0  0
  142.2515  135.5168  152.3471 H   0  0  0  0  0  0  0  0  0  0  0  0
  144.0488  134.7974  150.7601 H   0  0  0  0  0  0  0  0  0  0  0  0
  143.6624  136.4903  150.5666 H   0  0  0  0  0  0  0  0  0  0  0  0
  146.1123  136.1894  150.5676 H   0  0  0  0  0  0  0  0  0  0  0  0
  146.0471  135.3477  152.0977 H   0  0  0  0  0  0  0  0  0  0  0  0
  147.7285  141.4610  153.8506 H   0  0  0  0  0  0  0  0  0  0  0  0
  148.5869  142.6630  154.7903 H   0  0  0  0  0  0  0  0  0  0  0  0
  147.5829  141.4662  155.6092 H   0  0  0  0  0  0  0  0  0  0  0  0
  1  2  1  0  0  0  0
  1 22  1  0  0  0  0
  1 23  1  0  0  0  0
  1 24  1  0  0  0  0
  2  3  1  0  0  0  0
  3  4  1  0  0  0  0
  3 25  1  0  0  0  0
  3 26  1  0  0  0  0
  4  5  1  0  0  0  0
  4 27  1  0  0  0  0
  4 28  1  0  0  0  0
  5 20  1  0  0  0  0
  5  6  1  0  0  0  0
  6  7  2  0  0  0  0
  7  8  1  0  0  0  0
  7  9  1  0  0  0  0
  8 29  1  0  0  0  0
  8 30  1  0  0  0  0
  8 31  1  0  0  0  0
  9 10  1  0  0  0  0
  9 20  2  0  0  0  0
 10 11  1  0  0  0  0
 10 32  1  0  0  0  0
 11 12  2  0  0  0  0
 11 13  1  0  0  0  0
 13 14  1  0  0  0  0
 13 33  1  0  0  0  0
 14 19  1  0  0  0  0
 14 15  1  0  0  0  0
 14 34  1  0  0  0  0
 15 16  1  0  0  0  0
 15 35  1  0  0  0  0
 15 36  1  0  0  0  0
 16 17  1  0  0  0  0
 16 37  1  0  0  0  0
 16 38  1  0  0  0  0
 17 18  1  0  0  0  0
 17 39  1  0  0  0  0
 17 40  1  0  0  0  0
 18 19  1  0  0  0  0
 18 41  1  0  0  0  0
 18 42  1  0  0  0  0
 19 43  1  0  0  0  0
 19 44  1  0  0  0  0
 20 21  1  0  0  0  0
 21 45  1  0  0  0  0
 21 46  1  0  0  0  0
 21 47  1  0  0  0  0
M  END
> <s_m_source_file>
AV-unprocessed.smi

> <i_m_source_file_index>
2815

> <i_lp_mmshare_version>
43012

> <i_f3d_flags>
0

> <s_epik_input>
W0NIM11PW0NIMl1bQ0gyXW4xbmMoW0NIM10pYyhjMVtDSDNdKVtOSF1DKD1PKVtOSF1bQ0hdMltDSDJdW0NIMl1bQ0gyXVtDSDJdW0NIMl0y

> <s_epik_cmdline>
J2VwaWtfcHl0aG9uJywgJy1waCcsICc3LjAnLCAnLXRuJywgJzgnLCAnLW1hJywgJzIwMCcsICctbWV0YWxfYmluZGluZycsICctaW1hZScsICc8aW5maWxlLm1hZT4nLCAnLW9tYWUnLCAnPG91dGZpbGUubWFlPic=

> <r_lp_tautomer_probability>
1

> <r_epik_Ionization_Penalty>
0.00692603

> <r_epik_Ionization_Penalty_Charging>
0

> <r_epik_Ionization_Penalty_Neutral>
0.00692603

> <r_epik_State_Penalty>
0.00511675

> <r_epik_Charging_Adjusted_Penalty>
0.00511675

> <i_epik_Tot_Q>
0

> <i_epik_Tot_abs_Q>
0

> <r_epik_Metal_State_Penalty>
-0

> <b_epik_Metal_Only>
0

> <s_lp_Force_Field>
OPLS_2005

> <r_lp_Energy>
15.031

> <b_lp_Chiralities_Consistent>
1

> <s_lp_Variant>
AV-unprocessed.smi:2815-1

> <Gold.Version>
5.8.1

> <Gold.Id.Protein>
6NUR|6NUR_protein|mol2

> <Gold.PLP.Fitness>
45.0424

> <Gold.PLP.PLP>
-40.8224

> <Gold.PLP.part.hbond>
-3.6605

> <Gold.PLP.part.metal>
0.0000

> <Gold.PLP.part.buried>
-3.2859

> <Gold.PLP.part.nonpolar>
-35.4161

> <Gold.PLP.part.repulsive>
0.3531

> <Gold.PLP.ligand.clash>
0.0000

> <Gold.PLP.ligand.torsion>
0.7941

> <Gold.PLP.Chemscore.Hbond>
1.8247

> <Gold.PLP.Chemscore.CHOScore>
0.0000

> <Gold.PLP.Chemscore.Metal>
0.0000

> <Gold.Chemscore.Hbonds>
donor molecule, donor type, donor heavy atom, donor atom, acceptor molecule, acceptor atom, score
      L1  H    10    32       P1  7948  0.77
      L1  H    13    33       P1  7948  1.00

> <Gold.PLP.Chemscore.Internal.Correction>
0.3341

> <Gold.Rescore>
     Score         DG    S(hbond)    S(metal)    S(lipo)     H(rot)  DE(clash)    DE(int)     intcor
     14.34     -18.34       1.90        0.00      88.50       1.50       0.02       3.98       ----

> <Gold.Chemscore.Fitness>
14.3373

> <Gold.Chemscore.DG>
-18.3362

> <Gold.Chemscore.ZeroCoef>
-5.4800

> <Gold.Chemscore.Hbond>
1.8990

> <Gold.Chemscore.Metal>
0.0000

> <Gold.Chemscore.Lipo>
88.4961

> <Gold.Chemscore.Internal_Hbond>
0.0000

> <Gold.Chemscore.DEClash>
0.0170

> <Gold.Chemscore.DEInternal>
3.9819

> <Gold.Chemscore.Rot>
1.5002

> <Gold.Chemscore.Internal.Correction>
   9.000000E+99

> <Gold.Chemscore.Hbonds>
donor molecule, donor type, donor heavy atom, donor atom, acceptor molecule, acceptor atom, score
      L1  H    10    32       P1  7948  0.68
      L1  H    13    33       P1  7948  0.92

> <Gold.Chemscore.Hbond.Weighted>
-6.3425

> <Gold.Chemscore.Metal.Weighted>
-0.0000

> <Gold.Chemscore.Lipo.Weighted>
-10.3540

> <Gold.Chemscore.Internal_Hbond.Weighted>
0.0000

> <Gold.Chemscore.DEClash.Weighted>
0.0170

> <Gold.Chemscore.DEInternal.Weighted>
3.9819

> <Gold.Chemscore.Rot.Weighted>
3.8404

> <Gold.Chemscore.Internal.Correction.Weighted>
   9.000000E+99

> <Gold.Protein.RotatedTorsions>
[ 6907 6896 6895 6894 ] final -176.12 input  -60.11 | X-H torsion
[ 7974 7965 7964 7962 ] final  114.49 input  175.53 | X-H torsion
[ 8008 7997 7996 7995 ] final -165.70 input   59.86 | X-H torsion
[ 10167 10162 10161 10158 ] final -162.34 input  -65.29 | X-H torsion
[ 10718 10713 10712 10709 ] final   21.91 input   66.30 | X-H torsion
[ 10763 10752 10751 10750 ] final  -88.21 input  -60.55 | X-H torsion
[ 11005 11000 10999 10996 ] final   85.18 input  -57.11 | X-H torsion

> <Gold.Protein.ActiveResidues>
 VAL166  LYS551  ARG553  GLY616  TRP617  ASP618  TYR619  PRO620  LYS621  CYS622 
 ASP623  PHE694  ASN695  SER759  ASP760  ASP761  ALA762  ILE779  LEU786  VAL792 
 PHE793  MET794  SER795  GLU796  ALA797  LYS798  CYS799  TRP800  GLU811  SER814 

> <Gold.Protein.RotatedAtoms>
  151.5997  133.3357  159.3044 H   0  0  0  0  0  0  0  0  0  0  0  0  # atno 6907 bound_to 6896
  150.8215  134.7428  159.6787 H   0  0  0  0  0  0  0  0  0  0  0  0  # atno 6908 bound_to 6896
  152.4308  134.5788  159.9993 H   0  0  0  0  0  0  0  0  0  0  0  0  # atno 6909 bound_to 6896
  145.2038  139.2939  143.4304 H   0  0  0  0  0  0  0  0  0  0  0  0  # atno 7974 bound_to 7965
  155.8535  140.0967  157.1659 H   0  0  0  0  0  0  0  0  0  0  0  0  # atno 8008 bound_to 7997
  154.3986  140.1378  156.3935 H   0  0  0  0  0  0  0  0  0  0  0  0  # atno 8009 bound_to 7997
  155.7935  140.3455  155.5365 H   0  0  0  0  0  0  0  0  0  0  0  0  # atno 8010 bound_to 7997
  139.6399  144.0279  152.2084 H   0  0  0  0  0  0  0  0  0  0  0  0  # atno 10167 bound_to 10162
  157.1450  130.6649  149.5993 H   0  0  0  0  0  0  0  0  0  0  0  0  # atno 10718 bound_to 10713
  154.6420  135.5385  153.7801 H   0  0  0  0  0  0  0  0  0  0  0  0  # atno 10763 bound_to 10752
  153.0339  135.6461  154.1145 H   0  0  0  0  0  0  0  0  0  0  0  0  # atno 10764 bound_to 10752
  154.1069  135.2929  155.3219 H   0  0  0  0  0  0  0  0  0  0  0  0  # atno 10765 bound_to 10752
  139.8978  134.8269  156.2547 H   0  0  0  0  0  0  0  0  0  0  0  0  # atno 11005 bound_to 11000
  146.3412  140.2291  142.8593 LP  0  0  0  0  0  0  0  0  0  0  0  0  # atno 17320 bound_to 7965
  144.9922  140.8557  143.5332 LP  0  0  0  0  0  0  0  0  0  0  0  0  # atno 17321 bound_to 7965
  139.9966  144.6323  150.7767 LP  0  0  0  0  0  0  0  0  0  0  0  0  # atno 17342 bound_to 10162
  140.7485  143.2924  151.3296 LP  0  0  0  0  0  0  0  0  0  0  0  0  # atno 17343 bound_to 10162
  155.9781  130.4764  150.6635 LP  0  0  0  0  0  0  0  0  0  0  0  0  # atno 17370 bound_to 10713
  157.4272  131.0844  151.1074 LP  0  0  0  0  0  0  0  0  0  0  0  0  # atno 17371 bound_to 10713
  141.0201  133.7046  156.1254 LP  0  0  0  0  0  0  0  0  0  0  0  0  # atno 17394 bound_to 11000
  140.7246  134.4321  157.5572 LP  0  0  0  0  0  0  0  0  0  0  0  0  # atno 17395 bound_to 11000

$$$$
