AV-unprocessed.smi:287|AV-procd|sdf|2208|dock1
  -GOLD-   2262022 43D 1   1.00000     0.00000
 Structure written by MMmdl.
 55 58  0  0  0  0  0  0  0  0  1 V2000
  144.4839  135.8944  162.7351 C   0  0  0  0  0  0  0  0  0  0  0  0
  143.6054  136.0904  161.5472 C   0  0  0  0  0  0  0  0  0  0  0  0
  143.7236  136.8072  160.3921 C   0  0  0  0  0  0  0  0  0  0  0  0
  142.5313  136.5983  159.6364 C   0  0  0  0  0  0  0  0  0  0  0  0
  142.2117  137.1903  158.2693 C   0  0  2  0  0  0  0  0  0  0  0  0
  142.1861  138.7286  158.3331 C   0  0  0  0  0  0  0  0  0  0  0  0
  140.9223  136.8315  157.8110 O   0  0  0  0  0  0  0  0  0  0  0  0
  143.2087  136.7251  157.1844 C   0  0  0  0  0  0  0  0  0  0  0  0
  142.8977  137.2483  155.8606 N   0  0  0  0  0  0  0  0  0  0  0  0
  142.8869  136.4418  154.7785 C   0  0  0  0  0  0  0  0  0  0  0  0
  141.6730  135.9527  154.4305 N   0  0  0  0  0  0  0  0  0  0  0  0
  141.5513  135.1487  153.3712 C   0  0  0  0  0  0  0  0  0  0  0  0
  142.5000  134.7182  152.5387 N   0  0  0  0  0  0  0  0  0  0  0  0
  143.7289  135.2016  152.8824 C   0  0  0  0  0  0  0  0  0  0  0  0
  144.0096  136.0632  153.9828 C   0  0  0  0  0  0  0  0  0  0  0  0
  145.3736  136.3352  154.0135 N   0  0  0  0  0  0  0  0  0  0  0  0
  145.8599  135.6787  152.9961 C   0  0  0  0  0  0  0  0  0  0  0  0
  144.9386  134.9729  152.2573 N   0  0  0  0  0  0  0  0  0  0  0  0
  145.1952  134.1390  151.0435 C   0  0  1  0  0  0  0  0  0  0  0  0
  145.8121  132.9559  151.4499 O   0  0  0  0  0  0  0  0  0  0  0  0
  145.2540  131.8560  150.7403 C   0  0  1  0  0  0  0  0  0  0  0  0
  145.4535  130.5644  151.5488 C   0  0  0  0  0  0  0  0  0  0  0  0
  146.8274  130.3502  151.7916 O   0  0  0  0  0  0  0  0  0  0  0  0
  143.7878  132.2678  150.5956 C   0  0  2  0  0  0  0  0  0  0  0  0
  143.1102  131.5658  149.5689 O   0  0  0  0  0  0  0  0  0  0  0  0
  143.8774  133.7708  150.3426 C   0  0  2  0  0  0  0  0  0  0  0  0
  143.9417  134.0777  148.9617 O   0  0  0  0  0  0  0  0  0  0  0  0
  141.7772  135.7432  160.4041 C   0  0  0  0  0  0  0  0  0  0  0  0
  140.4440  135.0950  160.2262 C   0  0  0  0  0  0  0  0  0  0  0  0
  142.4184  135.4349  161.5653 O   0  0  0  0  0  0  0  0  0  0  0  0
  145.8686  134.7386  150.4288 H   0  0  0  0  0  0  0  0  0  0  0  0
  145.7170  131.7874  149.7535 H   0  0  0  0  0  0  0  0  0  0  0  0
  143.2637  132.0928  151.5353 H   0  0  0  0  0  0  0  0  0  0  0  0
  143.0315  134.3033  150.7805 H   0  0  0  0  0  0  0  0  0  0  0  0
  145.4323  136.4168  162.6086 H   0  0  0  0  0  0  0  0  0  0  0  0
  144.6982  134.8364  162.8876 H   0  0  0  0  0  0  0  0  0  0  0  0
  144.0051  136.2767  163.6367 H   0  0  0  0  0  0  0  0  0  0  0  0
  144.5733  137.4158  160.1206 H   0  0  0  0  0  0  0  0  0  0  0  0
  143.1553  139.1349  158.6236 H   0  0  0  0  0  0  0  0  0  0  0  0
  141.4505  139.0841  159.0560 H   0  0  0  0  0  0  0  0  0  0  0  0
  141.9335  139.1637  157.3652 H   0  0  0  0  0  0  0  0  0  0  0  0
  140.7147  137.3600  157.0558 H   0  0  0  0  0  0  0  0  0  0  0  0
  144.2310  136.9784  157.4687 H   0  0  0  0  0  0  0  0  0  0  0  0
  143.1583  135.6379  157.1110 H   0  0  0  0  0  0  0  0  0  0  0  0
  142.7515  138.2462  155.8095 H   0  0  0  0  0  0  0  0  0  0  0  0
  140.5507  134.8022  153.1597 H   0  0  0  0  0  0  0  0  0  0  0  0
  146.9122  135.6955  152.7520 H   0  0  0  0  0  0  0  0  0  0  0  0
  144.9004  130.5960  152.4882 H   0  0  0  0  0  0  0  0  0  0  0  0
  145.0849  129.7068  150.9853 H   0  0  0  0  0  0  0  0  0  0  0  0
  147.3025  130.5065  150.9897 H   0  0  0  0  0  0  0  0  0  0  0  0
  142.1952  131.5085  149.7979 H   0  0  0  0  0  0  0  0  0  0  0  0
  144.8448  134.2462  148.7386 H   0  0  0  0  0  0  0  0  0  0  0  0
  139.6479  135.8391  160.2453 H   0  0  0  0  0  0  0  0  0  0  0  0
  140.2470  134.3726  161.0189 H   0  0  0  0  0  0  0  0  0  0  0  0
  140.3942  134.5684  159.2729 H   0  0  0  0  0  0  0  0  0  0  0  0
  1  2  1  0  0  0  0
  1 35  1  0  0  0  0
  1 36  1  0  0  0  0
  1 37  1  0  0  0  0
  2 30  1  0  0  0  0
  2  3  2  0  0  0  0
  3  4  1  0  0  0  0
  3 38  1  0  0  0  0
  4  5  1  0  0  0  0
  4 28  2  0  0  0  0
  5  6  1  0  0  0  0
  5  7  1  0  0  0  0
  5  8  1  0  0  0  0
  6 39  1  0  0  0  0
  6 40  1  0  0  0  0
  6 41  1  0  0  0  0
  7 42  1  0  0  0  0
  8  9  1  0  0  0  0
  8 43  1  0  0  0  0
  8 44  1  0  0  0  0
  9 10  1  0  0  0  0
  9 45  1  0  0  0  0
 10 15  1  0  0  0  0
 10 11  2  0  0  0  0
 11 12  1  0  0  0  0
 12 13  2  0  0  0  0
 12 46  1  0  0  0  0
 13 14  1  0  0  0  0
 14 18  1  0  0  0  0
 14 15  2  0  0  0  0
 15 16  1  0  0  0  0
 16 17  2  0  0  0  0
 17 18  1  0  0  0  0
 17 47  1  0  0  0  0
 18 19  1  0  0  0  0
 19 31  1  0  0  0  0
 19 26  1  0  0  0  0
 19 20  1  0  0  0  0
 20 21  1  0  0  0  0
 21 32  1  0  0  0  0
 21 22  1  0  0  0  0
 21 24  1  0  0  0  0
 22 23  1  0  0  0  0
 22 48  1  0  0  0  0
 22 49  1  0  0  0  0
 23 50  1  0  0  0  0
 24 33  1  0  0  0  0
 24 25  1  0  0  0  0
 24 26  1  0  0  0  0
 25 51  1  0  0  0  0
 26 34  1  0  0  0  0
 26 27  1  0  0  0  0
 27 52  1  0  0  0  0
 28 29  1  0  0  0  0
 28 30  1  0  0  0  0
 29 53  1  0  0  0  0
 29 54  1  0  0  0  0
 29 55  1  0  0  0  0
M  END
> <s_m_source_file>
AV-unprocessed.smi

> <i_m_source_file_index>
287

> <i_lp_mmshare_version>
43012

> <i_f3d_flags>
0

> <s_epik_input>
W0NIM11jMVtjSF1jKGMobzEpW0NIM10pW0NAQF0oW0NIM10pKFtPSF0pW0NIMl1bTkhdYyhuW2NIXW4yKWMoYzIzKW5bY0hdbjNbQ0BASF00T1tDQEhdKFtDSDJdW09IXSlbQ0BASF0oW09IXSlbQ0BIXTRbT0hd

> <s_epik_cmdline>
J2VwaWtfcHl0aG9uJywgJy1waCcsICc3LjAnLCAnLXRuJywgJzgnLCAnLW1hJywgJzIwMCcsICctbWV0YWxfYmluZGluZycsICctaW1hZScsICc8aW5maWxlLm1hZT4nLCAnLW9tYWUnLCAnPG91dGZpbGUubWFlPic=

> <r_lp_tautomer_probability>
1

> <r_epik_Ionization_Penalty>
0.000992612

> <r_epik_Ionization_Penalty_Charging>
0

> <r_epik_Ionization_Penalty_Neutral>
0.000992612

> <r_epik_State_Penalty>
-0

> <r_epik_Charging_Adjusted_Penalty>
0

> <i_epik_Tot_Q>
0

> <i_epik_Tot_abs_Q>
0

> <r_epik_Metal_State_Penalty>
-0

> <b_epik_Metal_Only>
0

> <s_epik_Chemistry_Notes>
This compound contains an acetal/aminal-like group ( X-CH(R)-Y where X, Y are N, S, or O) that may be acid/base labile, releasing an aldehyde.

> <s_lp_Force_Field>
OPLS_2005

> <r_lp_Energy>
44.724

> <b_lp_Chiralities_Consistent>
1

> <s_lp_Variant>
AV-unprocessed.smi:287-32

> <Gold.Version>
5.8.1

> <Gold.Id.Protein>
6NUR|6NUR_protein|mol2

> <Gold.PLP.Fitness>
52.2955

> <Gold.PLP.PLP>
-36.9638

> <Gold.PLP.part.hbond>
-6.9938

> <Gold.PLP.part.metal>
0.0000

> <Gold.PLP.part.buried>
-8.3009

> <Gold.PLP.part.nonpolar>
-22.4031

> <Gold.PLP.part.repulsive>
0.4804

> <Gold.PLP.ligand.clash>
0.0000

> <Gold.PLP.ligand.torsion>
1.1629

> <Gold.PLP.Chemscore.Hbond>
4.4720

> <Gold.PLP.Chemscore.CHOScore>
1.3487

> <Gold.PLP.Chemscore.Metal>
0.0000

> <Gold.Chemscore.Hbonds>
donor molecule, donor type, donor heavy atom, donor atom, acceptor molecule, acceptor atom, score
      L1  H    23    50       P1 10747  0.90
      L1  H    25    51       P1 10952  0.77
      L1  H    27    52       P1  7921  1.00
      P1  H 10785 10796       L1    25  0.85
      P1  H 11000 11005       L1     7  0.70
      L1  C    12    46       P1 10187  0.20
      L1  C    17    47       P1  7948  1.00

> <Gold.PLP.Chemscore.Internal.Correction>
0.1955

> <Gold.Rescore>
     Score         DG    S(hbond)    S(metal)    S(lipo)     H(rot)  DE(clash)    DE(int)     intcor
      7.48     -11.06       3.67        0.00      58.31       5.27       0.00       3.58       ----

> <Gold.Chemscore.Fitness>
7.4839

> <Gold.Chemscore.DG>
-11.0650

> <Gold.Chemscore.ZeroCoef>
-5.4800

> <Gold.Chemscore.Hbond>
3.6666

> <Gold.Chemscore.Metal>
0.0000

> <Gold.Chemscore.Lipo>
58.3117

> <Gold.Chemscore.Internal_Hbond>
0.0000

> <Gold.Chemscore.DEClash>
0.0021

> <Gold.Chemscore.DEInternal>
3.5790

> <Gold.Chemscore.Rot>
5.2672

> <Gold.Chemscore.Internal.Correction>
   9.000000E+99

> <Gold.Chemscore.Hbonds>
donor molecule, donor type, donor heavy atom, donor atom, acceptor molecule, acceptor atom, score
      L1  H    23    50       P1 10747  0.88
      L1  H    25    51       P1 10952  0.76
      L1  H    27    52       P1  7921  0.96
      P1  H 10785 10796       L1    25  0.15
      P1  H 11000 11005       L1     7  0.30

> <Gold.Chemscore.Hbond.Weighted>
-12.2464

> <Gold.Chemscore.Metal.Weighted>
-0.0000

> <Gold.Chemscore.Lipo.Weighted>
-6.8225

> <Gold.Chemscore.Internal_Hbond.Weighted>
0.0000

> <Gold.Chemscore.DEClash.Weighted>
0.0021

> <Gold.Chemscore.DEInternal.Weighted>
3.5790

> <Gold.Chemscore.Rot.Weighted>
13.4839

> <Gold.Chemscore.Internal.Correction.Weighted>
   9.000000E+99

> <Gold.Protein.RotatedTorsions>
[ 6907 6896 6895 6894 ] final -156.35 input  -60.11 | X-H torsion
[ 7974 7965 7964 7962 ] final   56.67 input  175.53 | X-H torsion
[ 8008 7997 7996 7995 ] final   52.15 input   59.86 | X-H torsion
[ 10167 10162 10161 10158 ] final   80.67 input  -65.29 | X-H torsion
[ 10718 10713 10712 10709 ] final  -69.93 input   66.30 | X-H torsion
[ 10763 10752 10751 10750 ] final  -13.29 input  -60.55 | X-H torsion
[ 11005 11000 10999 10996 ] final  157.50 input  -57.11 | X-H torsion

> <Gold.Protein.ActiveResidues>
 VAL166  LYS551  ARG553  GLY616  TRP617  ASP618  TYR619  PRO620  LYS621  CYS622 
 ASP623  PHE694  ASN695  SER759  ASP760  ASP761  ALA762  ILE779  LEU786  VAL792 
 PHE793  MET794  SER795  GLU796  ALA797  LYS798  CYS799  TRP800  GLU811  SER814 

> <Gold.Protein.RotatedAtoms>
  151.2863  133.4186  159.2629 H   0  0  0  0  0  0  0  0  0  0  0  0  # atno 6907 bound_to 6896
  151.0317  134.9544  159.8124 H   0  0  0  0  0  0  0  0  0  0  0  0  # atno 6908 bound_to 6896
  152.5347  134.2823  159.9065 H   0  0  0  0  0  0  0  0  0  0  0  0  # atno 6909 bound_to 6896
  145.9373  139.3858  143.0385 H   0  0  0  0  0  0  0  0  0  0  0  0  # atno 7974 bound_to 7965
  155.4471  140.3457  155.4296 H   0  0  0  0  0  0  0  0  0  0  0  0  # atno 8008 bound_to 7997
  156.1243  140.1496  156.9189 H   0  0  0  0  0  0  0  0  0  0  0  0  # atno 8009 bound_to 7997
  154.4846  140.0859  156.7437 H   0  0  0  0  0  0  0  0  0  0  0  0  # atno 8010 bound_to 7997
  139.9473  144.6049  150.8194 H   0  0  0  0  0  0  0  0  0  0  0  0  # atno 10167 bound_to 10162
  156.0432  130.4322  150.2220 H   0  0  0  0  0  0  0  0  0  0  0  0  # atno 10718 bound_to 10713
  153.5111  135.7016  153.5780 H   0  0  0  0  0  0  0  0  0  0  0  0  # atno 10763 bound_to 10752
  153.3870  135.3905  155.1897 H   0  0  0  0  0  0  0  0  0  0  0  0  # atno 10764 bound_to 10752
  154.8703  135.3849  154.4591 H   0  0  0  0  0  0  0  0  0  0  0  0  # atno 10765 bound_to 10752
  140.1775  134.8499  157.2764 H   0  0  0  0  0  0  0  0  0  0  0  0  # atno 11005 bound_to 11000
  145.8346  140.9612  143.0831 LP  0  0  0  0  0  0  0  0  0  0  0  0  # atno 17320 bound_to 7965
  144.6773  140.0207  143.7484 LP  0  0  0  0  0  0  0  0  0  0  0  0  # atno 17321 bound_to 7965
  140.7593  143.3126  151.2808 LP  0  0  0  0  0  0  0  0  0  0  0  0  # atno 17342 bound_to 10162
  139.6656  144.0111  152.2721 LP  0  0  0  0  0  0  0  0  0  0  0  0  # atno 17343 bound_to 10162
  157.0313  131.0008  151.3311 LP  0  0  0  0  0  0  0  0  0  0  0  0  # atno 17370 bound_to 10713
  157.5275  130.8037  149.7879 LP  0  0  0  0  0  0  0  0  0  0  0  0  # atno 17371 bound_to 10713
  140.2305  134.3914  155.7524 LP  0  0  0  0  0  0  0  0  0  0  0  0  # atno 17394 bound_to 11000
  141.2221  133.7212  156.8633 LP  0  0  0  0  0  0  0  0  0  0  0  0  # atno 17395 bound_to 11000

$$$$
