AV-unprocessed.smi:3025|AV-procd|sdf|11505|dock7
  -GOLD-   2272016443D 1   1.00000     0.00000
 Structure written by MMmdl.
 42 43  0  0  0  0  0  0  0  0  2 V2000
  152.1708  143.3555  158.8670 C   0  0  0  0  0  0  0  0  0  0  0  0
  151.1536  142.8127  157.8573 C   0  0  0  0  0  0  0  0  0  0  0  0
  151.4857  141.3825  157.3986 C   0  0  0  0  0  0  0  0  0  0  0  0
  150.8296  140.9811  156.0612 C   0  0  2  0  0  0  0  0  0  0  0  0
  149.2919  141.1159  156.0882 C   0  0  0  0  0  0  0  0  0  0  0  0
  148.6563  140.6953  154.7528 C   0  0  0  0  0  0  0  0  0  0  0  0
  149.0565  139.2585  154.3586 C   0  0  1  0  0  0  0  0  0  0  0  0
  148.4963  138.8795  153.0424 N   0  3  0  0  0  0  0  0  0  0  0  0
  147.0370  139.0658  152.9005 C   0  0  0  0  0  0  0  0  0  0  0  0
  146.5649  138.6646  151.4967 C   0  0  0  0  0  0  0  0  0  0  0  0
  145.7032  137.4447  151.5120 C   0  0  0  0  0  0  0  0  0  0  0  0
  144.4793  137.4391  152.0442 N   0  0  0  0  0  0  0  0  0  0  0  0
  143.9502  136.2030  151.9303 N   0  0  0  0  0  0  0  0  0  0  0  0
  144.9273  135.5358  151.3191 C   0  0  0  0  0  0  0  0  0  0  0  0
  146.0539  136.2561  151.0334 N   0  0  0  0  0  0  0  0  0  0  0  0
  150.5898  139.1277  154.3292 C   0  0  0  0  0  0  0  0  0  0  0  0
  151.2176  139.5411  155.6697 C   0  0  0  0  0  0  0  0  0  0  0  0
  143.9879  138.2111  152.4719 H   0  0  0  0  0  0  0  0  0  0  0  0
  151.9102  144.3683  159.1746 H   0  0  0  0  0  0  0  0  0  0  0  0
  153.1732  143.3862  158.4393 H   0  0  0  0  0  0  0  0  0  0  0  0
  152.2063  142.7349  159.7628 H   0  0  0  0  0  0  0  0  0  0  0  0
  150.1629  142.8434  158.3097 H   0  0  0  0  0  0  0  0  0  0  0  0
  151.1204  143.4769  156.9931 H   0  0  0  0  0  0  0  0  0  0  0  0
  152.5687  141.3030  157.2952 H   0  0  0  0  0  0  0  0  0  0  0  0
  151.2055  140.6711  158.1766 H   0  0  0  0  0  0  0  0  0  0  0  0
  151.2163  141.6471  155.2880 H   0  0  0  0  0  0  0  0  0  0  0  0
  148.8822  140.5054  156.8942 H   0  0  0  0  0  0  0  0  0  0  0  0
  149.0026  142.1440  156.3039 H   0  0  0  0  0  0  0  0  0  0  0  0
  147.5734  140.7842  154.8369 H   0  0  0  0  0  0  0  0  0  0  0  0
  148.9629  141.3924  153.9714 H   0  0  0  0  0  0  0  0  0  0  0  0
  148.6740  138.5619  155.1067 H   0  0  0  0  0  0  0  0  0  0  0  0
  148.9725  139.4047  152.3228 H   0  0  0  0  0  0  0  0  0  0  0  0
  146.5241  138.4620  153.6506 H   0  0  0  0  0  0  0  0  0  0  0  0
  146.7748  140.1068  153.0887 H   0  0  0  0  0  0  0  0  0  0  0  0
  146.0085  139.4841  151.0393 H   0  0  0  0  0  0  0  0  0  0  0  0
  147.4236  138.4728  150.8518 H   0  0  0  0  0  0  0  0  0  0  0  0
  144.8273  134.4890  151.0720 H   0  0  0  0  0  0  0  0  0  0  0  0
  150.8728  138.1002  154.0974 H   0  0  0  0  0  0  0  0  0  0  0  0
  151.0012  139.7483  153.5316 H   0  0  0  0  0  0  0  0  0  0  0  0
  152.3026  139.4521  155.6019 H   0  0  0  0  0  0  0  0  0  0  0  0
  150.9005  138.8476  156.4500 H   0  0  0  0  0  0  0  0  0  0  0  0
  148.6877  137.8979  152.9008 H   0  0  0  0  0  0  0  0  0  0  0  0
  1  2  1  0  0  0  0
  1 19  1  0  0  0  0
  1 20  1  0  0  0  0
  1 21  1  0  0  0  0
  2  3  1  0  0  0  0
  2 22  1  0  0  0  0
  2 23  1  0  0  0  0
  3  4  1  0  0  0  0
  3 24  1  0  0  0  0
  3 25  1  0  0  0  0
  4 17  1  0  0  0  0
  4  5  1  0  0  0  0
  4 26  1  0  0  0  0
  5  6  1  0  0  0  0
  5 27  1  0  0  0  0
  5 28  1  0  0  0  0
  6  7  1  0  0  0  0
  6 29  1  0  0  0  0
  6 30  1  0  0  0  0
  7  8  1  0  0  0  0
  7 16  1  0  0  0  0
  7 31  1  0  0  0  0
  8  9  1  0  0  0  0
  8 32  1  0  0  0  0
  8 42  1  0  0  0  0
  9 10  1  0  0  0  0
  9 33  1  0  0  0  0
  9 34  1  0  0  0  0
 10 35  1  0  0  0  0
 10 36  1  0  0  0  0
 10 11  1  0  0  0  0
 11 15  2  0  0  0  0
 11 12  1  0  0  0  0
 12 18  1  0  0  0  0
 12 13  1  0  0  0  0
 13 14  2  0  0  0  0
 14 15  1  0  0  0  0
 14 37  1  0  0  0  0
 16 17  1  0  0  0  0
 16 38  1  0  0  0  0
 16 39  1  0  0  0  0
 17 40  1  0  0  0  0
 17 41  1  0  0  0  0
M  CHG  1   8   1
M  END
> <s_m_source_file>
AV-unprocessed.smi

> <i_m_source_file_index>
3025

> <i_lp_mmshare_version>
43012

> <i_f3d_flags>
0

> <s_epik_input>
W0NIM11bQ0gyXVtDSDJdW0NAQEhdMVtDSDJdW0NIMl1bQ0BIXShbQ0gyXVtDSDJdMSlbTkhdW0NIMl1bQ0gyXWMybm5bY0hdW25IXTI=

> <s_epik_cmdline>
J2VwaWtfcHl0aG9uJywgJy1waCcsICc3LjAnLCAnLXRuJywgJzgnLCAnLW1hJywgJzIwMCcsICctbWV0YWxfYmluZGluZycsICctaW1hZScsICc8aW5maWxlLm1hZT4nLCAnLW9tYWUnLCAnPG91dGZpbGUubWFlPic=

> <r_lp_tautomer_probability>
0.948284

> <r_epik_Ionization_Penalty>
0.0093758

> <r_epik_Ionization_Penalty_Charging>
0.000546397

> <r_epik_Ionization_Penalty_Neutral>
0.00882941

> <r_epik_State_Penalty>
0.401098

> <r_epik_Charging_Adjusted_Penalty>
0.401645

> <i_epik_Tot_Q>
1

> <i_epik_Tot_abs_Q>
1

> <r_epik_Metal_State_Penalty>
0.634803

> <b_epik_Metal_Only>
0

> <s_lp_Force_Field>
OPLS_2005

> <r_lp_Energy>
13.6193

> <b_lp_Chiralities_Consistent>
1

> <s_lp_Variant>
AV-unprocessed.smi:3025-1

> <Gold.Version>
5.8.1

> <Gold.Id.Protein>
6NUR|6NUR_protein|mol2

> <Gold.PLP.Fitness>
47.1549

> <Gold.PLP.PLP>
-36.3948

> <Gold.PLP.part.hbond>
-3.9677

> <Gold.PLP.part.metal>
0.0000

> <Gold.PLP.part.buried>
-1.7613

> <Gold.PLP.part.nonpolar>
-33.3053

> <Gold.PLP.part.repulsive>
0.8428

> <Gold.PLP.ligand.clash>
0.0000

> <Gold.PLP.ligand.torsion>
0.5572

> <Gold.PLP.Chemscore.Hbond>
3.9270

> <Gold.PLP.Chemscore.CHOScore>
0.0000

> <Gold.PLP.Chemscore.Metal>
0.0000

> <Gold.Chemscore.Hbonds>
donor molecule, donor type, donor heavy atom, donor atom, acceptor molecule, acceptor atom, score
      L1  H     8    32       P1  7957  0.83
      L1  H     8    42       P1  7948  2.00
      L1  H    12    18       P1 10175  0.41

> <Gold.PLP.Chemscore.Internal.Correction>
0.0934

> <Gold.Rescore>
     Score         DG    S(hbond)    S(metal)    S(lipo)     H(rot)  DE(clash)    DE(int)     intcor
     17.58     -18.31       2.84        0.00      84.71       2.56       0.07       0.65       ----

> <Gold.Chemscore.Fitness>
17.5815

> <Gold.Chemscore.DG>
-18.3095

> <Gold.Chemscore.ZeroCoef>
-5.4800

> <Gold.Chemscore.Hbond>
2.8362

> <Gold.Chemscore.Metal>
0.0000

> <Gold.Chemscore.Lipo>
84.7086

> <Gold.Chemscore.Internal_Hbond>
0.0000

> <Gold.Chemscore.DEClash>
0.0741

> <Gold.Chemscore.DEInternal>
0.6538

> <Gold.Chemscore.Rot>
2.5602

> <Gold.Chemscore.Internal.Correction>
   9.000000E+99

> <Gold.Chemscore.Hbonds>
donor molecule, donor type, donor heavy atom, donor atom, acceptor molecule, acceptor atom, score
      L1  H     8    32       P1  7957  0.80
      L1  H     8    42       P1  7948  0.97
      L1  H    12    18       P1 10175  0.41

> <Gold.Chemscore.Hbond.Weighted>
-9.4728

> <Gold.Chemscore.Metal.Weighted>
-0.0000

> <Gold.Chemscore.Lipo.Weighted>
-9.9109

> <Gold.Chemscore.Internal_Hbond.Weighted>
0.0000

> <Gold.Chemscore.DEClash.Weighted>
0.0741

> <Gold.Chemscore.DEInternal.Weighted>
0.6538

> <Gold.Chemscore.Rot.Weighted>
6.5542

> <Gold.Chemscore.Internal.Correction.Weighted>
   9.000000E+99

> <Gold.Protein.RotatedTorsions>
[ 6907 6896 6895 6894 ] final -171.64 input  -60.11 | X-H torsion
[ 7974 7965 7964 7962 ] final   68.75 input  175.53 | X-H torsion
[ 8008 7997 7996 7995 ] final  -47.24 input   59.86 | X-H torsion
[ 10167 10162 10161 10158 ] final   94.35 input  -65.29 | X-H torsion
[ 10718 10713 10712 10709 ] final  173.94 input   66.30 | X-H torsion
[ 10763 10752 10751 10750 ] final   92.29 input  -60.55 | X-H torsion
[ 11005 11000 10999 10996 ] final  -61.10 input  -57.11 | X-H torsion

> <Gold.Protein.ActiveResidues>
 VAL166  LYS551  ARG553  GLY616  TRP617  ASP618  TYR619  PRO620  LYS621  CYS622 
 ASP623  PHE694  ASN695  SER759  ASP760  ASP761  ALA762  ILE779  LEU786  VAL792 
 PHE793  MET794  SER795  GLU796  ALA797  LYS798  CYS799  TRP800  GLU811  SER814 

> <Gold.Protein.RotatedAtoms>
  151.5271  133.3456  159.2911 H   0  0  0  0  0  0  0  0  0  0  0  0  # atno 6907 bound_to 6896
  150.8616  134.7972  159.7098 H   0  0  0  0  0  0  0  0  0  0  0  0  # atno 6908 bound_to 6896
  152.4634  134.5141  159.9814 H   0  0  0  0  0  0  0  0  0  0  0  0  # atno 6909 bound_to 6896
  145.7988  139.2971  143.1167 H   0  0  0  0  0  0  0  0  0  0  0  0  # atno 7974 bound_to 7965
  154.4015  140.1351  156.4143 H   0  0  0  0  0  0  0  0  0  0  0  0  # atno 8008 bound_to 7997
  155.7703  140.3484  155.5223 H   0  0  0  0  0  0  0  0  0  0  0  0  # atno 8009 bound_to 7997
  155.8773  140.0981  157.1500 H   0  0  0  0  0  0  0  0  0  0  0  0  # atno 8010 bound_to 7997
  139.8092  144.6781  150.9663 H   0  0  0  0  0  0  0  0  0  0  0  0  # atno 10167 bound_to 10162
  156.9570  131.0049  151.2936 H   0  0  0  0  0  0  0  0  0  0  0  0  # atno 10718 bound_to 10713
  153.2175  135.4367  155.0451 H   0  0  0  0  0  0  0  0  0  0  0  0  # atno 10763 bound_to 10752
  154.8233  135.3348  154.6976 H   0  0  0  0  0  0  0  0  0  0  0  0  # atno 10764 bound_to 10752
  153.7410  135.7004  153.5023 H   0  0  0  0  0  0  0  0  0  0  0  0  # atno 10765 bound_to 10752
  141.1312  133.6627  156.5323 H   0  0  0  0  0  0  0  0  0  0  0  0  # atno 11005 bound_to 11000
  145.9899  140.8611  143.0071 LP  0  0  0  0  0  0  0  0  0  0  0  0  # atno 17320 bound_to 7965
  144.6771  140.2201  143.7367 LP  0  0  0  0  0  0  0  0  0  0  0  0  # atno 17321 bound_to 7965
  140.7818  143.4202  151.0853 LP  0  0  0  0  0  0  0  0  0  0  0  0  # atno 17342 bound_to 10162
  139.7870  143.8273  152.3146 LP  0  0  0  0  0  0  0  0  0  0  0  0  # atno 17343 bound_to 10162
  157.5684  130.8293  149.8358 LP  0  0  0  0  0  0  0  0  0  0  0  0  # atno 17370 bound_to 10713
  156.0338  130.3757  150.1614 LP  0  0  0  0  0  0  0  0  0  0  0  0  # atno 17371 bound_to 10713
  140.4206  134.7191  157.4887 LP  0  0  0  0  0  0  0  0  0  0  0  0  # atno 17394 bound_to 11000
  140.0363  134.6333  155.9039 LP  0  0  0  0  0  0  0  0  0  0  0  0  # atno 17395 bound_to 11000

$$$$
