AV-unprocessed.smi:3008|AV-procd|sdf|11448|dock5
  -GOLD-   2272016383D 1   1.00000     0.00000
 Structure written by MMmdl.
 38 39  0  0  0  0  0  0  0  0  1 V2000
  147.7242  138.8267  152.6415 N   0  0  0  0  0  0  0  0  0  0  0  0
  147.7070  139.4545  153.8202 C   0  0  0  0  0  0  0  0  0  0  0  0
  147.1082  139.0079  154.7965 O   0  0  0  0  0  0  0  0  0  0  0  0
  148.4718  140.7753  153.9181 C   0  0  0  0  0  0  0  0  0  0  0  0
  149.6468  140.6390  154.7592 N   0  0  0  0  0  0  0  0  0  0  0  0
  150.0475  141.4515  155.8016 C   0  0  0  0  0  0  0  0  0  0  0  0
  151.2046  140.9090  156.2735 C   0  0  0  0  0  0  0  0  0  0  0  0
  151.9549  141.4295  157.3574 N   0  0  0  0  0  0  0  0  0  0  0  0
  151.7549  142.5854  158.0202 C   0  0  0  0  0  0  0  0  0  0  0  0
  150.8661  143.3837  157.7185 O   0  0  0  0  0  0  0  0  0  0  0  0
  152.6554  142.8307  159.0108 N   0  0  0  0  0  0  0  0  0  0  0  0
  153.5080  141.7970  159.6388 C   0  0  0  0  0  0  0  0  0  0  0  0
  153.7381  141.9731  161.1554 C   0  0  0  0  0  0  0  0  0  0  0  0
  152.4784  142.3445  161.9598 C   0  0  0  0  0  0  0  0  0  0  0  0
  152.2205  143.8603  162.0089 C   0  0  0  0  0  0  0  0  0  0  0  0
  151.8228  144.4904  160.6644 C   0  0  0  0  0  0  0  0  0  0  0  0
  152.8176  144.1993  159.5261 C   0  0  0  0  0  0  0  0  0  0  0  0
  151.4545  139.7635  155.4654 C   0  0  0  0  0  0  0  0  0  0  0  0
  150.5062  139.6095  154.5532 N   0  0  0  0  0  0  0  0  0  0  0  0
  147.2265  137.9553  152.5295 H   0  0  0  0  0  0  0  0  0  0  0  0
  148.2284  139.2289  151.8644 H   0  0  0  0  0  0  0  0  0  0  0  0
  148.7887  141.0913  152.9234 H   0  0  0  0  0  0  0  0  0  0  0  0
  147.8278  141.5630  154.3135 H   0  0  0  0  0  0  0  0  0  0  0  0
  149.4862  142.3222  156.1075 H   0  0  0  0  0  0  0  0  0  0  0  0
  152.7258  140.8591  157.6731 H   0  0  0  0  0  0  0  0  0  0  0  0
  153.0711  140.8045  159.5225 H   0  0  0  0  0  0  0  0  0  0  0  0
  154.4669  141.7683  159.1199 H   0  0  0  0  0  0  0  0  0  0  0  0
  154.1354  141.0340  161.5424 H   0  0  0  0  0  0  0  0  0  0  0  0
  154.5236  142.7073  161.3378 H   0  0  0  0  0  0  0  0  0  0  0  0
  151.6055  141.8131  161.5783 H   0  0  0  0  0  0  0  0  0  0  0  0
  152.6144  141.9978  162.9848 H   0  0  0  0  0  0  0  0  0  0  0  0
  151.4298  144.0606  162.7328 H   0  0  0  0  0  0  0  0  0  0  0  0
  153.1079  144.3636  162.3949 H   0  0  0  0  0  0  0  0  0  0  0  0
  150.8215  144.1620  160.3826 H   0  0  0  0  0  0  0  0  0  0  0  0
  151.7516  145.5699  160.8015 H   0  0  0  0  0  0  0  0  0  0  0  0
  153.8428  144.3719  159.8554 H   0  0  0  0  0  0  0  0  0  0  0  0
  152.6672  144.9228  158.7226 H   0  0  0  0  0  0  0  0  0  0  0  0
  152.2640  139.0497  155.5008 H   0  0  0  0  0  0  0  0  0  0  0  0
  1  2  1  0  0  0  0
  1 20  1  0  0  0  0
  1 21  1  0  0  0  0
  2  3  2  0  0  0  0
  2  4  1  0  0  0  0
  4  5  1  0  0  0  0
  4 22  1  0  0  0  0
  4 23  1  0  0  0  0
  5 19  1  0  0  0  0
  5  6  1  0  0  0  0
  6  7  2  0  0  0  0
  6 24  1  0  0  0  0
  7  8  1  0  0  0  0
  7 18  1  0  0  0  0
  8  9  1  0  0  0  0
  8 25  1  0  0  0  0
  9 10  2  0  0  0  0
  9 11  1  0  0  0  0
 11 17  1  0  0  0  0
 11 12  1  0  0  0  0
 12 13  1  0  0  0  0
 12 26  1  0  0  0  0
 12 27  1  0  0  0  0
 13 14  1  0  0  0  0
 13 28  1  0  0  0  0
 13 29  1  0  0  0  0
 14 15  1  0  0  0  0
 14 30  1  0  0  0  0
 14 31  1  0  0  0  0
 15 16  1  0  0  0  0
 15 32  1  0  0  0  0
 15 33  1  0  0  0  0
 16 17  1  0  0  0  0
 16 34  1  0  0  0  0
 16 35  1  0  0  0  0
 17 36  1  0  0  0  0
 17 37  1  0  0  0  0
 18 19  2  0  0  0  0
 18 38  1  0  0  0  0
M  END
> <s_m_source_file>
AV-unprocessed.smi

> <i_m_source_file_index>
3008

> <i_lp_mmshare_version>
43012

> <i_f3d_flags>
0

> <s_epik_input>
W05IMl1DKD1PKVtDSDJdbjFbY0hdYyhbY0hdbjEpW05IXUMoPU8pTjJbQ0gyXVtDSDJdW0NIMl1bQ0gyXVtDSDJdW0NIMl0y

> <s_epik_cmdline>
J2VwaWtfcHl0aG9uJywgJy1waCcsICc3LjAnLCAnLXRuJywgJzgnLCAnLW1hJywgJzIwMCcsICctbWV0YWxfYmluZGluZycsICctaW1hZScsICc8aW5maWxlLm1hZT4nLCAnLW9tYWUnLCAnPG91dGZpbGUubWFlPic=

> <r_lp_tautomer_probability>
1

> <r_epik_Ionization_Penalty>
4.99812e-05

> <r_epik_Ionization_Penalty_Charging>
0

> <r_epik_Ionization_Penalty_Neutral>
4.99812e-05

> <r_epik_State_Penalty>
-0

> <r_epik_Charging_Adjusted_Penalty>
0

> <i_epik_Tot_Q>
0

> <i_epik_Tot_abs_Q>
0

> <r_epik_Metal_State_Penalty>
-0

> <b_epik_Metal_Only>
0

> <s_lp_Force_Field>
OPLS_2005

> <r_lp_Energy>
37.733

> <b_lp_Chiralities_Consistent>
1

> <s_lp_Variant>
AV-unprocessed.smi:3008-1

> <Gold.Version>
5.8.1

> <Gold.Id.Protein>
6NUR|6NUR_protein|mol2

> <Gold.PLP.Fitness>
48.5236

> <Gold.PLP.PLP>
-42.9179

> <Gold.PLP.part.hbond>
-3.0000

> <Gold.PLP.part.metal>
0.0000

> <Gold.PLP.part.buried>
-1.0006

> <Gold.PLP.part.nonpolar>
-40.0284

> <Gold.PLP.part.repulsive>
0.5079

> <Gold.PLP.ligand.clash>
0.0000

> <Gold.PLP.ligand.torsion>
0.3357

> <Gold.PLP.Chemscore.Hbond>
1.0900

> <Gold.PLP.Chemscore.CHOScore>
1.0000

> <Gold.PLP.Chemscore.Metal>
0.0000

> <Gold.Chemscore.Hbonds>
donor molecule, donor type, donor heavy atom, donor atom, acceptor molecule, acceptor atom, score
      L1  H     1    21       P1  7957  1.00
      P1  H  7989  7998       L1    19  0.08
      L1  C     6    24       P1  8028  1.00

> <Gold.PLP.Chemscore.Internal.Correction>
0.0070

> <Gold.Rescore>
     Score         DG    S(hbond)    S(metal)    S(lipo)     H(rot)  DE(clash)    DE(int)     intcor
     14.16     -16.59       0.98        0.00     100.20       1.52       0.88       1.55       ----

> <Gold.Chemscore.Fitness>
14.1594

> <Gold.Chemscore.DG>
-16.5910

> <Gold.Chemscore.ZeroCoef>
-5.4800

> <Gold.Chemscore.Hbond>
0.9799

> <Gold.Chemscore.Metal>
0.0000

> <Gold.Chemscore.Lipo>
100.1976

> <Gold.Chemscore.Internal_Hbond>
0.0000

> <Gold.Chemscore.DEClash>
0.8784

> <Gold.Chemscore.DEInternal>
1.5532

> <Gold.Chemscore.Rot>
1.5176

> <Gold.Chemscore.Internal.Correction>
   9.000000E+99

> <Gold.Chemscore.Hbonds>
donor molecule, donor type, donor heavy atom, donor atom, acceptor molecule, acceptor atom, score
      L1  H     1    21       P1  7957  0.97

> <Gold.Chemscore.Hbond.Weighted>
-3.2730

> <Gold.Chemscore.Metal.Weighted>
-0.0000

> <Gold.Chemscore.Lipo.Weighted>
-11.7231

> <Gold.Chemscore.Internal_Hbond.Weighted>
0.0000

> <Gold.Chemscore.DEClash.Weighted>
0.8784

> <Gold.Chemscore.DEInternal.Weighted>
1.5532

> <Gold.Chemscore.Rot.Weighted>
3.8851

> <Gold.Chemscore.Internal.Correction.Weighted>
   9.000000E+99

> <Gold.Protein.RotatedTorsions>
[ 6907 6896 6895 6894 ] final   -2.50 input  -60.11 | X-H torsion
[ 7974 7965 7964 7962 ] final  -28.88 input  175.53 | X-H torsion
[ 8008 7997 7996 7995 ] final  109.51 input   59.86 | X-H torsion
[ 10167 10162 10161 10158 ] final -163.60 input  -65.29 | X-H torsion
[ 10718 10713 10712 10709 ] final  -42.13 input   66.30 | X-H torsion
[ 10763 10752 10751 10750 ] final -118.65 input  -60.55 | X-H torsion
[ 11005 11000 10999 10996 ] final -125.28 input  -57.11 | X-H torsion

> <Gold.Protein.ActiveResidues>
 VAL166  LYS551  ARG553  GLY616  TRP617  ASP618  TYR619  PRO620  LYS621  CYS622 
 ASP623  PHE694  ASN695  SER759  ASP760  ASP761  ALA762  ILE779  LEU786  VAL792 
 PHE793  MET794  SER795  GLU796  ALA797  LYS798  CYS799  TRP800  GLU811  SER814 

> <Gold.Protein.RotatedAtoms>
  151.5289  135.1068  159.9897 H   0  0  0  0  0  0  0  0  0  0  0  0  # atno 6907 bound_to 6896
  152.4587  133.7773  159.6842 H   0  0  0  0  0  0  0  0  0  0  0  0  # atno 6908 bound_to 6896
  150.8541  133.7677  159.3040 H   0  0  0  0  0  0  0  0  0  0  0  0  # atno 6909 bound_to 6896
  146.1257  140.5340  142.8716 H   0  0  0  0  0  0  0  0  0  0  0  0  # atno 7974 bound_to 7965
  156.1985  140.3056  155.9476 H   0  0  0  0  0  0  0  0  0  0  0  0  # atno 8008 bound_to 7997
  155.3010  140.0446  157.3046 H   0  0  0  0  0  0  0  0  0  0  0  0  # atno 8009 bound_to 7997
  154.5540  140.2300  155.8449 H   0  0  0  0  0  0  0  0  0  0  0  0  # atno 8010 bound_to 7997
  139.6309  144.0441  152.2015 H   0  0  0  0  0  0  0  0  0  0  0  0  # atno 10167 bound_to 10162
  156.2629  130.4199  149.8522 H   0  0  0  0  0  0  0  0  0  0  0  0  # atno 10718 bound_to 10713
  154.8594  135.4266  154.2173 H   0  0  0  0  0  0  0  0  0  0  0  0  # atno 10763 bound_to 10752
  153.3186  135.6980  153.7057 H   0  0  0  0  0  0  0  0  0  0  0  0  # atno 10764 bound_to 10752
  153.6121  135.3517  155.2956 H   0  0  0  0  0  0  0  0  0  0  0  0  # atno 10765 bound_to 10752
  140.9774  134.0721  157.3803 H   0  0  0  0  0  0  0  0  0  0  0  0  # atno 11005 bound_to 11000
  144.7640  140.5487  143.6716 LP  0  0  0  0  0  0  0  0  0  0  0  0  # atno 17320 bound_to 7965
  145.5371  139.1475  143.3467 LP  0  0  0  0  0  0  0  0  0  0  0  0  # atno 17321 bound_to 7965
  140.0106  144.6226  150.7650 LP  0  0  0  0  0  0  0  0  0  0  0  0  # atno 17342 bound_to 10162
  140.7438  143.2852  151.3484 LP  0  0  0  0  0  0  0  0  0  0  0  0  # atno 17343 bound_to 10162
  156.6031  130.8555  151.3436 LP  0  0  0  0  0  0  0  0  0  0  0  0  # atno 17370 bound_to 10713
  157.7257  130.9619  150.1625 LP  0  0  0  0  0  0  0  0  0  0  0  0  # atno 17371 bound_to 10713
  139.8936  135.0131  156.6908 LP  0  0  0  0  0  0  0  0  0  0  0  0  # atno 17394 bound_to 11000
  140.7238  133.9118  155.8164 LP  0  0  0  0  0  0  0  0  0  0  0  0  # atno 17395 bound_to 11000

$$$$
