AV-unprocessed.smi:2612|AV-procd|sdf|10211|dock8
  -GOLD-   2272014213D 1   1.00000     0.00000
 Structure written by MMmdl.
 40 41  0  0  0  0  0  0  0  0  1 V2000
  148.0677  137.4668  163.8448 C   0  0  0  0  0  0  0  0  0  0  0  0
  148.2340  137.1499  162.4681 O   0  0  0  0  0  0  0  0  0  0  0  0
  147.3179  136.2360  161.8496 C   0  0  0  0  0  0  0  0  0  0  0  0
  147.6068  136.4178  160.3363 C   0  0  0  0  0  0  0  0  0  0  0  0
  149.0112  136.2050  159.9916 N   0  0  0  0  0  0  0  0  0  0  0  0
  149.5949  136.7845  158.8556 C   0  0  0  0  0  0  0  0  0  0  0  0
  148.9637  137.9076  158.2780 C   0  0  0  0  0  0  0  0  0  0  0  0
  149.5408  138.5039  157.1396 C   0  0  0  0  0  0  0  0  0  0  0  0
  150.7314  137.9534  156.6283 C   0  0  0  0  0  0  0  0  0  0  0  0
  151.4905  138.6382  155.1631 S   0  0  0  0  0  0  0  0  0  0  0  0
  151.4694  137.2415  153.9676 C   0  0  0  0  0  0  0  0  0  0  0  0
  150.6092  139.6959  154.6448 O   0  0  0  0  0  0  0  0  0  0  0  0
  152.8934  138.9486  155.4779 O   0  0  0  0  0  0  0  0  0  0  0  0
  151.2833  136.8201  157.2567 C   0  0  0  0  0  0  0  0  0  0  0  0
  150.7302  136.2478  158.3476 N   0  0  0  0  0  0  0  0  0  0  0  0
  147.4840  134.7658  162.3182 C   0  0  0  0  0  0  0  0  0  0  0  0
  146.3681  133.8635  161.7612 C   0  0  0  0  0  0  0  0  0  0  0  0
  145.0976  134.3715  162.1520 O   0  0  0  0  0  0  0  0  0  0  0  0
  144.8325  135.6700  161.6331 C   0  0  0  0  0  0  0  0  0  0  0  0
  145.8696  136.6757  162.1675 C   0  0  0  0  0  0  0  0  0  0  0  0
  148.7625  138.2636  164.1086 H   0  0  0  0  0  0  0  0  0  0  0  0
  148.3034  136.6144  164.4817 H   0  0  0  0  0  0  0  0  0  0  0  0
  147.0644  137.8187  164.0798 H   0  0  0  0  0  0  0  0  0  0  0  0
  146.9523  135.7937  159.7308 H   0  0  0  0  0  0  0  0  0  0  0  0
  147.3669  137.4424  160.0507 H   0  0  0  0  0  0  0  0  0  0  0  0
  149.4563  135.3883  160.3850 H   0  0  0  0  0  0  0  0  0  0  0  0
  148.0537  138.3097  158.6991 H   0  0  0  0  0  0  0  0  0  0  0  0
  149.0773  139.3613  156.6744 H   0  0  0  0  0  0  0  0  0  0  0  0
  151.9249  137.5604  153.0304 H   0  0  0  0  0  0  0  0  0  0  0  0
  150.4401  136.9342  153.7835 H   0  0  0  0  0  0  0  0  0  0  0  0
  152.0318  136.4025  154.3766 H   0  0  0  0  0  0  0  0  0  0  0  0
  152.1832  136.3570  156.8802 H   0  0  0  0  0  0  0  0  0  0  0  0
  148.4638  134.3722  162.0497 H   0  0  0  0  0  0  0  0  0  0  0  0
  147.4209  134.7024  163.4041 H   0  0  0  0  0  0  0  0  0  0  0  0
  146.4188  133.7790  160.6762 H   0  0  0  0  0  0  0  0  0  0  0  0
  146.4764  132.8539  162.1576 H   0  0  0  0  0  0  0  0  0  0  0  0
  144.8228  135.6444  160.5431 H   0  0  0  0  0  0  0  0  0  0  0  0
  143.8320  135.9699  161.9447 H   0  0  0  0  0  0  0  0  0  0  0  0
  145.7229  136.7568  163.2434 H   0  0  0  0  0  0  0  0  0  0  0  0
  145.6741  137.6684  161.7605 H   0  0  0  0  0  0  0  0  0  0  0  0
  1  2  1  0  0  0  0
  1 21  1  0  0  0  0
  1 22  1  0  0  0  0
  1 23  1  0  0  0  0
  2  3  1  0  0  0  0
  3 20  1  0  0  0  0
  3  4  1  0  0  0  0
  3 16  1  0  0  0  0
  4  5  1  0  0  0  0
  4 24  1  0  0  0  0
  4 25  1  0  0  0  0
  5  6  1  0  0  0  0
  5 26  1  0  0  0  0
  6 15  1  0  0  0  0
  6  7  2  0  0  0  0
  7  8  1  0  0  0  0
  7 27  1  0  0  0  0
  8  9  2  0  0  0  0
  8 28  1  0  0  0  0
  9 10  1  0  0  0  0
  9 14  1  0  0  0  0
 10 11  1  0  0  0  0
 10 12  2  0  0  0  0
 10 13  2  0  0  0  0
 11 29  1  0  0  0  0
 11 30  1  0  0  0  0
 11 31  1  0  0  0  0
 14 15  2  0  0  0  0
 14 32  1  0  0  0  0
 16 17  1  0  0  0  0
 16 33  1  0  0  0  0
 16 34  1  0  0  0  0
 17 18  1  0  0  0  0
 17 35  1  0  0  0  0
 17 36  1  0  0  0  0
 18 19  1  0  0  0  0
 19 20  1  0  0  0  0
 19 37  1  0  0  0  0
 19 38  1  0  0  0  0
 20 39  1  0  0  0  0
 20 40  1  0  0  0  0
M  END
> <s_m_source_file>
AV-unprocessed.smi

> <i_m_source_file_index>
2612

> <i_lp_mmshare_version>
43012

> <i_f3d_flags>
0

> <s_epik_input>
W0NIMl0xW0NIMl1PW0NIMl1bQ0gyXUMxKE9bQ0gzXSlbQ0gyXVtOSF1jMltjSF1bY0hdYyhbY0hdbjIpUyg9TykoPU8pW0NIM10=

> <s_epik_cmdline>
J2VwaWtfcHl0aG9uJywgJy1waCcsICc3LjAnLCAnLXRuJywgJzgnLCAnLW1hJywgJzIwMCcsICctbWV0YWxfYmluZGluZycsICctaW1hZScsICc8aW5maWxlLm1hZT4nLCAnLW9tYWUnLCAnPG91dGZpbGUubWFlPic=

> <r_lp_tautomer_probability>
1

> <r_epik_Ionization_Penalty>
1.02976e-06

> <r_epik_Ionization_Penalty_Charging>
0

> <r_epik_Ionization_Penalty_Neutral>
1.02976e-06

> <r_epik_State_Penalty>
-0

> <r_epik_Charging_Adjusted_Penalty>
0

> <i_epik_Tot_Q>
0

> <i_epik_Tot_abs_Q>
0

> <r_epik_Metal_State_Penalty>
-0

> <b_epik_Metal_Only>
0

> <s_lp_Force_Field>
OPLS_2005

> <r_lp_Energy>
16.1681

> <b_lp_Chiralities_Consistent>
1

> <s_lp_Variant>
AV-unprocessed.smi:2612-1

> <Gold.Version>
5.8.1

> <Gold.Id.Protein>
6NUR|6NUR_protein|mol2

> <Gold.PLP.Fitness>
42.2354

> <Gold.PLP.PLP>
-31.8627

> <Gold.PLP.part.hbond>
-3.8936

> <Gold.PLP.part.metal>
0.0000

> <Gold.PLP.part.buried>
-4.7669

> <Gold.PLP.part.nonpolar>
-24.3639

> <Gold.PLP.part.repulsive>
0.3067

> <Gold.PLP.ligand.clash>
0.0000

> <Gold.PLP.ligand.torsion>
1.4662

> <Gold.PLP.Chemscore.Hbond>
3.7522

> <Gold.PLP.Chemscore.CHOScore>
0.0000

> <Gold.PLP.Chemscore.Metal>
0.0000

> <Gold.Chemscore.Hbonds>
donor molecule, donor type, donor heavy atom, donor atom, acceptor molecule, acceptor atom, score
      P1  H  6896  6909       L1    15  0.62
      P1  H  6931  6943       L1     2  0.81
      P1  H  7989  7998       L1    12  1.00
      P1  H  7997  8010       L1    13  0.84

> <Gold.PLP.Chemscore.Internal.Correction>
2.0486

> <Gold.Rescore>
     Score         DG    S(hbond)    S(metal)    S(lipo)     H(rot)  DE(clash)    DE(int)     intcor
     18.24     -20.30       2.88        0.00      76.33       1.45       0.61       1.45       ----

> <Gold.Chemscore.Fitness>
18.2439

> <Gold.Chemscore.DG>
-20.3036

> <Gold.Chemscore.ZeroCoef>
-5.4800

> <Gold.Chemscore.Hbond>
2.8751

> <Gold.Chemscore.Metal>
0.0000

> <Gold.Chemscore.Lipo>
76.3269

> <Gold.Chemscore.Internal_Hbond>
0.0000

> <Gold.Chemscore.DEClash>
0.6097

> <Gold.Chemscore.DEInternal>
1.4499

> <Gold.Chemscore.Rot>
1.4490

> <Gold.Chemscore.Internal.Correction>
   9.000000E+99

> <Gold.Chemscore.Hbonds>
donor molecule, donor type, donor heavy atom, donor atom, acceptor molecule, acceptor atom, score
      P1  H  6896  6909       L1    15  0.12
      P1  H  6931  6943       L1     2  0.34
      P1  H  7989  7998       L1    12  0.70
      P1  H  7997  8010       L1    13  0.79

> <Gold.Chemscore.Hbond.Weighted>
-9.6027

> <Gold.Chemscore.Metal.Weighted>
-0.0000

> <Gold.Chemscore.Lipo.Weighted>
-8.9303

> <Gold.Chemscore.Internal_Hbond.Weighted>
0.0000

> <Gold.Chemscore.DEClash.Weighted>
0.6097

> <Gold.Chemscore.DEInternal.Weighted>
1.4499

> <Gold.Chemscore.Rot.Weighted>
3.7094

> <Gold.Chemscore.Internal.Correction.Weighted>
   9.000000E+99

> <Gold.Protein.RotatedTorsions>
[ 6907 6896 6895 6894 ] final   96.40 input  -60.11 | X-H torsion
[ 7974 7965 7964 7962 ] final  -33.72 input  175.53 | X-H torsion
[ 8008 7997 7996 7995 ] final   70.68 input   59.86 | X-H torsion
[ 10167 10162 10161 10158 ] final  171.49 input  -65.29 | X-H torsion
[ 10718 10713 10712 10709 ] final -164.41 input   66.30 | X-H torsion
[ 10763 10752 10751 10750 ] final   -5.63 input  -60.55 | X-H torsion
[ 11005 11000 10999 10996 ] final  174.20 input  -57.11 | X-H torsion

> <Gold.Protein.ActiveResidues>
 VAL166  LYS551  ARG553  GLY616  TRP617  ASP618  TYR619  PRO620  LYS621  CYS622 
 ASP623  PHE694  ASN695  SER759  ASP760  ASP761  ALA762  ILE779  LEU786  VAL792 
 PHE793  MET794  SER795  GLU796  ALA797  LYS798  CYS799  TRP800  GLU811  SER814 

> <Gold.Protein.RotatedAtoms>
  152.5435  134.0891  159.8268 H   0  0  0  0  0  0  0  0  0  0  0  0  # atno 6907 bound_to 6896
  151.0983  133.5255  159.2618 H   0  0  0  0  0  0  0  0  0  0  0  0  # atno 6908 bound_to 6896
  151.2020  135.0455  159.8930 H   0  0  0  0  0  0  0  0  0  0  0  0  # atno 6909 bound_to 6896
  146.0888  140.5951  142.8874 H   0  0  0  0  0  0  0  0  0  0  0  0  # atno 7974 bound_to 7965
  155.7424  140.3490  155.5111 H   0  0  0  0  0  0  0  0  0  0  0  0  # atno 8008 bound_to 7997
  155.9081  140.1046  157.1321 H   0  0  0  0  0  0  0  0  0  0  0  0  # atno 8009 bound_to 7997
  154.4052  140.1273  156.4509 H   0  0  0  0  0  0  0  0  0  0  0  0  # atno 8010 bound_to 7997
  139.5048  144.3479  151.9952 H   0  0  0  0  0  0  0  0  0  0  0  0  # atno 10167 bound_to 10162
  156.6386  130.8959  151.2991 H   0  0  0  0  0  0  0  0  0  0  0  0  # atno 10718 bound_to 10713
  153.4012  135.7005  153.6425 H   0  0  0  0  0  0  0  0  0  0  0  0  # atno 10763 bound_to 10752
  153.4957  135.3663  155.2515 H   0  0  0  0  0  0  0  0  0  0  0  0  # atno 10764 bound_to 10752
  154.8710  135.4100  154.3347 H   0  0  0  0  0  0  0  0  0  0  0  0  # atno 10765 bound_to 10752
  140.3488  134.7213  157.4253 H   0  0  0  0  0  0  0  0  0  0  0  0  # atno 11005 bound_to 11000
  144.7345  140.4768  143.6914 LP  0  0  0  0  0  0  0  0  0  0  0  0  # atno 17320 bound_to 7965
  145.6079  139.1510  143.3092 LP  0  0  0  0  0  0  0  0  0  0  0  0  # atno 17321 bound_to 7965
  140.2916  144.3747  150.6087 LP  0  0  0  0  0  0  0  0  0  0  0  0  # atno 17342 bound_to 10162
  140.5942  143.2167  151.7196 LP  0  0  0  0  0  0  0  0  0  0  0  0  # atno 17343 bound_to 10162
  157.7178  130.9519  150.1321 LP  0  0  0  0  0  0  0  0  0  0  0  0  # atno 17370 bound_to 10713
  156.2177  130.3671  149.8593 LP  0  0  0  0  0  0  0  0  0  0  0  0  # atno 17371 bound_to 10713
  140.0720  134.5849  155.8631 LP  0  0  0  0  0  0  0  0  0  0  0  0  # atno 17394 bound_to 11000
  141.2018  133.6621  156.5970 LP  0  0  0  0  0  0  0  0  0  0  0  0  # atno 17395 bound_to 11000

$$$$
