AV-unprocessed.smi:281|AV-procd|sdf|2104|dock5
  -GOLD-   2262021393D 1   1.00000     0.00000
 Structure written by MMmdl.
 55 59  0  0  0  0  0  0  0  0  1 V2000
  148.5263  141.8278  154.0321 C   0  0  0  0  0  0  0  0  0  0  0  0
  148.9159  140.5431  154.7696 C   0  0  1  0  0  0  0  0  0  0  0  0
  148.1255  139.3244  154.2694 C   0  0  0  0  0  0  0  0  0  0  0  0
  148.5979  138.1322  154.9545 N   0  0  0  0  0  0  0  0  0  0  0  0
  147.8463  137.0342  154.7338 C   0  0  0  0  0  0  0  0  0  0  0  0
  148.0913  135.9539  155.5142 N   0  0  0  0  0  0  0  0  0  0  0  0
  147.3880  134.8312  155.3382 C   0  0  0  0  0  0  0  0  0  0  0  0
  146.4184  134.5824  154.4547 N   0  0  0  0  0  0  0  0  0  0  0  0
  146.1721  135.6693  153.6677 C   0  0  0  0  0  0  0  0  0  0  0  0
  146.8303  136.9288  153.7425 C   0  0  0  0  0  0  0  0  0  0  0  0
  146.3081  137.7944  152.7892 N   0  0  0  0  0  0  0  0  0  0  0  0
  145.3959  137.0854  152.1823 C   0  0  0  0  0  0  0  0  0  0  0  0
  145.2561  135.7934  152.6378 N   0  0  0  0  0  0  0  0  0  0  0  0
  144.3340  134.7857  152.1374 C   0  0  0  0  0  0  0  0  0  0  0  0
  145.0409  133.6029  151.4345 C   0  0  2  0  0  0  0  0  0  0  0  0
  145.9311  134.1089  150.4550 O   0  0  0  0  0  0  0  0  0  0  0  0
  144.0864  132.6197  150.7599 C   0  0  0  0  0  0  0  0  0  0  0  0
  144.7917  131.2821  150.9333 C   0  0  0  0  0  0  0  0  0  0  0  0
  145.3323  131.3896  152.2386 O   0  0  0  0  0  0  0  0  0  0  0  0
  145.8406  132.7089  152.4035 C   0  0  0  0  0  0  0  0  0  0  0  0
  150.0252  137.9136  154.7707 C   0  0  0  0  0  0  0  0  0  0  0  0
  150.8388  139.1564  155.2104 C   0  0  2  0  0  0  0  0  0  0  0  0
  152.2969  139.0038  154.8092 C   0  0  0  0  0  0  0  0  0  0  0  0
  152.8700  138.1549  155.9380 C   0  0  0  0  0  0  0  0  0  0  0  0
  152.1112  138.4918  157.0948 O   0  0  0  0  0  0  0  0  0  0  0  0
  150.9737  139.2808  156.7459 C   0  0  1  0  0  0  0  0  0  0  0  0
  151.2746  140.7016  157.2606 C   0  0  0  0  0  0  0  0  0  0  0  0
  150.3138  140.3233  154.5675 O   0  0  0  0  0  0  0  0  0  0  0  0
  147.4674  142.0508  154.1638 H   0  0  0  0  0  0  0  0  0  0  0  0
  148.7217  141.7433  152.9624 H   0  0  0  0  0  0  0  0  0  0  0  0
  149.0947  142.6787  154.4084 H   0  0  0  0  0  0  0  0  0  0  0  0
  148.7128  140.6812  155.8315 H   0  0  0  0  0  0  0  0  0  0  0  0
  147.0600  139.4633  154.4585 H   0  0  0  0  0  0  0  0  0  0  0  0
  148.2530  139.2110  153.1922 H   0  0  0  0  0  0  0  0  0  0  0  0
  147.6398  134.0139  155.9976 H   0  0  0  0  0  0  0  0  0  0  0  0
  144.8009  137.4873  151.3751 H   0  0  0  0  0  0  0  0  0  0  0  0
  143.7303  134.4245  152.9713 H   0  0  0  0  0  0  0  0  0  0  0  0
  143.6422  135.2722  151.4483 H   0  0  0  0  0  0  0  0  0  0  0  0
  145.4786  134.1414  149.6261 H   0  0  0  0  0  0  0  0  0  0  0  0
  143.1388  132.5833  151.2987 H   0  0  0  0  0  0  0  0  0  0  0  0
  143.8670  132.8594  149.7185 H   0  0  0  0  0  0  0  0  0  0  0  0
  144.1145  130.4322  150.8457 H   0  0  0  0  0  0  0  0  0  0  0  0
  145.5965  131.1633  150.2063 H   0  0  0  0  0  0  0  0  0  0  0  0
  146.9084  132.7136  152.1781 H   0  0  0  0  0  0  0  0  0  0  0  0
  145.7269  133.0132  153.4445 H   0  0  0  0  0  0  0  0  0  0  0  0
  150.3370  137.0303  155.3298 H   0  0  0  0  0  0  0  0  0  0  0  0
  150.2184  137.7068  153.7174 H   0  0  0  0  0  0  0  0  0  0  0  0
  152.4364  138.5551  153.8252 H   0  0  0  0  0  0  0  0  0  0  0  0
  152.7890  139.9771  154.7979 H   0  0  0  0  0  0  0  0  0  0  0  0
  152.7355  137.0933  155.7275 H   0  0  0  0  0  0  0  0  0  0  0  0
  153.9338  138.3355  156.0935 H   0  0  0  0  0  0  0  0  0  0  0  0
  150.0880  138.8990  157.2549 H   0  0  0  0  0  0  0  0  0  0  0  0
  150.4548  141.3909  157.0655 H   0  0  0  0  0  0  0  0  0  0  0  0
  152.1706  141.1177  156.8005 H   0  0  0  0  0  0  0  0  0  0  0  0
  151.4352  140.6917  158.3389 H   0  0  0  0  0  0  0  0  0  0  0  0
  1  2  1  0  0  0  0
  1 29  1  0  0  0  0
  1 30  1  0  0  0  0
  1 31  1  0  0  0  0
  2 28  1  0  0  0  0
  2  3  1  0  0  0  0
  2 32  1  0  0  0  0
  3  4  1  0  0  0  0
  3 33  1  0  0  0  0
  3 34  1  0  0  0  0
  4  5  1  0  0  0  0
  4 21  1  0  0  0  0
  5 10  1  0  0  0  0
  5  6  2  0  0  0  0
  6  7  1  0  0  0  0
  7  8  2  0  0  0  0
  7 35  1  0  0  0  0
  8  9  1  0  0  0  0
  9 13  1  0  0  0  0
  9 10  2  0  0  0  0
 10 11  1  0  0  0  0
 11 12  2  0  0  0  0
 12 13  1  0  0  0  0
 12 36  1  0  0  0  0
 13 14  1  0  0  0  0
 14 15  1  0  0  0  0
 14 37  1  0  0  0  0
 14 38  1  0  0  0  0
 15 20  1  0  0  0  0
 15 16  1  0  0  0  0
 15 17  1  0  0  0  0
 16 39  1  0  0  0  0
 17 18  1  0  0  0  0
 17 40  1  0  0  0  0
 17 41  1  0  0  0  0
 18 19  1  0  0  0  0
 18 42  1  0  0  0  0
 18 43  1  0  0  0  0
 19 20  1  0  0  0  0
 20 44  1  0  0  0  0
 20 45  1  0  0  0  0
 21 22  1  0  0  0  0
 21 46  1  0  0  0  0
 21 47  1  0  0  0  0
 22 26  1  0  0  0  0
 22 23  1  0  0  0  0
 22 28  1  0  0  0  0
 23 24  1  0  0  0  0
 23 48  1  0  0  0  0
 23 49  1  0  0  0  0
 24 25  1  0  0  0  0
 24 50  1  0  0  0  0
 24 51  1  0  0  0  0
 25 26  1  0  0  0  0
 26 27  1  0  0  0  0
 26 52  1  0  0  0  0
 27 53  1  0  0  0  0
 27 54  1  0  0  0  0
 27 55  1  0  0  0  0
M  END
> <s_m_source_file>
AV-unprocessed.smi

> <i_m_source_file_index>
281

> <i_lp_mmshare_version>
43012

> <i_f3d_flags>
0

> <s_epik_input>
W0NIM11bQ0BASF0xT1tDSDJdW0NIMl1bQ0BAXTEyW0NIMl1OKFtDSDJdW0NASF0oTzIpW0NIM10pYyhuW2NIXW4zKWMoYzM0KW5bY0hdbjRbQ0gyXVtDQEBdNShbT0hdKVtDSDJdW0NIMl1PW0NIMl01

> <s_epik_cmdline>
J2VwaWtfcHl0aG9uJywgJy1waCcsICc3LjAnLCAnLXRuJywgJzgnLCAnLW1hJywgJzIwMCcsICctbWV0YWxfYmluZGluZycsICctaW1hZScsICc8aW5maWxlLm1hZT4nLCAnLW9tYWUnLCAnPG91dGZpbGUubWFlPic=

> <r_lp_tautomer_probability>
1

> <r_epik_Ionization_Penalty>
0.00571331

> <r_epik_Ionization_Penalty_Charging>
0

> <r_epik_Ionization_Penalty_Neutral>
0.00571331

> <r_epik_State_Penalty>
0.00399586

> <r_epik_Charging_Adjusted_Penalty>
0.00399586

> <i_epik_Tot_Q>
0

> <i_epik_Tot_abs_Q>
0

> <r_epik_Metal_State_Penalty>
-0

> <b_epik_Metal_Only>
0

> <s_lp_Force_Field>
OPLS_2005

> <r_lp_Energy>
57.1517

> <b_lp_Chiralities_Consistent>
1

> <s_lp_Variant>
AV-unprocessed.smi:281-4

> <Gold.Version>
5.8.1

> <Gold.Id.Protein>
6NUR|6NUR_protein|mol2

> <Gold.PLP.Fitness>
40.1776

> <Gold.PLP.PLP>
-32.9663

> <Gold.PLP.part.hbond>
-2.0000

> <Gold.PLP.part.metal>
0.0000

> <Gold.PLP.part.buried>
0.0399

> <Gold.PLP.part.nonpolar>
-31.0430

> <Gold.PLP.part.repulsive>
0.7787

> <Gold.PLP.ligand.clash>
0.0000

> <Gold.PLP.ligand.torsion>
0.2217

> <Gold.PLP.Chemscore.Hbond>
1.5099

> <Gold.PLP.Chemscore.CHOScore>
1.0000

> <Gold.PLP.Chemscore.Metal>
0.0000

> <Gold.Chemscore.Hbonds>
donor molecule, donor type, donor heavy atom, donor atom, acceptor molecule, acceptor atom, score
      L1  H    16    39       P1  7921  0.37
      P1  H  7989  7998       L1    28  1.00
      L1  C    12    36       P1 10171  1.00

> <Gold.PLP.Chemscore.Internal.Correction>
0.1252

> <Gold.Rescore>
     Score         DG    S(hbond)    S(metal)    S(lipo)     H(rot)  DE(clash)    DE(int)     intcor
     11.38     -14.50       1.38        0.00      83.56       2.09       0.20       2.91       ----

> <Gold.Chemscore.Fitness>
11.3798

> <Gold.Chemscore.DG>
-14.4956

> <Gold.Chemscore.ZeroCoef>
-5.4800

> <Gold.Chemscore.Hbond>
1.3761

> <Gold.Chemscore.Metal>
0.0000

> <Gold.Chemscore.Lipo>
83.5615

> <Gold.Chemscore.Internal_Hbond>
0.0000

> <Gold.Chemscore.DEClash>
0.2024

> <Gold.Chemscore.DEInternal>
2.9134

> <Gold.Chemscore.Rot>
2.0927

> <Gold.Chemscore.Internal.Correction>
   9.000000E+99

> <Gold.Chemscore.Hbonds>
donor molecule, donor type, donor heavy atom, donor atom, acceptor molecule, acceptor atom, score
      L1  H    16    39       P1  7921  0.30
      P1  H  7989  7998       L1    28  0.48

> <Gold.Chemscore.Hbond.Weighted>
-4.5963

> <Gold.Chemscore.Metal.Weighted>
-0.0000

> <Gold.Chemscore.Lipo.Weighted>
-9.7767

> <Gold.Chemscore.Internal_Hbond.Weighted>
0.0000

> <Gold.Chemscore.DEClash.Weighted>
0.2024

> <Gold.Chemscore.DEInternal.Weighted>
2.9134

> <Gold.Chemscore.Rot.Weighted>
5.3573

> <Gold.Chemscore.Internal.Correction.Weighted>
   9.000000E+99

> <Gold.Protein.RotatedTorsions>
[ 6907 6896 6895 6894 ] final  -70.38 input  -60.11 | X-H torsion
[ 7974 7965 7964 7962 ] final   31.59 input  175.53 | X-H torsion
[ 8008 7997 7996 7995 ] final -124.27 input   59.86 | X-H torsion
[ 10167 10162 10161 10158 ] final  -75.75 input  -65.29 | X-H torsion
[ 10718 10713 10712 10709 ] final  -85.87 input   66.30 | X-H torsion
[ 10763 10752 10751 10750 ] final   97.43 input  -60.55 | X-H torsion
[ 11005 11000 10999 10996 ] final   63.48 input  -57.11 | X-H torsion

> <Gold.Protein.ActiveResidues>
 VAL166  LYS551  ARG553  GLY616  TRP617  ASP618  TYR619  PRO620  LYS621  CYS622 
 ASP623  PHE694  ASN695  SER759  ASP760  ASP761  ALA762  ILE779  LEU786  VAL792 
 PHE793  MET794  SER795  GLU796  ALA797  LYS798  CYS799  TRP800  GLU811  SER814 

> <Gold.Protein.RotatedAtoms>
  150.7260  134.5460  159.5770 H   0  0  0  0  0  0  0  0  0  0  0  0  # atno 6907 bound_to 6896
  152.2959  134.7664  160.0377 H   0  0  0  0  0  0  0  0  0  0  0  0  # atno 6908 bound_to 6896
  151.8261  133.3366  159.3636 H   0  0  0  0  0  0  0  0  0  0  0  0  # atno 6909 bound_to 6896
  146.1541  139.6637  142.9079 H   0  0  0  0  0  0  0  0  0  0  0  0  # atno 7974 bound_to 7965
  155.1941  140.0414  157.2906 H   0  0  0  0  0  0  0  0  0  0  0  0  # atno 8008 bound_to 7997
  154.6118  140.2479  155.7630 H   0  0  0  0  0  0  0  0  0  0  0  0  # atno 8009 bound_to 7997
  156.2384  140.2913  156.0385 H   0  0  0  0  0  0  0  0  0  0  0  0  # atno 8010 bound_to 7997
  140.4916  143.2379  151.7898 H   0  0  0  0  0  0  0  0  0  0  0  0  # atno 10167 bound_to 10162
  155.9993  130.4746  150.4628 H   0  0  0  0  0  0  0  0  0  0  0  0  # atno 10718 bound_to 10713
  153.2769  135.4183  155.1041 H   0  0  0  0  0  0  0  0  0  0  0  0  # atno 10763 bound_to 10752
  154.8476  135.3485  154.6167 H   0  0  0  0  0  0  0  0  0  0  0  0  # atno 10764 bound_to 10752
  153.6587  135.7049  153.5242 H   0  0  0  0  0  0  0  0  0  0  0  0  # atno 10765 bound_to 10752
  140.0022  134.6425  155.9913 H   0  0  0  0  0  0  0  0  0  0  0  0  # atno 11005 bound_to 11000
  145.4752  141.0437  143.2676 LP  0  0  0  0  0  0  0  0  0  0  0  0  # atno 17320 bound_to 7965
  144.7940  139.6271  143.7101 LP  0  0  0  0  0  0  0  0  0  0  0  0  # atno 17321 bound_to 7965
  139.4852  144.4642  151.9504 LP  0  0  0  0  0  0  0  0  0  0  0  0  # atno 17342 bound_to 10162
  140.3729  144.2833  150.5918 LP  0  0  0  0  0  0  0  0  0  0  0  0  # atno 17343 bound_to 10162
  157.2651  131.0575  151.2296 LP  0  0  0  0  0  0  0  0  0  0  0  0  # atno 17370 bound_to 10713
  157.3396  130.7026  149.6373 LP  0  0  0  0  0  0  0  0  0  0  0  0  # atno 17371 bound_to 10713
  141.1650  133.6537  156.4448 LP  0  0  0  0  0  0  0  0  0  0  0  0  # atno 17394 bound_to 11000
  140.4708  134.6755  157.5128 LP  0  0  0  0  0  0  0  0  0  0  0  0  # atno 17395 bound_to 11000

$$$$
