AV-unprocessed.smi:3004|AV-procd|sdf|11439|dock2
  -GOLD-   2272016363D 1   1.00000     0.00000
 Structure written by MMmdl.
 47 48  0  0  0  0  0  0  0  0  2 V2000
  155.9701  130.2749  154.6320 C   0  0  0  0  0  0  0  0  0  0  0  0
  154.5268  129.9146  154.8244 C   0  0  0  0  0  0  0  0  0  0  0  0
  153.8790  128.6833  154.5268 C   0  0  0  0  0  0  0  0  0  0  0  0
  152.5796  128.8865  154.8972 C   0  0  0  0  0  0  0  0  0  0  0  0
  151.4067  127.9641  154.8358 C   0  0  0  0  0  0  0  0  0  0  0  0
  152.4983  130.1805  155.3811 N   0  0  0  0  0  0  0  0  0  0  0  0
  151.3472  130.8921  155.9134 C   0  0  0  0  0  0  0  0  0  0  0  0
  150.3235  131.1793  154.8137 C   0  0  0  0  0  0  0  0  0  0  0  0
  149.8256  130.2518  154.1757 O   0  0  0  0  0  0  0  0  0  0  0  0
  150.0122  132.4682  154.6067 N   0  0  0  0  0  0  0  0  0  0  0  0
  149.0337  132.9526  153.6400 C   0  0  0  0  0  0  0  0  0  0  0  0
  147.7862  132.0440  153.5820 C   0  0  0  0  0  0  0  0  0  0  0  0
  147.0568  132.1024  152.2809 N   0  3  2  0  0  0  0  0  0  0  0  0
  146.5979  133.4845  151.9534 C   0  0  0  0  0  0  0  0  0  0  0  0
  145.9612  133.5666  150.5586 C   0  0  0  0  0  0  0  0  0  0  0  0
  144.7902  132.5922  150.4417 C   0  0  0  0  0  0  0  0  0  0  0  0
  145.2736  131.1802  150.7783 C   0  0  0  0  0  0  0  0  0  0  0  0
  145.9330  131.1131  152.1736 C   0  0  1  0  0  0  0  0  0  0  0  0
  146.3687  129.6577  152.4432 C   0  0  0  0  0  0  0  0  0  0  0  0
  153.6941  130.8082  155.3332 N   0  0  0  0  0  0  0  0  0  0  0  0
  156.5476  129.4165  154.2884 H   0  0  0  0  0  0  0  0  0  0  0  0
  156.4163  130.6217  155.5643 H   0  0  0  0  0  0  0  0  0  0  0  0
  156.0816  131.0676  153.8920 H   0  0  0  0  0  0  0  0  0  0  0  0
  154.3053  127.7840  154.1072 H   0  0  0  0  0  0  0  0  0  0  0  0
  151.7002  126.9861  154.4541 H   0  0  0  0  0  0  0  0  0  0  0  0
  150.6339  128.3619  154.1780 H   0  0  0  0  0  0  0  0  0  0  0  0
  150.9718  127.8204  155.8249 H   0  0  0  0  0  0  0  0  0  0  0  0
  150.8991  130.3015  156.7146 H   0  0  0  0  0  0  0  0  0  0  0  0
  151.6763  131.8299  156.3612 H   0  0  0  0  0  0  0  0  0  0  0  0
  150.4657  133.1612  155.1852 H   0  0  0  0  0  0  0  0  0  0  0  0
  148.7811  133.9785  153.9074 H   0  0  0  0  0  0  0  0  0  0  0  0
  149.5150  132.9899  152.6623 H   0  0  0  0  0  0  0  0  0  0  0  0
  148.1415  131.0332  153.7687 H   0  0  0  0  0  0  0  0  0  0  0  0
  147.0937  132.2841  154.3900 H   0  0  0  0  0  0  0  0  0  0  0  0
  145.8876  133.8215  152.7102 H   0  0  0  0  0  0  0  0  0  0  0  0
  147.4296  134.1856  151.9680 H   0  0  0  0  0  0  0  0  0  0  0  0
  145.6193  134.5835  150.3639 H   0  0  0  0  0  0  0  0  0  0  0  0
  146.7094  133.3400  149.7975 H   0  0  0  0  0  0  0  0  0  0  0  0
  143.9900  132.8859  151.1224 H   0  0  0  0  0  0  0  0  0  0  0  0
  144.3736  132.6197  149.4344 H   0  0  0  0  0  0  0  0  0  0  0  0
  144.4284  130.4927  150.7289 H   0  0  0  0  0  0  0  0  0  0  0  0
  145.9830  130.8485  150.0183 H   0  0  0  0  0  0  0  0  0  0  0  0
  145.1803  131.3804  152.9174 H   0  0  0  0  0  0  0  0  0  0  0  0
  145.5691  128.9595  152.1937 H   0  0  0  0  0  0  0  0  0  0  0  0
  146.6017  129.4816  153.4927 H   0  0  0  0  0  0  0  0  0  0  0  0
  147.2395  129.3847  151.8462 H   0  0  0  0  0  0  0  0  0  0  0  0
  147.7260  131.8450  151.5695 H   0  0  0  0  0  0  0  0  0  0  0  0
  1  2  1  0  0  0  0
  1 21  1  0  0  0  0
  1 22  1  0  0  0  0
  1 23  1  0  0  0  0
  2 20  2  0  0  0  0
  2  3  1  0  0  0  0
  3  4  2  0  0  0  0
  3 24  1  0  0  0  0
  4  5  1  0  0  0  0
  4  6  1  0  0  0  0
  5 25  1  0  0  0  0
  5 26  1  0  0  0  0
  5 27  1  0  0  0  0
  6  7  1  0  0  0  0
  6 20  1  0  0  0  0
  7  8  1  0  0  0  0
  7 28  1  0  0  0  0
  7 29  1  0  0  0  0
  8  9  2  0  0  0  0
  8 10  1  0  0  0  0
 10 11  1  0  0  0  0
 10 30  1  0  0  0  0
 11 12  1  0  0  0  0
 11 31  1  0  0  0  0
 11 32  1  0  0  0  0
 12 13  1  0  0  0  0
 12 33  1  0  0  0  0
 12 34  1  0  0  0  0
 13 18  1  0  0  0  0
 13 14  1  0  0  0  0
 13 47  1  0  0  0  0
 14 15  1  0  0  0  0
 14 35  1  0  0  0  0
 14 36  1  0  0  0  0
 15 16  1  0  0  0  0
 15 37  1  0  0  0  0
 15 38  1  0  0  0  0
 16 17  1  0  0  0  0
 16 39  1  0  0  0  0
 16 40  1  0  0  0  0
 17 18  1  0  0  0  0
 17 41  1  0  0  0  0
 17 42  1  0  0  0  0
 18 19  1  0  0  0  0
 18 43  1  0  0  0  0
 19 44  1  0  0  0  0
 19 45  1  0  0  0  0
 19 46  1  0  0  0  0
M  CHG  1  13   1
M  END
> <s_m_source_file>
AV-unprocessed.smi

> <i_m_source_file_index>
3004

> <i_lp_mmshare_version>
43012

> <i_f3d_flags>
0

> <s_epik_input>
W0NIM11jMVtjSF1jKFtDSDNdKW4objEpW0NIMl1DKD1PKVtOSF1bQ0gyXVtDSDJdTjJbQ0gyXVtDSDJdW0NIMl1bQ0gyXVtDQEhdMltDSDNd

> <s_epik_cmdline>
J2VwaWtfcHl0aG9uJywgJy1waCcsICc3LjAnLCAnLXRuJywgJzgnLCAnLW1hJywgJzIwMCcsICctbWV0YWxfYmluZGluZycsICctaW1hZScsICc8aW5maWxlLm1hZT4nLCAnLW9tYWUnLCAnPG91dGZpbGUubWFlPic=

> <r_lp_tautomer_probability>
1

> <r_epik_Ionization_Penalty>
0.00303644

> <r_epik_Ionization_Penalty_Charging>
0.00284254

> <r_epik_Ionization_Penalty_Neutral>
0.000193908

> <r_epik_State_Penalty>
-0

> <r_epik_Charging_Adjusted_Penalty>
0.00284254

> <i_epik_Tot_Q>
1

> <i_epik_Tot_abs_Q>
1

> <r_epik_Metal_State_Penalty>
-0

> <b_epik_Metal_Only>
0

> <s_lp_Force_Field>
OPLS_2005

> <r_lp_Energy>
17.9788

> <b_lp_Chiralities_Consistent>
1

> <s_lp_Variant>
AV-unprocessed.smi:3004-1

> <Gold.Version>
5.8.1

> <Gold.Id.Protein>
6NUR|6NUR_protein|mol2

> <Gold.PLP.Fitness>
39.2649

> <Gold.PLP.PLP>
-36.9386

> <Gold.PLP.part.hbond>
-1.0000

> <Gold.PLP.part.metal>
0.0000

> <Gold.PLP.part.buried>
-4.2581

> <Gold.PLP.part.nonpolar>
-32.3948

> <Gold.PLP.part.repulsive>
0.1054

> <Gold.PLP.ligand.clash>
0.0000

> <Gold.PLP.ligand.torsion>
0.3638

> <Gold.PLP.Chemscore.Hbond>
1.0000

> <Gold.PLP.Chemscore.CHOScore>
0.0000

> <Gold.PLP.Chemscore.Metal>
0.0000

> <Gold.Chemscore.Hbonds>
donor molecule, donor type, donor heavy atom, donor atom, acceptor molecule, acceptor atom, score
      L1  H    13    47       P1 10747  0.94

> <Gold.PLP.Chemscore.Internal.Correction>
0.0539

> <Gold.Rescore>
     Score         DG    S(hbond)    S(metal)    S(lipo)     H(rot)  DE(clash)    DE(int)     intcor
     12.50     -15.60       0.99        0.00      94.60       1.67       0.09       3.00       ----

> <Gold.Chemscore.Fitness>
12.5034

> <Gold.Chemscore.DG>
-15.5965

> <Gold.Chemscore.ZeroCoef>
-5.4800

> <Gold.Chemscore.Hbond>
0.9918

> <Gold.Chemscore.Metal>
0.0000

> <Gold.Chemscore.Lipo>
94.5985

> <Gold.Chemscore.Internal_Hbond>
0.0000

> <Gold.Chemscore.DEClash>
0.0892

> <Gold.Chemscore.DEInternal>
3.0039

> <Gold.Chemscore.Rot>
1.6657

> <Gold.Chemscore.Internal.Correction>
   9.000000E+99

> <Gold.Chemscore.Hbonds>
donor molecule, donor type, donor heavy atom, donor atom, acceptor molecule, acceptor atom, score
      L1  H    13    47       P1 10747  0.90

> <Gold.Chemscore.Hbond.Weighted>
-3.3125

> <Gold.Chemscore.Metal.Weighted>
-0.0000

> <Gold.Chemscore.Lipo.Weighted>
-11.0680

> <Gold.Chemscore.Internal_Hbond.Weighted>
0.0000

> <Gold.Chemscore.DEClash.Weighted>
0.0892

> <Gold.Chemscore.DEInternal.Weighted>
3.0039

> <Gold.Chemscore.Rot.Weighted>
4.2641

> <Gold.Chemscore.Internal.Correction.Weighted>
   9.000000E+99

> <Gold.Protein.RotatedTorsions>
[ 6907 6896 6895 6894 ] final   -8.67 input  -60.11 | X-H torsion
[ 7974 7965 7964 7962 ] final  116.46 input  175.53 | X-H torsion
[ 8008 7997 7996 7995 ] final  178.67 input   59.86 | X-H torsion
[ 10167 10162 10161 10158 ] final   17.49 input  -65.29 | X-H torsion
[ 10718 10713 10712 10709 ] final   94.45 input   66.30 | X-H torsion
[ 10763 10752 10751 10750 ] final   91.54 input  -60.55 | X-H torsion
[ 11005 11000 10999 10996 ] final   77.35 input  -57.11 | X-H torsion

> <Gold.Protein.ActiveResidues>
 VAL166  LYS551  ARG553  GLY616  TRP617  ASP618  TYR619  PRO620  LYS621  CYS622 
 ASP623  PHE694  ASN695  SER759  ASP760  ASP761  ALA762  ILE779  LEU786  VAL792 
 PHE793  MET794  SER795  GLU796  ALA797  LYS798  CYS799  TRP800  GLU811  SER814 

> <Gold.Protein.RotatedAtoms>
  151.4299  135.1008  159.9638 H   0  0  0  0  0  0  0  0  0  0  0  0  # atno 6907 bound_to 6896
  152.4959  133.8627  159.7269 H   0  0  0  0  0  0  0  0  0  0  0  0  # atno 6908 bound_to 6896
  150.9162  133.6878  159.2870 H   0  0  0  0  0  0  0  0  0  0  0  0  # atno 6909 bound_to 6896
  145.1793  139.3058  143.4426 H   0  0  0  0  0  0  0  0  0  0  0  0  # atno 7974 bound_to 7965
  156.0520  140.1327  157.0039 H   0  0  0  0  0  0  0  0  0  0  0  0  # atno 8008 bound_to 7997
  154.4439  140.1009  156.6461 H   0  0  0  0  0  0  0  0  0  0  0  0  # atno 8009 bound_to 7997
  155.5509  140.3463  155.4470 H   0  0  0  0  0  0  0  0  0  0  0  0  # atno 8010 bound_to 7997
  140.5722  143.9139  150.6722 H   0  0  0  0  0  0  0  0  0  0  0  0  # atno 10167 bound_to 10162
  157.6948  131.0513  150.4188 H   0  0  0  0  0  0  0  0  0  0  0  0  # atno 10718 bound_to 10713
  153.2094  135.4394  155.0361 H   0  0  0  0  0  0  0  0  0  0  0  0  # atno 10763 bound_to 10752
  154.8191  135.3329  154.7092 H   0  0  0  0  0  0  0  0  0  0  0  0  # atno 10764 bound_to 10752
  153.7531  135.6997  153.4997 H   0  0  0  0  0  0  0  0  0  0  0  0  # atno 10765 bound_to 10752
  139.9258  134.7675  156.1510 H   0  0  0  0  0  0  0  0  0  0  0  0  # atno 11005 bound_to 11000
  146.3456  140.1967  142.8589 LP  0  0  0  0  0  0  0  0  0  0  0  0  # atno 17320 bound_to 7965
  145.0152  140.8748  143.5200 LP  0  0  0  0  0  0  0  0  0  0  0  0  # atno 17321 bound_to 7965
  140.2618  143.3519  152.1316 LP  0  0  0  0  0  0  0  0  0  0  0  0  # atno 17342 bound_to 10162
  139.5123  144.6915  151.5746 LP  0  0  0  0  0  0  0  0  0  0  0  0  # atno 17343 bound_to 10162
  156.4565  130.4023  149.6603 LP  0  0  0  0  0  0  0  0  0  0  0  0  # atno 17370 bound_to 10713
  156.3733  130.7541  151.2527 LP  0  0  0  0  0  0  0  0  0  0  0  0  # atno 17371 bound_to 10713
  141.0815  133.6752  156.2346 LP  0  0  0  0  0  0  0  0  0  0  0  0  # atno 17394 bound_to 11000
  140.6340  134.5235  157.5562 LP  0  0  0  0  0  0  0  0  0  0  0  0  # atno 17395 bound_to 11000

$$$$
