AV-unprocessed.smi:658|AV-procd|sdf|3233|dock6
  -GOLD-   22720 0173D 1   1.00000     0.00000
 Structure written by MMmdl.
 38 38  0  0  0  0  0  0  0  0  2 V2000
  149.8685  143.9733  158.8533 C   0  0  0  0  0  0  0  0  0  0  0  0
  150.8185  142.8972  158.3021 C   0  0  1  0  0  0  0  0  0  0  0  0
  150.5875  142.7551  156.8457 N   0  3  0  0  0  0  0  0  0  0  0  0
  149.6869  141.6487  156.4667 C   0  0  0  0  0  0  0  0  0  0  0  0
  150.1453  140.9911  155.1601 C   0  0  0  0  0  0  0  0  0  0  0  0
  150.1837  139.4598  155.2581 C   0  0  0  0  0  0  0  0  0  0  0  0
  151.9129  138.8201  155.2180 S   0  0  0  0  0  0  0  0  0  0  0  0
  151.8441  137.6727  153.9392 N   0  0  0  0  0  0  0  0  0  0  0  0
  152.8186  139.8984  154.7936 O   0  0  0  0  0  0  0  0  0  0  0  0
  152.1615  138.0711  156.4586 O   0  0  0  0  0  0  0  0  0  0  0  0
  152.3129  143.2053  158.5765 C   0  0  1  0  0  0  0  0  0  0  0  0
  152.7151  144.6488  158.2195 C   0  0  0  0  0  0  0  0  0  0  0  0
  152.6478  142.9246  159.9688 N   0  0  0  0  0  0  0  0  0  0  0  0
  152.1549  143.5154  161.1159 C   0  0  0  0  0  0  0  0  0  0  0  0
  152.7280  142.8821  162.1810 C   0  0  0  0  0  0  0  0  0  0  0  0
  153.5612  141.8979  161.5809 C   0  0  0  0  0  0  0  0  0  0  0  0
  153.5030  141.9192  160.2590 N   0  0  0  0  0  0  0  0  0  0  0  0
  149.9178  144.0369  159.9400 H   0  0  0  0  0  0  0  0  0  0  0  0
  148.8329  143.7487  158.5959 H   0  0  0  0  0  0  0  0  0  0  0  0
  150.1047  144.9580  158.4484 H   0  0  0  0  0  0  0  0  0  0  0  0
  150.5725  141.9550  158.7955 H   0  0  0  0  0  0  0  0  0  0  0  0
  150.2154  143.6230  156.4874 H   0  0  0  0  0  0  0  0  0  0  0  0
  149.6757  140.9075  157.2673 H   0  0  0  0  0  0  0  0  0  0  0  0
  148.6709  142.0313  156.3620 H   0  0  0  0  0  0  0  0  0  0  0  0
  149.4770  141.2858  154.3501 H   0  0  0  0  0  0  0  0  0  0  0  0
  151.1365  141.3630  154.8974 H   0  0  0  0  0  0  0  0  0  0  0  0
  149.7379  139.1386  156.2000 H   0  0  0  0  0  0  0  0  0  0  0  0
  149.6225  138.9857  154.4525 H   0  0  0  0  0  0  0  0  0  0  0  0
  152.4901  137.8816  153.1781 H   0  0  0  0  0  0  0  0  0  0  0  0
  150.8917  137.4512  153.6490 H   0  0  0  0  0  0  0  0  0  0  0  0
  152.9173  142.5421  157.9541 H   0  0  0  0  0  0  0  0  0  0  0  0
  152.6405  144.8332  157.1481 H   0  0  0  0  0  0  0  0  0  0  0  0
  153.7490  144.8477  158.5040 H   0  0  0  0  0  0  0  0  0  0  0  0
  152.0848  145.3793  158.7275 H   0  0  0  0  0  0  0  0  0  0  0  0
  151.4420  144.3259  161.0814 H   0  0  0  0  0  0  0  0  0  0  0  0
  152.5726  143.0878  163.2298 H   0  0  0  0  0  0  0  0  0  0  0  0
  154.1968  141.1696  162.0630 H   0  0  0  0  0  0  0  0  0  0  0  0
  151.4831  142.5870  156.4084 H   0  0  0  0  0  0  0  0  0  0  0  0
  1  2  1  0  0  0  0
  1 18  1  0  0  0  0
  1 19  1  0  0  0  0
  1 20  1  0  0  0  0
  2  3  1  0  0  0  0
  2 11  1  0  0  0  0
  2 21  1  0  0  0  0
  3  4  1  0  0  0  0
  3 22  1  0  0  0  0
  3 38  1  0  0  0  0
  4  5  1  0  0  0  0
  4 23  1  0  0  0  0
  4 24  1  0  0  0  0
  5  6  1  0  0  0  0
  5 25  1  0  0  0  0
  5 26  1  0  0  0  0
  6  7  1  0  0  0  0
  6 27  1  0  0  0  0
  6 28  1  0  0  0  0
  7  8  1  0  0  0  0
  7  9  2  0  0  0  0
  7 10  2  0  0  0  0
  8 29  1  0  0  0  0
  8 30  1  0  0  0  0
 11 12  1  0  0  0  0
 11 13  1  0  0  0  0
 11 31  1  0  0  0  0
 12 32  1  0  0  0  0
 12 33  1  0  0  0  0
 12 34  1  0  0  0  0
 13 17  1  0  0  0  0
 13 14  1  0  0  0  0
 14 15  2  0  0  0  0
 14 35  1  0  0  0  0
 15 16  1  0  0  0  0
 15 36  1  0  0  0  0
 16 17  2  0  0  0  0
 16 37  1  0  0  0  0
M  CHG  1   3   1
M  END
> <s_m_source_file>
AV-unprocessed.smi

> <i_m_source_file_index>
658

> <i_lp_mmshare_version>
43012

> <i_f3d_flags>
0

> <s_epik_input>
bjFbY0hdW2NIXVtjSF1uMVtDQEBIXShbQ0gzXSlbQ0BIXShbQ0gzXSlbTkhdW0NIMl1bQ0gyXVtDSDJdUyg9TykoPU8pW05IMl0=

> <s_epik_cmdline>
J2VwaWtfcHl0aG9uJywgJy1waCcsICc3LjAnLCAnLXRuJywgJzgnLCAnLW1hJywgJzIwMCcsICctbWV0YWxfYmluZGluZycsICctaW1hZScsICc8aW5maWxlLm1hZT4nLCAnLW9tYWUnLCAnPG91dGZpbGUubWFlPic=

> <r_lp_tautomer_probability>
1

> <r_epik_Ionization_Penalty>
0.00535781

> <r_epik_Ionization_Penalty_Charging>
0.00511015

> <r_epik_Ionization_Penalty_Neutral>
0.000247661

> <r_epik_State_Penalty>
-0

> <r_epik_Charging_Adjusted_Penalty>
0.00511015

> <i_epik_Tot_Q>
1

> <i_epik_Tot_abs_Q>
1

> <r_epik_Metal_State_Penalty>
0.149106

> <b_epik_Metal_Only>
0

> <s_lp_Force_Field>
OPLS_2005

> <r_lp_Energy>
6.97458

> <b_lp_Chiralities_Consistent>
1

> <s_lp_Variant>
AV-unprocessed.smi:658-4

> <Gold.Version>
5.8.1

> <Gold.Id.Protein>
6NUR|6NUR_protein|mol2

> <Gold.PLP.Fitness>
51.4946

> <Gold.PLP.PLP>
-43.6586

> <Gold.PLP.part.hbond>
-4.9904

> <Gold.PLP.part.metal>
0.0000

> <Gold.PLP.part.buried>
-5.2452

> <Gold.PLP.part.nonpolar>
-34.0956

> <Gold.PLP.part.repulsive>
0.0620

> <Gold.PLP.ligand.clash>
0.0000

> <Gold.PLP.ligand.torsion>
1.8436

> <Gold.PLP.Chemscore.Hbond>
3.7556

> <Gold.PLP.Chemscore.CHOScore>
0.0000

> <Gold.PLP.Chemscore.Metal>
0.0000

> <Gold.Chemscore.Hbonds>
donor molecule, donor type, donor heavy atom, donor atom, acceptor molecule, acceptor atom, score
      L1  H     3    22       P1  8028  2.00
      P1  H  7989  7998       L1     9  0.42
      P1  H  7997  8010       L1     9  1.00
      P1  H 10752 10763       L1     8  0.12

> <Gold.PLP.Chemscore.Internal.Correction>
0.2565

> <Gold.Rescore>
     Score         DG    S(hbond)    S(metal)    S(lipo)     H(rot)  DE(clash)    DE(int)     intcor
     14.14     -15.79       2.20        0.00      93.80       3.13       0.03       1.62       ----

> <Gold.Chemscore.Fitness>
14.1389

> <Gold.Chemscore.DG>
-15.7931

> <Gold.Chemscore.ZeroCoef>
-5.4800

> <Gold.Chemscore.Hbond>
2.2019

> <Gold.Chemscore.Metal>
0.0000

> <Gold.Chemscore.Lipo>
93.8003

> <Gold.Chemscore.Internal_Hbond>
0.0000

> <Gold.Chemscore.DEClash>
0.0336

> <Gold.Chemscore.DEInternal>
1.6206

> <Gold.Chemscore.Rot>
3.1312

> <Gold.Chemscore.Internal.Correction>
   9.000000E+99

> <Gold.Chemscore.Hbonds>
donor molecule, donor type, donor heavy atom, donor atom, acceptor molecule, acceptor atom, score
      L1  H     3    22       P1  8028  0.98
      P1  H  7989  7998       L1     9  0.14
      P1  H  7997  8010       L1     9  0.79

> <Gold.Chemscore.Hbond.Weighted>
-7.3544

> <Gold.Chemscore.Metal.Weighted>
-0.0000

> <Gold.Chemscore.Lipo.Weighted>
-10.9746

> <Gold.Chemscore.Internal_Hbond.Weighted>
0.0000

> <Gold.Chemscore.DEClash.Weighted>
0.0336

> <Gold.Chemscore.DEInternal.Weighted>
1.6206

> <Gold.Chemscore.Rot.Weighted>
8.0160

> <Gold.Chemscore.Internal.Correction.Weighted>
   9.000000E+99

> <Gold.Protein.RotatedTorsions>
[ 6907 6896 6895 6894 ] final   23.73 input  -60.11 | X-H torsion
[ 7974 7965 7964 7962 ] final  140.73 input  175.53 | X-H torsion
[ 8008 7997 7996 7995 ] final   92.69 input   59.86 | X-H torsion
[ 10167 10162 10161 10158 ] final -132.00 input  -65.29 | X-H torsion
[ 10718 10713 10712 10709 ] final   -1.53 input   66.30 | X-H torsion
[ 10763 10752 10751 10750 ] final   42.87 input  -60.55 | X-H torsion
[ 11005 11000 10999 10996 ] final   35.37 input  -57.11 | X-H torsion

> <Gold.Protein.ActiveResidues>
 VAL166  LYS551  ARG553  GLY616  TRP617  ASP618  TYR619  PRO620  LYS621  CYS622 
 ASP623  PHE694  ASN695  SER759  ASP760  ASP761  ALA762  ILE779  LEU786  VAL792 
 PHE793  MET794  SER795  GLU796  ALA797  LYS798  CYS799  TRP800  GLU811  SER814 

> <Gold.Protein.RotatedAtoms>
  151.9468  135.0188  160.0539 H   0  0  0  0  0  0  0  0  0  0  0  0  # atno 6907 bound_to 6896
  152.1988  133.4821  159.5055 H   0  0  0  0  0  0  0  0  0  0  0  0  # atno 6908 bound_to 6896
  150.6950  134.1534  159.4192 H   0  0  0  0  0  0  0  0  0  0  0  0  # atno 6909 bound_to 6896
  144.9160  139.5230  143.5686 H   0  0  0  0  0  0  0  0  0  0  0  0  # atno 7974 bound_to 7965
  156.0383  140.3322  155.7215 H   0  0  0  0  0  0  0  0  0  0  0  0  # atno 8008 bound_to 7997
  155.5783  140.0634  157.2807 H   0  0  0  0  0  0  0  0  0  0  0  0  # atno 8009 bound_to 7997
  154.4382  140.1848  156.0938 H   0  0  0  0  0  0  0  0  0  0  0  0  # atno 8010 bound_to 7997
  139.9131  143.6471  152.2571 H   0  0  0  0  0  0  0  0  0  0  0  0  # atno 10167 bound_to 10162
  156.8043  130.5403  149.5717 H   0  0  0  0  0  0  0  0  0  0  0  0  # atno 10718 bound_to 10713
  152.9873  135.6119  154.3019 H   0  0  0  0  0  0  0  0  0  0  0  0  # atno 10763 bound_to 10752
  154.2739  135.2779  155.2728 H   0  0  0  0  0  0  0  0  0  0  0  0  # atno 10764 bound_to 10752
  154.5098  135.5844  153.6652 H   0  0  0  0  0  0  0  0  0  0  0  0  # atno 10765 bound_to 10752
  140.2434  134.3388  155.7917 H   0  0  0  0  0  0  0  0  0  0  0  0  # atno 11005 bound_to 11000
  146.3182  139.8003  142.8967 LP  0  0  0  0  0  0  0  0  0  0  0  0  # atno 17320 bound_to 7965
  145.3375  141.0280  143.3411 LP  0  0  0  0  0  0  0  0  0  0  0  0  # atno 17321 bound_to 7965
  139.6926  144.7645  151.1412 LP  0  0  0  0  0  0  0  0  0  0  0  0  # atno 17342 bound_to 10162
  140.7681  143.5568  150.9143 LP  0  0  0  0  0  0  0  0  0  0  0  0  # atno 17343 bound_to 10162
  156.1082  130.6021  151.0005 LP  0  0  0  0  0  0  0  0  0  0  0  0  # atno 17370 bound_to 10713
  157.6538  131.0893  150.7993 LP  0  0  0  0  0  0  0  0  0  0  0  0  # atno 17371 bound_to 10713
  141.2208  133.7312  156.8921 LP  0  0  0  0  0  0  0  0  0  0  0  0  # atno 17394 bound_to 11000
  140.1630  134.9152  157.2739 LP  0  0  0  0  0  0  0  0  0  0  0  0  # atno 17395 bound_to 11000

$$$$
