AV-unprocessed.smi:1803|AV-procd|sdf|7282|dock4
  -GOLD-   22720 8543D 1   1.00000     0.00000
 Structure written by MMmdl.
 36 38  0  0  0  0  0  0  0  0  2 V2000
  146.2295  137.9940  154.8477 O   0  0  0  0  0  0  0  0  0  0  0  0
  146.9724  137.4127  154.0591 C   0  0  0  0  0  0  0  0  0  0  0  0
  148.1718  137.9292  153.7183 N   0  0  0  0  0  0  0  0  0  0  0  0
  148.8240  139.1302  154.1235 C   0  0  0  0  0  0  0  0  0  0  0  0
  150.1515  139.2515  154.2899 N   0  0  0  0  0  0  0  0  0  0  0  0
  150.5111  140.5230  154.7149 N   0  0  0  0  0  0  0  0  0  0  0  0
  149.4418  141.3093  154.8657 C   0  0  0  0  0  0  0  0  0  0  0  0
  147.8913  140.5718  154.5025 S   0  0  0  0  0  0  0  0  0  0  0  0
  146.6512  136.2403  153.4867 N   0  0  0  0  0  0  0  0  0  0  0  0
  145.4365  135.4687  153.7370 C   0  0  1  0  0  0  0  0  0  0  0  0
  144.1557  136.2373  153.3568 C   0  0  0  0  0  0  0  0  0  0  0  0
  143.2762  135.2050  152.6442 C   0  0  0  0  0  0  0  0  0  0  0  0
  144.2575  134.3376  151.9823 N   0  3  2  0  0  0  0  0  0  0  0  0
  143.7893  133.0678  151.3908 C   0  0  0  0  0  0  0  0  0  0  0  0
  144.9589  132.4309  150.6101 C   0  0  0  0  0  0  0  0  0  0  0  0
  146.2341  132.2987  151.4734 C   0  0  0  0  0  0  0  0  0  0  0  0
  146.5985  133.6306  152.1637 C   0  0  0  0  0  0  0  0  0  0  0  0
  145.3687  134.1502  152.9311 C   0  0  1  0  0  0  0  0  0  0  0  0
  148.6543  137.4210  152.9911 H   0  0  0  0  0  0  0  0  0  0  0  0
  149.5668  142.3295  155.1974 H   0  0  0  0  0  0  0  0  0  0  0  0
  147.3193  135.8386  152.8442 H   0  0  0  0  0  0  0  0  0  0  0  0
  145.3797  135.2252  154.7999 H   0  0  0  0  0  0  0  0  0  0  0  0
  143.6596  136.6803  154.2209 H   0  0  0  0  0  0  0  0  0  0  0  0
  144.3909  137.0465  152.6634 H   0  0  0  0  0  0  0  0  0  0  0  0
  142.7000  134.6260  153.3678 H   0  0  0  0  0  0  0  0  0  0  0  0
  142.5857  135.6584  151.9327 H   0  0  0  0  0  0  0  0  0  0  0  0
  143.4330  132.3970  152.1739 H   0  0  0  0  0  0  0  0  0  0  0  0
  142.9499  133.2598  150.7216 H   0  0  0  0  0  0  0  0  0  0  0  0
  144.6640  131.4537  150.2266 H   0  0  0  0  0  0  0  0  0  0  0  0
  145.1833  133.0463  149.7378 H   0  0  0  0  0  0  0  0  0  0  0  0
  146.0745  131.5320  152.2327 H   0  0  0  0  0  0  0  0  0  0  0  0
  147.0678  131.9539  150.8608 H   0  0  0  0  0  0  0  0  0  0  0  0
  147.4371  133.4764  152.8433 H   0  0  0  0  0  0  0  0  0  0  0  0
  146.9208  134.3608  151.4198 H   0  0  0  0  0  0  0  0  0  0  0  0
  145.0661  133.3755  153.6392 H   0  0  0  0  0  0  0  0  0  0  0  0
  144.6312  134.8872  151.2219 H   0  0  0  0  0  0  0  0  0  0  0  0
  1  2  2  0  0  0  0
  2  3  1  0  0  0  0
  2  9  1  0  0  0  0
  3  4  1  0  0  0  0
  3 19  1  0  0  0  0
  4  8  1  0  0  0  0
  4  5  2  0  0  0  0
  5  6  1  0  0  0  0
  6  7  2  0  0  0  0
  7  8  1  0  0  0  0
  7 20  1  0  0  0  0
  9 10  1  0  0  0  0
  9 21  1  0  0  0  0
 10 18  1  0  0  0  0
 10 11  1  0  0  0  0
 10 22  1  0  0  0  0
 11 12  1  0  0  0  0
 11 23  1  0  0  0  0
 11 24  1  0  0  0  0
 12 13  1  0  0  0  0
 12 25  1  0  0  0  0
 12 26  1  0  0  0  0
 13 18  1  0  0  0  0
 13 14  1  0  0  0  0
 13 36  1  0  0  0  0
 14 15  1  0  0  0  0
 14 27  1  0  0  0  0
 14 28  1  0  0  0  0
 15 16  1  0  0  0  0
 15 29  1  0  0  0  0
 15 30  1  0  0  0  0
 16 17  1  0  0  0  0
 16 31  1  0  0  0  0
 16 32  1  0  0  0  0
 17 18  1  0  0  0  0
 17 33  1  0  0  0  0
 17 34  1  0  0  0  0
 18 35  1  0  0  0  0
M  CHG  1  13   1
M  END
> <s_m_source_file>
AV-unprocessed.smi

> <i_m_source_file_index>
1803

> <i_lp_mmshare_version>
43012

> <i_f3d_flags>
0

> <s_epik_input>
czFbY0hdbm5jMVtOSF1DKD1PKVtOSF1bQ0BIXShbQ0gyXVtDSDJdMilbQ0BASF0oTjIzKVtDSDJdW0NIMl1bQ0gyXVtDSDJdMw==

> <s_epik_cmdline>
J2VwaWtfcHl0aG9uJywgJy1waCcsICc3LjAnLCAnLXRuJywgJzgnLCAnLW1hJywgJzIwMCcsICctbWV0YWxfYmluZGluZycsICctaW1hZScsICc8aW5maWxlLm1hZT4nLCAnLW9tYWUnLCAnPG91dGZpbGUubWFlPic=

> <r_lp_tautomer_probability>
1

> <r_epik_Ionization_Penalty>
0.00213286

> <r_epik_Ionization_Penalty_Charging>
0.00107044

> <r_epik_Ionization_Penalty_Neutral>
0.00106242

> <r_epik_State_Penalty>
-0

> <r_epik_Charging_Adjusted_Penalty>
0.00107044

> <i_epik_Tot_Q>
1

> <i_epik_Tot_abs_Q>
1

> <r_epik_Metal_State_Penalty>
0.292783

> <b_epik_Metal_Only>
0

> <s_lp_Force_Field>
OPLS_2005

> <r_lp_Energy>
42.6804

> <b_lp_Chiralities_Consistent>
1

> <s_lp_Variant>
AV-unprocessed.smi:1803-4

> <Gold.Version>
5.8.1

> <Gold.Id.Protein>
6NUR|6NUR_protein|mol2

> <Gold.PLP.Fitness>
36.7309

> <Gold.PLP.PLP>
-25.7224

> <Gold.PLP.part.hbond>
-3.0000

> <Gold.PLP.part.metal>
0.0000

> <Gold.PLP.part.buried>
-4.5552

> <Gold.PLP.part.nonpolar>
-18.3382

> <Gold.PLP.part.repulsive>
0.3512

> <Gold.PLP.ligand.clash>
0.0000

> <Gold.PLP.ligand.torsion>
0.2323

> <Gold.PLP.Chemscore.Hbond>
2.8240

> <Gold.PLP.Chemscore.CHOScore>
1.0000

> <Gold.PLP.Chemscore.Metal>
0.0000

> <Gold.Chemscore.Hbonds>
donor molecule, donor type, donor heavy atom, donor atom, acceptor molecule, acceptor atom, score
      L1  H     3    19       P1  7948  1.00
      L1  H     9    21       P1  7948  0.88
      P1  H  7989  7998       L1     6  0.90
      L1  C     7    20       P1  8028  1.00

> <Gold.PLP.Chemscore.Internal.Correction>
0.0010

> <Gold.Rescore>
     Score         DG    S(hbond)    S(metal)    S(lipo)     H(rot)  DE(clash)    DE(int)     intcor
     14.38     -15.68       1.93        0.00      53.85       1.00       0.05       1.25       ----

> <Gold.Chemscore.Fitness>
14.3760

> <Gold.Chemscore.DG>
-15.6790

> <Gold.Chemscore.ZeroCoef>
-5.4800

> <Gold.Chemscore.Hbond>
1.9337

> <Gold.Chemscore.Metal>
0.0000

> <Gold.Chemscore.Lipo>
53.8494

> <Gold.Chemscore.Internal_Hbond>
0.0000

> <Gold.Chemscore.DEClash>
0.0515

> <Gold.Chemscore.DEInternal>
1.2515

> <Gold.Chemscore.Rot>
1.0000

> <Gold.Chemscore.Internal.Correction>
   9.000000E+99

> <Gold.Chemscore.Hbonds>
donor molecule, donor type, donor heavy atom, donor atom, acceptor molecule, acceptor atom, score
      L1  H     3    19       P1  7948  0.99
      L1  H     9    21       P1  7948  0.86
      P1  H  7989  7998       L1     6  0.16

> <Gold.Chemscore.Hbond.Weighted>
-6.4586

> <Gold.Chemscore.Metal.Weighted>
-0.0000

> <Gold.Chemscore.Lipo.Weighted>
-6.3004

> <Gold.Chemscore.Internal_Hbond.Weighted>
0.0000

> <Gold.Chemscore.DEClash.Weighted>
0.0515

> <Gold.Chemscore.DEInternal.Weighted>
1.2515

> <Gold.Chemscore.Rot.Weighted>
2.5600

> <Gold.Chemscore.Internal.Correction.Weighted>
   9.000000E+99

> <Gold.Protein.RotatedTorsions>
[ 6907 6896 6895 6894 ] final   53.83 input  -60.11 | X-H torsion
[ 7974 7965 7964 7962 ] final  -76.87 input  175.53 | X-H torsion
[ 8008 7997 7996 7995 ] final -139.59 input   59.86 | X-H torsion
[ 10167 10162 10161 10158 ] final  -41.37 input  -65.29 | X-H torsion
[ 10718 10713 10712 10709 ] final -144.94 input   66.30 | X-H torsion
[ 10763 10752 10751 10750 ] final   31.48 input  -60.55 | X-H torsion
[ 11005 11000 10999 10996 ] final   56.81 input  -57.11 | X-H torsion

> <Gold.Protein.ActiveResidues>
 VAL166  LYS551  ARG553  GLY616  TRP617  ASP618  TYR619  PRO620  LYS621  CYS622 
 ASP623  PHE694  ASN695  SER759  ASP760  ASP761  ALA762  ILE779  LEU786  VAL792 
 PHE793  MET794  SER795  GLU796  ALA797  LYS798  CYS799  TRP800  GLU811  SER814 

> <Gold.Protein.RotatedAtoms>
  152.3377  134.7175  160.0272 H   0  0  0  0  0  0  0  0  0  0  0  0  # atno 6907 bound_to 6896
  151.7571  133.3326  159.3415 H   0  0  0  0  0  0  0  0  0  0  0  0  # atno 6908 bound_to 6896
  150.7461  134.6072  159.6112 H   0  0  0  0  0  0  0  0  0  0  0  0  # atno 6909 bound_to 6896
  145.6071  140.9395  143.1209 H   0  0  0  0  0  0  0  0  0  0  0  0  # atno 7974 bound_to 7965
  155.4473  140.0536  157.3004 H   0  0  0  0  0  0  0  0  0  0  0  0  # atno 8008 bound_to 7997
  154.4792  140.2074  155.9760 H   0  0  0  0  0  0  0  0  0  0  0  0  # atno 8009 bound_to 7997
  156.1179  140.3193  155.8171 H   0  0  0  0  0  0  0  0  0  0  0  0  # atno 8010 bound_to 7997
  140.7005  143.3098  151.3057 H   0  0  0  0  0  0  0  0  0  0  0  0  # atno 10167 bound_to 10162
  156.3763  130.7814  151.2001 H   0  0  0  0  0  0  0  0  0  0  0  0  # atno 10718 bound_to 10713
  153.0313  135.6438  154.1206 H   0  0  0  0  0  0  0  0  0  0  0  0  # atno 10763 bound_to 10752
  154.0928  135.2865  155.3269 H   0  0  0  0  0  0  0  0  0  0  0  0  # atno 10764 bound_to 10752
  154.6453  135.5445  153.7901 H   0  0  0  0  0  0  0  0  0  0  0  0  # atno 10765 bound_to 10752
  140.0500  134.5750  155.9275 H   0  0  0  0  0  0  0  0  0  0  0  0  # atno 11005 bound_to 11000
  144.7285  139.7799  143.7356 LP  0  0  0  0  0  0  0  0  0  0  0  0  # atno 17320 bound_to 7965
  146.1532  139.4622  143.0035 LP  0  0  0  0  0  0  0  0  0  0  0  0  # atno 17321 bound_to 7965
  139.6517  144.0350  152.2631 LP  0  0  0  0  0  0  0  0  0  0  0  0  # atno 17342 bound_to 10162
  139.9888  144.6376  150.7833 LP  0  0  0  0  0  0  0  0  0  0  0  0  # atno 17343 bound_to 10162
  157.7488  131.0357  150.4376 LP  0  0  0  0  0  0  0  0  0  0  0  0  # atno 17370 bound_to 10713
  156.4612  130.4032  149.6575 LP  0  0  0  0  0  0  0  0  0  0  0  0  # atno 17371 bound_to 10713
  141.1926  133.6575  156.5508 LP  0  0  0  0  0  0  0  0  0  0  0  0  # atno 17394 bound_to 11000
  140.3932  134.7421  157.4734 LP  0  0  0  0  0  0  0  0  0  0  0  0  # atno 17395 bound_to 11000

$$$$
