#       Name:                AV-unprocessed.smi:2053
#       Creating user name   scv26
#       Creation time:       Fri Mar 27 10:59:40 2020


#       File generated by GOLD software.
#

@<TRIPOS>MOLECULE
AV-unprocessed.smi:2053
    51    52     1
SMALL
NO_CHARGES


@<TRIPOS>ATOM
      1 ****        -8.4411   1.0851  -0.0059 C.3            1 S1                 0.0000
      2 ****        -7.0319   1.2292   0.0230 O.3            1 S1                 0.0000
      3 ****        -6.3621  -0.0120   0.1675 C.3            1 S1                 0.0000
      4 ****        -4.8506   0.2330   0.1757 C.3            1 S1                 0.0000
      5 ****        -4.1857  -1.0190   0.3156 O.3            1 S1                 0.0000
      6 ****        -2.8061  -1.0333   0.3408 C.ar           1 S1                 0.0000
      7 ****        -2.1481  -2.2718   0.4753 C.ar           1 S1                 0.0000
      8 ****        -0.7409  -2.2923   0.5019 C.ar           1 S1                 0.0000
      9 ****        -0.0327  -1.0778   0.4037 C.ar           1 S1                 0.0000
     10 ****         1.3870  -1.1315   0.4108 N.am           1 S1                 0.0000
     11 ****         2.2645  -0.1510   0.6921 C.2            1 S1                 0.0000
     12 ****         1.9485   0.9854   1.0450 O.2            1 S1                 0.0000
     13 ****         3.7486  -0.5272   0.5508 C.3            1 S1                 0.0000
     14 ****         4.5885  -0.0650   1.7614 C.3            1 S1                 0.0000
     15 ****         5.9485   0.3073   1.1769 C.3            1 S1                 0.0000
     16 ****         5.6186   0.8219  -0.2211 C.3            1 S1                 0.0000
     17 ****         4.4379   0.0570  -0.6143 N.pl3          1 S1                 0.0000
     18 ****         3.7966   0.1078  -2.2262 S.o2           1 S1                 0.0000
     19 ****         2.8468   1.6841  -2.2579 C.3            1 S1                 0.0000
     20 ****         4.9353   0.2467  -3.1467 O.2            1 S1                 0.0000
     21 ****         2.8578  -1.0138  -2.3816 O.2            1 S1                 0.0000
     22 ****        -0.7851   0.1131   0.2573 C.ar           1 S1                 0.0000
     23 ****        -2.1346   0.1394   0.2302 N.ar           1 S1                 0.0000
     24 ****        -8.9073   2.0645  -0.1136 H              1 S1                 0.0000
     25 ****        -8.8108   0.6358   0.9168 H              1 S1                 0.0000
     26 ****        -8.7574   0.4675  -0.8476 H              1 S1                 0.0000
     27 ****        -6.6667  -0.4964   1.0967 H              1 S1                 0.0000
     28 ****        -6.6264  -0.6781  -0.6553 H              1 S1                 0.0000
     29 ****        -4.5537   0.7190  -0.7553 H              1 S1                 0.0000
     30 ****        -4.5899   0.8960   1.0025 H              1 S1                 0.0000
     31 ****        -2.7124  -3.1893   0.5545 H              1 S1                 0.0000
     32 ****        -0.2150  -3.2309   0.6000 H              1 S1                 0.0000
     33 ****         1.7872  -2.0369   0.2113 H              1 S1                 0.0000
     34 ****         3.8348  -1.6114   0.4613 H              1 S1                 0.0000
     35 ****         4.1626   0.8131   2.2488 H              1 S1                 0.0000
     36 ****         4.6767  -0.8436   2.5196 H              1 S1                 0.0000
     37 ****         6.4837   1.0397   1.7818 H              1 S1                 0.0000
     38 ****         6.5714  -0.5851   1.1012 H              1 S1                 0.0000
     39 ****         5.3670   1.8827  -0.2018 H              1 S1                 0.0000
     40 ****         6.4403   0.6687  -0.9210 H              1 S1                 0.0000
     41 ****         2.4729   1.8567  -3.2668 H              1 S1                 0.0000
     42 ****         3.4976   2.5089  -1.9693 H              1 S1                 0.0000
     43 ****         2.0025   1.6293  -1.5729 H              1 S1                 0.0000
     44 ****        -0.3149   1.0761   0.1347 H              1 S1                 0.0000
     45 ****        -6.7855   1.8181   0.7927 LP             1 S1                 0.0000
     46 ****        -6.7356   1.6559  -0.8314 LP             1 S1                 0.0000
     47 ****        -4.4728  -1.5929  -0.4513 LP             1 S1                 0.0000
     48 ****        -4.5008  -1.4263   1.1729 LP             1 S1                 0.0000
     49 ****         0.9833   1.2295   1.1389 LP             1 S1                 0.0000
     50 ****         2.6570   1.6642   1.2377 LP             1 S1                 0.0000
     51 ****        -2.6276   1.0037   0.1309 LP             1 S1                 0.0000
@<TRIPOS>BOND
    1    1    2 1     
    2    1   24 1     
    3    1   25 1     
    4    1   26 1     
    5    2    3 1     
    6    3    4 1     
    7    3   27 1     
    8    3   28 1     
    9    4    5 1     
   10    4   29 1     
   11    4   30 1     
   12    5    6 1     
   13    6   23 ar    
   14    6    7 ar    
   15    7    8 ar    
   16    7   31 1     
   17    8    9 ar    
   18    8   32 1     
   19    9   10 1     
   20    9   22 ar    
   21   10   11 am    
   22   10   33 1     
   23   11   12 2     
   24   11   13 1     
   25   13   17 1     
   26   13   14 1     
   27   13   34 1     
   28   14   15 1     
   29   14   35 1     
   30   14   36 1     
   31   15   16 1     
   32   15   37 1     
   33   15   38 1     
   34   16   17 1     
   35   16   39 1     
   36   16   40 1     
   37   17   18 1     
   38   18   19 1     
   39   18   20 2     
   40   18   21 2     
   41   19   41 1     
   42   19   42 1     
   43   19   43 1     
   44   22   23 ar    
   45   22   44 1     
   46    2   45 1     
   47    2   46 1     
   48    5   47 1     
   49    5   48 1     
   50   12   49 1     
   51   12   50 1     
   52   23   51 1     
@<TRIPOS>SUBSTRUCTURE
      1 S1             1
@<TRIPOS>SET
LONE_PAIRS      STATIC     ATOMS    <user>   **** ""
9 45 46 47 48 49 50 20 21 51
DONOR_HYDROGENS      STATIC     ATOMS    <user>   **** ""
1 33
ATOM$BLUE        STATIC     ATOMS    COLORGROUP SYSTEM
9 45 46 47 48 49 50 20 21 51
ATOM$RED        STATIC     ATOMS    COLORGROUP SYSTEM
1 33
