AV-unprocessed.smi:2489|AV-procd|sdf|9802|dock2
  -GOLD-   2272013433D 1   1.00000     0.00000
 Structure written by MMmdl.
 33 34  0  0  0  0  0  0  0  0  1 V2000
  152.4890  143.1920  161.8633 C   0  0  0  0  0  0  0  0  0  0  0  0
  153.2142  142.7288  160.7330 O   0  0  0  0  0  0  0  0  0  0  0  0
  152.5663  142.7288  159.5191 C   0  0  0  0  0  0  0  0  0  0  0  0
  151.9754  143.9244  158.9225 C   0  0  0  0  0  0  0  0  0  0  0  0
  151.3714  143.8073  157.7305 C   0  0  0  0  0  0  0  0  0  0  0  0
  151.2916  142.5974  157.0564 N   0  0  0  0  0  0  0  0  0  0  0  0
  151.8343  141.4075  157.5737 C   0  0  0  0  0  0  0  0  0  0  0  0
  151.7910  140.2430  156.9944 N   0  0  0  0  0  0  0  0  0  0  0  0
  151.1914  140.0412  155.7543 C   0  0  0  0  0  0  0  0  0  0  0  0
  151.6949  139.6563  154.6949 O   0  0  0  0  0  0  0  0  0  0  0  0
  149.6915  140.3671  155.7872 C   0  0  1  0  0  0  0  0  0  0  0  0
  149.3025  141.4917  154.8122 C   0  0  0  0  0  0  0  0  0  0  0  0
  148.0783  140.9406  154.1099 C   0  0  0  0  0  0  0  0  0  0  0  0
  148.3664  139.4444  154.1014 C   0  0  2  0  0  0  0  0  0  0  0  0
  147.1249  138.5665  153.9138 C   0  0  0  0  0  0  0  0  0  0  0  0
  148.9482  139.2174  155.3780 O   0  0  0  0  0  0  0  0  0  0  0  0
  152.4892  141.5449  158.8673 C   0  0  0  0  0  0  0  0  0  0  0  0
  153.1262  143.1348  162.7457 H   0  0  0  0  0  0  0  0  0  0  0  0
  151.6094  142.5755  162.0542 H   0  0  0  0  0  0  0  0  0  0  0  0
  152.1851  144.2331  161.7460 H   0  0  0  0  0  0  0  0  0  0  0  0
  152.0070  144.8903  159.4034 H   0  0  0  0  0  0  0  0  0  0  0  0
  150.9088  144.6377  157.2178 H   0  0  0  0  0  0  0  0  0  0  0  0
  149.3748  140.6162  156.8016 H   0  0  0  0  0  0  0  0  0  0  0  0
  149.0928  142.4310  155.3241 H   0  0  0  0  0  0  0  0  0  0  0  0
  150.0905  141.6825  154.0815 H   0  0  0  0  0  0  0  0  0  0  0  0
  147.1856  141.1529  154.6999 H   0  0  0  0  0  0  0  0  0  0  0  0
  147.9350  141.3543  153.1112 H   0  0  0  0  0  0  0  0  0  0  0  0
  149.1088  139.2163  153.3348 H   0  0  0  0  0  0  0  0  0  0  0  0
  146.6553  138.7526  152.9478 H   0  0  0  0  0  0  0  0  0  0  0  0
  146.3841  138.7596  154.6902 H   0  0  0  0  0  0  0  0  0  0  0  0
  147.3866  137.5091  153.9593 H   0  0  0  0  0  0  0  0  0  0  0  0
  152.9406  140.6879  159.3463 H   0  0  0  0  0  0  0  0  0  0  0  0
  150.8178  142.6093  156.1643 H   0  0  0  0  0  0  0  0  0  0  0  0
  1  2  1  0  0  0  0
  1 18  1  0  0  0  0
  1 19  1  0  0  0  0
  1 20  1  0  0  0  0
  2  3  1  0  0  0  0
  3 17  2  0  0  0  0
  3  4  1  0  0  0  0
  4  5  2  0  0  0  0
  4 21  1  0  0  0  0
  5  6  1  0  0  0  0
  5 22  1  0  0  0  0
  6  7  1  0  0  0  0
  6 33  1  0  0  0  0
  7  8  2  0  0  0  0
  7 17  1  0  0  0  0
  8  9  1  0  0  0  0
  9 10  2  0  0  0  0
  9 11  1  0  0  0  0
 11 16  1  0  0  0  0
 11 12  1  0  0  0  0
 11 23  1  0  0  0  0
 12 13  1  0  0  0  0
 12 24  1  0  0  0  0
 12 25  1  0  0  0  0
 13 14  1  0  0  0  0
 13 26  1  0  0  0  0
 13 27  1  0  0  0  0
 14 15  1  0  0  0  0
 14 16  1  0  0  0  0
 14 28  1  0  0  0  0
 15 29  1  0  0  0  0
 15 30  1  0  0  0  0
 15 31  1  0  0  0  0
 17 32  1  0  0  0  0
M  END
> <s_m_source_file>
AV-unprocessed.smi

> <i_m_source_file_index>
2489

> <i_lp_mmshare_version>
43012

> <i_f3d_flags>
0

> <s_epik_input>
W0NIM11PYzFbY0hdW2NIXW5jKFtjSF0xKVtOSF1DKD1PKVtDQEBIXTJbQ0gyXVtDSDJdW0NASF0oTzIpW0NIM10=

> <s_epik_cmdline>
J2VwaWtfcHl0aG9uJywgJy1waCcsICc3LjAnLCAnLXRuJywgJzgnLCAnLW1hJywgJzIwMCcsICctbWV0YWxfYmluZGluZycsICctaW1hZScsICc8aW5maWxlLm1hZT4nLCAnLW9tYWUnLCAnPG91dGZpbGUubWFlPic=

> <r_epik_Ionization_Penalty>
0.410206

> <r_epik_Ionization_Penalty_Charging>
0.410206

> <r_epik_Ionization_Penalty_Neutral>
6.57528e-13

> <r_epik_State_Penalty>
1.30987

> <r_epik_Charging_Adjusted_Penalty>
1.72007

> <i_epik_Tot_Q>
0

> <i_epik_Tot_abs_Q>
0

> <r_epik_Metal_State_Penalty>
1.32171

> <b_epik_Metal_Only>
0

> <s_lp_Force_Field>
OPLS_2005

> <r_lp_Energy>
36.1754

> <b_lp_Chiralities_Consistent>
1

> <s_lp_Variant>
AV-unprocessed.smi:2489-8

> <Gold.Version>
5.8.1

> <Gold.Id.Protein>
6NUR|6NUR_protein|mol2

> <Gold.PLP.Fitness>
38.8505

> <Gold.PLP.PLP>
-34.0695

> <Gold.PLP.part.hbond>
-1.0000

> <Gold.PLP.part.metal>
0.0000

> <Gold.PLP.part.buried>
-4.3148

> <Gold.PLP.part.nonpolar>
-29.5192

> <Gold.PLP.part.repulsive>
0.1747

> <Gold.PLP.ligand.clash>
0.0000

> <Gold.PLP.ligand.torsion>
0.6000

> <Gold.PLP.Chemscore.Hbond>
1.0000

> <Gold.PLP.Chemscore.CHOScore>
0.9877

> <Gold.PLP.Chemscore.Metal>
0.0000

> <Gold.Chemscore.Hbonds>
donor molecule, donor type, donor heavy atom, donor atom, acceptor molecule, acceptor atom, score
      P1  H  7989  7998       L1    10  1.00
      L1  C     5    22       P1  8028  1.00

> <Gold.PLP.Chemscore.Internal.Correction>
0.0182

> <Gold.Rescore>
     Score         DG    S(hbond)    S(metal)    S(lipo)     H(rot)  DE(clash)    DE(int)     intcor
     14.90     -15.78       0.98        0.00      86.77       1.23       0.23       0.64       ----

> <Gold.Chemscore.Fitness>
14.9031

> <Gold.Chemscore.DG>
-15.7796

> <Gold.Chemscore.ZeroCoef>
-5.4800

> <Gold.Chemscore.Hbond>
0.9843

> <Gold.Chemscore.Metal>
0.0000

> <Gold.Chemscore.Lipo>
86.7670

> <Gold.Chemscore.Internal_Hbond>
0.0000

> <Gold.Chemscore.DEClash>
0.2315

> <Gold.Chemscore.DEInternal>
0.6450

> <Gold.Chemscore.Rot>
1.2264

> <Gold.Chemscore.Internal.Correction>
   9.000000E+99

> <Gold.Chemscore.Hbonds>
donor molecule, donor type, donor heavy atom, donor atom, acceptor molecule, acceptor atom, score
      P1  H  7989  7998       L1    10  0.81

> <Gold.Chemscore.Hbond.Weighted>
-3.2874

> <Gold.Chemscore.Metal.Weighted>
-0.0000

> <Gold.Chemscore.Lipo.Weighted>
-10.1517

> <Gold.Chemscore.Internal_Hbond.Weighted>
0.0000

> <Gold.Chemscore.DEClash.Weighted>
0.2315

> <Gold.Chemscore.DEInternal.Weighted>
0.6450

> <Gold.Chemscore.Rot.Weighted>
3.1396

> <Gold.Chemscore.Internal.Correction.Weighted>
   9.000000E+99

> <Gold.Protein.RotatedTorsions>
[ 6907 6896 6895 6894 ] final -114.87 input  -60.11 | X-H torsion
[ 7974 7965 7964 7962 ] final  -29.94 input  175.53 | X-H torsion
[ 8008 7997 7996 7995 ] final   71.11 input   59.86 | X-H torsion
[ 10167 10162 10161 10158 ] final  -42.08 input  -65.29 | X-H torsion
[ 10718 10713 10712 10709 ] final    1.05 input   66.30 | X-H torsion
[ 10763 10752 10751 10750 ] final  -32.54 input  -60.55 | X-H torsion
[ 11005 11000 10999 10996 ] final -133.39 input  -57.11 | X-H torsion

> <Gold.Protein.ActiveResidues>
 VAL166  LYS551  ARG553  GLY616  TRP617  ASP618  TYR619  PRO620  LYS621  CYS622 
 ASP623  PHE694  ASN695  SER759  ASP760  ASP761  ALA762  ILE779  LEU786  VAL792 
 PHE793  MET794  SER795  GLU796  ALA797  LYS798  CYS799  TRP800  GLU811  SER814 

> <Gold.Protein.RotatedAtoms>
  150.7935  133.8739  159.3266 H   0  0  0  0  0  0  0  0  0  0  0  0  # atno 6907 bound_to 6896
  151.6571  135.0992  160.0181 H   0  0  0  0  0  0  0  0  0  0  0  0  # atno 6908 bound_to 6896
  152.4013  133.6782  159.6353 H   0  0  0  0  0  0  0  0  0  0  0  0  # atno 6909 bound_to 6896
  146.1180  140.5476  142.8748 H   0  0  0  0  0  0  0  0  0  0  0  0  # atno 7974 bound_to 7965
  155.7490  140.3489  155.5141 H   0  0  0  0  0  0  0  0  0  0  0  0  # atno 8008 bound_to 7997
  155.9022  140.1036  157.1362 H   0  0  0  0  0  0  0  0  0  0  0  0  # atno 8009 bound_to 7997
  154.4045  140.1284  156.4438 H   0  0  0  0  0  0  0  0  0  0  0  0  # atno 8010 bound_to 7997
  140.6981  143.3058  151.3158 H   0  0  0  0  0  0  0  0  0  0  0  0  # atno 10167 bound_to 10162
  156.8424  130.5525  149.5676 H   0  0  0  0  0  0  0  0  0  0  0  0  # atno 10718 bound_to 10713
  153.8155  135.6879  153.4834 H   0  0  0  0  0  0  0  0  0  0  0  0  # atno 10763 bound_to 10752
  153.1602  135.4583  154.9759 H   0  0  0  0  0  0  0  0  0  0  0  0  # atno 10764 bound_to 10752
  154.7949  135.3315  154.7632 H   0  0  0  0  0  0  0  0  0  0  0  0  # atno 10765 bound_to 10752
  140.9085  134.1598  157.4407 H   0  0  0  0  0  0  0  0  0  0  0  0  # atno 11005 bound_to 11000
  144.7570  140.5332  143.6762 LP  0  0  0  0  0  0  0  0  0  0  0  0  # atno 17320 bound_to 7965
  145.5526  139.1477  143.3385 LP  0  0  0  0  0  0  0  0  0  0  0  0  # atno 17321 bound_to 7965
  139.6463  144.0445  152.2593 LP  0  0  0  0  0  0  0  0  0  0  0  0  # atno 17342 bound_to 10162
  139.9967  144.6323  150.7766 LP  0  0  0  0  0  0  0  0  0  0  0  0  # atno 17343 bound_to 10162
  156.0873  130.5868  150.9671 LP  0  0  0  0  0  0  0  0  0  0  0  0  # atno 17370 bound_to 10713
  157.6348  131.0917  150.8370 LP  0  0  0  0  0  0  0  0  0  0  0  0  # atno 17371 bound_to 10713
  139.8753  134.9926  156.5606 LP  0  0  0  0  0  0  0  0  0  0  0  0  # atno 17394 bound_to 11000
  140.8140  133.8406  155.8835 LP  0  0  0  0  0  0  0  0  0  0  0  0  # atno 17395 bound_to 11000

$$$$
