AV-unprocessed.smi:1336|AV-procd|sdf|5497|dock8
  -GOLD-   22720 5 83D 1   1.00000     0.00000
 Structure written by MMmdl.
 43 43  0  0  0  0  0  0  0  0  1 V2000
  144.7298  142.3985  155.5903 C   0  0  0  0  0  0  0  0  0  0  0  0
  145.6956  141.3346  156.1225 C   0  0  0  0  0  0  0  0  0  0  0  0
  146.6872  140.8536  155.0508 C   0  0  0  0  0  0  0  0  0  0  0  0
  147.3977  139.6534  155.4755 N   0  0  0  0  0  0  0  0  0  0  0  0
  148.7270  139.5581  155.6317 C   0  0  0  0  0  0  0  0  0  0  0  0
  149.5008  140.4924  155.4147 O   0  0  0  0  0  0  0  0  0  0  0  0
  149.2604  138.1893  156.0860 C   0  0  1  0  0  0  0  0  0  0  0  0
  150.2823  137.7040  155.0446 C   0  0  0  0  0  0  0  0  0  0  0  0
  149.9443  138.3006  157.3738 N   0  0  0  0  0  0  0  0  0  0  0  0
  151.0857  138.9748  157.5894 C   0  0  0  0  0  0  0  0  0  0  0  0
  151.6825  139.5901  156.7051 O   0  0  0  0  0  0  0  0  0  0  0  0
  151.6387  138.9445  159.0168 C   0  0  0  0  0  0  0  0  0  0  0  0
  152.2775  140.2583  159.3632 C   0  0  0  0  0  0  0  0  0  0  0  0
  153.4406  140.4502  160.0675 C   0  0  0  0  0  0  0  0  0  0  0  0
  153.8207  142.1410  160.2469 S   0  0  0  0  0  0  0  0  0  0  0  0
  152.3657  142.5351  159.3378 C   0  0  0  0  0  0  0  0  0  0  0  0
  151.9405  143.9378  159.0359 C   0  0  0  0  0  0  0  0  0  0  0  0
  151.7220  144.7614  160.3136 C   0  0  0  0  0  0  0  0  0  0  0  0
  150.7412  143.9845  158.0782 C   0  0  0  0  0  0  0  0  0  0  0  0
  151.6825  141.4544  158.9494 N   0  0  0  0  0  0  0  0  0  0  0  0
  144.0418  142.7241  156.3707 H   0  0  0  0  0  0  0  0  0  0  0  0
  144.1350  142.0108  154.7627 H   0  0  0  0  0  0  0  0  0  0  0  0
  145.2687  143.2767  155.2338 H   0  0  0  0  0  0  0  0  0  0  0  0
  146.2436  141.7405  156.9736 H   0  0  0  0  0  0  0  0  0  0  0  0
  145.1195  140.4897  156.5014 H   0  0  0  0  0  0  0  0  0  0  0  0
  146.1720  140.6696  154.1065 H   0  0  0  0  0  0  0  0  0  0  0  0
  147.4266  141.6303  154.8537 H   0  0  0  0  0  0  0  0  0  0  0  0
  146.8371  138.8374  155.6742 H   0  0  0  0  0  0  0  0  0  0  0  0
  148.4431  137.4689  156.1601 H   0  0  0  0  0  0  0  0  0  0  0  0
  149.8228  137.5909  154.0618 H   0  0  0  0  0  0  0  0  0  0  0  0
  150.6912  136.7324  155.3239 H   0  0  0  0  0  0  0  0  0  0  0  0
  151.1196  138.3963  154.9425 H   0  0  0  0  0  0  0  0  0  0  0  0
  149.5260  137.8143  158.1535 H   0  0  0  0  0  0  0  0  0  0  0  0
  150.8414  138.7130  159.7245 H   0  0  0  0  0  0  0  0  0  0  0  0
  152.3604  138.1302  159.0912 H   0  0  0  0  0  0  0  0  0  0  0  0
  154.0924  139.7020  160.4934 H   0  0  0  0  0  0  0  0  0  0  0  0
  152.7734  144.4040  158.5084 H   0  0  0  0  0  0  0  0  0  0  0  0
  152.6209  144.7735  160.9308 H   0  0  0  0  0  0  0  0  0  0  0  0
  150.9102  144.3514  160.9153 H   0  0  0  0  0  0  0  0  0  0  0  0
  151.4703  145.7951  160.0762 H   0  0  0  0  0  0  0  0  0  0  0  0
  150.9624  143.4627  157.1466 H   0  0  0  0  0  0  0  0  0  0  0  0
  150.4792  145.0126  157.8268 H   0  0  0  0  0  0  0  0  0  0  0  0
  149.8614  143.5173  158.5216 H   0  0  0  0  0  0  0  0  0  0  0  0
  1  2  1  0  0  0  0
  1 21  1  0  0  0  0
  1 22  1  0  0  0  0
  1 23  1  0  0  0  0
  2  3  1  0  0  0  0
  2 24  1  0  0  0  0
  2 25  1  0  0  0  0
  3  4  1  0  0  0  0
  3 26  1  0  0  0  0
  3 27  1  0  0  0  0
  4  5  1  0  0  0  0
  4 28  1  0  0  0  0
  5  6  2  0  0  0  0
  5  7  1  0  0  0  0
  7  8  1  0  0  0  0
  7  9  1  0  0  0  0
  7 29  1  0  0  0  0
  8 30  1  0  0  0  0
  8 31  1  0  0  0  0
  8 32  1  0  0  0  0
  9 10  1  0  0  0  0
  9 33  1  0  0  0  0
 10 11  2  0  0  0  0
 10 12  1  0  0  0  0
 12 13  1  0  0  0  0
 12 34  1  0  0  0  0
 12 35  1  0  0  0  0
 13 20  1  0  0  0  0
 13 14  2  0  0  0  0
 14 15  1  0  0  0  0
 14 36  1  0  0  0  0
 15 16  1  0  0  0  0
 16 17  1  0  0  0  0
 16 20  2  0  0  0  0
 17 18  1  0  0  0  0
 17 19  1  0  0  0  0
 17 37  1  0  0  0  0
 18 38  1  0  0  0  0
 18 39  1  0  0  0  0
 18 40  1  0  0  0  0
 19 41  1  0  0  0  0
 19 42  1  0  0  0  0
 19 43  1  0  0  0  0
M  END
> <s_m_source_file>
AV-unprocessed.smi

> <i_m_source_file_index>
1336

> <i_lp_mmshare_version>
43012

> <i_f3d_flags>
0

> <s_epik_input>
W0NIM11bQ0gyXVtDSDJdW05IXUMoPU8pW0NASF0oW0NIM10pW05IXUMoPU8pW0NIMl1jMVtjSF1zYyhuMSlbQ0hdKFtDSDNdKVtDSDNd

> <s_epik_cmdline>
J2VwaWtfcHl0aG9uJywgJy1waCcsICc3LjAnLCAnLXRuJywgJzgnLCAnLW1hJywgJzIwMCcsICctbWV0YWxfYmluZGluZycsICctaW1hZScsICc8aW5maWxlLm1hZT4nLCAnLW9tYWUnLCAnPG91dGZpbGUubWFlPic=

> <r_lp_tautomer_probability>
1

> <r_epik_Ionization_Penalty>
3.10785e-05

> <r_epik_Ionization_Penalty_Charging>
0

> <r_epik_Ionization_Penalty_Neutral>
3.10785e-05

> <r_epik_State_Penalty>
-0

> <r_epik_Charging_Adjusted_Penalty>
0

> <i_epik_Tot_Q>
0

> <i_epik_Tot_abs_Q>
0

> <r_epik_Metal_State_Penalty>
-0

> <b_epik_Metal_Only>
0

> <s_lp_Force_Field>
OPLS_2005

> <r_lp_Energy>
-5.85781

> <b_lp_Chiralities_Consistent>
1

> <s_lp_Variant>
AV-unprocessed.smi:1336-2

> <Gold.Version>
5.8.1

> <Gold.Id.Protein>
6NUR|6NUR_protein|mol2

> <Gold.PLP.Fitness>
49.9073

> <Gold.PLP.PLP>
-45.3941

> <Gold.PLP.part.hbond>
-1.8063

> <Gold.PLP.part.metal>
0.0000

> <Gold.PLP.part.buried>
-5.0432

> <Gold.PLP.part.nonpolar>
-38.5789

> <Gold.PLP.part.repulsive>
0.1876

> <Gold.PLP.ligand.clash>
0.0000

> <Gold.PLP.ligand.torsion>
0.7808

> <Gold.PLP.Chemscore.Hbond>
1.9516

> <Gold.PLP.Chemscore.CHOScore>
0.0000

> <Gold.PLP.Chemscore.Metal>
0.0000

> <Gold.PLP.Chemscore.Internal.Correction>
0.2199

> <Gold.Rescore>
     Score         DG    S(hbond)    S(metal)    S(lipo)     H(rot)  DE(clash)    DE(int)     intcor
     16.00     -19.40       1.96        0.00     107.57       2.04       0.01       3.40       ----

> <Gold.Chemscore.Fitness>
16.0002

> <Gold.Chemscore.DG>
-19.4015

> <Gold.Chemscore.ZeroCoef>
-5.4800

> <Gold.Chemscore.Hbond>
1.9600

> <Gold.Chemscore.Metal>
0.0000

> <Gold.Chemscore.Lipo>
107.5696

> <Gold.Chemscore.Internal_Hbond>
0.0000

> <Gold.Chemscore.DEClash>
0.0060

> <Gold.Chemscore.DEInternal>
3.3953

> <Gold.Chemscore.Rot>
2.0353

> <Gold.Chemscore.Internal.Correction>
   9.000000E+99

> <Gold.Chemscore.Hbond.Weighted>
-6.5463

> <Gold.Chemscore.Metal.Weighted>
-0.0000

> <Gold.Chemscore.Lipo.Weighted>
-12.5856

> <Gold.Chemscore.Internal_Hbond.Weighted>
0.0000

> <Gold.Chemscore.DEClash.Weighted>
0.0060

> <Gold.Chemscore.DEInternal.Weighted>
3.3953

> <Gold.Chemscore.Rot.Weighted>
5.2104

> <Gold.Chemscore.Internal.Correction.Weighted>
   9.000000E+99

> <Gold.Protein.RotatedTorsions>
[ 6907 6896 6895 6894 ] final  149.60 input  -60.11 | X-H torsion
[ 7974 7965 7964 7962 ] final  -33.71 input  175.53 | X-H torsion
[ 8008 7997 7996 7995 ] final   85.61 input   59.86 | X-H torsion
[ 10167 10162 10161 10158 ] final   60.39 input  -65.29 | X-H torsion
[ 10718 10713 10712 10709 ] final  -99.59 input   66.30 | X-H torsion
[ 10763 10752 10751 10750 ] final   74.30 input  -60.55 | X-H torsion
[ 11005 11000 10999 10996 ] final -174.06 input  -57.11 | X-H torsion

> <Gold.Protein.ActiveResidues>
 VAL166  LYS551  ARG553  GLY616  TRP617  ASP618  TYR619  PRO620  LYS621  CYS622 
 ASP623  PHE694  ASN695  SER759  ASP760  ASP761  ALA762  ILE779  LEU786  VAL792 
 PHE793  MET794  SER795  GLU796  ALA797  LYS798  CYS799  TRP800  GLU811  SER814 

> <Gold.Protein.RotatedAtoms>
  152.1258  133.4379  159.4697 H   0  0  0  0  0  0  0  0  0  0  0  0  # atno 6907 bound_to 6896
  150.6875  134.2479  159.4508 H   0  0  0  0  0  0  0  0  0  0  0  0  # atno 6908 bound_to 6896
  152.0360  134.9739  160.0624 H   0  0  0  0  0  0  0  0  0  0  0  0  # atno 6909 bound_to 6896
  146.0888  140.5950  142.8874 H   0  0  0  0  0  0  0  0  0  0  0  0  # atno 7974 bound_to 7965
  155.9522  140.3400  155.6418 H   0  0  0  0  0  0  0  0  0  0  0  0  # atno 8008 bound_to 7997
  155.6905  140.0748  157.2468 H   0  0  0  0  0  0  0  0  0  0  0  0  # atno 8009 bound_to 7997
  154.4124  140.1658  156.2069 H   0  0  0  0  0  0  0  0  0  0  0  0  # atno 8010 bound_to 7997
  140.1661  144.4323  150.6684 H   0  0  0  0  0  0  0  0  0  0  0  0  # atno 10167 bound_to 10162
  156.0138  130.5289  150.6692 H   0  0  0  0  0  0  0  0  0  0  0  0  # atno 10718 bound_to 10713
  153.0577  135.5031  154.8021 H   0  0  0  0  0  0  0  0  0  0  0  0  # atno 10763 bound_to 10752
  154.6834  135.2972  154.9584 H   0  0  0  0  0  0  0  0  0  0  0  0  # atno 10764 bound_to 10752
  154.0362  135.6723  153.4838 H   0  0  0  0  0  0  0  0  0  0  0  0  # atno 10765 bound_to 10752
  140.4787  134.6096  157.4911 H   0  0  0  0  0  0  0  0  0  0  0  0  # atno 11005 bound_to 11000
  144.7345  140.4768  143.6914 LP  0  0  0  0  0  0  0  0  0  0  0  0  # atno 17320 bound_to 7965
  145.6078  139.1510  143.3092 LP  0  0  0  0  0  0  0  0  0  0  0  0  # atno 17321 bound_to 7965
  140.6612  143.2253  151.5851 LP  0  0  0  0  0  0  0  0  0  0  0  0  # atno 17342 bound_to 10162
  139.5359  144.2783  152.1249 LP  0  0  0  0  0  0  0  0  0  0  0  0  # atno 17343 bound_to 10162
  157.4418  131.0862  151.0936 LP  0  0  0  0  0  0  0  0  0  0  0  0  # atno 17370 bound_to 10713
  157.1478  130.6171  149.5573 LP  0  0  0  0  0  0  0  0  0  0  0  0  # atno 17371 bound_to 10713
  139.9840  134.7092  155.9808 LP  0  0  0  0  0  0  0  0  0  0  0  0  # atno 17394 bound_to 11000
  141.1541  133.6545  156.4107 LP  0  0  0  0  0  0  0  0  0  0  0  0  # atno 17395 bound_to 11000

$$$$
