AV-unprocessed.smi:3068|AV-procd|sdf|11700|dock3
  -GOLD-   2272017103D 1   1.00000     0.00000
 Structure written by MMmdl.
 40 42  0  0  0  0  0  0  0  0  2 V2000
  151.7179  137.3530  154.2308 N   0  0  0  0  0  0  0  0  0  0  0  0
  150.8413  138.1056  154.2954 C   0  0  0  0  0  0  0  0  0  0  0  0
  149.7382  139.0546  154.3775 C   0  0  0  0  0  0  0  0  0  0  0  0
  150.0628  140.3420  154.6391 N   0  0  0  0  0  0  0  0  0  0  0  0
  149.0511  141.2322  154.7155 C   0  0  0  0  0  0  0  0  0  0  0  0
  147.7107  140.8422  154.5306 C   0  0  0  0  0  0  0  0  0  0  0  0
  147.3773  139.5606  154.2682 N   0  0  0  0  0  0  0  0  0  0  0  0
  148.3848  138.6551  154.1886 C   0  0  0  0  0  0  0  0  0  0  0  0
  148.0533  137.3147  153.9159 N   0  0  0  0  0  0  0  0  0  0  0  0
  146.8148  136.7118  154.3948 C   0  0  0  0  0  0  0  0  0  0  0  0
  146.4077  135.4745  153.5767 C   0  0  2  0  0  0  0  0  0  0  0  0
  145.0983  134.8529  154.1099 C   0  0  0  0  0  0  0  0  0  0  0  0
  144.7672  133.5904  153.4056 N   0  3  1  0  0  0  0  0  0  0  0  0
  144.1881  133.8023  152.0508 C   0  0  0  0  0  0  0  0  0  0  0  0
  143.7998  132.4694  151.3950 C   0  0  0  0  0  0  0  0  0  0  0  0
  145.0096  131.5315  151.3193 C   0  0  0  0  0  0  0  0  0  0  0  0
  145.5936  131.3208  152.7227 C   0  0  0  0  0  0  0  0  0  0  0  0
  145.9227  132.6510  153.4333 C   0  0  1  0  0  0  0  0  0  0  0  0
  147.1997  133.3414  152.9095 C   0  0  0  0  0  0  0  0  0  0  0  0
  147.4503  134.5091  153.6830 O   0  0  0  0  0  0  0  0  0  0  0  0
  149.3123  142.2591  154.9246 H   0  0  0  0  0  0  0  0  0  0  0  0
  146.9048  141.5585  154.5931 H   0  0  0  0  0  0  0  0  0  0  0  0
  148.6348  136.7792  153.2864 H   0  0  0  0  0  0  0  0  0  0  0  0
  146.9467  136.4370  155.4416 H   0  0  0  0  0  0  0  0  0  0  0  0
  146.0189  137.4572  154.3774 H   0  0  0  0  0  0  0  0  0  0  0  0
  146.2812  135.7595  152.5316 H   0  0  0  0  0  0  0  0  0  0  0  0
  145.2058  134.6318  155.1728 H   0  0  0  0  0  0  0  0  0  0  0  0
  144.2709  135.5584  154.0241 H   0  0  0  0  0  0  0  0  0  0  0  0
  143.3046  134.4362  152.1326 H   0  0  0  0  0  0  0  0  0  0  0  0
  144.8931  134.3309  151.4091 H   0  0  0  0  0  0  0  0  0  0  0  0
  143.0002  131.9959  151.9664 H   0  0  0  0  0  0  0  0  0  0  0  0
  143.4027  132.6472  150.3952 H   0  0  0  0  0  0  0  0  0  0  0  0
  144.7151  130.5737  150.8890 H   0  0  0  0  0  0  0  0  0  0  0  0
  145.7659  131.9511  150.6552 H   0  0  0  0  0  0  0  0  0  0  0  0
  144.8691  130.7692  153.3235 H   0  0  0  0  0  0  0  0  0  0  0  0
  146.4820  130.6904  152.6695 H   0  0  0  0  0  0  0  0  0  0  0  0
  146.1051  132.4097  154.4818 H   0  0  0  0  0  0  0  0  0  0  0  0
  148.0551  132.6728  153.0081 H   0  0  0  0  0  0  0  0  0  0  0  0
  147.1223  133.5992  151.8527 H   0  0  0  0  0  0  0  0  0  0  0  0
  144.0331  133.1504  153.9418 H   0  0  0  0  0  0  0  0  0  0  0  0
  1  2  3  0  0  0  0
  2  3  1  0  0  0  0
  3  8  1  0  0  0  0
  3  4  2  0  0  0  0
  4  5  1  0  0  0  0
  5  6  2  0  0  0  0
  5 21  1  0  0  0  0
  6  7  1  0  0  0  0
  6 22  1  0  0  0  0
  7  8  2  0  0  0  0
  8  9  1  0  0  0  0
  9 10  1  0  0  0  0
  9 23  1  0  0  0  0
 10 11  1  0  0  0  0
 10 24  1  0  0  0  0
 10 25  1  0  0  0  0
 11 20  1  0  0  0  0
 11 12  1  0  0  0  0
 11 26  1  0  0  0  0
 12 13  1  0  0  0  0
 12 27  1  0  0  0  0
 12 28  1  0  0  0  0
 13 18  1  0  0  0  0
 13 14  1  0  0  0  0
 13 40  1  0  0  0  0
 14 15  1  0  0  0  0
 14 29  1  0  0  0  0
 14 30  1  0  0  0  0
 15 16  1  0  0  0  0
 15 31  1  0  0  0  0
 15 32  1  0  0  0  0
 16 17  1  0  0  0  0
 16 33  1  0  0  0  0
 16 34  1  0  0  0  0
 17 18  1  0  0  0  0
 17 35  1  0  0  0  0
 17 36  1  0  0  0  0
 18 19  1  0  0  0  0
 18 37  1  0  0  0  0
 19 20  1  0  0  0  0
 19 38  1  0  0  0  0
 19 39  1  0  0  0  0
M  CHG  1  13   1
M  END
> <s_m_source_file>
AV-unprocessed.smi

> <i_m_source_file_index>
3068

> <i_lp_mmshare_version>
43012

> <i_f3d_flags>
0

> <s_epik_input>
TiNDYzFuW2NIXVtjSF1uYzFbTkhdW0NIMl1bQ0BIXShbQ0gyXTIpT1tDSDJdW0NAQEhdKE4yMylbQ0gyXVtDSDJdW0NIMl1bQ0gyXTM=

> <s_epik_cmdline>
J2VwaWtfcHl0aG9uJywgJy1waCcsICc3LjAnLCAnLXRuJywgJzgnLCAnLW1hJywgJzIwMCcsICctbWV0YWxfYmluZGluZycsICctaW1hZScsICc8aW5maWxlLm1hZT4nLCAnLW9tYWUnLCAnPG91dGZpbGUubWFlPic=

> <r_epik_Ionization_Penalty>
0.0804321

> <r_epik_Ionization_Penalty_Charging>
0.0803403

> <r_epik_Ionization_Penalty_Neutral>
9.17277e-05

> <r_epik_State_Penalty>
0.0711481

> <r_epik_Charging_Adjusted_Penalty>
0.151488

> <i_epik_Tot_Q>
1

> <i_epik_Tot_abs_Q>
1

> <r_epik_Metal_State_Penalty>
0.0711481

> <b_epik_Metal_Only>
0

> <s_lp_Force_Field>
OPLS_2005

> <r_lp_Energy>
39.785

> <b_lp_Chiralities_Consistent>
1

> <s_lp_Variant>
AV-unprocessed.smi:3068-3

> <Gold.Version>
5.8.1

> <Gold.Id.Protein>
6NUR|6NUR_protein|mol2

> <Gold.PLP.Fitness>
42.7984

> <Gold.PLP.PLP>
-27.6842

> <Gold.PLP.part.hbond>
-3.5961

> <Gold.PLP.part.metal>
0.0000

> <Gold.PLP.part.buried>
-6.0918

> <Gold.PLP.part.nonpolar>
-21.4967

> <Gold.PLP.part.repulsive>
1.7869

> <Gold.PLP.ligand.clash>
0.0000

> <Gold.PLP.ligand.torsion>
0.3796

> <Gold.PLP.Chemscore.Hbond>
4.5273

> <Gold.PLP.Chemscore.CHOScore>
0.7637

> <Gold.PLP.Chemscore.Metal>
0.0000

> <Gold.Chemscore.Hbonds>
donor molecule, donor type, donor heavy atom, donor atom, acceptor molecule, acceptor atom, score
      L1  H     9    23       P1  7948  1.00
      L1  H    13    40       P1 10957  1.56
      P1  H  7989  7998       L1     4  0.98
      P1  H 10752 10763       L1     1  0.86
      L1  C     5    21       P1  8028  0.84

> <Gold.PLP.Chemscore.Internal.Correction>
0.0006

> <Gold.Rescore>
     Score         DG    S(hbond)    S(metal)    S(lipo)     H(rot)  DE(clash)    DE(int)     intcor
     19.56     -20.23       3.42        0.00      57.16       1.32       0.30       0.37       ----

> <Gold.Chemscore.Fitness>
19.5593

> <Gold.Chemscore.DG>
-20.2300

> <Gold.Chemscore.ZeroCoef>
-5.4800

> <Gold.Chemscore.Hbond>
3.4249

> <Gold.Chemscore.Metal>
0.0000

> <Gold.Chemscore.Lipo>
57.1646

> <Gold.Chemscore.Internal_Hbond>
0.0000

> <Gold.Chemscore.DEClash>
0.3018

> <Gold.Chemscore.DEInternal>
0.3689

> <Gold.Chemscore.Rot>
1.3193

> <Gold.Chemscore.Internal.Correction>
   9.000000E+99

> <Gold.Chemscore.Hbonds>
donor molecule, donor type, donor heavy atom, donor atom, acceptor molecule, acceptor atom, score
      L1  H     9    23       P1  7948  0.92
      L1  H    13    40       P1 10957  0.76
      P1  H  7989  7998       L1     4  0.58
      P1  H 10752 10763       L1     1  0.81

> <Gold.Chemscore.Hbond.Weighted>
-11.4391

> <Gold.Chemscore.Metal.Weighted>
-0.0000

> <Gold.Chemscore.Lipo.Weighted>
-6.6883

> <Gold.Chemscore.Internal_Hbond.Weighted>
0.0000

> <Gold.Chemscore.DEClash.Weighted>
0.3018

> <Gold.Chemscore.DEInternal.Weighted>
0.3689

> <Gold.Chemscore.Rot.Weighted>
3.3774

> <Gold.Chemscore.Internal.Correction.Weighted>
   9.000000E+99

> <Gold.Protein.RotatedTorsions>
[ 6907 6896 6895 6894 ] final    7.58 input  -60.11 | X-H torsion
[ 7974 7965 7964 7962 ] final   68.12 input  175.53 | X-H torsion
[ 8008 7997 7996 7995 ] final  154.01 input   59.86 | X-H torsion
[ 10167 10162 10161 10158 ] final  119.52 input  -65.29 | X-H torsion
[ 10718 10713 10712 10709 ] final   71.76 input   66.30 | X-H torsion
[ 10763 10752 10751 10750 ] final   35.67 input  -60.55 | X-H torsion
[ 11005 11000 10999 10996 ] final  -51.92 input  -57.11 | X-H torsion

> <Gold.Protein.ActiveResidues>
 VAL166  LYS551  ARG553  GLY616  TRP617  ASP618  TYR619  PRO620  LYS621  CYS622 
 ASP623  PHE694  ASN695  SER759  ASP760  ASP761  ALA762  ILE779  LEU786  VAL792 
 PHE793  MET794  SER795  GLU796  ALA797  LYS798  CYS799  TRP800  GLU811  SER814 

> <Gold.Protein.RotatedAtoms>
  151.6922  135.0944  160.0235 H   0  0  0  0  0  0  0  0  0  0  0  0  # atno 6907 bound_to 6896
  152.3772  133.6492  159.6141 H   0  0  0  0  0  0  0  0  0  0  0  0  # atno 6908 bound_to 6896
  150.7718  133.9091  159.3405 H   0  0  0  0  0  0  0  0  0  0  0  0  # atno 6909 bound_to 6896
  145.8064  139.3009  143.1125 H   0  0  0  0  0  0  0  0  0  0  0  0  # atno 7974 bound_to 7965
  156.2553  140.1978  156.6580 H   0  0  0  0  0  0  0  0  0  0  0  0  # atno 8008 bound_to 7997
  154.6486  140.0574  156.9954 H   0  0  0  0  0  0  0  0  0  0  0  0  # atno 8009 bound_to 7997
  155.1453  140.3246  155.4446 H   0  0  0  0  0  0  0  0  0  0  0  0  # atno 8010 bound_to 7997
  139.6041  144.7065  151.2995 H   0  0  0  0  0  0  0  0  0  0  0  0  # atno 10167 bound_to 10162
  157.6467  130.9544  150.0833 H   0  0  0  0  0  0  0  0  0  0  0  0  # atno 10718 bound_to 10713
  153.0109  135.6327  154.1863 H   0  0  0  0  0  0  0  0  0  0  0  0  # atno 10763 bound_to 10752
  154.1605  135.2824  155.3111 H   0  0  0  0  0  0  0  0  0  0  0  0  # atno 10764 bound_to 10752
  154.5985  135.5595  153.7410 H   0  0  0  0  0  0  0  0  0  0  0  0  # atno 10765 bound_to 10752
  141.0897  133.6635  156.3948 H   0  0  0  0  0  0  0  0  0  0  0  0  # atno 11005 bound_to 11000
  145.9824  140.8672  143.0108 LP  0  0  0  0  0  0  0  0  0  0  0  0  # atno 17320 bound_to 7965
  144.6762  140.2098  143.7378 LP  0  0  0  0  0  0  0  0  0  0  0  0  # atno 17321 bound_to 7965
  140.7271  143.6971  150.7875 LP  0  0  0  0  0  0  0  0  0  0  0  0  # atno 17342 bound_to 10162
  140.0553  143.5209  152.2654 LP  0  0  0  0  0  0  0  0  0  0  0  0  # atno 17343 bound_to 10162
  156.1803  130.3650  149.9044 LP  0  0  0  0  0  0  0  0  0  0  0  0  # atno 17370 bound_to 10713
  156.6998  130.8928  151.3598 LP  0  0  0  0  0  0  0  0  0  0  0  0  # atno 17371 bound_to 10713
  140.5281  134.6239  157.5341 LP  0  0  0  0  0  0  0  0  0  0  0  0  # atno 17394 bound_to 11000
  139.9720  134.7276  156.0022 LP  0  0  0  0  0  0  0  0  0  0  0  0  # atno 17395 bound_to 11000

$$$$
