AV-unprocessed.smi:1206|AV-procd|sdf|5048|dock10
  -GOLD-   22720 4 73D 1   1.00000     0.00000
 Structure written by MMmdl.
 40 41  0  0  0  0  0  0  0  0  3 V2000
  146.8981  136.0902  154.6117 C   0  0  0  0  0  0  0  0  0  0  0  0
  146.3478  136.3758  153.2609 N   0  3  0  0  0  0  0  0  0  0  0  0
  145.7572  137.7377  153.2263 C   0  0  0  0  0  0  0  0  0  0  0  0
  145.5323  135.2617  152.6453 C   0  0  0  0  0  0  0  0  0  0  0  0
  144.3277  134.9673  153.5958 C   0  0  0  0  0  0  0  0  0  0  0  0
  143.1481  135.7749  153.2819 N   0  0  0  0  0  0  0  0  0  0  0  0
  142.1426  136.0815  154.1139 C   0  0  0  0  0  0  0  0  0  0  0  0
  142.1798  135.7136  155.2897 O   0  0  0  0  0  0  0  0  0  0  0  0
  141.1461  136.7778  153.5253 N   0  5  0  0  0  0  0  0  0  0  0  0
  139.9597  136.9004  154.1435 C   0  0  0  0  0  0  0  0  0  0  0  0
  139.7252  136.3725  155.3555 N   0  0  0  0  0  0  0  0  0  0  0  0
  138.4379  136.6140  155.8161 N   0  0  0  0  0  0  0  0  0  0  0  0
  137.7280  137.3125  154.9303 C   0  0  0  0  0  0  0  0  0  0  0  0
  138.5673  137.7390  153.4539 S   0  0  0  0  0  0  0  0  0  0  0  0
  145.0143  135.6672  151.2321 C   0  0  0  0  0  0  0  0  0  0  0  0
  144.2925  134.5322  150.4795 C   0  0  0  0  0  0  0  0  0  0  0  0
  145.1640  133.2745  150.3698 C   0  0  0  0  0  0  0  0  0  0  0  0
  145.6536  132.8159  151.7495 C   0  0  0  0  0  0  0  0  0  0  0  0
  146.3843  133.9584  152.4786 C   0  0  0  0  0  0  0  0  0  0  0  0
  146.1249  136.1580  155.3776 H   0  0  0  0  0  0  0  0  0  0  0  0
  147.6726  136.8160  154.8605 H   0  0  0  0  0  0  0  0  0  0  0  0
  147.3569  135.1053  154.6783 H   0  0  0  0  0  0  0  0  0  0  0  0
  144.7816  137.7607  153.7128 H   0  0  0  0  0  0  0  0  0  0  0  0
  145.6557  138.1067  152.2058 H   0  0  0  0  0  0  0  0  0  0  0  0
  146.4030  138.4501  153.7406 H   0  0  0  0  0  0  0  0  0  0  0  0
  144.0738  133.9073  153.5949 H   0  0  0  0  0  0  0  0  0  0  0  0
  144.5784  135.1755  154.6335 H   0  0  0  0  0  0  0  0  0  0  0  0
  143.0727  136.1125  152.3332 H   0  0  0  0  0  0  0  0  0  0  0  0
  136.7033  137.5756  155.1461 H   0  0  0  0  0  0  0  0  0  0  0  0
  144.3283  136.5117  151.2983 H   0  0  0  0  0  0  0  0  0  0  0  0
  145.8521  136.0046  150.6206 H   0  0  0  0  0  0  0  0  0  0  0  0
  143.3538  134.2877  150.9768 H   0  0  0  0  0  0  0  0  0  0  0  0
  144.0194  134.8743  149.4807 H   0  0  0  0  0  0  0  0  0  0  0  0
  144.6047  132.4730  149.8864 H   0  0  0  0  0  0  0  0  0  0  0  0
  146.0218  133.4829  149.7293 H   0  0  0  0  0  0  0  0  0  0  0  0
  144.8190  132.4441  152.3431 H   0  0  0  0  0  0  0  0  0  0  0  0
  146.3303  131.9693  151.6303 H   0  0  0  0  0  0  0  0  0  0  0  0
  147.2731  134.1569  151.8802 H   0  0  0  0  0  0  0  0  0  0  0  0
  146.7459  133.6041  153.4444 H   0  0  0  0  0  0  0  0  0  0  0  0
  147.1595  136.4409  152.6616 H   0  0  0  0  0  0  0  0  0  0  0  0
  1  2  1  0  0  0  0
  1 20  1  0  0  0  0
  1 21  1  0  0  0  0
  1 22  1  0  0  0  0
  2  3  1  0  0  0  0
  2  4  1  0  0  0  0
  2 40  1  0  0  0  0
  3 23  1  0  0  0  0
  3 24  1  0  0  0  0
  3 25  1  0  0  0  0
  4 19  1  0  0  0  0
  4  5  1  0  0  0  0
  4 15  1  0  0  0  0
  5  6  1  0  0  0  0
  5 26  1  0  0  0  0
  5 27  1  0  0  0  0
  6  7  1  0  0  0  0
  6 28  1  0  0  0  0
  7  8  2  0  0  0  0
  7  9  1  0  0  0  0
  9 10  1  0  0  0  0
 10 14  1  0  0  0  0
 10 11  2  0  0  0  0
 11 12  1  0  0  0  0
 12 13  2  0  0  0  0
 13 14  1  0  0  0  0
 13 29  1  0  0  0  0
 15 16  1  0  0  0  0
 15 30  1  0  0  0  0
 15 31  1  0  0  0  0
 16 17  1  0  0  0  0
 16 32  1  0  0  0  0
 16 33  1  0  0  0  0
 17 18  1  0  0  0  0
 17 34  1  0  0  0  0
 17 35  1  0  0  0  0
 18 19  1  0  0  0  0
 18 36  1  0  0  0  0
 18 37  1  0  0  0  0
 19 38  1  0  0  0  0
 19 39  1  0  0  0  0
M  CHG  1   2   1
M  CHG  1   9  -1
M  END
> <s_m_source_file>
AV-unprocessed.smi

> <i_m_source_file_index>
1206

> <i_lp_mmshare_version>
43012

> <i_f3d_flags>
0

> <s_epik_input>
W0NIMl0xW0NIMl1bQ0gyXVtDSDJdW0NIMl1DMShOKFtDSDNdKVtDSDNdKVtDSDJdW05IXUMoPU8pW05IXWMybm5bY0hdczI=

> <s_epik_cmdline>
J2VwaWtfcHl0aG9uJywgJy1waCcsICc3LjAnLCAnLXRuJywgJzgnLCAnLW1hJywgJzIwMCcsICctbWV0YWxfYmluZGluZycsICctaW1hZScsICc8aW5maWxlLm1hZT4nLCAnLW9tYWUnLCAnPG91dGZpbGUubWFlPic=

> <r_lp_tautomer_probability>
1

> <r_epik_Ionization_Penalty>
3.99546

> <r_epik_Ionization_Penalty_Charging>
3.96229

> <r_epik_Ionization_Penalty_Neutral>
0.0331711

> <r_epik_State_Penalty>
3.95985

> <r_epik_Charging_Adjusted_Penalty>
7.92214

> <i_epik_Tot_Q>
0

> <i_epik_Tot_abs_Q>
2

> <r_epik_Metal_State_Penalty>
0.609364

> <b_epik_Metal_Only>
1

> <s_lp_Force_Field>
OPLS_2005

> <r_lp_Energy>
23.6676

> <b_lp_Chiralities_Consistent>
1

> <s_lp_Variant>
AV-unprocessed.smi:1206-2

> <Gold.Version>
5.8.1

> <Gold.Id.Protein>
6NUR|6NUR_protein|mol2

> <Gold.PLP.Fitness>
35.9060

> <Gold.PLP.PLP>
-28.4831

> <Gold.PLP.part.hbond>
-3.4701

> <Gold.PLP.part.metal>
0.0000

> <Gold.PLP.part.buried>
-6.5213

> <Gold.PLP.part.nonpolar>
-19.9439

> <Gold.PLP.part.repulsive>
0.3238

> <Gold.PLP.ligand.clash>
0.0000

> <Gold.PLP.ligand.torsion>
0.8660

> <Gold.PLP.Chemscore.Hbond>
3.0000

> <Gold.PLP.Chemscore.CHOScore>
0.0000

> <Gold.PLP.Chemscore.Metal>
0.0000

> <Gold.Chemscore.Hbonds>
donor molecule, donor type, donor heavy atom, donor atom, acceptor molecule, acceptor atom, score
      L1  H     2    40       P1  7948  2.00
      P1  H 11000 11005       L1    11  0.98

> <Gold.PLP.Chemscore.Internal.Correction>
0.1550

> <Gold.Rescore>
     Score         DG    S(hbond)    S(metal)    S(lipo)     H(rot)  DE(clash)    DE(int)     intcor
     11.32     -13.66       1.67        0.00      58.22       1.64       0.00       2.34       ----

> <Gold.Chemscore.Fitness>
11.3164

> <Gold.Chemscore.DG>
-13.6627

> <Gold.Chemscore.ZeroCoef>
-5.4800

> <Gold.Chemscore.Hbond>
1.6654

> <Gold.Chemscore.Metal>
0.0000

> <Gold.Chemscore.Lipo>
58.2151

> <Gold.Chemscore.Internal_Hbond>
0.0000

> <Gold.Chemscore.DEClash>
0.0021

> <Gold.Chemscore.DEInternal>
2.3441

> <Gold.Chemscore.Rot>
1.6371

> <Gold.Chemscore.Internal.Correction>
   9.000000E+99

> <Gold.Chemscore.Hbonds>
donor molecule, donor type, donor heavy atom, donor atom, acceptor molecule, acceptor atom, score
      L1  H     2    40       P1  7948  0.98
      P1  H 11000 11005       L1    11  0.24

> <Gold.Chemscore.Hbond.Weighted>
-5.5624

> <Gold.Chemscore.Metal.Weighted>
-0.0000

> <Gold.Chemscore.Lipo.Weighted>
-6.8112

> <Gold.Chemscore.Internal_Hbond.Weighted>
0.0000

> <Gold.Chemscore.DEClash.Weighted>
0.0021

> <Gold.Chemscore.DEInternal.Weighted>
2.3441

> <Gold.Chemscore.Rot.Weighted>
4.1909

> <Gold.Chemscore.Internal.Correction.Weighted>
   9.000000E+99

> <Gold.Protein.RotatedTorsions>
[ 6907 6896 6895 6894 ] final  -15.72 input  -60.11 | X-H torsion
[ 7974 7965 7964 7962 ] final  178.22 input  175.53 | X-H torsion
[ 8008 7997 7996 7995 ] final -106.27 input   59.86 | X-H torsion
[ 10167 10162 10161 10158 ] final  -54.89 input  -65.29 | X-H torsion
[ 10718 10713 10712 10709 ] final  144.34 input   66.30 | X-H torsion
[ 10763 10752 10751 10750 ] final -164.03 input  -60.55 | X-H torsion
[ 11005 11000 10999 10996 ] final   65.50 input  -57.11 | X-H torsion

> <Gold.Protein.ActiveResidues>
 VAL166  LYS551  ARG553  GLY616  TRP617  ASP618  TYR619  PRO620  LYS621  CYS622 
 ASP623  PHE694  ASN695  SER759  ASP760  ASP761  ALA762  ILE779  LEU786  VAL792 
 PHE793  MET794  SER795  GLU796  ALA797  LYS798  CYS799  TRP800  GLU811  SER814 

> <Gold.Protein.RotatedAtoms>
  151.3197  135.0815  159.9300 H   0  0  0  0  0  0  0  0  0  0  0  0  # atno 6907 bound_to 6896
  152.5259  133.9652  159.7746 H   0  0  0  0  0  0  0  0  0  0  0  0  # atno 6908 bound_to 6896
  150.9970  133.6040  159.2730 H   0  0  0  0  0  0  0  0  0  0  0  0  # atno 6909 bound_to 6896
  144.7159  140.0365  143.6438 H   0  0  0  0  0  0  0  0  0  0  0  0  # atno 7974 bound_to 7965
  154.9121  140.0409  157.1952 H   0  0  0  0  0  0  0  0  0  0  0  0  # atno 8008 bound_to 7997
  154.8338  140.2903  155.5683 H   0  0  0  0  0  0  0  0  0  0  0  0  # atno 8009 bound_to 7997
  156.2988  140.2495  156.3268 H   0  0  0  0  0  0  0  0  0  0  0  0  # atno 8010 bound_to 7997
  140.6405  143.2505  151.5001 H   0  0  0  0  0  0  0  0  0  0  0  0  # atno 10167 bound_to 10162
  157.3583  131.0961  151.0938 H   0  0  0  0  0  0  0  0  0  0  0  0  # atno 10718 bound_to 10713
  154.7067  135.2998  154.9259 H   0  0  0  0  0  0  0  0  0  0  0  0  # atno 10763 bound_to 10752
  154.0174  135.6687  153.4774 H   0  0  0  0  0  0  0  0  0  0  0  0  # atno 10764 bound_to 10752
  153.0723  135.5054  154.8242 H   0  0  0  0  0  0  0  0  0  0  0  0  # atno 10765 bound_to 10752
  139.9890  134.6621  156.0124 H   0  0  0  0  0  0  0  0  0  0  0  0  # atno 11005 bound_to 11000
  146.0059  139.3129  143.0899 LP  0  0  0  0  0  0  0  0  0  0  0  0  # atno 17320 bound_to 7965
  145.8739  140.9404  143.0636 LP  0  0  0  0  0  0  0  0  0  0  0  0  # atno 17321 bound_to 7965
  139.5615  144.2146  152.1698 LP  0  0  0  0  0  0  0  0  0  0  0  0  # atno 17342 bound_to 10162
  140.1415  144.5198  150.6741 LP  0  0  0  0  0  0  0  0  0  0  0  0  # atno 17343 bound_to 10162
  157.2088  130.6428  149.5766 LP  0  0  0  0  0  0  0  0  0  0  0  0  # atno 17370 bound_to 10713
  155.9733  130.4667  150.6297 LP  0  0  0  0  0  0  0  0  0  0  0  0  # atno 17371 bound_to 10713
  141.1550  133.6544  156.4132 LP  0  0  0  0  0  0  0  0  0  0  0  0  # atno 17394 bound_to 11000
  140.4945  134.6544  157.5224 LP  0  0  0  0  0  0  0  0  0  0  0  0  # atno 17395 bound_to 11000

$$$$
