AV-unprocessed.smi:1867|AV-procd|sdf|7567|dock2
  -GOLD-   22720 9283D 1   1.00000     0.00000
 Structure written by MMmdl.
 52 55  0  0  0  0  0  0  0  0  2 V2000
  146.5014  137.1132  155.3484 O   0  0  0  0  0  0  0  0  0  0  0  0
  147.2301  136.9099  154.3803 C   0  0  0  0  0  0  0  0  0  0  0  0
  148.4475  137.4604  154.2050 N   0  0  0  0  0  0  0  0  0  0  0  0
  149.1124  138.4184  155.0174 C   0  0  0  0  0  0  0  0  0  0  0  0
  148.8840  138.5862  156.4031 C   0  0  0  0  0  0  0  0  0  0  0  0
  149.5888  139.5897  157.0946 C   0  0  0  0  0  0  0  0  0  0  0  0
  150.4968  140.4104  156.3845 C   0  0  0  0  0  0  0  0  0  0  0  0
  151.2214  141.4254  157.0407 N   0  0  0  0  0  0  0  0  0  0  0  0
  151.7463  141.2449  158.3873 C   0  0  0  0  0  0  0  0  0  0  0  0
  151.8462  142.6527  158.9862 C   0  0  0  0  0  0  0  0  0  0  0  0
  151.8678  143.5763  157.7683 C   0  0  0  0  0  0  0  0  0  0  0  0
  150.9968  142.8342  156.7558 C   0  0  0  0  0  0  0  0  0  0  0  0
  150.7112  140.2502  155.0568 N   0  0  0  0  0  0  0  0  0  0  0  0
  150.0331  139.2870  154.3986 C   0  0  0  0  0  0  0  0  0  0  0  0
  146.8617  136.0615  153.4044 N   0  0  0  0  0  0  0  0  0  0  0  0
  145.6166  135.3022  153.2874 C   0  0  1  0  0  0  0  0  0  0  0  0
  144.3642  136.1760  153.0717 C   0  0  0  0  0  0  0  0  0  0  0  0
  143.5106  135.4234  152.0316 C   0  0  0  0  0  0  0  0  0  0  0  0
  144.2028  134.1390  151.8161 N   0  3  1  0  0  0  0  0  0  0  0  0
  143.9514  133.4424  150.5352 C   0  0  0  0  0  0  0  0  0  0  0  0
  144.6991  132.0934  150.5363 C   0  0  0  0  0  0  0  0  0  0  0  0
  146.1977  132.2696  150.8579 C   0  0  0  0  0  0  0  0  0  0  0  0
  146.3978  133.0844  152.1507 C   0  0  0  0  0  0  0  0  0  0  0  0
  145.6295  134.4119  152.0445 C   0  0  2  0  0  0  0  0  0  0  0  0
  148.9764  137.1252  153.4136 H   0  0  0  0  0  0  0  0  0  0  0  0
  148.1766  137.9797  156.9467 H   0  0  0  0  0  0  0  0  0  0  0  0
  149.4238  139.7141  158.1544 H   0  0  0  0  0  0  0  0  0  0  0  0
  151.1071  140.6073  158.9987 H   0  0  0  0  0  0  0  0  0  0  0  0
  152.7314  140.7826  158.3210 H   0  0  0  0  0  0  0  0  0  0  0  0
  150.9569  142.8595  159.5830 H   0  0  0  0  0  0  0  0  0  0  0  0
  152.7171  142.7770  159.6304 H   0  0  0  0  0  0  0  0  0  0  0  0
  151.5039  144.5806  157.9866 H   0  0  0  0  0  0  0  0  0  0  0  0
  152.8869  143.6607  157.3882 H   0  0  0  0  0  0  0  0  0  0  0  0
  151.2664  143.0869  155.7298 H   0  0  0  0  0  0  0  0  0  0  0  0
  149.9431  143.0728  156.9065 H   0  0  0  0  0  0  0  0  0  0  0  0
  150.2367  139.2066  153.3405 H   0  0  0  0  0  0  0  0  0  0  0  0
  147.5408  135.9049  152.6734 H   0  0  0  0  0  0  0  0  0  0  0  0
  145.4737  134.6727  154.1683 H   0  0  0  0  0  0  0  0  0  0  0  0
  143.8242  136.3188  154.0082 H   0  0  0  0  0  0  0  0  0  0  0  0
  144.6255  137.1648  152.6916 H   0  0  0  0  0  0  0  0  0  0  0  0
  142.4865  135.2623  152.3691 H   0  0  0  0  0  0  0  0  0  0  0  0
  143.4755  135.9895  151.0993 H   0  0  0  0  0  0  0  0  0  0  0  0
  142.8805  133.2801  150.4091 H   0  0  0  0  0  0  0  0  0  0  0  0
  144.2848  134.0631  149.7019 H   0  0  0  0  0  0  0  0  0  0  0  0
  144.2489  131.4331  151.2789 H   0  0  0  0  0  0  0  0  0  0  0  0
  144.5791  131.5979  149.5724 H   0  0  0  0  0  0  0  0  0  0  0  0
  146.6796  131.2956  150.9489 H   0  0  0  0  0  0  0  0  0  0  0  0
  146.6880  132.7801  150.0280 H   0  0  0  0  0  0  0  0  0  0  0  0
  146.0434  132.5112  153.0085 H   0  0  0  0  0  0  0  0  0  0  0  0
  147.4591  133.2727  152.3157 H   0  0  0  0  0  0  0  0  0  0  0  0
  146.0114  134.9857  151.1963 H   0  0  0  0  0  0  0  0  0  0  0  0
  143.9055  133.5224  152.5587 H   0  0  0  0  0  0  0  0  0  0  0  0
  1  2  2  0  0  0  0
  2  3  1  0  0  0  0
  2 15  1  0  0  0  0
  3  4  1  0  0  0  0
  3 25  1  0  0  0  0
  4 14  1  0  0  0  0
  4  5  2  0  0  0  0
  5  6  1  0  0  0  0
  5 26  1  0  0  0  0
  6  7  2  0  0  0  0
  6 27  1  0  0  0  0
  7  8  1  0  0  0  0
  7 13  1  0  0  0  0
  8 12  1  0  0  0  0
  8  9  1  0  0  0  0
  9 10  1  0  0  0  0
  9 28  1  0  0  0  0
  9 29  1  0  0  0  0
 10 11  1  0  0  0  0
 10 30  1  0  0  0  0
 10 31  1  0  0  0  0
 11 12  1  0  0  0  0
 11 32  1  0  0  0  0
 11 33  1  0  0  0  0
 12 34  1  0  0  0  0
 12 35  1  0  0  0  0
 13 14  2  0  0  0  0
 14 36  1  0  0  0  0
 15 16  1  0  0  0  0
 15 37  1  0  0  0  0
 16 24  1  0  0  0  0
 16 17  1  0  0  0  0
 16 38  1  0  0  0  0
 17 18  1  0  0  0  0
 17 39  1  0  0  0  0
 17 40  1  0  0  0  0
 18 19  1  0  0  0  0
 18 41  1  0  0  0  0
 18 42  1  0  0  0  0
 19 24  1  0  0  0  0
 19 20  1  0  0  0  0
 19 52  1  0  0  0  0
 20 21  1  0  0  0  0
 20 43  1  0  0  0  0
 20 44  1  0  0  0  0
 21 22  1  0  0  0  0
 21 45  1  0  0  0  0
 21 46  1  0  0  0  0
 22 23  1  0  0  0  0
 22 47  1  0  0  0  0
 22 48  1  0  0  0  0
 23 24  1  0  0  0  0
 23 49  1  0  0  0  0
 23 50  1  0  0  0  0
 24 51  1  0  0  0  0
M  CHG  1  19   1
M  END
> <s_m_source_file>
AV-unprocessed.smi

> <i_m_source_file_index>
1867

> <i_lp_mmshare_version>
43012

> <i_f3d_flags>
0

> <s_epik_input>
W0NIMl0xW0NIMl1bQ0gyXVtDSDJdW0NASF0oTjEyKVtDQEBIXShbQ0gyXVtDSDJdMilbTkhdQyg9TylbTkhdYzNbY0hdW2NIXWMobltjSF0zKU40W0NIMl1bQ0gyXVtDSDJdW0NIMl00

> <s_epik_cmdline>
J2VwaWtfcHl0aG9uJywgJy1waCcsICc3LjAnLCAnLXRuJywgJzgnLCAnLW1hJywgJzIwMCcsICctbWV0YWxfYmluZGluZycsICctaW1hZScsICc8aW5maWxlLm1hZT4nLCAnLW9tYWUnLCAnPG91dGZpbGUubWFlPic=

> <r_lp_tautomer_probability>
1

> <r_epik_Ionization_Penalty>
0.0751123

> <r_epik_Ionization_Penalty_Charging>
0.000974069

> <r_epik_Ionization_Penalty_Neutral>
0.0741382

> <r_epik_State_Penalty>
0.0647261

> <r_epik_Charging_Adjusted_Penalty>
0.0657002

> <i_epik_Tot_Q>
1

> <i_epik_Tot_abs_Q>
1

> <r_epik_Metal_State_Penalty>
0.0580571

> <b_epik_Metal_Only>
0

> <s_lp_Force_Field>
OPLS_2005

> <r_lp_Energy>
71.2543

> <b_lp_Chiralities_Consistent>
1

> <s_lp_Variant>
AV-unprocessed.smi:1867-8

> <Gold.Version>
5.8.1

> <Gold.Id.Protein>
6NUR|6NUR_protein|mol2

> <Gold.PLP.Fitness>
44.4498

> <Gold.PLP.PLP>
-35.2736

> <Gold.PLP.part.hbond>
-3.0000

> <Gold.PLP.part.metal>
0.0000

> <Gold.PLP.part.buried>
-3.6549

> <Gold.PLP.part.nonpolar>
-28.9155

> <Gold.PLP.part.repulsive>
0.0845

> <Gold.PLP.ligand.clash>
0.0000

> <Gold.PLP.ligand.torsion>
1.1008

> <Gold.PLP.Chemscore.Hbond>
2.7260

> <Gold.PLP.Chemscore.CHOScore>
1.0000

> <Gold.PLP.Chemscore.Metal>
0.0000

> <Gold.Chemscore.Hbonds>
donor molecule, donor type, donor heavy atom, donor atom, acceptor molecule, acceptor atom, score
      L1  H     3    25       P1  7948  0.96
      L1  H    15    37       P1  7948  1.00
      P1  H  7989  7998       L1    13  0.75
      L1  C    14    36       P1  7957  1.00

> <Gold.PLP.Chemscore.Internal.Correction>
0.1997

> <Gold.Rescore>
     Score         DG    S(hbond)    S(metal)    S(lipo)     H(rot)  DE(clash)    DE(int)     intcor
     18.66     -20.86       1.92        0.00      98.48       1.00       0.04       2.16       ----

> <Gold.Chemscore.Fitness>
18.6630

> <Gold.Chemscore.DG>
-20.8646

> <Gold.Chemscore.ZeroCoef>
-5.4800

> <Gold.Chemscore.Hbond>
1.9230

> <Gold.Chemscore.Metal>
0.0000

> <Gold.Chemscore.Lipo>
98.4763

> <Gold.Chemscore.Internal_Hbond>
0.0000

> <Gold.Chemscore.DEClash>
0.0390

> <Gold.Chemscore.DEInternal>
2.1626

> <Gold.Chemscore.Rot>
1.0000

> <Gold.Chemscore.Internal.Correction>
   9.000000E+99

> <Gold.Chemscore.Hbonds>
donor molecule, donor type, donor heavy atom, donor atom, acceptor molecule, acceptor atom, score
      L1  H     3    25       P1  7948  0.92
      L1  H    15    37       P1  7948  0.98
      P1  H  7989  7998       L1    13  0.09

> <Gold.Chemscore.Hbond.Weighted>
-6.4229

> <Gold.Chemscore.Metal.Weighted>
-0.0000

> <Gold.Chemscore.Lipo.Weighted>
-11.5217

> <Gold.Chemscore.Internal_Hbond.Weighted>
0.0000

> <Gold.Chemscore.DEClash.Weighted>
0.0390

> <Gold.Chemscore.DEInternal.Weighted>
2.1626

> <Gold.Chemscore.Rot.Weighted>
2.5600

> <Gold.Chemscore.Internal.Correction.Weighted>
   9.000000E+99

> <Gold.Protein.RotatedTorsions>
[ 6907 6896 6895 6894 ] final  -39.64 input  -60.11 | X-H torsion
[ 7974 7965 7964 7962 ] final -128.78 input  175.53 | X-H torsion
[ 8008 7997 7996 7995 ] final  134.17 input   59.86 | X-H torsion
[ 10167 10162 10161 10158 ] final -174.06 input  -65.29 | X-H torsion
[ 10718 10713 10712 10709 ] final   86.97 input   66.30 | X-H torsion
[ 10763 10752 10751 10750 ] final   41.05 input  -60.55 | X-H torsion
[ 11005 11000 10999 10996 ] final  100.26 input  -57.11 | X-H torsion

> <Gold.Protein.ActiveResidues>
 VAL166  LYS551  ARG553  GLY616  TRP617  ASP618  TYR619  PRO620  LYS621  CYS622 
 ASP623  PHE694  ASN695  SER759  ASP760  ASP761  ALA762  ILE779  LEU786  VAL792 
 PHE793  MET794  SER795  GLU796  ALA797  LYS798  CYS799  TRP800  GLU811  SER814 

> <Gold.Protein.RotatedAtoms>
  150.9880  134.9221  159.7882 H   0  0  0  0  0  0  0  0  0  0  0  0  # atno 6907 bound_to 6896
  152.5242  134.3321  159.9196 H   0  0  0  0  0  0  0  0  0  0  0  0  # atno 6908 bound_to 6896
  151.3327  133.3953  159.2698 H   0  0  0  0  0  0  0  0  0  0  0  0  # atno 6909 bound_to 6896
  144.9637  140.7473  143.4713 H   0  0  0  0  0  0  0  0  0  0  0  0  # atno 7974 bound_to 7965
  156.2997  140.2503  156.3372 H   0  0  0  0  0  0  0  0  0  0  0  0  # atno 8008 bound_to 7997
  154.9089  140.0404  157.1954 H   0  0  0  0  0  0  0  0  0  0  0  0  # atno 8009 bound_to 7997
  154.8425  140.2893  155.5654 H   0  0  0  0  0  0  0  0  0  0  0  0  # atno 8010 bound_to 7997
  139.5654  144.1768  152.1304 H   0  0  0  0  0  0  0  0  0  0  0  0  # atno 10167 bound_to 10162
  157.6935  131.0237  150.3053 H   0  0  0  0  0  0  0  0  0  0  0  0  # atno 10718 bound_to 10713
  152.9919  135.6173  154.2725 H   0  0  0  0  0  0  0  0  0  0  0  0  # atno 10763 bound_to 10752
  154.2457  135.2787  155.2838 H   0  0  0  0  0  0  0  0  0  0  0  0  # atno 10764 bound_to 10752
  154.5331  135.5782  153.6833 H   0  0  0  0  0  0  0  0  0  0  0  0  # atno 10765 bound_to 10752
  139.8771  134.9132  156.4730 H   0  0  0  0  0  0  0  0  0  0  0  0  # atno 11005 bound_to 11000
  145.2662  139.1972  143.4866 LP  0  0  0  0  0  0  0  0  0  0  0  0  # atno 17320 bound_to 7965
  146.3361  140.2600  142.8601 LP  0  0  0  0  0  0  0  0  0  0  0  0  # atno 17321 bound_to 7965
  140.1290  144.5305  150.6814 LP  0  0  0  0  0  0  0  0  0  0  0  0  # atno 17342 bound_to 10162
  140.6937  143.2391  151.5060 LP  0  0  0  0  0  0  0  0  0  0  0  0  # atno 17343 bound_to 10162
  156.3562  130.3839  149.7288 LP  0  0  0  0  0  0  0  0  0  0  0  0  # atno 17370 bound_to 10713
  156.4749  130.8014  151.3030 LP  0  0  0  0  0  0  0  0  0  0  0  0  # atno 17371 bound_to 10713
  140.8782  133.7937  155.9438 LP  0  0  0  0  0  0  0  0  0  0  0  0  # atno 17394 bound_to 11000
  140.8881  134.2528  157.5109 LP  0  0  0  0  0  0  0  0  0  0  0  0  # atno 17395 bound_to 11000

$$$$
