AV-unprocessed.smi:2024|AV-procd|sdf|8191|dock7
  -GOLD-   2272010443D 1   1.00000     0.00000
 Structure written by MMmdl.
 44 45  0  0  0  0  0  0  0  0  2 V2000
  145.3575  131.0934  151.4966 C   0  0  0  0  0  0  0  0  0  0  0  0
  146.5357  131.9834  151.3792 N   0  3  0  0  0  0  0  0  0  0  0  0
  147.1416  132.3538  152.6784 C   0  0  0  0  0  0  0  0  0  0  0  0
  146.3039  133.4230  153.4079 C   0  0  0  0  0  0  0  0  0  0  0  0
  146.1771  134.6335  152.5787 N   0  0  0  0  0  0  0  0  0  0  0  0
  145.5985  135.8097  153.2843 C   0  0  0  0  0  0  0  0  0  0  0  0
  144.0659  135.6300  153.4312 C   0  0  0  0  0  0  0  0  0  0  0  0
  146.2067  135.9887  154.6963 C   0  0  0  0  0  0  0  0  0  0  0  0
  145.8492  137.1128  152.4667 C   0  0  0  0  0  0  0  0  0  0  0  0
  147.1592  137.7134  152.7227 N   0  0  0  0  0  0  0  0  0  0  0  0
  147.4348  138.6137  153.6775 C   0  0  0  0  0  0  0  0  0  0  0  0
  146.5978  139.0399  154.4735 O   0  0  0  0  0  0  0  0  0  0  0  0
  148.7265  138.9845  153.6360 N   0  0  0  0  0  0  0  0  0  0  0  0
  149.4002  139.9145  154.4706 C   0  0  0  0  0  0  0  0  0  0  0  0
  150.6806  139.8054  154.8435 N   0  0  0  0  0  0  0  0  0  0  0  0
  151.0799  140.8635  155.6639 C   0  0  0  0  0  0  0  0  0  0  0  0
  150.0831  141.7752  155.9081 C   0  0  0  0  0  0  0  0  0  0  0  0
  148.5952  141.3400  155.1104 S   0  0  0  0  0  0  0  0  0  0  0  0
  145.4771  134.2474  151.3419 C   0  0  0  0  0  0  0  0  0  0  0  0
  146.2944  133.1957  150.5644 C   0  0  0  0  0  0  0  0  0  0  0  0
  144.5323  131.5735  152.0225 H   0  0  0  0  0  0  0  0  0  0  0  0
  145.6204  130.1837  152.0371 H   0  0  0  0  0  0  0  0  0  0  0  0
  145.0032  130.7986  150.5084 H   0  0  0  0  0  0  0  0  0  0  0  0
  147.2564  131.4668  153.3026 H   0  0  0  0  0  0  0  0  0  0  0  0
  148.1475  132.7366  152.4998 H   0  0  0  0  0  0  0  0  0  0  0  0
  145.3222  133.0251  153.6650 H   0  0  0  0  0  0  0  0  0  0  0  0
  146.8098  133.6395  154.3458 H   0  0  0  0  0  0  0  0  0  0  0  0
  143.5895  136.5618  153.7384 H   0  0  0  0  0  0  0  0  0  0  0  0
  143.8013  134.8959  154.1919 H   0  0  0  0  0  0  0  0  0  0  0  0
  143.5997  135.3228  152.4942 H   0  0  0  0  0  0  0  0  0  0  0  0
  145.7549  136.8425  155.2028 H   0  0  0  0  0  0  0  0  0  0  0  0
  147.2795  136.1777  154.6655 H   0  0  0  0  0  0  0  0  0  0  0  0
  146.0371  135.1220  155.3348 H   0  0  0  0  0  0  0  0  0  0  0  0
  145.7309  136.9073  151.4012 H   0  0  0  0  0  0  0  0  0  0  0  0
  145.0888  137.8650  152.6729 H   0  0  0  0  0  0  0  0  0  0  0  0
  147.9111  137.4275  152.1134 H   0  0  0  0  0  0  0  0  0  0  0  0
  149.2947  138.5547  152.9214 H   0  0  0  0  0  0  0  0  0  0  0  0
  152.0952  140.8889  156.0306 H   0  0  0  0  0  0  0  0  0  0  0  0
  150.1338  142.6730  156.5062 H   0  0  0  0  0  0  0  0  0  0  0  0
  144.4798  133.8675  151.5633 H   0  0  0  0  0  0  0  0  0  0  0  0
  145.3490  135.1002  150.6787 H   0  0  0  0  0  0  0  0  0  0  0  0
  147.2568  133.6206  150.2756 H   0  0  0  0  0  0  0  0  0  0  0  0
  145.7873  132.9260  149.6373 H   0  0  0  0  0  0  0  0  0  0  0  0
  147.2300  131.4414  150.8850 H   0  0  0  0  0  0  0  0  0  0  0  0
  1  2  1  0  0  0  0
  1 21  1  0  0  0  0
  1 22  1  0  0  0  0
  1 23  1  0  0  0  0
  2 20  1  0  0  0  0
  2  3  1  0  0  0  0
  2 44  1  0  0  0  0
  3  4  1  0  0  0  0
  3 24  1  0  0  0  0
  3 25  1  0  0  0  0
  4  5  1  0  0  0  0
  4 26  1  0  0  0  0
  4 27  1  0  0  0  0
  5  6  1  0  0  0  0
  5 19  1  0  0  0  0
  6  7  1  0  0  0  0
  6  8  1  0  0  0  0
  6  9  1  0  0  0  0
  7 28  1  0  0  0  0
  7 29  1  0  0  0  0
  7 30  1  0  0  0  0
  8 31  1  0  0  0  0
  8 32  1  0  0  0  0
  8 33  1  0  0  0  0
  9 10  1  0  0  0  0
  9 34  1  0  0  0  0
  9 35  1  0  0  0  0
 10 11  1  0  0  0  0
 10 36  1  0  0  0  0
 11 12  2  0  0  0  0
 11 13  1  0  0  0  0
 13 14  1  0  0  0  0
 13 37  1  0  0  0  0
 14 18  1  0  0  0  0
 14 15  2  0  0  0  0
 15 16  1  0  0  0  0
 16 17  2  0  0  0  0
 16 38  1  0  0  0  0
 17 18  1  0  0  0  0
 17 39  1  0  0  0  0
 19 20  1  0  0  0  0
 19 40  1  0  0  0  0
 19 41  1  0  0  0  0
 20 42  1  0  0  0  0
 20 43  1  0  0  0  0
M  CHG  1   2   1
M  END
> <s_m_source_file>
AV-unprocessed.smi

> <i_m_source_file_index>
2024

> <i_lp_mmshare_version>
43012

> <i_f3d_flags>
0

> <s_epik_input>
W0NIM11OMVtDSDJdW0NIMl1OKFtDSDJdW0NIMl0xKUMoW0NIM10pKFtDSDNdKVtDSDJdW05IXUMoPU8pW05IXWMybltjSF1bY0hdczI=

> <s_epik_cmdline>
J2VwaWtfcHl0aG9uJywgJy1waCcsICc3LjAnLCAnLXRuJywgJzgnLCAnLW1hJywgJzIwMCcsICctbWV0YWxfYmluZGluZycsICctaW1hZScsICc8aW5maWxlLm1hZT4nLCAnLW9tYWUnLCAnPG91dGZpbGUubWFlPic=

> <r_lp_tautomer_probability>
0.999

> <r_epik_Ionization_Penalty>
0.025257

> <r_epik_Ionization_Penalty_Charging>
0.0242302

> <r_epik_Ionization_Penalty_Neutral>
0.00102675

> <r_epik_State_Penalty>
0.128805

> <r_epik_Charging_Adjusted_Penalty>
0.153036

> <i_epik_Tot_Q>
1

> <i_epik_Tot_abs_Q>
1

> <r_epik_Metal_State_Penalty>
0.161314

> <b_epik_Metal_Only>
0

> <s_lp_Force_Field>
OPLS_2005

> <r_lp_Energy>
25.0383

> <b_lp_Chiralities_Consistent>
1

> <s_lp_Variant>
AV-unprocessed.smi:2024-1

> <Gold.Version>
5.8.1

> <Gold.Id.Protein>
6NUR|6NUR_protein|mol2

> <Gold.PLP.Fitness>
37.1207

> <Gold.PLP.PLP>
-30.7574

> <Gold.PLP.part.hbond>
-3.8916

> <Gold.PLP.part.metal>
0.0000

> <Gold.PLP.part.buried>
-3.0871

> <Gold.PLP.part.nonpolar>
-23.9002

> <Gold.PLP.part.repulsive>
0.4543

> <Gold.PLP.ligand.clash>
0.0000

> <Gold.PLP.ligand.torsion>
1.0653

> <Gold.PLP.Chemscore.Hbond>
2.0351

> <Gold.PLP.Chemscore.CHOScore>
0.7871

> <Gold.PLP.Chemscore.Metal>
0.0000

> <Gold.Chemscore.Hbonds>
donor molecule, donor type, donor heavy atom, donor atom, acceptor molecule, acceptor atom, score
      L1  H     2    44       P1 10747  1.00
      L1  H    10    36       P1  7948  0.88
      L1  H    13    37       P1  7957  0.07
      P1  H  7989  7998       L1    15  0.10
      L1  C    17    39       P1  8028  0.74

> <Gold.PLP.Chemscore.Internal.Correction>
0.0273

> <Gold.Rescore>
     Score         DG    S(hbond)    S(metal)    S(lipo)     H(rot)  DE(clash)    DE(int)     intcor
     13.75     -15.46       1.88        0.00      66.56       1.60       0.22       1.49       ----

> <Gold.Chemscore.Fitness>
13.7523

> <Gold.Chemscore.DG>
-15.4558

> <Gold.Chemscore.ZeroCoef>
-5.4800

> <Gold.Chemscore.Hbond>
1.8809

> <Gold.Chemscore.Metal>
0.0000

> <Gold.Chemscore.Lipo>
66.5570

> <Gold.Chemscore.Internal_Hbond>
0.0000

> <Gold.Chemscore.DEClash>
0.2167

> <Gold.Chemscore.DEInternal>
1.4867

> <Gold.Chemscore.Rot>
1.5991

> <Gold.Chemscore.Internal.Correction>
   9.000000E+99

> <Gold.Chemscore.Hbonds>
donor molecule, donor type, donor heavy atom, donor atom, acceptor molecule, acceptor atom, score
      L1  H     2    44       P1 10747  0.99
      L1  H    10    36       P1  7948  0.85
      L1  H    13    37       P1  7957  0.06

> <Gold.Chemscore.Hbond.Weighted>
-6.2822

> <Gold.Chemscore.Metal.Weighted>
-0.0000

> <Gold.Chemscore.Lipo.Weighted>
-7.7872

> <Gold.Chemscore.Internal_Hbond.Weighted>
0.0000

> <Gold.Chemscore.DEClash.Weighted>
0.2167

> <Gold.Chemscore.DEInternal.Weighted>
1.4867

> <Gold.Chemscore.Rot.Weighted>
4.0936

> <Gold.Chemscore.Internal.Correction.Weighted>
   9.000000E+99

> <Gold.Protein.RotatedTorsions>
[ 6907 6896 6895 6894 ] final -165.58 input  -60.11 | X-H torsion
[ 7974 7965 7964 7962 ] final -154.13 input  175.53 | X-H torsion
[ 8008 7997 7996 7995 ] final -175.38 input   59.86 | X-H torsion
[ 10167 10162 10161 10158 ] final  143.37 input  -65.29 | X-H torsion
[ 10718 10713 10712 10709 ] final   86.74 input   66.30 | X-H torsion
[ 10763 10752 10751 10750 ] final -138.74 input  -60.55 | X-H torsion
[ 11005 11000 10999 10996 ] final  -28.23 input  -57.11 | X-H torsion

> <Gold.Protein.ActiveResidues>
 VAL166  LYS551  ARG553  GLY616  TRP617  ASP618  TYR619  PRO620  LYS621  CYS622 
 ASP623  PHE694  ASN695  SER759  ASP760  ASP761  ALA762  ILE779  LEU786  VAL792 
 PHE793  MET794  SER795  GLU796  ALA797  LYS798  CYS799  TRP800  GLU811  SER814 

> <Gold.Protein.RotatedAtoms>
  151.4299  133.3673  159.2767 H   0  0  0  0  0  0  0  0  0  0  0  0  # atno 6907 bound_to 6896
  150.9232  134.8651  159.7513 H   0  0  0  0  0  0  0  0  0  0  0  0  # atno 6908 bound_to 6896
  152.4992  134.4239  159.9542 H   0  0  0  0  0  0  0  0  0  0  0  0  # atno 6909 bound_to 6896
  144.7705  140.4431  143.5910 H   0  0  0  0  0  0  0  0  0  0  0  0  # atno 7974 bound_to 7965
  155.9819  140.1183  157.0719 H   0  0  0  0  0  0  0  0  0  0  0  0  # atno 8008 bound_to 7997
  154.4185  140.1143  156.5515 H   0  0  0  0  0  0  0  0  0  0  0  0  # atno 8009 bound_to 7997
  155.6459  140.3473  155.4733 H   0  0  0  0  0  0  0  0  0  0  0  0  # atno 8010 bound_to 7997
  139.4971  144.6044  151.6410 H   0  0  0  0  0  0  0  0  0  0  0  0  # atno 10167 bound_to 10162
  157.6932  131.0228  150.3019 H   0  0  0  0  0  0  0  0  0  0  0  0  # atno 10718 bound_to 10713
  154.8629  135.3603  154.5433 H   0  0  0  0  0  0  0  0  0  0  0  0  # atno 10763 bound_to 10752
  153.6054  135.7011  153.5372 H   0  0  0  0  0  0  0  0  0  0  0  0  # atno 10764 bound_to 10752
  153.3255  135.4139  155.1413 H   0  0  0  0  0  0  0  0  0  0  0  0  # atno 10765 bound_to 10752
  140.9190  133.7411  156.0775 H   0  0  0  0  0  0  0  0  0  0  0  0  # atno 11005 bound_to 11000
  145.6338  139.1540  143.2954 LP  0  0  0  0  0  0  0  0  0  0  0  0  # atno 17320 bound_to 7965
  146.1848  140.6440  142.9173 LP  0  0  0  0  0  0  0  0  0  0  0  0  # atno 17321 bound_to 7965
  140.5703  144.0121  150.6213 LP  0  0  0  0  0  0  0  0  0  0  0  0  # atno 17342 bound_to 10162
  140.3236  143.3121  152.0759 LP  0  0  0  0  0  0  0  0  0  0  0  0  # atno 17343 bound_to 10162
  156.3533  130.3834  149.7311 LP  0  0  0  0  0  0  0  0  0  0  0  0  # atno 17370 bound_to 10713
  156.4781  130.8028  151.3043 LP  0  0  0  0  0  0  0  0  0  0  0  0  # atno 17371 bound_to 10713
  140.8012  134.3506  157.5439 LP  0  0  0  0  0  0  0  0  0  0  0  0  # atno 17394 bound_to 11000
  139.8772  134.9199  156.3237 LP  0  0  0  0  0  0  0  0  0  0  0  0  # atno 17395 bound_to 11000

$$$$
