AV-unprocessed.smi:1644|AV-procd|sdf|6589|dock4
  -GOLD-   22720 7283D 1   1.00000     0.00000
 Structure written by MMmdl.
 50 52  0  0  0  0  0  0  0  0  2 V2000
  145.6631  137.7280  155.6441 C   0  0  0  0  0  0  0  0  0  0  0  0
  147.1100  137.2731  155.4261 C   0  0  0  0  0  0  0  0  0  0  0  0
  147.3976  135.9035  156.0745 C   0  0  0  0  0  0  0  0  0  0  0  0
  148.8394  135.3699  155.9116 C   0  0  1  0  0  0  0  0  0  0  0  0
  149.5189  135.9008  154.7465 N   0  0  0  0  0  0  0  0  0  0  0  0
  150.6571  136.5333  155.0613 C   0  0  0  0  0  0  0  0  0  0  0  0
  151.4271  137.0524  154.2544 O   0  0  0  0  0  0  0  0  0  0  0  0
  150.8100  136.4933  156.3979 N   0  0  0  0  0  0  0  0  0  0  0  0
  151.9457  137.0787  157.1167 C   0  0  0  0  0  0  0  0  0  0  0  0
  152.0056  138.6091  156.9386 C   0  0  2  0  0  0  0  0  0  0  0  0
  153.3428  139.0382  157.1064 O   0  0  0  0  0  0  0  0  0  0  0  0
  151.1324  139.3387  157.9776 C   0  0  0  0  0  0  0  0  0  0  0  0
  150.9341  140.7567  157.6536 N   0  0  0  0  0  0  0  0  0  0  0  0
  150.3039  141.3360  156.5964 C   0  0  0  0  0  0  0  0  0  0  0  0
  150.3897  142.6859  156.7581 N   0  3  0  0  0  0  0  0  0  0  0  0
  151.0841  142.9708  157.9365 C   0  0  0  0  0  0  0  0  0  0  0  0
  151.4218  144.1832  158.5265 C   0  0  0  0  0  0  0  0  0  0  0  0
  152.1392  144.1309  159.7433 C   0  0  0  0  0  0  0  0  0  0  0  0
  152.5244  145.4381  160.4150 C   0  0  0  0  0  0  0  0  0  0  0  0
  152.4941  142.8880  160.3294 C   0  0  0  0  0  0  0  0  0  0  0  0
  153.2625  142.8427  161.6392 C   0  0  0  0  0  0  0  0  0  0  0  0
  152.1434  141.6659  159.7128 C   0  0  0  0  0  0  0  0  0  0  0  0
  151.4366  141.7366  158.5150 C   0  0  0  0  0  0  0  0  0  0  0  0
  149.8042  135.8347  156.9874 C   0  0  0  0  0  0  0  0  0  0  0  0
  149.6553  135.6175  158.1895 O   0  0  0  0  0  0  0  0  0  0  0  0
  145.4855  138.6965  155.1763 H   0  0  0  0  0  0  0  0  0  0  0  0
  145.4375  137.8254  156.7065 H   0  0  0  0  0  0  0  0  0  0  0  0
  144.9571  137.0168  155.2146 H   0  0  0  0  0  0  0  0  0  0  0  0
  147.3081  137.2279  154.3551 H   0  0  0  0  0  0  0  0  0  0  0  0
  147.7806  138.0308  155.8320 H   0  0  0  0  0  0  0  0  0  0  0  0
  147.1589  135.9544  157.1377 H   0  0  0  0  0  0  0  0  0  0  0  0
  146.7105  135.1676  155.6552 H   0  0  0  0  0  0  0  0  0  0  0  0
  148.8426  134.2800  155.8704 H   0  0  0  0  0  0  0  0  0  0  0  0
  149.1700  135.7834  153.8061 H   0  0  0  0  0  0  0  0  0  0  0  0
  151.8271  136.8377  158.1744 H   0  0  0  0  0  0  0  0  0  0  0  0
  152.8886  136.6120  156.8252 H   0  0  0  0  0  0  0  0  0  0  0  0
  151.6738  138.8857  155.9371 H   0  0  0  0  0  0  0  0  0  0  0  0
  153.5659  138.9764  158.0230 H   0  0  0  0  0  0  0  0  0  0  0  0
  150.1508  138.8704  158.0612 H   0  0  0  0  0  0  0  0  0  0  0  0
  151.5879  139.2839  158.9676 H   0  0  0  0  0  0  0  0  0  0  0  0
  149.8202  140.8182  155.7805 H   0  0  0  0  0  0  0  0  0  0  0  0
  151.1471  145.1256  158.0754 H   0  0  0  0  0  0  0  0  0  0  0  0
  153.6070  145.5090  160.5235 H   0  0  0  0  0  0  0  0  0  0  0  0
  152.0716  145.5074  161.4043 H   0  0  0  0  0  0  0  0  0  0  0  0
  152.1913  146.2991  159.8348 H   0  0  0  0  0  0  0  0  0  0  0  0
  153.4493  141.8164  161.9570 H   0  0  0  0  0  0  0  0  0  0  0  0
  152.7003  143.3386  162.4308 H   0  0  0  0  0  0  0  0  0  0  0  0
  154.2271  143.3399  161.5344 H   0  0  0  0  0  0  0  0  0  0  0  0
  152.4122  140.7189  160.1579 H   0  0  0  0  0  0  0  0  0  0  0  0
  150.0003  143.3598  156.1113 H   0  0  0  0  0  0  0  0  0  0  0  0
  1  2  1  0  0  0  0
  1 26  1  0  0  0  0
  1 27  1  0  0  0  0
  1 28  1  0  0  0  0
  2  3  1  0  0  0  0
  2 29  1  0  0  0  0
  2 30  1  0  0  0  0
  3  4  1  0  0  0  0
  3 31  1  0  0  0  0
  3 32  1  0  0  0  0
  4 24  1  0  0  0  0
  4  5  1  0  0  0  0
  4 33  1  0  0  0  0
  5  6  1  0  0  0  0
  5 34  1  0  0  0  0
  6  7  2  0  0  0  0
  6  8  1  0  0  0  0
  8  9  1  0  0  0  0
  8 24  1  0  0  0  0
  9 10  1  0  0  0  0
  9 35  1  0  0  0  0
  9 36  1  0  0  0  0
 10 11  1  0  0  0  0
 10 12  1  0  0  0  0
 10 37  1  0  0  0  0
 11 38  1  0  0  0  0
 12 13  1  0  0  0  0
 12 39  1  0  0  0  0
 12 40  1  0  0  0  0
 13 23  1  0  0  0  0
 13 14  1  0  0  0  0
 14 15  2  0  0  0  0
 14 41  1  0  0  0  0
 15 16  1  0  0  0  0
 15 50  1  0  0  0  0
 16 23  2  0  0  0  0
 16 17  1  0  0  0  0
 17 18  2  0  0  0  0
 17 42  1  0  0  0  0
 18 19  1  0  0  0  0
 18 20  1  0  0  0  0
 19 43  1  0  0  0  0
 19 44  1  0  0  0  0
 19 45  1  0  0  0  0
 20 21  1  0  0  0  0
 20 22  2  0  0  0  0
 21 46  1  0  0  0  0
 21 47  1  0  0  0  0
 21 48  1  0  0  0  0
 22 23  1  0  0  0  0
 22 49  1  0  0  0  0
 24 25  2  0  0  0  0
M  CHG  1  15   1
M  END
> <s_m_source_file>
AV-unprocessed.smi

> <i_m_source_file_index>
1644

> <i_lp_mmshare_version>
43012

> <i_f3d_flags>
0

> <s_epik_input>
W0NIM11bQ0gyXVtDSDJdW0NAQEhdMVtOSF1DKD1PKU4oQzE9TylbQ0gyXVtDQEhdKFtPSF0pW0NIMl1uKFtjSF1uMiljKGMyMylbY0hdYyhbQ0gzXSljKFtjSF0zKVtDSDNd

> <s_epik_cmdline>
J2VwaWtfcHl0aG9uJywgJy1waCcsICc3LjAnLCAnLXRuJywgJzgnLCAnLW1hJywgJzIwMCcsICctbWV0YWxfYmluZGluZycsICctaW1hZScsICc8aW5maWxlLm1hZT4nLCAnLW9tYWUnLCAnPG91dGZpbGUubWFlPic=

> <r_lp_tautomer_probability>
1

> <r_epik_Ionization_Penalty>
1.06742

> <r_epik_Ionization_Penalty_Charging>
1.06736

> <r_epik_Ionization_Penalty_Neutral>
5.56132e-05

> <r_epik_State_Penalty>
1.12163

> <r_epik_Charging_Adjusted_Penalty>
2.18899

> <i_epik_Tot_Q>
1

> <i_epik_Tot_abs_Q>
1

> <r_epik_Metal_State_Penalty>
1.26636

> <b_epik_Metal_Only>
0

> <s_lp_Force_Field>
OPLS_2005

> <r_lp_Energy>
29.5638

> <b_lp_Chiralities_Consistent>
1

> <s_lp_Variant>
AV-unprocessed.smi:1644-6

> <Gold.Version>
5.8.1

> <Gold.Id.Protein>
6NUR|6NUR_protein|mol2

> <Gold.PLP.Fitness>
56.7282

> <Gold.PLP.PLP>
-40.2508

> <Gold.PLP.part.hbond>
-4.7703

> <Gold.PLP.part.metal>
0.0000

> <Gold.PLP.part.buried>
-8.0605

> <Gold.PLP.part.nonpolar>
-29.6355

> <Gold.PLP.part.repulsive>
0.8212

> <Gold.PLP.ligand.clash>
0.0000

> <Gold.PLP.ligand.torsion>
0.7997

> <Gold.PLP.Chemscore.Hbond>
5.9840

> <Gold.PLP.Chemscore.CHOScore>
0.0000

> <Gold.PLP.Chemscore.Metal>
0.0000

> <Gold.Chemscore.Hbonds>
donor molecule, donor type, donor heavy atom, donor atom, acceptor molecule, acceptor atom, score
      L1  H     5    34       P1  7948  1.00
      L1  H    15    50       P1  8028  2.00
      P1  H  6896  6907       L1    25  1.00
      P1  H  7997  8009       L1    11  1.00
      P1  H 10752 10763       L1     7  0.84

> <Gold.PLP.Chemscore.Internal.Correction>
0.1249

> <Gold.Rescore>
     Score         DG    S(hbond)    S(metal)    S(lipo)     H(rot)  DE(clash)    DE(int)     intcor
     20.95     -22.09       3.70        0.00      97.38       2.80       0.28       0.85       ----

> <Gold.Chemscore.Fitness>
20.9550

> <Gold.Chemscore.DG>
-22.0895

> <Gold.Chemscore.ZeroCoef>
-5.4800

> <Gold.Chemscore.Hbond>
3.7048

> <Gold.Chemscore.Metal>
0.0000

> <Gold.Chemscore.Lipo>
97.3797

> <Gold.Chemscore.Internal_Hbond>
0.0000

> <Gold.Chemscore.DEClash>
0.2795

> <Gold.Chemscore.DEInternal>
0.8550

> <Gold.Chemscore.Rot>
2.7961

> <Gold.Chemscore.Internal.Correction>
   9.000000E+99

> <Gold.Chemscore.Hbonds>
donor molecule, donor type, donor heavy atom, donor atom, acceptor molecule, acceptor atom, score
      L1  H     5    34       P1  7948  0.75
      L1  H    15    50       P1  8028  0.98
      P1  H  6896  6907       L1    25  0.96
      P1  H  7997  8009       L1    11  0.42
      P1  H 10752 10763       L1     7  0.40

> <Gold.Chemscore.Hbond.Weighted>
-12.3741

> <Gold.Chemscore.Metal.Weighted>
-0.0000

> <Gold.Chemscore.Lipo.Weighted>
-11.3934

> <Gold.Chemscore.Internal_Hbond.Weighted>
0.0000

> <Gold.Chemscore.DEClash.Weighted>
0.2795

> <Gold.Chemscore.DEInternal.Weighted>
0.8550

> <Gold.Chemscore.Rot.Weighted>
7.1580

> <Gold.Chemscore.Internal.Correction.Weighted>
   9.000000E+99

> <Gold.Protein.RotatedTorsions>
[ 6907 6896 6895 6894 ] final  -66.66 input  -60.11 | X-H torsion
[ 7974 7965 7964 7962 ] final -111.34 input  175.53 | X-H torsion
[ 8008 7997 7996 7995 ] final -172.88 input   59.86 | X-H torsion
[ 10167 10162 10161 10158 ] final   17.76 input  -65.29 | X-H torsion
[ 10718 10713 10712 10709 ] final  -51.89 input   66.30 | X-H torsion
[ 10763 10752 10751 10750 ] final   26.20 input  -60.55 | X-H torsion
[ 11005 11000 10999 10996 ] final   71.79 input  -57.11 | X-H torsion

> <Gold.Protein.ActiveResidues>
 VAL166  LYS551  ARG553  GLY616  TRP617  ASP618  TYR619  PRO620  LYS621  CYS622 
 ASP623  PHE694  ASN695  SER759  ASP760  ASP761  ALA762  ILE779  LEU786  VAL792 
 PHE793  MET794  SER795  GLU796  ALA797  LYS798  CYS799  TRP800  GLU811  SER814 

> <Gold.Protein.RotatedAtoms>
  150.7453  134.5990  159.6026 H   0  0  0  0  0  0  0  0  0  0  0  0  # atno 6907 bound_to 6896
  152.3357  134.7198  160.0286 H   0  0  0  0  0  0  0  0  0  0  0  0  # atno 6908 bound_to 6896
  151.7667  133.3302  159.3469 H   0  0  0  0  0  0  0  0  0  0  0  0  # atno 6909 bound_to 6896
  145.1573  140.8860  143.3611 H   0  0  0  0  0  0  0  0  0  0  0  0  # atno 7974 bound_to 7965
  155.9503  140.1125  157.0982 H   0  0  0  0  0  0  0  0  0  0  0  0  # atno 8008 bound_to 7997
  154.4108  140.1202  156.5109 H   0  0  0  0  0  0  0  0  0  0  0  0  # atno 8009 bound_to 7997
  155.6851  140.3473  155.4873 H   0  0  0  0  0  0  0  0  0  0  0  0  # atno 8010 bound_to 7997
  140.5702  143.9175  150.6707 H   0  0  0  0  0  0  0  0  0  0  0  0  # atno 10167 bound_to 10162
  156.1670  130.4149  149.9705 H   0  0  0  0  0  0  0  0  0  0  0  0  # atno 10718 bound_to 10713
  153.0639  135.6565  154.0400 H   0  0  0  0  0  0  0  0  0  0  0  0  # atno 10763 bound_to 10752
  154.0061  135.2932  155.3399 H   0  0  0  0  0  0  0  0  0  0  0  0  # atno 10764 bound_to 10752
  154.6988  135.5253  153.8566 H   0  0  0  0  0  0  0  0  0  0  0  0  # atno 10765 bound_to 10752
  139.9525  134.7202  156.0830 H   0  0  0  0  0  0  0  0  0  0  0  0  # atno 11005 bound_to 11000
  145.0368  139.3294  143.5997 LP  0  0  0  0  0  0  0  0  0  0  0  0  # atno 17320 bound_to 7965
  146.3487  139.9726  142.8704 LP  0  0  0  0  0  0  0  0  0  0  0  0  # atno 17321 bound_to 7965
  140.2648  143.3498  152.1291 LP  0  0  0  0  0  0  0  0  0  0  0  0  # atno 17342 bound_to 10162
  139.5114  144.6899  151.5786 LP  0  0  0  0  0  0  0  0  0  0  0  0  # atno 17343 bound_to 10162
  156.7517  130.9118  151.3637 LP  0  0  0  0  0  0  0  0  0  0  0  0  # atno 17370 bound_to 10713
  157.6775  130.9108  150.0185 LP  0  0  0  0  0  0  0  0  0  0  0  0  # atno 17371 bound_to 10713
  141.1190  133.6618  156.3167 LP  0  0  0  0  0  0  0  0  0  0  0  0  # atno 17394 bound_to 11000
  140.5686  134.5863  157.5452 LP  0  0  0  0  0  0  0  0  0  0  0  0  # atno 17395 bound_to 11000

$$$$
