AV-unprocessed.smi:1629|AV-procd|sdf|6521|dock8
  -GOLD-   22720 7193D 1   1.00000     0.00000
 Structure written by MMmdl.
 44 45  0  0  0  0  0  0  0  0  1 V2000
  148.5096  139.4923  156.0275 C   0  0  0  0  0  0  0  0  0  0  0  0
  148.5712  140.0215  154.2689 S   0  0  0  0  0  0  0  0  0  0  0  0
  147.2056  140.0214  153.7227 O   0  0  0  0  0  0  0  0  0  0  0  0
  149.4088  141.2270  154.1755 O   0  0  0  0  0  0  0  0  0  0  0  0
  149.4279  138.7219  153.5238 N   0  0  0  0  0  0  0  0  0  0  0  0
  150.6271  138.1816  154.1722 C   0  0  0  0  0  0  0  0  0  0  0  0
  150.2378  137.1510  155.2609 C   0  0  0  0  0  0  0  0  0  0  0  0
  151.4330  136.7901  156.1607 C   0  0  0  0  0  0  0  0  0  0  0  0
  151.9841  138.0332  156.7206 N   0  0  0  0  0  0  0  0  0  0  0  0
  151.7304  138.5396  157.9537 C   0  0  0  0  0  0  0  0  0  0  0  0
  151.0060  137.9742  158.7739 O   0  0  0  0  0  0  0  0  0  0  0  0
  152.3603  139.6963  158.2285 N   0  0  0  0  0  0  0  0  0  0  0  0
  152.4002  140.3517  159.5351 C   0  0  0  0  0  0  0  0  0  0  0  0
  153.3401  141.5757  159.5463 C   0  0  0  0  0  0  0  0  0  0  0  0
  152.6166  142.9114  159.4758 C   0  0  0  0  0  0  0  0  0  0  0  0
  152.5627  143.7602  160.6021 C   0  0  0  0  0  0  0  0  0  0  0  0
  151.8346  144.9613  160.5050 C   0  0  0  0  0  0  0  0  0  0  0  0
  151.1977  145.2701  159.2882 C   0  0  0  0  0  0  0  0  0  0  0  0
  151.3245  144.3638  158.2165 C   0  0  0  0  0  0  0  0  0  0  0  0
  152.0204  143.2094  158.2996 N   0  0  0  0  0  0  0  0  0  0  0  0
  152.5859  138.8518  155.6638 C   0  0  0  0  0  0  0  0  0  0  0  0
  151.4543  139.3534  154.7484 C   0  0  0  0  0  0  0  0  0  0  0  0
  147.9888  140.2481  156.6152 H   0  0  0  0  0  0  0  0  0  0  0  0
  149.5241  139.3744  156.4077 H   0  0  0  0  0  0  0  0  0  0  0  0
  147.9791  138.5438  156.1054 H   0  0  0  0  0  0  0  0  0  0  0  0
  149.6060  138.9208  152.5397 H   0  0  0  0  0  0  0  0  0  0  0  0
  151.2339  137.6773  153.4194 H   0  0  0  0  0  0  0  0  0  0  0  0
  149.4379  137.5533  155.8802 H   0  0  0  0  0  0  0  0  0  0  0  0
  149.8412  136.2458  154.8003 H   0  0  0  0  0  0  0  0  0  0  0  0
  151.1335  136.0653  156.9179 H   0  0  0  0  0  0  0  0  0  0  0  0
  152.2005  136.2865  155.5713 H   0  0  0  0  0  0  0  0  0  0  0  0
  152.9241  140.1065  157.4985 H   0  0  0  0  0  0  0  0  0  0  0  0
  151.3894  140.6607  159.8021 H   0  0  0  0  0  0  0  0  0  0  0  0
  152.7114  139.6476  160.3082 H   0  0  0  0  0  0  0  0  0  0  0  0
  153.9450  141.5542  160.4537 H   0  0  0  0  0  0  0  0  0  0  0  0
  154.0437  141.5083  158.7156 H   0  0  0  0  0  0  0  0  0  0  0  0
  153.0508  143.4904  161.5269 H   0  0  0  0  0  0  0  0  0  0  0  0
  151.7605  145.6292  161.3505 H   0  0  0  0  0  0  0  0  0  0  0  0
  150.6279  146.1805  159.1773 H   0  0  0  0  0  0  0  0  0  0  0  0
  150.8522  144.5705  157.2677 H   0  0  0  0  0  0  0  0  0  0  0  0
  153.1556  139.6947  156.0580 H   0  0  0  0  0  0  0  0  0  0  0  0
  153.2989  138.2562  155.0919 H   0  0  0  0  0  0  0  0  0  0  0  0
  151.8683  139.9540  153.9378 H   0  0  0  0  0  0  0  0  0  0  0  0
  150.8051  140.0175  155.3222 H   0  0  0  0  0  0  0  0  0  0  0  0
  1  2  1  0  0  0  0
  1 23  1  0  0  0  0
  1 24  1  0  0  0  0
  1 25  1  0  0  0  0
  2  3  2  0  0  0  0
  2  4  2  0  0  0  0
  2  5  1  0  0  0  0
  5  6  1  0  0  0  0
  5 26  1  0  0  0  0
  6 22  1  0  0  0  0
  6  7  1  0  0  0  0
  6 27  1  0  0  0  0
  7  8  1  0  0  0  0
  7 28  1  0  0  0  0
  7 29  1  0  0  0  0
  8  9  1  0  0  0  0
  8 30  1  0  0  0  0
  8 31  1  0  0  0  0
  9 10  1  0  0  0  0
  9 21  1  0  0  0  0
 10 11  2  0  0  0  0
 10 12  1  0  0  0  0
 12 13  1  0  0  0  0
 12 32  1  0  0  0  0
 13 14  1  0  0  0  0
 13 33  1  0  0  0  0
 13 34  1  0  0  0  0
 14 15  1  0  0  0  0
 14 35  1  0  0  0  0
 14 36  1  0  0  0  0
 15 20  1  0  0  0  0
 15 16  2  0  0  0  0
 16 17  1  0  0  0  0
 16 37  1  0  0  0  0
 17 18  2  0  0  0  0
 17 38  1  0  0  0  0
 18 19  1  0  0  0  0
 18 39  1  0  0  0  0
 19 20  2  0  0  0  0
 19 40  1  0  0  0  0
 21 22  1  0  0  0  0
 21 41  1  0  0  0  0
 21 42  1  0  0  0  0
 22 43  1  0  0  0  0
 22 44  1  0  0  0  0
M  END
> <s_m_source_file>
AV-unprocessed.smi

> <i_m_source_file_index>
1629

> <i_lp_mmshare_version>
43012

> <i_f3d_flags>
0

> <s_epik_input>
W0NIM11TKD1PKSg9TylbTkhdW0NIXTFbQ0gyXVtDSDJdTihbQ0gyXVtDSDJdMSlDKD1PKVtOSF1bQ0gyXVtDSDJdYzJbY0hdW2NIXVtjSF1bY0hdbjI=

> <s_epik_cmdline>
J2VwaWtfcHl0aG9uJywgJy1waCcsICc3LjAnLCAnLXRuJywgJzgnLCAnLW1hJywgJzIwMCcsICctbWV0YWxfYmluZGluZycsICctaW1hZScsICc8aW5maWxlLm1hZT4nLCAnLW9tYWUnLCAnPG91dGZpbGUubWFlPic=

> <r_epik_Ionization_Penalty>
0.044864

> <r_epik_Ionization_Penalty_Charging>
0

> <r_epik_Ionization_Penalty_Neutral>
0.044864

> <r_epik_State_Penalty>
0.0379889

> <r_epik_Charging_Adjusted_Penalty>
0.0379889

> <i_epik_Tot_Q>
0

> <i_epik_Tot_abs_Q>
0

> <r_epik_Metal_State_Penalty>
0.04187

> <b_epik_Metal_Only>
0

> <s_lp_Force_Field>
OPLS_2005

> <r_lp_Energy>
21.9129

> <b_lp_Chiralities_Consistent>
1

> <s_lp_Variant>
AV-unprocessed.smi:1629-1

> <Gold.Version>
5.8.1

> <Gold.Id.Protein>
6NUR|6NUR_protein|mol2

> <Gold.PLP.Fitness>
49.3888

> <Gold.PLP.PLP>
-44.0226

> <Gold.PLP.part.hbond>
-4.0000

> <Gold.PLP.part.metal>
0.0000

> <Gold.PLP.part.buried>
-2.7436

> <Gold.PLP.part.nonpolar>
-36.7650

> <Gold.PLP.part.repulsive>
0.8124

> <Gold.PLP.ligand.clash>
1.4591

> <Gold.PLP.ligand.torsion>
0.9846

> <Gold.PLP.Chemscore.Hbond>
1.8783

> <Gold.PLP.Chemscore.CHOScore>
1.0000

> <Gold.PLP.Chemscore.Metal>
0.0000

> <Gold.Chemscore.Hbonds>
donor molecule, donor type, donor heavy atom, donor atom, acceptor molecule, acceptor atom, score
      L1  H     5    26       P1  7957  1.00
      P1  H  7989  7998       L1     4  0.11
      P1  H  8011  8017       L1     4  0.39
      L1  C    19    40       P1  8028  1.00

> <Gold.PLP.Chemscore.Internal.Correction>
0.1598

> <Gold.Rescore>
     Score         DG    S(hbond)    S(metal)    S(lipo)     H(rot)  DE(clash)    DE(int)     intcor
     15.46     -18.91       1.66        0.00     111.96       2.03       0.21       3.24       ----

> <Gold.Chemscore.Fitness>
15.4579

> <Gold.Chemscore.DG>
-18.9071

> <Gold.Chemscore.ZeroCoef>
-5.4800

> <Gold.Chemscore.Hbond>
1.6573

> <Gold.Chemscore.Metal>
0.0000

> <Gold.Chemscore.Lipo>
111.9570

> <Gold.Chemscore.Internal_Hbond>
0.0000

> <Gold.Chemscore.DEClash>
0.2123

> <Gold.Chemscore.DEInternal>
3.2370

> <Gold.Chemscore.Rot>
2.0340

> <Gold.Chemscore.Internal.Correction>
   9.000000E+99

> <Gold.Chemscore.Hbonds>
donor molecule, donor type, donor heavy atom, donor atom, acceptor molecule, acceptor atom, score
      L1  H     5    26       P1  7957  0.79
      P1  H  7989  7998       L1     4  0.09
      P1  H  8011  8017       L1     4  0.39

> <Gold.Chemscore.Hbond.Weighted>
-5.5352

> <Gold.Chemscore.Metal.Weighted>
-0.0000

> <Gold.Chemscore.Lipo.Weighted>
-13.0990

> <Gold.Chemscore.Internal_Hbond.Weighted>
0.0000

> <Gold.Chemscore.DEClash.Weighted>
0.2123

> <Gold.Chemscore.DEInternal.Weighted>
3.2370

> <Gold.Chemscore.Rot.Weighted>
5.2071

> <Gold.Chemscore.Internal.Correction.Weighted>
   9.000000E+99

> <Gold.Protein.RotatedTorsions>
[ 6907 6896 6895 6894 ] final   80.69 input  -60.11 | X-H torsion
[ 7974 7965 7964 7962 ] final -161.63 input  175.53 | X-H torsion
[ 8008 7997 7996 7995 ] final  -84.63 input   59.86 | X-H torsion
[ 10167 10162 10161 10158 ] final  158.22 input  -65.29 | X-H torsion
[ 10718 10713 10712 10709 ] final   42.31 input   66.30 | X-H torsion
[ 10763 10752 10751 10750 ] final   20.88 input  -60.55 | X-H torsion
[ 11005 11000 10999 10996 ] final  -46.63 input  -57.11 | X-H torsion

> <Gold.Protein.ActiveResidues>
 VAL166  LYS551  ARG553  GLY616  TRP617  ASP618  TYR619  PRO620  LYS621  CYS622 
 ASP623  PHE694  ASN695  SER759  ASP760  ASP761  ALA762  ILE779  LEU786  VAL792 
 PHE793  MET794  SER795  GLU796  ALA797  LYS798  CYS799  TRP800  GLU811  SER814 

> <Gold.Protein.RotatedAtoms>
  152.5243  134.3319  159.9185 H   0  0  0  0  0  0  0  0  0  0  0  0  # atno 6907 bound_to 6896
  151.3268  133.4011  159.2667 H   0  0  0  0  0  0  0  0  0  0  0  0  # atno 6908 bound_to 6896
  150.9914  134.9265  159.7959 H   0  0  0  0  0  0  0  0  0  0  0  0  # atno 6909 bound_to 6896
  144.7384  140.3370  143.6142 H   0  0  0  0  0  0  0  0  0  0  0  0  # atno 7974 bound_to 7965
  154.6319  140.0602  156.9742 H   0  0  0  0  0  0  0  0  0  0  0  0  # atno 8008 bound_to 7997
  155.1653  140.3286  155.4385 H   0  0  0  0  0  0  0  0  0  0  0  0  # atno 8009 bound_to 7997
  156.2487  140.1923  156.6758 H   0  0  0  0  0  0  0  0  0  0  0  0  # atno 8010 bound_to 7997
  139.4826  144.4845  151.8397 H   0  0  0  0  0  0  0  0  0  0  0  0  # atno 10167 bound_to 10162
  157.4034  130.7873  149.7368 H   0  0  0  0  0  0  0  0  0  0  0  0  # atno 10718 bound_to 10713
  153.1041  135.6680  153.9619 H   0  0  0  0  0  0  0  0  0  0  0  0  # atno 10763 bound_to 10752
  153.9181  135.3017  155.3449 H   0  0  0  0  0  0  0  0  0  0  0  0  # atno 10764 bound_to 10752
  154.7462  135.5056  153.9284 H   0  0  0  0  0  0  0  0  0  0  0  0  # atno 10765 bound_to 10752
  141.0591  133.6715  156.3182 H   0  0  0  0  0  0  0  0  0  0  0  0  # atno 11005 bound_to 11000
  145.7414  139.1765  143.2374 LP  0  0  0  0  0  0  0  0  0  0  0  0  # atno 17320 bound_to 7965
  146.1131  140.7403  142.9493 LP  0  0  0  0  0  0  0  0  0  0  0  0  # atno 17321 bound_to 7965
  140.4323  144.2098  150.5888 LP  0  0  0  0  0  0  0  0  0  0  0  0  # atno 17342 bound_to 10162
  140.4766  143.2394  151.9014 LP  0  0  0  0  0  0  0  0  0  0  0  0  # atno 17343 bound_to 10162
  155.9829  130.4005  150.3389 LP  0  0  0  0  0  0  0  0  0  0  0  0  # atno 17370 bound_to 10713
  157.1519  131.0323  151.2881 LP  0  0  0  0  0  0  0  0  0  0  0  0  # atno 17371 bound_to 10713
  140.5905  134.5655  157.5498 LP  0  0  0  0  0  0  0  0  0  0  0  0  # atno 17394 bound_to 11000
  139.9416  134.7777  156.0664 LP  0  0  0  0  0  0  0  0  0  0  0  0  # atno 17395 bound_to 11000

$$$$
