AV-unprocessed.smi:1859|AV-procd|sdf|7546|dock4
  -GOLD-   22720 9263D 1   1.00000     0.00000
 Structure written by MMmdl.
 46 48  0  0  0  0  0  0  0  0  2 V2000
  151.8268  135.9496  156.2768 O   0  0  0  0  0  0  0  0  0  0  0  0
  151.1410  136.9643  156.1476 C   0  0  0  0  0  0  0  0  0  0  0  0
  150.2720  137.3770  157.0831 N   0  0  0  0  0  0  0  0  0  0  0  0
  149.9889  136.6681  158.3246 C   0  0  0  0  0  0  0  0  0  0  0  0
  148.5557  136.1088  158.3370 C   0  0  0  0  0  0  0  0  0  0  0  0
  148.1188  135.6893  159.7262 C   0  0  0  0  0  0  0  0  0  0  0  0
  147.9931  136.6121  160.7872 C   0  0  0  0  0  0  0  0  0  0  0  0
  147.5928  136.1493  162.0583 C   0  0  0  0  0  0  0  0  0  0  0  0
  147.3277  134.7761  162.2409 C   0  0  0  0  0  0  0  0  0  0  0  0
  147.4694  133.8988  161.1462 C   0  0  0  0  0  0  0  0  0  0  0  0
  147.8554  134.3806  159.9444 N   0  3  0  0  0  0  0  0  0  0  0  0
  151.2329  137.8282  154.8757 C   0  0  1  0  0  0  0  0  0  0  0  0
  149.8514  138.3365  154.3863 C   0  0  0  0  0  0  0  0  0  0  0  0
  149.3306  139.5667  155.1626 C   0  0  0  0  0  0  0  0  0  0  0  0
  150.4209  140.6438  155.3023 C   0  0  0  0  0  0  0  0  0  0  0  0
  151.6052  140.0408  155.9306 N   0  0  0  0  0  0  0  0  0  0  0  0
  152.0282  140.2537  157.2022 C   0  0  0  0  0  0  0  0  0  0  0  0
  152.9782  139.6394  157.6911 O   0  0  0  0  0  0  0  0  0  0  0  0
  151.2916  141.2816  158.0014 C   0  0  0  0  0  0  0  0  0  0  0  0
  151.2285  142.6976  157.4585 C   0  0  0  0  0  0  0  0  0  0  0  0
  152.1204  142.3825  158.6302 C   0  0  0  0  0  0  0  0  0  0  0  0
  152.2045  139.0203  155.0581 C   0  0  0  0  0  0  0  0  0  0  0  0
  149.7494  138.2231  156.9073 H   0  0  0  0  0  0  0  0  0  0  0  0
  150.7170  135.8682  158.4691 H   0  0  0  0  0  0  0  0  0  0  0  0
  150.1235  137.3642  159.1529 H   0  0  0  0  0  0  0  0  0  0  0  0
  147.8600  136.8555  157.9520 H   0  0  0  0  0  0  0  0  0  0  0  0
  148.4769  135.2464  157.6732 H   0  0  0  0  0  0  0  0  0  0  0  0
  148.2028  137.6606  160.6320 H   0  0  0  0  0  0  0  0  0  0  0  0
  147.4924  136.8393  162.8834 H   0  0  0  0  0  0  0  0  0  0  0  0
  147.0211  134.4013  163.2065 H   0  0  0  0  0  0  0  0  0  0  0  0
  147.2885  132.8348  161.1948 H   0  0  0  0  0  0  0  0  0  0  0  0
  151.6358  137.1863  154.0906 H   0  0  0  0  0  0  0  0  0  0  0  0
  149.9413  138.6078  153.3338 H   0  0  0  0  0  0  0  0  0  0  0  0
  149.1120  137.5353  154.4217 H   0  0  0  0  0  0  0  0  0  0  0  0
  148.4609  139.9820  154.6531 H   0  0  0  0  0  0  0  0  0  0  0  0
  148.9849  139.2697  156.1528 H   0  0  0  0  0  0  0  0  0  0  0  0
  150.6936  141.0253  154.3172 H   0  0  0  0  0  0  0  0  0  0  0  0
  150.0218  141.5014  155.8414 H   0  0  0  0  0  0  0  0  0  0  0  0
  150.4049  140.9383  158.5314 H   0  0  0  0  0  0  0  0  0  0  0  0
  151.7171  142.9246  156.5128 H   0  0  0  0  0  0  0  0  0  0  0  0
  150.3161  143.2586  157.6491 H   0  0  0  0  0  0  0  0  0  0  0  0
  151.8154  142.7255  159.6166 H   0  0  0  0  0  0  0  0  0  0  0  0
  153.1952  142.3779  158.4554 H   0  0  0  0  0  0  0  0  0  0  0  0
  153.1698  138.6687  155.4263 H   0  0  0  0  0  0  0  0  0  0  0  0
  152.4205  139.4679  154.0869 H   0  0  0  0  0  0  0  0  0  0  0  0
  147.9529  133.7283  159.1657 H   0  0  0  0  0  0  0  0  0  0  0  0
  1  2  2  0  0  0  0
  2  3  1  0  0  0  0
  2 12  1  0  0  0  0
  3  4  1  0  0  0  0
  3 23  1  0  0  0  0
  4  5  1  0  0  0  0
  4 24  1  0  0  0  0
  4 25  1  0  0  0  0
  5  6  1  0  0  0  0
  5 26  1  0  0  0  0
  5 27  1  0  0  0  0
  6 11  1  0  0  0  0
  6  7  2  0  0  0  0
  7  8  1  0  0  0  0
  7 28  1  0  0  0  0
  8  9  2  0  0  0  0
  8 29  1  0  0  0  0
  9 10  1  0  0  0  0
  9 30  1  0  0  0  0
 10 11  2  0  0  0  0
 10 31  1  0  0  0  0
 11 46  1  0  0  0  0
 12 22  1  0  0  0  0
 12 13  1  0  0  0  0
 12 32  1  0  0  0  0
 13 14  1  0  0  0  0
 13 33  1  0  0  0  0
 13 34  1  0  0  0  0
 14 15  1  0  0  0  0
 14 35  1  0  0  0  0
 14 36  1  0  0  0  0
 15 16  1  0  0  0  0
 15 37  1  0  0  0  0
 15 38  1  0  0  0  0
 16 17  1  0  0  0  0
 16 22  1  0  0  0  0
 17 18  2  0  0  0  0
 17 19  1  0  0  0  0
 19 21  1  0  0  0  0
 19 20  1  0  0  0  0
 19 39  1  0  0  0  0
 20 21  1  0  0  0  0
 20 40  1  0  0  0  0
 20 41  1  0  0  0  0
 21 42  1  0  0  0  0
 21 43  1  0  0  0  0
 22 44  1  0  0  0  0
 22 45  1  0  0  0  0
M  CHG  1  11   1
M  END
> <s_m_source_file>
AV-unprocessed.smi

> <i_m_source_file_index>
1859

> <i_lp_mmshare_version>
43012

> <i_f3d_flags>
0

> <s_epik_input>
W0NIMl0xW0NIMl1bQ0hdMUMoPU8pTihbQ0gyXTIpW0NIMl1bQ0gyXVtDSDJdW0NASF0yQyg9TylbTkhdW0NIMl1bQ0gyXWMzW2NIXVtjSF1bY0hdW2NIXW4z

> <s_epik_cmdline>
J2VwaWtfcHl0aG9uJywgJy1waCcsICc3LjAnLCAnLXRuJywgJzgnLCAnLW1hJywgJzIwMCcsICctbWV0YWxfYmluZGluZycsICctaW1hZScsICc8aW5maWxlLm1hZT4nLCAnLW9tYWUnLCAnPG91dGZpbGUubWFlPic=

> <r_epik_Ionization_Penalty>
1.84754

> <r_epik_Ionization_Penalty_Charging>
1.84754

> <r_epik_Ionization_Penalty_Neutral>
7.35743e-08

> <r_epik_State_Penalty>
1.96477

> <r_epik_Charging_Adjusted_Penalty>
3.81231

> <i_epik_Tot_Q>
1

> <i_epik_Tot_abs_Q>
1

> <r_epik_Metal_State_Penalty>
1.99062

> <b_epik_Metal_Only>
0

> <s_lp_Force_Field>
OPLS_2005

> <r_lp_Energy>
29.7098

> <b_lp_Chiralities_Consistent>
1

> <s_lp_Variant>
AV-unprocessed.smi:1859-4

> <Gold.Version>
5.8.1

> <Gold.Id.Protein>
6NUR|6NUR_protein|mol2

> <Gold.PLP.Fitness>
46.0782

> <Gold.PLP.PLP>
-41.4788

> <Gold.PLP.part.hbond>
-2.0000

> <Gold.PLP.part.metal>
0.0000

> <Gold.PLP.part.buried>
-3.4061

> <Gold.PLP.part.nonpolar>
-36.6692

> <Gold.PLP.part.repulsive>
0.1075

> <Gold.PLP.ligand.clash>
0.0000

> <Gold.PLP.ligand.torsion>
0.7659

> <Gold.PLP.Chemscore.Hbond>
2.0000

> <Gold.PLP.Chemscore.CHOScore>
0.0000

> <Gold.PLP.Chemscore.Metal>
0.0000

> <Gold.Chemscore.Hbonds>
donor molecule, donor type, donor heavy atom, donor atom, acceptor molecule, acceptor atom, score
      P1  H  7997  8008       L1    18  1.00
      P1  H 10752 10765       L1     1  1.00

> <Gold.PLP.Chemscore.Internal.Correction>
0.1313

> <Gold.Rescore>
     Score         DG    S(hbond)    S(metal)    S(lipo)     H(rot)  DE(clash)    DE(int)     intcor
     17.84     -19.44       1.97        0.00     100.10       1.70       0.04       1.56       ----

> <Gold.Chemscore.Fitness>
17.8376

> <Gold.Chemscore.DG>
-19.4387

> <Gold.Chemscore.ZeroCoef>
-5.4800

> <Gold.Chemscore.Hbond>
1.9742

> <Gold.Chemscore.Metal>
0.0000

> <Gold.Chemscore.Lipo>
100.1007

> <Gold.Chemscore.Internal_Hbond>
0.0000

> <Gold.Chemscore.DEClash>
0.0398

> <Gold.Chemscore.DEInternal>
1.5613

> <Gold.Chemscore.Rot>
1.6980

> <Gold.Chemscore.Internal.Correction>
   9.000000E+99

> <Gold.Chemscore.Hbonds>
donor molecule, donor type, donor heavy atom, donor atom, acceptor molecule, acceptor atom, score
      P1  H  7997  8008       L1    18  0.91
      P1  H 10752 10765       L1     1  0.98

> <Gold.Chemscore.Hbond.Weighted>
-6.5938

> <Gold.Chemscore.Metal.Weighted>
-0.0000

> <Gold.Chemscore.Lipo.Weighted>
-11.7118

> <Gold.Chemscore.Internal_Hbond.Weighted>
0.0000

> <Gold.Chemscore.DEClash.Weighted>
0.0398

> <Gold.Chemscore.DEInternal.Weighted>
1.5613

> <Gold.Chemscore.Rot.Weighted>
4.3469

> <Gold.Chemscore.Internal.Correction.Weighted>
   9.000000E+99

> <Gold.Protein.RotatedTorsions>
[ 6907 6896 6895 6894 ] final  -92.90 input  -60.11 | X-H torsion
[ 7974 7965 7964 7962 ] final  132.55 input  175.53 | X-H torsion
[ 8008 7997 7996 7995 ] final  -87.65 input   59.86 | X-H torsion
[ 10167 10162 10161 10158 ] final   65.20 input  -65.29 | X-H torsion
[ 10718 10713 10712 10709 ] final -134.68 input   66.30 | X-H torsion
[ 10763 10752 10751 10750 ] final -132.87 input  -60.55 | X-H torsion
[ 11005 11000 10999 10996 ] final   71.19 input  -57.11 | X-H torsion

> <Gold.Protein.ActiveResidues>
 VAL166  LYS551  ARG553  GLY616  TRP617  ASP618  TYR619  PRO620  LYS621  CYS622 
 ASP623  PHE694  ASN695  SER759  ASP760  ASP761  ALA762  ILE779  LEU786  VAL792 
 PHE793  MET794  SER795  GLU796  ALA797  LYS798  CYS799  TRP800  GLU811  SER814 

> <Gold.Protein.RotatedAtoms>
  150.6913  134.2051  159.4336 H   0  0  0  0  0  0  0  0  0  0  0  0  # atno 6907 bound_to 6896
  152.0015  134.9923  160.0574 H   0  0  0  0  0  0  0  0  0  0  0  0  # atno 6908 bound_to 6896
  152.1574  133.4525  159.4880 H   0  0  0  0  0  0  0  0  0  0  0  0  # atno 6909 bound_to 6896
  144.9956  139.4362  143.5317 H   0  0  0  0  0  0  0  0  0  0  0  0  # atno 7974 bound_to 7965
  154.6656  140.0563  157.0110 H   0  0  0  0  0  0  0  0  0  0  0  0  # atno 8008 bound_to 7997
  155.1163  140.3243  155.4490 H   0  0  0  0  0  0  0  0  0  0  0  0  # atno 8009 bound_to 7997
  156.2636  140.2005  156.6286 H   0  0  0  0  0  0  0  0  0  0  0  0  # atno 8010 bound_to 7997
  140.1139  144.4793  150.6961 H   0  0  0  0  0  0  0  0  0  0  0  0  # atno 10167 bound_to 10162
  156.2580  130.7193  151.1116 H   0  0  0  0  0  0  0  0  0  0  0  0  # atno 10718 bound_to 10713
  154.8739  135.3784  154.4479 H   0  0  0  0  0  0  0  0  0  0  0  0  # atno 10763 bound_to 10752
  153.5158  135.7029  153.5762 H   0  0  0  0  0  0  0  0  0  0  0  0  # atno 10764 bound_to 10752
  153.4031  135.3943  155.1966 H   0  0  0  0  0  0  0  0  0  0  0  0  # atno 10765 bound_to 10752
  139.9557  134.7149  156.0759 H   0  0  0  0  0  0  0  0  0  0  0  0  # atno 11005 bound_to 11000
  146.3441  139.9314  142.8753 LP  0  0  0  0  0  0  0  0  0  0  0  0  # atno 17320 bound_to 7965
  145.2224  140.9940  143.4038 LP  0  0  0  0  0  0  0  0  0  0  0  0  # atno 17321 bound_to 7965
  140.6910  143.2376  151.5131 LP  0  0  0  0  0  0  0  0  0  0  0  0  # atno 17342 bound_to 10162
  139.5604  144.2170  152.1682 LP  0  0  0  0  0  0  0  0  0  0  0  0  # atno 17343 bound_to 10162
  157.7240  131.0663  150.6014 LP  0  0  0  0  0  0  0  0  0  0  0  0  # atno 17370 bound_to 10713
  156.6099  130.4377  149.5863 LP  0  0  0  0  0  0  0  0  0  0  0  0  # atno 17371 bound_to 10713
  141.1228  133.6608  156.3258 LP  0  0  0  0  0  0  0  0  0  0  0  0  # atno 17394 bound_to 11000
  140.5615  134.5929  157.5435 LP  0  0  0  0  0  0  0  0  0  0  0  0  # atno 17395 bound_to 11000

$$$$
