AV-unprocessed.smi:2908|AV-procd|sdf|11168|dock9
  -GOLD-   2272016 53D 1   1.00000     0.00000
 Structure written by MMmdl.
 43 44  0  0  0  0  0  0  0  0  1 V2000
  150.6362  137.5686  159.6371 O   0  0  0  0  0  0  0  0  0  0  0  0
  150.5357  138.0224  158.4964 C   0  0  0  0  0  0  0  0  0  0  0  0
  149.5875  137.6064  157.6427 N   0  0  0  0  0  0  0  0  0  0  0  0
  148.4823  136.7142  157.9721 C   0  0  0  0  0  0  0  0  0  0  0  0
  147.4668  137.3970  158.9070 C   0  0  0  0  0  0  0  0  0  0  0  0
  147.1768  136.6016  160.1705 C   0  0  0  0  0  0  0  0  0  0  0  0
  146.9701  135.2074  160.1080 C   0  0  0  0  0  0  0  0  0  0  0  0
  146.7427  134.5079  161.3091 C   0  0  0  0  0  0  0  0  0  0  0  0
  146.7300  135.2257  162.5205 C   0  0  0  0  0  0  0  0  0  0  0  0
  146.9445  136.6174  162.4767 C   0  0  0  0  0  0  0  0  0  0  0  0
  147.1675  137.2968  161.3313 N   0  0  0  0  0  0  0  0  0  0  0  0
  151.3585  138.9806  157.9995 N   0  0  0  0  0  0  0  0  0  0  0  0
  151.1222  139.7826  156.7885 C   0  0  0  0  0  0  0  0  0  0  0  0
  150.5836  141.1575  157.2195 C   0  0  0  0  0  0  0  0  0  0  0  0
  151.5595  141.8716  158.1879 C   0  0  0  0  0  0  0  0  0  0  0  0
  150.9849  143.2314  158.6647 C   0  0  1  0  0  0  0  0  0  0  0  0
  149.9537  143.0219  159.6116 O   0  0  0  0  0  0  0  0  0  0  0  0
  152.0175  144.2247  159.2421 C   0  0  0  0  0  0  0  0  0  0  0  0
  152.9701  144.4528  158.3375 F   0  0  0  0  0  0  0  0  0  0  0  0
  151.4601  145.3856  159.5862 F   0  0  0  0  0  0  0  0  0  0  0  0
  152.5972  143.6933  160.3184 F   0  0  0  0  0  0  0  0  0  0  0  0
  152.0034  140.9234  159.3329 C   0  0  0  0  0  0  0  0  0  0  0  0
  152.4507  139.5509  158.7941 C   0  0  0  0  0  0  0  0  0  0  0  0
  149.5780  138.0147  156.7192 H   0  0  0  0  0  0  0  0  0  0  0  0
  147.9936  136.3851  157.0548 H   0  0  0  0  0  0  0  0  0  0  0  0
  148.8677  135.8201  158.4656 H   0  0  0  0  0  0  0  0  0  0  0  0
  147.8390  138.3830  159.1897 H   0  0  0  0  0  0  0  0  0  0  0  0
  146.5326  137.5707  158.3718 H   0  0  0  0  0  0  0  0  0  0  0  0
  146.9941  134.6842  159.1633 H   0  0  0  0  0  0  0  0  0  0  0  0
  146.5837  133.4399  161.3017 H   0  0  0  0  0  0  0  0  0  0  0  0
  146.5598  134.7227  163.4607 H   0  0  0  0  0  0  0  0  0  0  0  0
  146.9433  137.1999  163.3860 H   0  0  0  0  0  0  0  0  0  0  0  0
  152.0602  139.9040  156.2447 H   0  0  0  0  0  0  0  0  0  0  0  0
  150.4392  139.3181  156.0772 H   0  0  0  0  0  0  0  0  0  0  0  0
  150.4095  141.7761  156.3386 H   0  0  0  0  0  0  0  0  0  0  0  0
  149.6126  141.0229  157.6979 H   0  0  0  0  0  0  0  0  0  0  0  0
  152.4540  142.0908  157.6034 H   0  0  0  0  0  0  0  0  0  0  0  0
  150.5240  143.7143  157.8018 H   0  0  0  0  0  0  0  0  0  0  0  0
  150.2104  143.4227  160.4278 H   0  0  0  0  0  0  0  0  0  0  0  0
  152.8276  141.3616  159.8942 H   0  0  0  0  0  0  0  0  0  0  0  0
  151.1863  140.7797  160.0410 H   0  0  0  0  0  0  0  0  0  0  0  0
  152.7510  138.9028  159.6187 H   0  0  0  0  0  0  0  0  0  0  0  0
  153.3385  139.6628  158.1701 H   0  0  0  0  0  0  0  0  0  0  0  0
  1  2  2  0  0  0  0
  2  3  1  0  0  0  0
  2 12  1  0  0  0  0
  3  4  1  0  0  0  0
  3 24  1  0  0  0  0
  4  5  1  0  0  0  0
  4 25  1  0  0  0  0
  4 26  1  0  0  0  0
  5  6  1  0  0  0  0
  5 27  1  0  0  0  0
  5 28  1  0  0  0  0
  6 11  1  0  0  0  0
  6  7  2  0  0  0  0
  7  8  1  0  0  0  0
  7 29  1  0  0  0  0
  8  9  2  0  0  0  0
  8 30  1  0  0  0  0
  9 10  1  0  0  0  0
  9 31  1  0  0  0  0
 10 11  2  0  0  0  0
 10 32  1  0  0  0  0
 12 23  1  0  0  0  0
 12 13  1  0  0  0  0
 13 14  1  0  0  0  0
 13 33  1  0  0  0  0
 13 34  1  0  0  0  0
 14 15  1  0  0  0  0
 14 35  1  0  0  0  0
 14 36  1  0  0  0  0
 15 16  1  0  0  0  0
 15 22  1  0  0  0  0
 15 37  1  0  0  0  0
 16 17  1  0  0  0  0
 16 18  1  0  0  0  0
 16 38  1  0  0  0  0
 17 39  1  0  0  0  0
 18 19  1  0  0  0  0
 18 20  1  0  0  0  0
 18 21  1  0  0  0  0
 22 23  1  0  0  0  0
 22 40  1  0  0  0  0
 22 41  1  0  0  0  0
 23 42  1  0  0  0  0
 23 43  1  0  0  0  0
M  END
> <s_m_source_file>
AV-unprocessed.smi

> <i_m_source_file_index>
2908

> <i_lp_mmshare_version>
43012

> <i_f3d_flags>
0

> <s_epik_input>
RkMoRikoRilbQ0BASF0oW09IXSlbQ0hdKFtDSDJdW0NIMl0xKVtDSDJdW0NIMl1OMUMoPU8pW05IXVtDSDJdW0NIMl1jMltjSF1bY0hdW2NIXVtjSF1uMg==

> <s_epik_cmdline>
J2VwaWtfcHl0aG9uJywgJy1waCcsICc3LjAnLCAnLXRuJywgJzgnLCAnLW1hJywgJzIwMCcsICctbWV0YWxfYmluZGluZycsICctaW1hZScsICc8aW5maWxlLm1hZT4nLCAnLW9tYWUnLCAnPG91dGZpbGUubWFlPic=

> <r_epik_Ionization_Penalty>
0.0451198

> <r_epik_Ionization_Penalty_Charging>
0

> <r_epik_Ionization_Penalty_Neutral>
0.0451198

> <r_epik_State_Penalty>
0.0381178

> <r_epik_Charging_Adjusted_Penalty>
0.0381178

> <i_epik_Tot_Q>
0

> <i_epik_Tot_abs_Q>
0

> <r_epik_Metal_State_Penalty>
0.0354176

> <b_epik_Metal_Only>
0

> <s_lp_Force_Field>
OPLS_2005

> <r_lp_Energy>
37.4058

> <b_lp_Chiralities_Consistent>
1

> <s_lp_Variant>
AV-unprocessed.smi:2908-2

> <Gold.Version>
5.8.1

> <Gold.Id.Protein>
6NUR|6NUR_protein|mol2

> <Gold.PLP.Fitness>
55.7938

> <Gold.PLP.PLP>
-51.9090

> <Gold.PLP.part.hbond>
-3.8210

> <Gold.PLP.part.metal>
0.0000

> <Gold.PLP.part.buried>
-5.6160

> <Gold.PLP.part.nonpolar>
-42.3891

> <Gold.PLP.part.repulsive>
0.0763

> <Gold.PLP.ligand.clash>
0.0212

> <Gold.PLP.ligand.torsion>
0.8448

> <Gold.PLP.Chemscore.Hbond>
1.7680

> <Gold.PLP.Chemscore.CHOScore>
0.0000

> <Gold.PLP.Chemscore.Metal>
0.0000

> <Gold.Chemscore.Hbonds>
donor molecule, donor type, donor heavy atom, donor atom, acceptor molecule, acceptor atom, score
      P1  H  6931  6943       L1    11  0.47
      P1  H  6934  6947       L1    11  1.00

> <Gold.PLP.Chemscore.Internal.Correction>
0.2916

> <Gold.Rescore>
     Score         DG    S(hbond)    S(metal)    S(lipo)     H(rot)  DE(clash)    DE(int)     intcor
     12.03     -13.69       0.82        0.00      97.19       2.30       0.01       1.65       ----

> <Gold.Chemscore.Fitness>
12.0254

> <Gold.Chemscore.DG>
-13.6890

> <Gold.Chemscore.ZeroCoef>
-5.4800

> <Gold.Chemscore.Hbond>
0.8198

> <Gold.Chemscore.Metal>
0.0000

> <Gold.Chemscore.Lipo>
97.1909

> <Gold.Chemscore.Internal_Hbond>
0.0000

> <Gold.Chemscore.DEClash>
0.0136

> <Gold.Chemscore.DEInternal>
1.6500

> <Gold.Chemscore.Rot>
2.3048

> <Gold.Chemscore.Internal.Correction>
   9.000000E+99

> <Gold.Chemscore.Hbonds>
donor molecule, donor type, donor heavy atom, donor atom, acceptor molecule, acceptor atom, score
      P1  H  6931  6943       L1    11  0.09
      P1  H  6934  6947       L1    11  0.63

> <Gold.Chemscore.Hbond.Weighted>
-2.7380

> <Gold.Chemscore.Metal.Weighted>
-0.0000

> <Gold.Chemscore.Lipo.Weighted>
-11.3713

> <Gold.Chemscore.Internal_Hbond.Weighted>
0.0000

> <Gold.Chemscore.DEClash.Weighted>
0.0136

> <Gold.Chemscore.DEInternal.Weighted>
1.6500

> <Gold.Chemscore.Rot.Weighted>
5.9004

> <Gold.Chemscore.Internal.Correction.Weighted>
   9.000000E+99

> <Gold.Protein.RotatedTorsions>
[ 6907 6896 6895 6894 ] final  -32.74 input  -60.11 | X-H torsion
[ 7974 7965 7964 7962 ] final  -28.18 input  175.53 | X-H torsion
[ 8008 7997 7996 7995 ] final -164.99 input   59.86 | X-H torsion
[ 10167 10162 10161 10158 ] final  -76.64 input  -65.29 | X-H torsion
[ 10718 10713 10712 10709 ] final   81.27 input   66.30 | X-H torsion
[ 10763 10752 10751 10750 ] final   22.31 input  -60.55 | X-H torsion
[ 11005 11000 10999 10996 ] final  -64.13 input  -57.11 | X-H torsion

> <Gold.Protein.ActiveResidues>
 VAL166  LYS551  ARG553  GLY616  TRP617  ASP618  TYR619  PRO620  LYS621  CYS622 
 ASP623  PHE694  ASN695  SER759  ASP760  ASP761  ALA762  ILE779  LEU786  VAL792 
 PHE793  MET794  SER795  GLU796  ALA797  LYS798  CYS799  TRP800  GLU811  SER814 

> <Gold.Protein.RotatedAtoms>
  151.0747  134.9821  159.8326 H   0  0  0  0  0  0  0  0  0  0  0  0  # atno 6907 bound_to 6896
  152.5413  134.2255  159.8814 H   0  0  0  0  0  0  0  0  0  0  0  0  # atno 6908 bound_to 6896
  151.2282  133.4421  159.2636 H   0  0  0  0  0  0  0  0  0  0  0  0  # atno 6909 bound_to 6896
  146.1306  140.5249  142.8695 H   0  0  0  0  0  0  0  0  0  0  0  0  # atno 7974 bound_to 7965
  155.8434  140.0952  157.1720 H   0  0  0  0  0  0  0  0  0  0  0  0  # atno 8008 bound_to 7997
  154.3982  140.1396  156.3818 H   0  0  0  0  0  0  0  0  0  0  0  0  # atno 8009 bound_to 7997
  155.8039  140.3452  155.5421 H   0  0  0  0  0  0  0  0  0  0  0  0  # atno 8010 bound_to 7997
  140.4840  143.2395  151.8014 H   0  0  0  0  0  0  0  0  0  0  0  0  # atno 10167 bound_to 10162
  157.6828  130.9996  150.2201 H   0  0  0  0  0  0  0  0  0  0  0  0  # atno 10718 bound_to 10713
  153.0925  135.6651  153.9826 H   0  0  0  0  0  0  0  0  0  0  0  0  # atno 10763 bound_to 10752
  153.9418  135.2993  155.3443 H   0  0  0  0  0  0  0  0  0  0  0  0  # atno 10764 bound_to 10752
  154.7341  135.5109  153.9086 H   0  0  0  0  0  0  0  0  0  0  0  0  # atno 10765 bound_to 10752
  141.1415  133.6661  156.5787 H   0  0  0  0  0  0  0  0  0  0  0  0  # atno 11005 bound_to 11000
  144.7687  140.5588  143.6685 LP  0  0  0  0  0  0  0  0  0  0  0  0  # atno 17320 bound_to 7965
  145.5268  139.1476  143.3521 LP  0  0  0  0  0  0  0  0  0  0  0  0  # atno 17321 bound_to 7965
  139.4838  144.4736  151.9394 LP  0  0  0  0  0  0  0  0  0  0  0  0  # atno 17342 bound_to 10162
  140.3822  144.2722  150.5907 LP  0  0  0  0  0  0  0  0  0  0  0  0  # atno 17343 bound_to 10162
  156.2854  130.3739  149.7893 LP  0  0  0  0  0  0  0  0  0  0  0  0  # atno 17370 bound_to 10713
  156.5569  130.8366  151.3317 LP  0  0  0  0  0  0  0  0  0  0  0  0  # atno 17371 bound_to 10713
  140.3855  134.7486  157.4688 LP  0  0  0  0  0  0  0  0  0  0  0  0  # atno 17394 bound_to 11000
  140.0605  134.6002  155.8754 LP  0  0  0  0  0  0  0  0  0  0  0  0  # atno 17395 bound_to 11000

$$$$
