AV-unprocessed.smi:1825|AV-procd|sdf|7414|dock2
  -GOLD-   22720 9 93D 1   1.00000     0.00000
 Structure written by MMmdl.
 33 34  0  0  0  0  0  0  0  0  2 V2000
  150.5024  140.5304  154.6492 O   0  0  0  0  0  0  0  0  0  0  0  0
  149.6554  141.4040  154.8502 C   0  0  0  0  0  0  0  0  0  0  0  0
  149.5700  141.9940  156.0520 N   0  0  0  0  0  0  0  0  0  0  0  0
  150.4061  141.7189  157.2206 C   0  0  0  0  0  0  0  0  0  0  0  0
  151.0847  142.9848  157.8044 C   0  0  0  0  0  0  0  0  0  0  0  0
  151.3364  143.8535  156.7136 O   0  0  0  0  0  0  0  0  0  0  0  0
  150.0965  143.7100  158.7504 C   0  0  0  0  0  0  0  0  0  0  0  0
  150.7085  144.9430  159.4396 C   0  0  0  0  0  0  0  0  0  0  0  0
  152.0003  144.5806  160.1841 C   0  0  0  0  0  0  0  0  0  0  0  0
  153.0128  143.9265  159.2349 C   0  0  0  0  0  0  0  0  0  0  0  0
  152.4173  142.6888  158.5403 C   0  0  0  0  0  0  0  0  0  0  0  0
  148.7596  141.8711  153.9510 N   0  5  0  0  0  0  0  0  0  0  0  0
  147.4631  141.9746  154.2858 C   0  0  0  0  0  0  0  0  0  0  0  0
  146.9044  141.2615  155.2705 N   0  0  0  0  0  0  0  0  0  0  0  0
  145.5472  141.5340  155.4519 C   0  0  0  0  0  0  0  0  0  0  0  0
  145.0631  142.4829  154.5910 C   0  0  0  0  0  0  0  0  0  0  0  0
  146.3047  143.0651  153.5191 S   0  0  0  0  0  0  0  0  0  0  0  0
  148.8662  142.7093  156.1622 H   0  0  0  0  0  0  0  0  0  0  0  0
  149.7840  141.2407  157.9782 H   0  0  0  0  0  0  0  0  0  0  0  0
  151.1659  140.9794  156.9629 H   0  0  0  0  0  0  0  0  0  0  0  0
  150.5621  143.8839  156.1733 H   0  0  0  0  0  0  0  0  0  0  0  0
  149.1975  144.0030  158.2062 H   0  0  0  0  0  0  0  0  0  0  0  0
  149.7653  143.0147  159.5232 H   0  0  0  0  0  0  0  0  0  0  0  0
  150.9155  145.7178  158.7003 H   0  0  0  0  0  0  0  0  0  0  0  0
  149.9883  145.3709  160.1374 H   0  0  0  0  0  0  0  0  0  0  0  0
  152.4347  145.4739  160.6337 H   0  0  0  0  0  0  0  0  0  0  0  0
  151.7728  143.8986  161.0045 H   0  0  0  0  0  0  0  0  0  0  0  0
  153.3342  144.6508  158.4857 H   0  0  0  0  0  0  0  0  0  0  0  0
  153.9081  143.6417  159.7883 H   0  0  0  0  0  0  0  0  0  0  0  0
  152.2461  141.9152  159.2899 H   0  0  0  0  0  0  0  0  0  0  0  0
  153.1576  142.2836  157.8496 H   0  0  0  0  0  0  0  0  0  0  0  0
  145.0029  141.0061  156.2207 H   0  0  0  0  0  0  0  0  0  0  0  0
  144.0594  142.8741  154.5222 H   0  0  0  0  0  0  0  0  0  0  0  0
  1  2  2  0  0  0  0
  2  3  1  0  0  0  0
  2 12  1  0  0  0  0
  3  4  1  0  0  0  0
  3 18  1  0  0  0  0
  4  5  1  0  0  0  0
  4 19  1  0  0  0  0
  4 20  1  0  0  0  0
  5 11  1  0  0  0  0
  5  6  1  0  0  0  0
  5  7  1  0  0  0  0
  6 21  1  0  0  0  0
  7  8  1  0  0  0  0
  7 22  1  0  0  0  0
  7 23  1  0  0  0  0
  8  9  1  0  0  0  0
  8 24  1  0  0  0  0
  8 25  1  0  0  0  0
  9 10  1  0  0  0  0
  9 26  1  0  0  0  0
  9 27  1  0  0  0  0
 10 11  1  0  0  0  0
 10 28  1  0  0  0  0
 10 29  1  0  0  0  0
 11 30  1  0  0  0  0
 11 31  1  0  0  0  0
 12 13  1  0  0  0  0
 13 17  1  0  0  0  0
 13 14  2  0  0  0  0
 14 15  1  0  0  0  0
 15 16  2  0  0  0  0
 15 32  1  0  0  0  0
 16 17  1  0  0  0  0
 16 33  1  0  0  0  0
M  CHG  1  12  -1
M  END
> <s_m_source_file>
AV-unprocessed.smi

> <i_m_source_file_index>
1825

> <i_lp_mmshare_version>
43012

> <i_f3d_flags>
0

> <s_epik_input>
czFbY0hdW2NIXW5jMVtOSF1DKD1PKVtOSF1bQ0gyXUMyKFtPSF0pW0NIMl1bQ0gyXVtDSDJdW0NIMl1bQ0gyXTI=

> <s_epik_cmdline>
J2VwaWtfcHl0aG9uJywgJy1waCcsICc3LjAnLCAnLXRuJywgJzgnLCAnLW1hJywgJzIwMCcsICctbWV0YWxfYmluZGluZycsICctaW1hZScsICc8aW5maWxlLm1hZT4nLCAnLW9tYWUnLCAnPG91dGZpbGUubWFlPic=

> <r_lp_tautomer_probability>
0.999

> <r_epik_Ionization_Penalty>
8.3436

> <r_epik_Ionization_Penalty_Charging>
6.70408

> <r_epik_Ionization_Penalty_Neutral>
1.63952

> <r_epik_State_Penalty>
6.70425

> <r_epik_Charging_Adjusted_Penalty>
13.4083

> <i_epik_Tot_Q>
-1

> <i_epik_Tot_abs_Q>
1

> <r_epik_Metal_State_Penalty>
2.62591

> <b_epik_Metal_Only>
1

> <s_lp_Force_Field>
OPLS_2005

> <r_lp_Energy>
9.48325

> <b_lp_Chiralities_Consistent>
1

> <s_lp_Variant>
AV-unprocessed.smi:1825-2

> <Gold.Version>
5.8.1

> <Gold.Id.Protein>
6NUR|6NUR_protein|mol2

> <Gold.PLP.Fitness>
44.7187

> <Gold.PLP.PLP>
-37.7057

> <Gold.PLP.part.hbond>
-4.0000

> <Gold.PLP.part.metal>
0.0000

> <Gold.PLP.part.buried>
-6.6595

> <Gold.PLP.part.nonpolar>
-27.7406

> <Gold.PLP.part.repulsive>
0.4523

> <Gold.PLP.ligand.clash>
0.0265

> <Gold.PLP.ligand.torsion>
1.0147

> <Gold.PLP.Chemscore.Hbond>
2.9468

> <Gold.PLP.Chemscore.CHOScore>
0.0679

> <Gold.PLP.Chemscore.Metal>
0.0000

> <Gold.Chemscore.Hbonds>
donor molecule, donor type, donor heavy atom, donor atom, acceptor molecule, acceptor atom, score
      L1  H     3    18       P1  8028  0.57
      L1  H     6    21       P1  8028  0.99
      P1  H  7989  7998       L1     1  0.99
      P1  H  8011  8017       L1    12  0.50
      L1  C    16    33       P1 10174  0.20

> <Gold.PLP.Chemscore.Internal.Correction>
0.0246

> <Gold.Rescore>
     Score         DG    S(hbond)    S(metal)    S(lipo)     H(rot)  DE(clash)    DE(int)     intcor
     16.91     -19.51       2.64        0.00      84.42       1.83       0.25       2.35       ----

> <Gold.Chemscore.Fitness>
16.9069

> <Gold.Chemscore.DG>
-19.5122

> <Gold.Chemscore.ZeroCoef>
-5.4800

> <Gold.Chemscore.Hbond>
2.6446

> <Gold.Chemscore.Metal>
0.0000

> <Gold.Chemscore.Lipo>
84.4231

> <Gold.Chemscore.Internal_Hbond>
0.0000

> <Gold.Chemscore.DEClash>
0.2526

> <Gold.Chemscore.DEInternal>
2.3527

> <Gold.Chemscore.Rot>
1.8274

> <Gold.Chemscore.Internal.Correction>
   9.000000E+99

> <Gold.Chemscore.Hbonds>
donor molecule, donor type, donor heavy atom, donor atom, acceptor molecule, acceptor atom, score
      L1  H     3    18       P1  8028  0.54
      L1  H     6    21       P1  8028  0.94
      P1  H  7989  7998       L1     1  0.85
      P1  H  8011  8017       L1    12  0.29

> <Gold.Chemscore.Hbond.Weighted>
-8.8328

> <Gold.Chemscore.Metal.Weighted>
-0.0000

> <Gold.Chemscore.Lipo.Weighted>
-9.8775

> <Gold.Chemscore.Internal_Hbond.Weighted>
0.0000

> <Gold.Chemscore.DEClash.Weighted>
0.2526

> <Gold.Chemscore.DEInternal.Weighted>
2.3527

> <Gold.Chemscore.Rot.Weighted>
4.6781

> <Gold.Chemscore.Internal.Correction.Weighted>
   9.000000E+99

> <Gold.Protein.RotatedTorsions>
[ 6907 6896 6895 6894 ] final -101.38 input  -60.11 | X-H torsion
[ 7974 7965 7964 7962 ] final -117.60 input  175.53 | X-H torsion
[ 8008 7997 7996 7995 ] final  -53.17 input   59.86 | X-H torsion
[ 10167 10162 10161 10158 ] final  -31.03 input  -65.29 | X-H torsion
[ 10718 10713 10712 10709 ] final  178.16 input   66.30 | X-H torsion
[ 10763 10752 10751 10750 ] final   41.04 input  -60.55 | X-H torsion
[ 11005 11000 10999 10996 ] final  167.40 input  -57.11 | X-H torsion

> <Gold.Protein.ActiveResidues>
 VAL166  LYS551  ARG553  GLY616  TRP617  ASP618  TYR619  PRO620  LYS621  CYS622 
 ASP623  PHE694  ASN695  SER759  ASP760  ASP761  ALA762  ILE779  LEU786  VAL792 
 PHE793  MET794  SER795  GLU796  ALA797  LYS798  CYS799  TRP800  GLU811  SER814 

> <Gold.Protein.RotatedAtoms>
  150.7152  134.0744  159.3875 H   0  0  0  0  0  0  0  0  0  0  0  0  # atno 6907 bound_to 6896
  151.8726  135.0481  160.0490 H   0  0  0  0  0  0  0  0  0  0  0  0  # atno 6908 bound_to 6896
  152.2631  133.5279  159.5430 H   0  0  0  0  0  0  0  0  0  0  0  0  # atno 6909 bound_to 6896
  145.0833  140.8441  143.4026 H   0  0  0  0  0  0  0  0  0  0  0  0  # atno 7974 bound_to 7965
  154.4126  140.1206  156.5110 H   0  0  0  0  0  0  0  0  0  0  0  0  # atno 8008 bound_to 7997
  155.6799  140.3496  155.4832 H   0  0  0  0  0  0  0  0  0  0  0  0  # atno 8009 bound_to 7997
  155.9560  140.1114  157.0926 H   0  0  0  0  0  0  0  0  0  0  0  0  # atno 8010 bound_to 7997
  140.7242  143.3803  151.1614 H   0  0  0  0  0  0  0  0  0  0  0  0  # atno 10167 bound_to 10162
  156.8947  130.9859  151.3044 H   0  0  0  0  0  0  0  0  0  0  0  0  # atno 10718 bound_to 10713
  152.9919  135.6174  154.2722 H   0  0  0  0  0  0  0  0  0  0  0  0  # atno 10763 bound_to 10752
  154.2455  135.2787  155.2839 H   0  0  0  0  0  0  0  0  0  0  0  0  # atno 10764 bound_to 10752
  154.5333  135.5782  153.6835 H   0  0  0  0  0  0  0  0  0  0  0  0  # atno 10765 bound_to 10752
  140.2764  134.7785  157.3720 H   0  0  0  0  0  0  0  0  0  0  0  0  # atno 11005 bound_to 11000
  145.1152  139.2730  143.5617 LP  0  0  0  0  0  0  0  0  0  0  0  0  # atno 17320 bound_to 7965
  146.3531  140.0760  142.8620 LP  0  0  0  0  0  0  0  0  0  0  0  0  # atno 17321 bound_to 7965
  139.7390  143.8954  152.3044 LP  0  0  0  0  0  0  0  0  0  0  0  0  # atno 17342 bound_to 10162
  139.8768  144.7039  150.8923 LP  0  0  0  0  0  0  0  0  0  0  0  0  # atno 17343 bound_to 10162
  157.6062  130.8549  149.8879 LP  0  0  0  0  0  0  0  0  0  0  0  0  # atno 17370 bound_to 10713
  156.0611  130.3699  150.0980 LP  0  0  0  0  0  0  0  0  0  0  0  0  # atno 17371 bound_to 10713
  140.1324  134.5078  155.8095 LP  0  0  0  0  0  0  0  0  0  0  0  0  # atno 17394 bound_to 11000
  141.2169  133.6795  156.7064 LP  0  0  0  0  0  0  0  0  0  0  0  0  # atno 17395 bound_to 11000

$$$$
