AV-unprocessed.smi:113|AV-procd|sdf|1099|dock10
  -GOLD-   2262018213D 1   1.00000     0.00000
 Structure written by MMmdl.
 53 56  0  0  0  0  0  0  0  0  2 V2000
  148.8135  141.5389  154.9763 C   0  0  0  0  0  0  0  0  0  0  0  0
  149.8173  141.3631  156.0958 C   0  0  0  0  0  0  0  0  0  0  0  0
  150.2532  140.0921  156.5175 C   0  0  0  0  0  0  0  0  0  0  0  0
  151.1956  139.9806  157.5700 C   0  0  0  0  0  0  0  0  0  0  0  0
  151.6886  138.6112  158.0498 C   0  0  0  0  0  0  0  0  0  0  0  0
  150.7954  137.4795  157.8449 N   0  0  0  0  0  0  0  0  0  0  0  0
  149.6338  137.3974  158.6490 C   0  0  0  0  0  0  0  0  0  0  0  0
  149.3745  138.2537  159.4972 O   0  0  0  0  0  0  0  0  0  0  0  0
  148.7994  136.2176  158.4136 C   0  0  0  0  0  0  0  0  0  0  0  0
  147.5526  136.0418  159.2667 C   0  0  0  0  0  0  0  0  0  0  0  0
  149.1590  135.3147  157.4692 C   0  0  0  0  0  0  0  0  0  0  0  0
  150.2895  135.4317  156.6716 N   0  0  0  0  0  0  0  0  0  0  0  0
  150.7197  134.3645  155.6724 C   0  0  2  0  0  0  0  0  0  0  0  0
  149.5734  133.5622  155.0464 C   0  0  0  0  0  0  0  0  0  0  0  0
  149.4909  132.3159  155.9304 C   0  0  1  0  0  0  0  0  0  0  0  0
  149.5509  131.1503  155.1296 O   0  0  0  0  0  0  0  0  0  0  0  0
  150.6704  132.4563  156.9213 C   0  0  1  0  0  0  0  0  0  0  0  0
  151.4710  131.1848  157.2556 C   0  0  0  0  0  0  0  0  0  0  0  0
  152.4994  131.4791  158.1777 O   0  0  0  0  0  0  0  0  0  0  0  0
  151.5181  133.4341  156.3307 O   0  0  0  0  0  0  0  0  0  0  0  0
  151.1719  136.5120  156.8870 C   0  0  0  0  0  0  0  0  0  0  0  0
  152.2350  136.5969  156.2671 O   0  0  0  0  0  0  0  0  0  0  0  0
  151.6772  141.1751  158.1726 C   0  0  0  0  0  0  0  0  0  0  0  0
  152.6178  141.1600  159.2306 C   0  0  0  0  0  0  0  0  0  0  0  0
  153.0688  142.3652  159.8041 C   0  0  0  0  0  0  0  0  0  0  0  0
  152.5901  143.6004  159.3291 C   0  0  0  0  0  0  0  0  0  0  0  0
  151.6564  143.6339  158.2769 C   0  0  0  0  0  0  0  0  0  0  0  0
  151.2022  142.4296  157.7031 C   0  0  0  0  0  0  0  0  0  0  0  0
  150.3042  142.4682  156.6961 N   0  3  0  0  0  0  0  0  0  0  0  0
  148.1787  140.6573  154.8838 H   0  0  0  0  0  0  0  0  0  0  0  0
  149.3295  141.6916  154.0280 H   0  0  0  0  0  0  0  0  0  0  0  0
  148.1709  142.4002  155.1617 H   0  0  0  0  0  0  0  0  0  0  0  0
  149.8565  139.2163  156.0259 H   0  0  0  0  0  0  0  0  0  0  0  0
  152.6410  138.3686  157.5757 H   0  0  0  0  0  0  0  0  0  0  0  0
  151.9212  138.6464  159.1155 H   0  0  0  0  0  0  0  0  0  0  0  0
  147.0039  135.1366  159.0052 H   0  0  0  0  0  0  0  0  0  0  0  0
  146.8779  136.8886  159.1356 H   0  0  0  0  0  0  0  0  0  0  0  0
  147.8188  135.9757  160.3221 H   0  0  0  0  0  0  0  0  0  0  0  0
  148.5201  134.4538  157.3591 H   0  0  0  0  0  0  0  0  0  0  0  0
  151.2837  134.8991  154.9064 H   0  0  0  0  0  0  0  0  0  0  0  0
  148.6508  134.1368  154.9664 H   0  0  0  0  0  0  0  0  0  0  0  0
  149.8778  133.2971  154.0327 H   0  0  0  0  0  0  0  0  0  0  0  0
  148.5505  132.2896  156.4813 H   0  0  0  0  0  0  0  0  0  0  0  0
  148.7546  131.0901  154.6245 H   0  0  0  0  0  0  0  0  0  0  0  0
  150.2974  132.8850  157.8532 H   0  0  0  0  0  0  0  0  0  0  0  0
  150.8295  130.3956  157.6481 H   0  0  0  0  0  0  0  0  0  0  0  0
  151.9341  130.7924  156.3500 H   0  0  0  0  0  0  0  0  0  0  0  0
  152.7386  130.6819  158.6254 H   0  0  0  0  0  0  0  0  0  0  0  0
  153.0086  140.2326  159.6211 H   0  0  0  0  0  0  0  0  0  0  0  0
  153.7852  142.3412  160.6123 H   0  0  0  0  0  0  0  0  0  0  0  0
  152.9393  144.5218  159.7723 H   0  0  0  0  0  0  0  0  0  0  0  0
  151.2922  144.5853  157.9167 H   0  0  0  0  0  0  0  0  0  0  0  0
  149.9765  143.3786  156.3740 H   0  0  0  0  0  0  0  0  0  0  0  0
  1  2  1  0  0  0  0
  1 30  1  0  0  0  0
  1 31  1  0  0  0  0
  1 32  1  0  0  0  0
  2 29  1  0  0  0  0
  2  3  2  0  0  0  0
  3  4  1  0  0  0  0
  3 33  1  0  0  0  0
  4  5  1  0  0  0  0
  4 23  2  0  0  0  0
  5  6  1  0  0  0  0
  5 34  1  0  0  0  0
  5 35  1  0  0  0  0
  6 21  1  0  0  0  0
  6  7  1  0  0  0  0
  7  8  2  0  0  0  0
  7  9  1  0  0  0  0
  9 10  1  0  0  0  0
  9 11  2  0  0  0  0
 10 36  1  0  0  0  0
 10 37  1  0  0  0  0
 10 38  1  0  0  0  0
 11 12  1  0  0  0  0
 11 39  1  0  0  0  0
 12 13  1  0  0  0  0
 12 21  1  0  0  0  0
 13 20  1  0  0  0  0
 13 14  1  0  0  0  0
 13 40  1  0  0  0  0
 14 15  1  0  0  0  0
 14 41  1  0  0  0  0
 14 42  1  0  0  0  0
 15 16  1  0  0  0  0
 15 17  1  0  0  0  0
 15 43  1  0  0  0  0
 16 44  1  0  0  0  0
 17 18  1  0  0  0  0
 17 20  1  0  0  0  0
 17 45  1  0  0  0  0
 18 19  1  0  0  0  0
 18 46  1  0  0  0  0
 18 47  1  0  0  0  0
 19 48  1  0  0  0  0
 21 22  2  0  0  0  0
 23 28  1  0  0  0  0
 23 24  1  0  0  0  0
 24 25  2  0  0  0  0
 24 49  1  0  0  0  0
 25 26  1  0  0  0  0
 25 50  1  0  0  0  0
 26 27  2  0  0  0  0
 26 51  1  0  0  0  0
 27 28  1  0  0  0  0
 27 52  1  0  0  0  0
 28 29  2  0  0  0  0
 29 53  1  0  0  0  0
M  CHG  1  29   1
M  END
> <s_m_source_file>
AV-unprocessed.smi

> <i_m_source_file_index>
113

> <i_lp_mmshare_version>
43012

> <i_f3d_flags>
0

> <s_epik_input>
W2NIXTFbY0hdW2NIXVtjSF1jKGMxMiluYyhbQ0gzXSlbY0hdYzJbQ0gyXW4zYyg9TyljKFtDSDNdKVtjSF1uKGMzPU8pW0NAQEhdNFtDSDJdW0NAQEhdKFtPSF0pW0NASF0oTzQpW0NIMl1bT0hd

> <s_epik_cmdline>
J2VwaWtfcHl0aG9uJywgJy1waCcsICc3LjAnLCAnLXRuJywgJzgnLCAnLW1hJywgJzIwMCcsICctbWV0YWxfYmluZGluZycsICctaW1hZScsICc8aW5maWxlLm1hZT4nLCAnLW9tYWUnLCAnPG91dGZpbGUubWFlPic=

> <r_lp_tautomer_probability>
1

> <r_epik_Ionization_Penalty>
0.705471

> <r_epik_Ionization_Penalty_Charging>
0.70547

> <r_epik_Ionization_Penalty_Neutral>
1.19947e-07

> <r_epik_State_Penalty>
0.728574

> <r_epik_Charging_Adjusted_Penalty>
1.43404

> <i_epik_Tot_Q>
1

> <i_epik_Tot_abs_Q>
1

> <r_epik_Metal_State_Penalty>
4.61665

> <b_epik_Metal_Only>
0

> <s_epik_Chemistry_Notes>
This compound contains an acetal/aminal-like group ( X-CH(R)-Y where X, Y are N, S, or O) that may be acid/base labile, releasing an aldehyde.

> <s_lp_Force_Field>
OPLS_2005

> <r_lp_Energy>
45.3358

> <b_lp_Chiralities_Consistent>
1

> <s_lp_Variant>
AV-unprocessed.smi:113-9

> <Gold.Version>
5.8.1

> <Gold.Id.Protein>
6NUR|6NUR_protein|mol2

> <Gold.PLP.Fitness>
54.4227

> <Gold.PLP.PLP>
-44.7209

> <Gold.PLP.part.hbond>
-5.0000

> <Gold.PLP.part.metal>
0.0000

> <Gold.PLP.part.buried>
-4.3852

> <Gold.PLP.part.nonpolar>
-35.6722

> <Gold.PLP.part.repulsive>
0.0864

> <Gold.PLP.ligand.clash>
0.0000

> <Gold.PLP.ligand.torsion>
1.1802

> <Gold.PLP.Chemscore.Hbond>
4.0000

> <Gold.PLP.Chemscore.CHOScore>
0.0000

> <Gold.PLP.Chemscore.Metal>
0.0000

> <Gold.Chemscore.Hbonds>
donor molecule, donor type, donor heavy atom, donor atom, acceptor molecule, acceptor atom, score
      L1  H    29    53       P1  8028  2.00
      P1  H  6896  6908       L1    19  0.46
      P1  H 10752 10764       L1    22  0.98

> <Gold.PLP.Chemscore.Internal.Correction>
0.0622

> <Gold.Rescore>
     Score         DG    S(hbond)    S(metal)    S(lipo)     H(rot)  DE(clash)    DE(int)     intcor
     19.72     -20.79       2.86        0.00     115.07       3.01       0.04       1.03       ----

> <Gold.Chemscore.Fitness>
19.7209

> <Gold.Chemscore.DG>
-20.7867

> <Gold.Chemscore.ZeroCoef>
-5.4800

> <Gold.Chemscore.Hbond>
2.8604

> <Gold.Chemscore.Metal>
0.0000

> <Gold.Chemscore.Lipo>
115.0745

> <Gold.Chemscore.Internal_Hbond>
0.0000

> <Gold.Chemscore.DEClash>
0.0405

> <Gold.Chemscore.DEInternal>
1.0253

> <Gold.Chemscore.Rot>
3.0120

> <Gold.Chemscore.Internal.Correction>
   9.000000E+99

> <Gold.Chemscore.Hbonds>
donor molecule, donor type, donor heavy atom, donor atom, acceptor molecule, acceptor atom, score
      L1  H    29    53       P1  8028  1.00
      P1  H  6896  6908       L1    19  0.35
      P1  H 10752 10764       L1    22  0.93

> <Gold.Chemscore.Hbond.Weighted>
-9.5538

> <Gold.Chemscore.Metal.Weighted>
-0.0000

> <Gold.Chemscore.Lipo.Weighted>
-13.4637

> <Gold.Chemscore.Internal_Hbond.Weighted>
0.0000

> <Gold.Chemscore.DEClash.Weighted>
0.0405

> <Gold.Chemscore.DEInternal.Weighted>
1.0253

> <Gold.Chemscore.Rot.Weighted>
7.7108

> <Gold.Chemscore.Internal.Correction.Weighted>
   9.000000E+99

> <Gold.Protein.RotatedTorsions>
[ 6907 6896 6895 6894 ] final   39.99 input  -60.11 | X-H torsion
[ 7974 7965 7964 7962 ] final  -50.43 input  175.53 | X-H torsion
[ 8008 7997 7996 7995 ] final   44.99 input   59.86 | X-H torsion
[ 10167 10162 10161 10158 ] final    4.49 input  -65.29 | X-H torsion
[ 10718 10713 10712 10709 ] final  137.71 input   66.30 | X-H torsion
[ 10763 10752 10751 10750 ] final  -10.50 input  -60.55 | X-H torsion
[ 11005 11000 10999 10996 ] final -109.70 input  -57.11 | X-H torsion

> <Gold.Protein.ActiveResidues>
 VAL166  LYS551  ARG553  GLY616  TRP617  ASP618  TYR619  PRO620  LYS621  CYS622 
 ASP623  PHE694  ASN695  SER759  ASP760  ASP761  ALA762  ILE779  LEU786  VAL792 
 PHE793  MET794  SER795  GLU796  ALA797  LYS798  CYS799  TRP800  GLU811  SER814 

> <Gold.Protein.RotatedAtoms>
  152.1768  134.8788  160.0529 H   0  0  0  0  0  0  0  0  0  0  0  0  # atno 6907 bound_to 6896
  151.9728  133.3726  159.4085 H   0  0  0  0  0  0  0  0  0  0  0  0  # atno 6908 bound_to 6896
  150.6910  134.4045  159.5178 H   0  0  0  0  0  0  0  0  0  0  0  0  # atno 6909 bound_to 6896
  145.9299  140.7759  142.9605 H   0  0  0  0  0  0  0  0  0  0  0  0  # atno 7974 bound_to 7965
  155.3284  140.3401  155.4240 H   0  0  0  0  0  0  0  0  0  0  0  0  # atno 8008 bound_to 7997
  156.1874  140.1685  156.8196 H   0  0  0  0  0  0  0  0  0  0  0  0  # atno 8009 bound_to 7997
  154.5402  140.0726  156.8479 H   0  0  0  0  0  0  0  0  0  0  0  0  # atno 8010 bound_to 7997
  140.6532  143.7493  150.7610 H   0  0  0  0  0  0  0  0  0  0  0  0  # atno 10167 bound_to 10162
  157.4332  131.1050  151.0227 H   0  0  0  0  0  0  0  0  0  0  0  0  # atno 10718 bound_to 10713
  153.4700  135.7016  153.5999 H   0  0  0  0  0  0  0  0  0  0  0  0  # atno 10763 bound_to 10752
  153.4257  135.3815  155.2139 H   0  0  0  0  0  0  0  0  0  0  0  0  # atno 10764 bound_to 10752
  154.8725  135.3938  154.4137 H   0  0  0  0  0  0  0  0  0  0  0  0  # atno 10765 bound_to 10752
  141.0833  133.9182  157.2241 H   0  0  0  0  0  0  0  0  0  0  0  0  # atno 11005 bound_to 11000
  144.6763  140.2110  143.7377 LP  0  0  0  0  0  0  0  0  0  0  0  0  # atno 17320 bound_to 7965
  145.8440  139.2143  143.1811 LP  0  0  0  0  0  0  0  0  0  0  0  0  # atno 17321 bound_to 7965
  140.1147  143.4666  152.2349 LP  0  0  0  0  0  0  0  0  0  0  0  0  # atno 17342 bound_to 10162
  139.5750  144.7483  151.3789 LP  0  0  0  0  0  0  0  0  0  0  0  0  # atno 17343 bound_to 10162
  157.1116  130.6024  149.5483 LP  0  0  0  0  0  0  0  0  0  0  0  0  # atno 17370 bound_to 10713
  155.9921  130.4977  150.7325 LP  0  0  0  0  0  0  0  0  0  0  0  0  # atno 17371 bound_to 10713
  139.9649  135.0144  156.9359 LP  0  0  0  0  0  0  0  0  0  0  0  0  # atno 17394 bound_to 11000
  140.5420  134.0711  155.7344 LP  0  0  0  0  0  0  0  0  0  0  0  0  # atno 17395 bound_to 11000

$$$$
