AV-unprocessed.smi:2973|AV-procd|sdf|11346|dock1
  -GOLD-   2272016263D 1   1.00000     0.00000
 Structure written by MMmdl.
 48 50  0  0  0  0  0  0  0  0  2 V2000
  152.7582  138.3882  159.3077 C   0  0  0  0  0  0  0  0  0  0  0  0
  152.2488  139.8448  159.3755 C   0  0  1  0  0  0  0  0  0  0  0  0
  153.3735  140.7959  159.8390 C   0  0  0  0  0  0  0  0  0  0  0  0
  152.8683  142.2348  160.0196 C   0  0  0  0  0  0  0  0  0  0  0  0
  152.2259  142.7624  158.7303 C   0  0  0  0  0  0  0  0  0  0  0  0
  151.0949  141.8362  158.2517 C   0  0  0  0  0  0  0  0  0  0  0  0
  151.5581  140.3667  158.0728 C   0  0  1  0  0  0  0  0  0  0  0  0
  152.4300  140.2521  156.9140 N   0  5  0  0  0  0  0  0  0  0  0  0
  151.8387  139.4557  155.9940 C   0  0  0  0  0  0  0  0  0  0  0  0
  152.2861  139.1498  154.8896 O   0  0  0  0  0  0  0  0  0  0  0  0
  150.6425  139.0177  156.4316 N   0  0  0  0  0  0  0  0  0  0  0  0
  149.7270  138.1531  155.6699 C   0  0  0  0  0  0  0  0  0  0  0  0
  150.3072  136.7861  155.2674 C   0  0  0  0  0  0  0  0  0  0  0  0
  151.3949  136.7460  154.6927 O   0  0  0  0  0  0  0  0  0  0  0  0
  149.5987  135.6812  155.5563 N   0  0  0  0  0  0  0  0  0  0  0  0
  149.9890  134.3170  155.2231 C   0  0  0  0  0  0  0  0  0  0  0  0
  148.9444  133.2986  155.7104 C   0  0  0  0  0  0  0  0  0  0  0  0
  149.3736  131.8653  155.4593 C   0  0  0  0  0  0  0  0  0  0  0  0
  148.6339  131.0333  154.5918 C   0  0  0  0  0  0  0  0  0  0  0  0
  149.0750  129.7110  154.3917 C   0  0  0  0  0  0  0  0  0  0  0  0
  150.2330  129.2735  155.0627 C   0  0  0  0  0  0  0  0  0  0  0  0
  150.9025  130.1825  155.9060 C   0  0  0  0  0  0  0  0  0  0  0  0
  150.4887  131.4528  156.1040 N   0  0  0  0  0  0  0  0  0  0  0  0
  150.3790  139.5023  157.6503 C   0  0  0  0  0  0  0  0  0  0  0  0
  149.3718  139.3095  158.3330 O   0  0  0  0  0  0  0  0  0  0  0  0
  153.5410  138.2717  158.5579 H   0  0  0  0  0  0  0  0  0  0  0  0
  151.9593  137.6872  159.0670 H   0  0  0  0  0  0  0  0  0  0  0  0
  153.1768  138.0791  160.2654 H   0  0  0  0  0  0  0  0  0  0  0  0
  151.4922  139.8613  160.1622 H   0  0  0  0  0  0  0  0  0  0  0  0
  153.7940  140.4429  160.7810 H   0  0  0  0  0  0  0  0  0  0  0  0
  154.1911  140.7839  159.1169 H   0  0  0  0  0  0  0  0  0  0  0  0
  152.1416  142.2693  160.8321 H   0  0  0  0  0  0  0  0  0  0  0  0
  153.6937  142.8833  160.3140 H   0  0  0  0  0  0  0  0  0  0  0  0
  151.8362  143.7671  158.8946 H   0  0  0  0  0  0  0  0  0  0  0  0
  152.9847  142.8510  157.9522 H   0  0  0  0  0  0  0  0  0  0  0  0
  150.2863  141.8768  158.9834 H   0  0  0  0  0  0  0  0  0  0  0  0
  150.6755  142.2248  157.3217 H   0  0  0  0  0  0  0  0  0  0  0  0
  148.8182  137.9823  156.2490 H   0  0  0  0  0  0  0  0  0  0  0  0
  149.3999  138.6656  154.7637 H   0  0  0  0  0  0  0  0  0  0  0  0
  148.7122  135.8012  156.0260 H   0  0  0  0  0  0  0  0  0  0  0  0
  150.1444  134.2231  154.1470 H   0  0  0  0  0  0  0  0  0  0  0  0
  150.9518  134.1194  155.6953 H   0  0  0  0  0  0  0  0  0  0  0  0
  148.7638  133.4324  156.7782 H   0  0  0  0  0  0  0  0  0  0  0  0
  147.9883  133.4730  155.2153 H   0  0  0  0  0  0  0  0  0  0  0  0
  147.7500  131.3989  154.0902 H   0  0  0  0  0  0  0  0  0  0  0  0
  148.5353  129.0445  153.7354 H   0  0  0  0  0  0  0  0  0  0  0  0
  150.6000  128.2661  154.9340 H   0  0  0  0  0  0  0  0  0  0  0  0
  151.7937  129.8808  156.4360 H   0  0  0  0  0  0  0  0  0  0  0  0
  1  2  1  0  0  0  0
  1 26  1  0  0  0  0
  1 27  1  0  0  0  0
  1 28  1  0  0  0  0
  2  7  1  0  0  0  0
  2  3  1  0  0  0  0
  2 29  1  0  0  0  0
  3  4  1  0  0  0  0
  3 30  1  0  0  0  0
  3 31  1  0  0  0  0
  4  5  1  0  0  0  0
  4 32  1  0  0  0  0
  4 33  1  0  0  0  0
  5  6  1  0  0  0  0
  5 34  1  0  0  0  0
  5 35  1  0  0  0  0
  6  7  1  0  0  0  0
  6 36  1  0  0  0  0
  6 37  1  0  0  0  0
  7 24  1  0  0  0  0
  7  8  1  0  0  0  0
  8  9  1  0  0  0  0
  9 10  2  0  0  0  0
  9 11  1  0  0  0  0
 11 12  1  0  0  0  0
 11 24  1  0  0  0  0
 12 13  1  0  0  0  0
 12 38  1  0  0  0  0
 12 39  1  0  0  0  0
 13 14  2  0  0  0  0
 13 15  1  0  0  0  0
 15 16  1  0  0  0  0
 15 40  1  0  0  0  0
 16 17  1  0  0  0  0
 16 41  1  0  0  0  0
 16 42  1  0  0  0  0
 17 18  1  0  0  0  0
 17 43  1  0  0  0  0
 17 44  1  0  0  0  0
 18 23  1  0  0  0  0
 18 19  2  0  0  0  0
 19 20  1  0  0  0  0
 19 45  1  0  0  0  0
 20 21  2  0  0  0  0
 20 46  1  0  0  0  0
 21 22  1  0  0  0  0
 21 47  1  0  0  0  0
 22 23  2  0  0  0  0
 22 48  1  0  0  0  0
 24 25  2  0  0  0  0
M  CHG  1   8  -1
M  END
> <s_m_source_file>
AV-unprocessed.smi

> <i_m_source_file_index>
2973

> <i_lp_mmshare_version>
43012

> <i_f3d_flags>
0

> <s_epik_input>
W0NIMl0xW0NIMl1bQ0gyXVtDSDJdW0NAQEhdKFtDSDNdKVtDQF0xMltOSF1DKD1PKU4oQzI9TylbQ0gyXUMoPU8pW05IXVtDSDJdW0NIMl1jM1tjSF1bY0hdW2NIXVtjSF1uMw==

> <s_epik_cmdline>
J2VwaWtfcHl0aG9uJywgJy1waCcsICc3LjAnLCAnLXRuJywgJzgnLCAnLW1hJywgJzIwMCcsICctbWV0YWxfYmluZGluZycsICctaW1hZScsICc8aW5maWxlLm1hZT4nLCAnLW9tYWUnLCAnPG91dGZpbGUubWFlPic=

> <r_lp_tautomer_probability>
1

> <r_epik_Ionization_Penalty>
6.04175

> <r_epik_Ionization_Penalty_Charging>
6.01728

> <r_epik_Ionization_Penalty_Neutral>
0.0244696

> <r_epik_State_Penalty>
6.03712

> <r_epik_Charging_Adjusted_Penalty>
12.0544

> <i_epik_Tot_Q>
-1

> <i_epik_Tot_abs_Q>
1

> <r_epik_Metal_State_Penalty>
2.01153

> <b_epik_Metal_Only>
1

> <s_lp_Force_Field>
OPLS_2005

> <r_lp_Energy>
16.8957

> <b_lp_Chiralities_Consistent>
1

> <s_lp_Variant>
AV-unprocessed.smi:2973-10

> <Gold.Version>
5.8.1

> <Gold.Id.Protein>
6NUR|6NUR_protein|mol2

> <Gold.PLP.Fitness>
51.8817

> <Gold.PLP.PLP>
-40.8525

> <Gold.PLP.part.hbond>
-3.0000

> <Gold.PLP.part.metal>
0.0000

> <Gold.PLP.part.buried>
-4.4038

> <Gold.PLP.part.nonpolar>
-33.5060

> <Gold.PLP.part.repulsive>
0.6761

> <Gold.PLP.ligand.clash>
0.0000

> <Gold.PLP.ligand.torsion>
0.0868

> <Gold.PLP.Chemscore.Hbond>
3.7172

> <Gold.PLP.Chemscore.CHOScore>
0.0000

> <Gold.PLP.Chemscore.Metal>
0.0000

> <Gold.Chemscore.Hbonds>
donor molecule, donor type, donor heavy atom, donor atom, acceptor molecule, acceptor atom, score
      P1  H  7989  7998       L1    10  0.29
      P1  H  7997  8008       L1     8  2.00
      P1  H 10752 10763       L1    14  1.00

> <Gold.PLP.Chemscore.Internal.Correction>
0.0512

> <Gold.Rescore>
     Score         DG    S(hbond)    S(metal)    S(lipo)     H(rot)  DE(clash)    DE(int)     intcor
     17.61     -19.39       2.46        0.00      88.19       1.81       0.17       1.61       ----

> <Gold.Chemscore.Fitness>
17.6084

> <Gold.Chemscore.DG>
-19.3901

> <Gold.Chemscore.ZeroCoef>
-5.4800

> <Gold.Chemscore.Hbond>
2.4618

> <Gold.Chemscore.Metal>
0.0000

> <Gold.Chemscore.Lipo>
88.1925

> <Gold.Chemscore.Internal_Hbond>
0.0000

> <Gold.Chemscore.DEClash>
0.1744

> <Gold.Chemscore.DEInternal>
1.6073

> <Gold.Chemscore.Rot>
1.8090

> <Gold.Chemscore.Internal.Correction>
   9.000000E+99

> <Gold.Chemscore.Hbonds>
donor molecule, donor type, donor heavy atom, donor atom, acceptor molecule, acceptor atom, score
      P1  H  7989  7998       L1    10  0.16
      P1  H  7997  8008       L1     8  0.37
      P1  H 10752 10763       L1    14  0.99

> <Gold.Chemscore.Hbond.Weighted>
-8.2226

> <Gold.Chemscore.Metal.Weighted>
-0.0000

> <Gold.Chemscore.Lipo.Weighted>
-10.3185

> <Gold.Chemscore.Internal_Hbond.Weighted>
0.0000

> <Gold.Chemscore.DEClash.Weighted>
0.1744

> <Gold.Chemscore.DEInternal.Weighted>
1.6073

> <Gold.Chemscore.Rot.Weighted>
4.6310

> <Gold.Chemscore.Internal.Correction.Weighted>
   9.000000E+99

> <Gold.Protein.RotatedTorsions>
[ 6907 6896 6895 6894 ] final  -20.16 input  -60.11 | X-H torsion
[ 7974 7965 7964 7962 ] final   34.23 input  175.53 | X-H torsion
[ 8008 7997 7996 7995 ] final  -47.06 input   59.86 | X-H torsion
[ 10167 10162 10161 10158 ] final  -48.22 input  -65.29 | X-H torsion
[ 10718 10713 10712 10709 ] final -127.91 input   66.30 | X-H torsion
[ 10763 10752 10751 10750 ] final   40.10 input  -60.55 | X-H torsion
[ 11005 11000 10999 10996 ] final   82.90 input  -57.11 | X-H torsion

> <Gold.Protein.ActiveResidues>
 VAL166  LYS551  ARG553  GLY616  TRP617  ASP618  TYR619  PRO620  LYS621  CYS622 
 ASP623  PHE694  ASN695  SER759  ASP760  ASP761  ALA762  ILE779  LEU786  VAL792 
 PHE793  MET794  SER795  GLU796  ALA797  LYS798  CYS799  TRP800  GLU811  SER814 

> <Gold.Protein.RotatedAtoms>
  151.2522  135.0626  159.9066 H   0  0  0  0  0  0  0  0  0  0  0  0  # atno 6907 bound_to 6896
  152.5378  134.0320  159.8039 H   0  0  0  0  0  0  0  0  0  0  0  0  # atno 6908 bound_to 6896
  151.0529  133.5559  159.2672 H   0  0  0  0  0  0  0  0  0  0  0  0  # atno 6909 bound_to 6896
  146.1367  139.6295  142.9190 H   0  0  0  0  0  0  0  0  0  0  0  0  # atno 7974 bound_to 7965
  154.4013  140.1356  156.4114 H   0  0  0  0  0  0  0  0  0  0  0  0  # atno 8008 bound_to 7997
  155.7730  140.3483  155.5237 H   0  0  0  0  0  0  0  0  0  0  0  0  # atno 8009 bound_to 7997
  155.8748  140.0977  157.1516 H   0  0  0  0  0  0  0  0  0  0  0  0  # atno 8010 bound_to 7997
  140.6740  143.2749  151.4040 H   0  0  0  0  0  0  0  0  0  0  0  0  # atno 10167 bound_to 10162
  156.1901  130.6789  151.0413 H   0  0  0  0  0  0  0  0  0  0  0  0  # atno 10718 bound_to 10713
  152.9946  135.6201  154.2571 H   0  0  0  0  0  0  0  0  0  0  0  0  # atno 10763 bound_to 10752
  154.2308  135.2792  155.2892 H   0  0  0  0  0  0  0  0  0  0  0  0  # atno 10764 bound_to 10752
  154.5451  135.5750  153.6931 H   0  0  0  0  0  0  0  0  0  0  0  0  # atno 10765 bound_to 10752
  139.9048  134.8106  156.2237 H   0  0  0  0  0  0  0  0  0  0  0  0  # atno 11005 bound_to 11000
  145.5140  141.0434  143.2472 LP  0  0  0  0  0  0  0  0  0  0  0  0  # atno 17320 bound_to 7965
  144.7747  139.6656  143.7180 LP  0  0  0  0  0  0  0  0  0  0  0  0  # atno 17321 bound_to 7965
  139.6023  144.1270  152.2211 LP  0  0  0  0  0  0  0  0  0  0  0  0  # atno 17342 bound_to 10162
  140.0658  144.5820  150.7229 LP  0  0  0  0  0  0  0  0  0  0  0  0  # atno 17343 bound_to 10162
  157.6923  131.0806  150.7070 LP  0  0  0  0  0  0  0  0  0  0  0  0  # atno 17370 bound_to 10713
  156.7127  130.4656  149.5543 LP  0  0  0  0  0  0  0  0  0  0  0  0  # atno 17371 bound_to 10713
  141.0389  133.6948  156.1562 LP  0  0  0  0  0  0  0  0  0  0  0  0  # atno 17394 bound_to 11000
  140.6985  134.4589  157.5587 LP  0  0  0  0  0  0  0  0  0  0  0  0  # atno 17395 bound_to 11000

$$$$
