AV-unprocessed.smi:3282|AV-procd|sdf|12563|dock4
  -GOLD-   2272018483D 1   1.00000     0.00000
 Structure written by MMmdl.
 34 35  0  0  0  0  0  0  0  0  1 V2000
  154.0988  139.5393  161.1445 C   0  0  0  0  0  0  0  0  0  0  0  0
  153.1270  140.1786  160.1394 C   0  0  0  0  0  0  0  0  0  0  0  0
  153.1182  141.7161  160.1791 C   0  0  0  0  0  0  0  0  0  0  0  0
  153.6334  142.3081  161.1289 O   0  0  0  0  0  0  0  0  0  0  0  0
  152.5360  142.3764  159.1566 N   0  0  0  0  0  0  0  0  0  0  0  0
  152.4461  143.8323  159.0857 C   0  0  0  0  0  0  0  0  0  0  0  0
  151.5133  144.1393  157.9144 C   0  0  0  0  0  0  0  0  0  0  0  0
  151.6041  142.9089  157.0165 C   0  0  2  0  0  0  0  0  0  0  0  0
  150.3638  142.6888  156.2791 N   0  0  0  0  0  0  0  0  0  0  0  0
  150.0845  141.6053  155.5397 C   0  0  0  0  0  0  0  0  0  0  0  0
  150.8898  140.6772  155.4154 O   0  0  0  0  0  0  0  0  0  0  0  0
  148.8376  141.7326  154.9479 N   0  0  0  0  0  0  0  0  0  0  0  0
  148.3266  140.7131  154.3283 C   0  0  0  0  0  0  0  0  0  0  0  0
  148.7933  139.4243  154.0819 N   0  0  0  0  0  0  0  0  0  0  0  0
  147.8412  138.7575  153.3628 C   0  0  0  0  0  0  0  0  0  0  0  0
  146.8201  139.5856  153.1634 C   0  0  0  0  0  0  0  0  0  0  0  0
  147.0884  140.7896  153.7423 O   0  0  0  0  0  0  0  0  0  0  0  0
  151.9179  141.7596  157.9842 C   0  0  0  0  0  0  0  0  0  0  0  0
  154.0544  138.4518  161.0839 H   0  0  0  0  0  0  0  0  0  0  0  0
  153.8551  139.8212  162.1695 H   0  0  0  0  0  0  0  0  0  0  0  0
  155.1294  139.8368  160.9474 H   0  0  0  0  0  0  0  0  0  0  0  0
  153.3901  139.8549  159.1320 H   0  0  0  0  0  0  0  0  0  0  0  0
  152.1197  139.8120  160.3396 H   0  0  0  0  0  0  0  0  0  0  0  0
  152.0716  144.2665  160.0140 H   0  0  0  0  0  0  0  0  0  0  0  0
  153.4407  144.2393  158.8981 H   0  0  0  0  0  0  0  0  0  0  0  0
  150.4963  144.2555  158.2932 H   0  0  0  0  0  0  0  0  0  0  0  0
  151.7791  145.0604  157.3949 H   0  0  0  0  0  0  0  0  0  0  0  0
  152.4404  143.0420  156.3274 H   0  0  0  0  0  0  0  0  0  0  0  0
  149.6673  143.4183  156.3287 H   0  0  0  0  0  0  0  0  0  0  0  0
  149.6704  139.0115  154.3650 H   0  0  0  0  0  0  0  0  0  0  0  0
  148.0010  137.7326  153.0623 H   0  0  0  0  0  0  0  0  0  0  0  0
  145.8745  139.4746  152.6534 H   0  0  0  0  0  0  0  0  0  0  0  0
  152.5712  141.0239  157.5131 H   0  0  0  0  0  0  0  0  0  0  0  0
  151.0054  141.2504  158.2991 H   0  0  0  0  0  0  0  0  0  0  0  0
  1  2  1  0  0  0  0
  1 19  1  0  0  0  0
  1 20  1  0  0  0  0
  1 21  1  0  0  0  0
  2  3  1  0  0  0  0
  2 22  1  0  0  0  0
  2 23  1  0  0  0  0
  3  4  2  0  0  0  0
  3  5  1  0  0  0  0
  5 18  1  0  0  0  0
  5  6  1  0  0  0  0
  6  7  1  0  0  0  0
  6 24  1  0  0  0  0
  6 25  1  0  0  0  0
  7  8  1  0  0  0  0
  7 26  1  0  0  0  0
  7 27  1  0  0  0  0
  8  9  1  0  0  0  0
  8 18  1  0  0  0  0
  8 28  1  0  0  0  0
  9 29  1  0  0  0  0
  9 10  1  0  0  0  0
 10 12  1  0  0  0  0
 10 11  2  0  0  0  0
 12 13  2  0  0  0  0
 13 17  1  0  0  0  0
 13 14  1  0  0  0  0
 14 30  1  0  0  0  0
 14 15  1  0  0  0  0
 15 31  1  0  0  0  0
 15 16  2  0  0  0  0
 16 32  1  0  0  0  0
 16 17  1  0  0  0  0
 18 33  1  0  0  0  0
 18 34  1  0  0  0  0
M  END
> <s_m_source_file>
AV-unprocessed.smi

> <i_m_source_file_index>
3282

> <i_lp_mmshare_version>
43012

> <i_f3d_flags>
0

> <s_epik_input>
W0NIM11bQ0gyXUMoPU8pTjFbQ0gyXVtDSDJdW0NASF0oW0NIMl0xKVtOSF1DKD1PKVtOSF1jMm5bY0hdW2NIXW8y

> <s_epik_cmdline>
J2VwaWtfcHl0aG9uJywgJy1waCcsICc3LjAnLCAnLXRuJywgJzgnLCAnLW1hJywgJzIwMCcsICctbWV0YWxfYmluZGluZycsICctaW1hZScsICc8aW5maWxlLm1hZT4nLCAnLW9tYWUnLCAnPG91dGZpbGUubWFlPic=

> <r_lp_tautomer_probability>
0.107061

> <r_epik_Ionization_Penalty>
0.434703

> <r_epik_Ionization_Penalty_Charging>
0.434345

> <r_epik_Ionization_Penalty_Neutral>
0.000358141

> <r_epik_State_Penalty>
2.49584

> <r_epik_Charging_Adjusted_Penalty>
2.93019

> <i_epik_Tot_Q>
0

> <i_epik_Tot_abs_Q>
0

> <r_epik_Metal_State_Penalty>
4.06361

> <b_epik_Metal_Only>
0

> <s_lp_Force_Field>
OPLS_2005

> <r_lp_Energy>
50.3275

> <b_lp_Chiralities_Consistent>
1

> <s_lp_Variant>
AV-unprocessed.smi:3282-4

> <Gold.Version>
5.8.1

> <Gold.Id.Protein>
6NUR|6NUR_protein|mol2

> <Gold.PLP.Fitness>
43.4549

> <Gold.PLP.PLP>
-32.3563

> <Gold.PLP.part.hbond>
-2.9532

> <Gold.PLP.part.metal>
0.0000

> <Gold.PLP.part.buried>
-3.0730

> <Gold.PLP.part.nonpolar>
-27.1326

> <Gold.PLP.part.repulsive>
1.0006

> <Gold.PLP.ligand.clash>
0.0000

> <Gold.PLP.ligand.torsion>
0.2419

> <Gold.PLP.Chemscore.Hbond>
1.8560

> <Gold.PLP.Chemscore.CHOScore>
2.0000

> <Gold.PLP.Chemscore.Metal>
0.0000

> <Gold.Chemscore.Hbonds>
donor molecule, donor type, donor heavy atom, donor atom, acceptor molecule, acceptor atom, score
      L1  H     9    29       P1  8028  1.00
      P1  H  7989  7998       L1    11  0.80
      L1  C    15    31       P1  7948  1.00
      L1  C    16    32       P1 10175  1.00

> <Gold.PLP.Chemscore.Internal.Correction>
0.0145

> <Gold.Rescore>
     Score         DG    S(hbond)    S(metal)    S(lipo)     H(rot)  DE(clash)    DE(int)     intcor
     13.57     -15.50       1.50        0.00      71.80       1.32       0.74       1.20       ----

> <Gold.Chemscore.Fitness>
13.5695

> <Gold.Chemscore.DG>
-15.5010

> <Gold.Chemscore.ZeroCoef>
-5.4800

> <Gold.Chemscore.Hbond>
1.4969

> <Gold.Chemscore.Metal>
0.0000

> <Gold.Chemscore.Lipo>
71.7981

> <Gold.Chemscore.Internal_Hbond>
0.0000

> <Gold.Chemscore.DEClash>
0.7356

> <Gold.Chemscore.DEInternal>
1.1959

> <Gold.Chemscore.Rot>
1.3199

> <Gold.Chemscore.Internal.Correction>
   9.000000E+99

> <Gold.Chemscore.Hbonds>
donor molecule, donor type, donor heavy atom, donor atom, acceptor molecule, acceptor atom, score
      L1  H     9    29       P1  8028  0.95
      P1  H  7989  7998       L1    11  0.34

> <Gold.Chemscore.Hbond.Weighted>
-4.9996

> <Gold.Chemscore.Metal.Weighted>
-0.0000

> <Gold.Chemscore.Lipo.Weighted>
-8.4004

> <Gold.Chemscore.Internal_Hbond.Weighted>
0.0000

> <Gold.Chemscore.DEClash.Weighted>
0.7356

> <Gold.Chemscore.DEInternal.Weighted>
1.1959

> <Gold.Chemscore.Rot.Weighted>
3.3789

> <Gold.Chemscore.Internal.Correction.Weighted>
   9.000000E+99

> <Gold.Protein.RotatedTorsions>
[ 6907 6896 6895 6894 ] final   23.18 input  -60.11 | X-H torsion
[ 7974 7965 7964 7962 ] final -158.37 input  175.53 | X-H torsion
[ 8008 7997 7996 7995 ] final -149.16 input   59.86 | X-H torsion
[ 10167 10162 10161 10158 ] final  105.75 input  -65.29 | X-H torsion
[ 10718 10713 10712 10709 ] final  117.04 input   66.30 | X-H torsion
[ 10763 10752 10751 10750 ] final  120.02 input  -60.55 | X-H torsion
[ 11005 11000 10999 10996 ] final   43.98 input  -57.11 | X-H torsion

> <Gold.Protein.ActiveResidues>
 VAL166  LYS551  ARG553  GLY616  TRP617  ASP618  TYR619  PRO620  LYS621  CYS622 
 ASP623  PHE694  ASN695  SER759  ASP760  ASP761  ALA762  ILE779  LEU786  VAL792 
 PHE793  MET794  SER795  GLU796  ALA797  LYS798  CYS799  TRP800  GLU811  SER814 

> <Gold.Protein.RotatedAtoms>
  151.9384  135.0225  160.0533 H   0  0  0  0  0  0  0  0  0  0  0  0  # atno 6907 bound_to 6896
  152.2058  133.4870  159.5091 H   0  0  0  0  0  0  0  0  0  0  0  0  # atno 6908 bound_to 6896
  150.6965  134.1448  159.4161 H   0  0  0  0  0  0  0  0  0  0  0  0  # atno 6909 bound_to 6896
  144.7508  140.3837  143.6049 H   0  0  0  0  0  0  0  0  0  0  0  0  # atno 7974 bound_to 7965
  155.6032  140.0664  157.2727 H   0  0  0  0  0  0  0  0  0  0  0  0  # atno 8008 bound_to 7997
  154.4273  140.1814  156.1242 H   0  0  0  0  0  0  0  0  0  0  0  0  # atno 8009 bound_to 7997
  156.0143  140.3323  155.6976 H   0  0  0  0  0  0  0  0  0  0  0  0  # atno 8010 bound_to 7997
  139.7066  144.7085  151.1096 H   0  0  0  0  0  0  0  0  0  0  0  0  # atno 10167 bound_to 10162
  157.6122  131.1032  150.7558 H   0  0  0  0  0  0  0  0  0  0  0  0  # atno 10718 bound_to 10713
  153.5920  135.3464  155.2914 H   0  0  0  0  0  0  0  0  0  0  0  0  # atno 10763 bound_to 10752
  154.8651  135.4207  154.2506 H   0  0  0  0  0  0  0  0  0  0  0  0  # atno 10764 bound_to 10752
  153.3315  135.7044  153.7014 H   0  0  0  0  0  0  0  0  0  0  0  0  # atno 10765 bound_to 10752
  140.1594  134.4360  155.8328 H   0  0  0  0  0  0  0  0  0  0  0  0  # atno 11005 bound_to 11000
  145.6950  139.1648  143.2625 LP  0  0  0  0  0  0  0  0  0  0  0  0  # atno 17320 bound_to 7965
  146.1456  140.6998  142.9346 LP  0  0  0  0  0  0  0  0  0  0  0  0  # atno 17321 bound_to 7965
  140.7723  143.5350  150.9379 LP  0  0  0  0  0  0  0  0  0  0  0  0  # atno 17342 bound_to 10162
  139.9034  143.6808  152.3127 LP  0  0  0  0  0  0  0  0  0  0  0  0  # atno 17343 bound_to 10162
  156.7933  130.4897  149.5381 LP  0  0  0  0  0  0  0  0  0  0  0  0  # atno 17370 bound_to 10713
  156.1229  130.6123  151.0221 LP  0  0  0  0  0  0  0  0  0  0  0  0  # atno 17371 bound_to 10713
  141.2208  133.6907  156.7566 LP  0  0  0  0  0  0  0  0  0  0  0  0  # atno 17394 bound_to 11000
  140.2508  134.8542  157.3665 LP  0  0  0  0  0  0  0  0  0  0  0  0  # atno 17395 bound_to 11000

$$$$
