AV-unprocessed.smi:109|AV-procd|sdf|1035|dock9
  -GOLD-   2262018 53D 1   1.00000     0.00000
 Structure written by MMmdl.
 58 61  0  0  0  0  0  0  0  0  1 V2000
  152.4931  136.9762  159.6334 O   0  0  0  0  0  0  0  0  0  0  0  0
  151.6675  137.8453  158.8884 C   0  0  0  0  0  0  0  0  0  0  0  0
  152.3423  139.2213  158.7580 C   0  0  0  0  0  0  0  0  0  0  0  0
  151.4744  140.2957  158.0566 C   0  0  2  0  0  0  0  0  0  0  0  0
  151.4382  140.0325  156.6163 N   0  0  0  0  0  0  0  0  0  0  0  0
  150.2788  139.8634  155.9415 C   0  0  0  0  0  0  0  0  0  0  0  0
  150.0725  140.4356  154.7276 N   0  0  0  0  0  0  0  0  0  0  0  0
  148.9136  140.2509  154.0900 C   0  0  0  0  0  0  0  0  0  0  0  0
  147.8503  139.5460  154.4815 N   0  0  0  0  0  0  0  0  0  0  0  0
  148.0462  138.9693  155.7040 C   0  0  0  0  0  0  0  0  0  0  0  0
  149.2305  139.0777  156.4865 C   0  0  0  0  0  0  0  0  0  0  0  0
  149.0910  138.3465  157.6570 N   0  0  0  0  0  0  0  0  0  0  0  0
  147.8970  137.8281  157.5631 C   0  0  0  0  0  0  0  0  0  0  0  0
  147.1786  138.1786  156.4381 N   0  0  0  0  0  0  0  0  0  0  0  0
  145.8009  137.7128  156.0458 C   0  0  2  0  0  0  0  0  0  0  0  0
  145.7805  136.3186  156.0327 O   0  0  0  0  0  0  0  0  0  0  0  0
  146.1261  135.8612  154.7325 C   0  0  1  0  0  0  0  0  0  0  0  0
  145.8097  134.3659  154.5623 C   0  0  0  0  0  0  0  0  0  0  0  0
  144.4301  134.1450  154.7628 O   0  0  0  0  0  0  0  0  0  0  0  0
  145.3174  136.8241  153.8553 C   0  0  1  0  0  0  0  0  0  0  0  0
  143.9683  136.3963  153.7491 O   0  0  0  0  0  0  0  0  0  0  0  0
  145.4628  138.1526  154.6033 C   0  0  1  0  0  0  0  0  0  0  0  0
  144.3044  138.9617  154.5275 O   0  0  0  0  0  0  0  0  0  0  0  0
  151.9741  141.7500  158.2992 C   0  0  0  0  0  0  0  0  0  0  0  0
  152.1061  142.1126  159.8003 C   0  0  0  0  0  0  0  0  0  0  0  0
  152.5715  143.5625  160.0154 C   0  0  0  0  0  0  0  0  0  0  0  0
  151.6426  144.5620  159.3162 C   0  0  0  0  0  0  0  0  0  0  0  0
  151.5197  144.2314  157.8243 C   0  0  0  0  0  0  0  0  0  0  0  0
  151.0453  142.7852  157.6133 C   0  0  0  0  0  0  0  0  0  0  0  0
  145.1461  138.1199  156.8174 H   0  0  0  0  0  0  0  0  0  0  0  0
  147.1894  136.0402  154.5568 H   0  0  0  0  0  0  0  0  0  0  0  0
  145.7303  136.8857  152.8478 H   0  0  0  0  0  0  0  0  0  0  0  0
  146.2977  138.7038  154.1709 H   0  0  0  0  0  0  0  0  0  0  0  0
  152.7221  137.4021  160.4452 H   0  0  0  0  0  0  0  0  0  0  0  0
  151.4871  137.3976  157.9112 H   0  0  0  0  0  0  0  0  0  0  0  0
  150.7049  137.9357  159.3923 H   0  0  0  0  0  0  0  0  0  0  0  0
  152.5850  139.5437  159.7689 H   0  0  0  0  0  0  0  0  0  0  0  0
  153.2923  139.1169  158.2321 H   0  0  0  0  0  0  0  0  0  0  0  0
  150.4709  140.2399  158.4787 H   0  0  0  0  0  0  0  0  0  0  0  0
  152.3300  140.0928  156.1465 H   0  0  0  0  0  0  0  0  0  0  0  0
  148.8246  140.7385  153.1306 H   0  0  0  0  0  0  0  0  0  0  0  0
  147.5043  137.1702  158.3250 H   0  0  0  0  0  0  0  0  0  0  0  0
  146.1119  134.0017  153.5800 H   0  0  0  0  0  0  0  0  0  0  0  0
  146.3470  133.7802  155.3088 H   0  0  0  0  0  0  0  0  0  0  0  0
  144.2451  133.2349  154.5864 H   0  0  0  0  0  0  0  0  0  0  0  0
  143.7774  136.2353  152.8374 H   0  0  0  0  0  0  0  0  0  0  0  0
  144.2279  139.2869  153.6433 H   0  0  0  0  0  0  0  0  0  0  0  0
  152.9651  141.8417  157.8511 H   0  0  0  0  0  0  0  0  0  0  0  0
  151.1505  141.9564  160.3028 H   0  0  0  0  0  0  0  0  0  0  0  0
  152.8278  141.4658  160.2959 H   0  0  0  0  0  0  0  0  0  0  0  0
  152.6166  143.7831  161.0822 H   0  0  0  0  0  0  0  0  0  0  0  0
  153.5865  143.6791  159.6333 H   0  0  0  0  0  0  0  0  0  0  0  0
  150.6567  144.5361  159.7819 H   0  0  0  0  0  0  0  0  0  0  0  0
  152.0212  145.5765  159.4440 H   0  0  0  0  0  0  0  0  0  0  0  0
  150.8246  144.9233  157.3478 H   0  0  0  0  0  0  0  0  0  0  0  0
  152.4842  144.3746  157.3352 H   0  0  0  0  0  0  0  0  0  0  0  0
  150.9839  142.6017  156.5406 H   0  0  0  0  0  0  0  0  0  0  0  0
  150.0303  142.6777  157.9984 H   0  0  0  0  0  0  0  0  0  0  0  0
  1  2  1  0  0  0  0
  1 34  1  0  0  0  0
  2  3  1  0  0  0  0
  2 35  1  0  0  0  0
  2 36  1  0  0  0  0
  3  4  1  0  0  0  0
  3 37  1  0  0  0  0
  3 38  1  0  0  0  0
  4  5  1  0  0  0  0
  4 24  1  0  0  0  0
  4 39  1  0  0  0  0
  5  6  1  0  0  0  0
  5 40  1  0  0  0  0
  6 11  1  0  0  0  0
  6  7  2  0  0  0  0
  7  8  1  0  0  0  0
  8  9  2  0  0  0  0
  8 41  1  0  0  0  0
  9 10  1  0  0  0  0
 10 14  1  0  0  0  0
 10 11  2  0  0  0  0
 11 12  1  0  0  0  0
 12 13  2  0  0  0  0
 13 14  1  0  0  0  0
 13 42  1  0  0  0  0
 14 15  1  0  0  0  0
 15 30  1  0  0  0  0
 15 22  1  0  0  0  0
 15 16  1  0  0  0  0
 16 17  1  0  0  0  0
 17 31  1  0  0  0  0
 17 18  1  0  0  0  0
 17 20  1  0  0  0  0
 18 19  1  0  0  0  0
 18 43  1  0  0  0  0
 18 44  1  0  0  0  0
 19 45  1  0  0  0  0
 20 32  1  0  0  0  0
 20 21  1  0  0  0  0
 20 22  1  0  0  0  0
 21 46  1  0  0  0  0
 22 33  1  0  0  0  0
 22 23  1  0  0  0  0
 23 47  1  0  0  0  0
 24 29  1  0  0  0  0
 24 25  1  0  0  0  0
 24 48  1  0  0  0  0
 25 26  1  0  0  0  0
 25 49  1  0  0  0  0
 25 50  1  0  0  0  0
 26 27  1  0  0  0  0
 26 51  1  0  0  0  0
 26 52  1  0  0  0  0
 27 28  1  0  0  0  0
 27 53  1  0  0  0  0
 27 54  1  0  0  0  0
 28 29  1  0  0  0  0
 28 55  1  0  0  0  0
 28 56  1  0  0  0  0
 29 57  1  0  0  0  0
 29 58  1  0  0  0  0
M  END
> <s_m_source_file>
AV-unprocessed.smi

> <i_m_source_file_index>
109

> <i_lp_mmshare_version>
43012

> <i_f3d_flags>
0

> <s_epik_input>
W0NIMl0xW0NIMl1bQ0gyXVtDSDJdW0NIMl1bQ0hdMVtDQEhdKFtDSDJdW0NIMl1bT0hdKVtOSF1jKG5bY0hdbjIpYyhjMjMpbltjSF1uM1tDQEBIXTRPW0NASF0oW0NIMl1bT0hdKVtDQEBIXShbT0hdKVtDQEhdNFtPSF0=

> <s_epik_cmdline>
J2VwaWtfcHl0aG9uJywgJy1waCcsICc3LjAnLCAnLXRuJywgJzgnLCAnLW1hJywgJzIwMCcsICctbWV0YWxfYmluZGluZycsICctaW1hZScsICc8aW5maWxlLm1hZT4nLCAnLW9tYWUnLCAnPG91dGZpbGUubWFlPic=

> <r_lp_tautomer_probability>
1

> <r_epik_Ionization_Penalty>
0.000793976

> <r_epik_Ionization_Penalty_Charging>
0

> <r_epik_Ionization_Penalty_Neutral>
0.000793976

> <r_epik_State_Penalty>
-0

> <r_epik_Charging_Adjusted_Penalty>
0

> <i_epik_Tot_Q>
0

> <i_epik_Tot_abs_Q>
0

> <r_epik_Metal_State_Penalty>
-0

> <b_epik_Metal_Only>
0

> <s_epik_Chemistry_Notes>
This compound contains an acetal/aminal-like group ( X-CH(R)-Y where X, Y are N, S, or O) that may be acid/base labile, releasing an aldehyde.

> <s_lp_Force_Field>
OPLS_2005

> <r_lp_Energy>
57.9127

> <b_lp_Chiralities_Consistent>
1

> <s_lp_Variant>
AV-unprocessed.smi:109-5

> <Gold.Version>
5.8.1

> <Gold.Id.Protein>
6NUR|6NUR_protein|mol2

> <Gold.PLP.Fitness>
49.2272

> <Gold.PLP.PLP>
-36.1476

> <Gold.PLP.part.hbond>
-3.9876

> <Gold.PLP.part.metal>
0.0000

> <Gold.PLP.part.buried>
-5.3617

> <Gold.PLP.part.nonpolar>
-28.0350

> <Gold.PLP.part.repulsive>
0.2933

> <Gold.PLP.ligand.clash>
0.0000

> <Gold.PLP.ligand.torsion>
0.5959

> <Gold.PLP.Chemscore.Hbond>
3.7233

> <Gold.PLP.Chemscore.CHOScore>
1.0000

> <Gold.PLP.Chemscore.Metal>
0.0000

> <Gold.Chemscore.Hbonds>
donor molecule, donor type, donor heavy atom, donor atom, acceptor molecule, acceptor atom, score
      L1  H    19    45       P1 10957  0.55
      L1  H    23    47       P1 10175  1.00
      P1  H  6896  6908       L1     1  1.00
      P1  H  7989  7998       L1     7  0.94
      L1  C     8    41       P1  7957  0.97

> <Gold.PLP.Chemscore.Internal.Correction>
0.1016

> <Gold.Rescore>
     Score         DG    S(hbond)    S(metal)    S(lipo)     H(rot)  DE(clash)    DE(int)     intcor
     10.58     -13.65       3.62        0.00      86.19       5.47       0.10       2.97       ----

> <Gold.Chemscore.Fitness>
10.5763

> <Gold.Chemscore.DG>
-13.6495

> <Gold.Chemscore.ZeroCoef>
-5.4800

> <Gold.Chemscore.Hbond>
3.6166

> <Gold.Chemscore.Metal>
0.0000

> <Gold.Chemscore.Lipo>
86.1855

> <Gold.Chemscore.Internal_Hbond>
0.0000

> <Gold.Chemscore.DEClash>
0.1036

> <Gold.Chemscore.DEInternal>
2.9697

> <Gold.Chemscore.Rot>
5.4662

> <Gold.Chemscore.Internal.Correction>
   9.000000E+99

> <Gold.Chemscore.Hbonds>
donor molecule, donor type, donor heavy atom, donor atom, acceptor molecule, acceptor atom, score
      L1  H    19    45       P1 10957  0.55
      L1  H    23    47       P1 10175  0.95
      P1  H  6896  6908       L1     1  0.66
      P1  H  7989  7998       L1     7  0.73

> <Gold.Chemscore.Hbond.Weighted>
-12.0793

> <Gold.Chemscore.Metal.Weighted>
-0.0000

> <Gold.Chemscore.Lipo.Weighted>
-10.0837

> <Gold.Chemscore.Internal_Hbond.Weighted>
0.0000

> <Gold.Chemscore.DEClash.Weighted>
0.1036

> <Gold.Chemscore.DEInternal.Weighted>
2.9697

> <Gold.Chemscore.Rot.Weighted>
13.9935

> <Gold.Chemscore.Internal.Correction.Weighted>
   9.000000E+99

> <Gold.Protein.RotatedTorsions>
[ 6907 6896 6895 6894 ] final  -99.72 input  -60.11 | X-H torsion
[ 7974 7965 7964 7962 ] final   78.00 input  175.53 | X-H torsion
[ 8008 7997 7996 7995 ] final   63.55 input   59.86 | X-H torsion
[ 10167 10162 10161 10158 ] final   34.88 input  -65.29 | X-H torsion
[ 10718 10713 10712 10709 ] final  -19.75 input   66.30 | X-H torsion
[ 10763 10752 10751 10750 ] final  -48.20 input  -60.55 | X-H torsion
[ 11005 11000 10999 10996 ] final  115.15 input  -57.11 | X-H torsion

> <Gold.Protein.ActiveResidues>
 VAL166  LYS551  ARG553  GLY616  TRP617  ASP618  TYR619  PRO620  LYS621  CYS622 
 ASP623  PHE694  ASN695  SER759  ASP760  ASP761  ALA762  ILE779  LEU786  VAL792 
 PHE793  MET794  SER795  GLU796  ALA797  LYS798  CYS799  TRP800  GLU811  SER814 

> <Gold.Protein.RotatedAtoms>
  150.7090  134.0997  159.3961 H   0  0  0  0  0  0  0  0  0  0  0  0  # atno 6907 bound_to 6896
  151.8983  135.0386  160.0513 H   0  0  0  0  0  0  0  0  0  0  0  0  # atno 6908 bound_to 6896
  152.2435  133.5119  159.5320 H   0  0  0  0  0  0  0  0  0  0  0  0  # atno 6909 bound_to 6896
  145.6827  139.2528  143.1804 H   0  0  0  0  0  0  0  0  0  0  0  0  # atno 7974 bound_to 7965
  155.6320  140.3496  155.4686 H   0  0  0  0  0  0  0  0  0  0  0  0  # atno 8008 bound_to 7997
  155.9995  140.1210  157.0584 H   0  0  0  0  0  0  0  0  0  0  0  0  # atno 8009 bound_to 7997
  154.4244  140.1103  156.5664 H   0  0  0  0  0  0  0  0  0  0  0  0  # atno 8010 bound_to 7997
  140.4274  144.1374  150.6155 H   0  0  0  0  0  0  0  0  0  0  0  0  # atno 10167 bound_to 10162
  156.5414  130.4679  149.6497 H   0  0  0  0  0  0  0  0  0  0  0  0  # atno 10718 bound_to 10713
  154.0739  135.6601  153.4828 H   0  0  0  0  0  0  0  0  0  0  0  0  # atno 10763 bound_to 10752
  153.0380  135.5164  154.7540 H   0  0  0  0  0  0  0  0  0  0  0  0  # atno 10764 bound_to 10752
  154.6614  135.3015  154.9829 H   0  0  0  0  0  0  0  0  0  0  0  0  # atno 10765 bound_to 10752
  139.9001  134.9579  156.7000 H   0  0  0  0  0  0  0  0  0  0  0  0  # atno 11005 bound_to 11000
  146.0950  140.7611  142.9577 LP  0  0  0  0  0  0  0  0  0  0  0  0  # atno 17320 bound_to 7965
  144.7021  140.3697  143.7148 LP  0  0  0  0  0  0  0  0  0  0  0  0  # atno 17321 bound_to 7965
  140.4466  143.2504  151.9403 LP  0  0  0  0  0  0  0  0  0  0  0  0  # atno 17342 bound_to 10162
  139.4784  144.5603  151.8249 LP  0  0  0  0  0  0  0  0  0  0  0  0  # atno 17343 bound_to 10162
  156.2968  130.7155  151.2017 LP  0  0  0  0  0  0  0  0  0  0  0  0  # atno 17370 bound_to 10713
  157.7404  131.0517  150.5165 LP  0  0  0  0  0  0  0  0  0  0  0  0  # atno 17371 bound_to 10713
  140.7157  133.9184  155.8114 LP  0  0  0  0  0  0  0  0  0  0  0  0  # atno 17394 bound_to 11000
  141.0266  134.0815  157.4062 LP  0  0  0  0  0  0  0  0  0  0  0  0  # atno 17395 bound_to 11000

$$$$
