#       Name:                AV-unprocessed.smi:256
#       Creating user name   scv26
#       Creation time:       Thu Mar 26 21:10:34 2020


#       File generated by GOLD software.
#

@<TRIPOS>MOLECULE
AV-unprocessed.smi:256
    72    75     1
SMALL
NO_CHARGES


@<TRIPOS>ATOM
      1 ****        -3.5213  -1.4442  -3.5715 C.3            1 S1                 0.0000
      2 ****        -3.7998  -0.0667  -2.9521 C.3            1 S1                 0.0000
      3 ****        -3.1151   0.1587  -1.5774 C.3            1 S1                 0.0000
      4 ****        -1.5765   0.1229  -1.7711 C.3            1 S1                 0.0000
      5 ****        -0.8506   0.5399  -0.5775 N.3            1 S1                 0.0000
      6 ****         0.4709   0.2440  -0.4832 C.ar           1 S1                 0.0000
      7 ****         1.1846  -0.0385  -1.6058 N.ar           1 S1                 0.0000
      8 ****         2.4857  -0.3319  -1.5224 C.ar           1 S1                 0.0000
      9 ****         3.2566  -0.4034  -0.4359 N.ar           1 S1                 0.0000
     10 ****         2.5459  -0.1305   0.6952 C.ar           1 S1                 0.0000
     11 ****         1.1633   0.2027   0.7602 C.ar           1 S1                 0.0000
     12 ****         0.7880   0.4058   2.0829 N.2            1 S1                 0.0000
     13 ****         1.8871   0.2135   2.7595 C.2            1 S1                 0.0000
     14 ****         2.9890  -0.1254   2.0069 N.pl3          1 S1                 0.0000
     15 ****         4.3291  -0.4045   2.5025 C.3            1 S1                 0.0000
     16 ****         4.5095  -1.8418   3.0637 C.3            1 S1                 0.0000
     17 ****         3.6497  -1.9753   4.1809 O.3            1 S1                 0.0000
     18 ****         4.1465  -2.9585   2.0609 C.3            1 S1                 0.0000
     19 ****         5.2186  -3.0987   0.9661 C.3            1 S1                 0.0000
     20 ****         6.4880  -3.3468   1.5605 O.3            1 S1                 0.0000
     21 ****         6.9306  -2.2824   2.3959 C.3            1 S1                 0.0000
     22 ****         5.9476  -2.0842   3.5642 C.3            1 S1                 0.0000
     23 ****        -1.2420   1.8494  -0.0829 C.3            1 S1                 0.0000
     24 ****        -2.7383   1.8460   0.2333 C.3            1 S1                 0.0000
     25 ****        -3.5648   1.4371  -0.9355 N.4            1 S1                 1.0000
     26 ****        -5.0131   1.4747  -0.5854 C.3            1 S1                 0.0000
     27 ****        -5.6682   2.7679  -1.0846 C.3            1 S1                 0.0000
     28 ****        -5.7188   2.7423  -2.5010 O.3            1 S1                 0.0000
     29 ****        -6.3396   3.8947  -3.0427 C.3            1 S1                 0.0000
     30 ****        -4.0977  -1.5769  -4.4874 H              1 S1                 0.0000
     31 ****        -3.7984  -2.2473  -2.8879 H              1 S1                 0.0000
     32 ****        -2.4704  -1.5690  -3.8320 H              1 S1                 0.0000
     33 ****        -3.4864   0.7114  -3.6492 H              1 S1                 0.0000
     34 ****        -4.8810   0.0296  -2.8814 H              1 S1                 0.0000
     35 ****        -3.3910  -0.6520  -0.9006 H              1 S1                 0.0000
     36 ****        -1.2669  -0.8868  -2.0432 H              1 S1                 0.0000
     37 ****        -1.2893   0.7785  -2.5946 H              1 S1                 0.0000
     38 ****         2.9798  -0.5404  -2.4601 H              1 S1                 0.0000
     39 ****         1.9229   0.3041   3.8355 H              1 S1                 0.0000
     40 ****         5.0328  -0.2148   1.6925 H              1 S1                 0.0000
     41 ****         4.5610   0.3308   3.2743 H              1 S1                 0.0000
     42 ****         3.7542  -2.8441   4.5381 H              1 S1                 0.0000
     43 ****         4.0751  -3.9115   2.5873 H              1 S1                 0.0000
     44 ****         3.1661  -2.7920   1.6144 H              1 S1                 0.0000
     45 ****         4.9715  -3.9325   0.3089 H              1 S1                 0.0000
     46 ****         5.2677  -2.2083   0.3390 H              1 S1                 0.0000
     47 ****         7.9191  -2.5315   2.7820 H              1 S1                 0.0000
     48 ****         7.0453  -1.3692   1.8111 H              1 S1                 0.0000
     49 ****         6.2778  -1.2621   4.2004 H              1 S1                 0.0000
     50 ****         5.9740  -2.9807   4.1858 H              1 S1                 0.0000
     51 ****        -0.6818   2.1350   0.8066 H              1 S1                 0.0000
     52 ****        -1.0204   2.5980  -0.8450 H              1 S1                 0.0000
     53 ****        -2.9220   1.1621   1.0639 H              1 S1                 0.0000
     54 ****        -3.0427   2.8390   0.5659 H              1 S1                 0.0000
     55 ****        -5.5611   0.6160  -0.9689 H              1 S1                 0.0000
     56 ****        -5.1385   1.4077   0.4963 H              1 S1                 0.0000
     57 ****        -6.6810   2.8399  -0.6851 H              1 S1                 0.0000
     58 ****        -5.1157   3.6410  -0.7337 H              1 S1                 0.0000
     59 ****        -6.3456   3.8301  -4.1306 H              1 S1                 0.0000
     60 ****        -5.8024   4.8015  -2.7621 H              1 S1                 0.0000
     61 ****        -7.3732   3.9815  -2.7052 H              1 S1                 0.0000
     62 ****        -3.4255   2.1473  -1.6402 H              1 S1                 0.0000
     63 ****        -1.1909  -0.1150   0.0973 LP             1 S1                 0.0000
     64 ****         0.7335  -0.0266  -2.4982 LP             1 S1                 0.0000
     65 ****         4.2309  -0.6284  -0.4494 LP             1 S1                 0.0000
     66 ****        -0.1169   0.6445   2.4353 LP             1 S1                 0.0000
     67 ****         2.7012  -1.8403   3.8945 LP             1 S1                 0.0000
     68 ****         3.8888  -1.2949   4.8736 LP             1 S1                 0.0000
     69 ****         7.1600  -3.4803   0.8321 LP             1 S1                 0.0000
     70 ****         6.4243  -4.1787   2.1118 LP             1 S1                 0.0000
     71 ****        -6.2341   1.9351  -2.7889 LP             1 S1                 0.0000
     72 ****        -4.7850   2.6851  -2.8542 LP             1 S1                 0.0000
@<TRIPOS>BOND
    1    1    2 1     
    2    1   30 1     
    3    1   31 1     
    4    1   32 1     
    5    2    3 1     
    6    2   33 1     
    7    2   34 1     
    8    3   25 1     
    9    3    4 1     
   10    3   35 1     
   11    4    5 1     
   12    4   36 1     
   13    4   37 1     
   14    5    6 1     
   15    5   23 1     
   16    6   11 ar    
   17    6    7 ar    
   18    7    8 ar    
   19    8    9 ar    
   20    8   38 1     
   21    9   10 ar    
   22   10   14 1     
   23   10   11 ar    
   24   11   12 1     
   25   12   13 2     
   26   13   14 1     
   27   13   39 1     
   28   14   15 1     
   29   15   16 1     
   30   15   40 1     
   31   15   41 1     
   32   16   22 1     
   33   16   17 1     
   34   16   18 1     
   35   17   42 1     
   36   18   19 1     
   37   18   43 1     
   38   18   44 1     
   39   19   20 1     
   40   19   45 1     
   41   19   46 1     
   42   20   21 1     
   43   21   22 1     
   44   21   47 1     
   45   21   48 1     
   46   22   49 1     
   47   22   50 1     
   48   23   24 1     
   49   23   51 1     
   50   23   52 1     
   51   24   25 1     
   52   24   53 1     
   53   24   54 1     
   54   25   26 1     
   55   25   62 1     
   56   26   27 1     
   57   26   55 1     
   58   26   56 1     
   59   27   28 1     
   60   27   57 1     
   61   27   58 1     
   62   28   29 1     
   63   29   59 1     
   64   29   60 1     
   65   29   61 1     
   66    5   63 1     
   67    7   64 1     
   68    9   65 1     
   69   12   66 1     
   70   17   67 1     
   71   17   68 1     
   72   20   69 1     
   73   20   70 1     
   74   28   71 1     
   75   28   72 1     
@<TRIPOS>SUBSTRUCTURE
      1 S1             1
@<TRIPOS>SET
LONE_PAIRS      STATIC     ATOMS    <user>   **** ""
10 63 64 65 66 67 68 69 70 71 72
DONOR_HYDROGENS      STATIC     ATOMS    <user>   **** ""
2 42 62
ATOM$BLUE        STATIC     ATOMS    COLORGROUP SYSTEM
10 63 64 65 66 67 68 69 70 71 72
ATOM$RED        STATIC     ATOMS    COLORGROUP SYSTEM
2 42 62
