AV-unprocessed.smi:1750|AV-procd|sdf|7053|dock1
  -GOLD-   22720 8263D 1   1.00000     0.00000
 Structure written by MMmdl.
 36 37  0  0  0  0  0  0  0  0  1 V2000
  151.5182  143.3286  157.7008 C   0  0  0  0  0  0  0  0  0  0  0  0
  150.4790  142.3101  157.2196 C   0  0  0  0  0  0  0  0  0  0  0  0
  151.0288  141.3795  156.1294 C   0  0  0  0  0  0  0  0  0  0  0  0
  149.9534  140.6217  155.4243 C   0  0  0  0  0  0  0  0  0  0  0  0
  148.6528  140.8999  155.5783 N   0  0  0  0  0  0  0  0  0  0  0  0
  147.8418  140.0503  154.8392 N   0  0  0  0  0  0  0  0  0  0  0  0
  148.5560  139.1429  154.1593 C   0  0  0  0  0  0  0  0  0  0  0  0
  147.9795  138.1514  153.3217 N   0  0  0  0  0  0  0  0  0  0  0  0
  146.6779  137.8600  153.1509 C   0  0  0  0  0  0  0  0  0  0  0  0
  145.7404  138.4205  153.7196 O   0  0  0  0  0  0  0  0  0  0  0  0
  146.5140  136.8673  152.2667 N   0  0  0  0  0  0  0  0  0  0  0  0
  145.2196  136.3396  151.8579 C   0  0  0  0  0  0  0  0  0  0  0  0
  145.3926  135.2096  150.8342 C   0  0  1  0  0  0  0  0  0  0  0  0
  146.2298  134.0397  151.3469 C   0  0  0  0  0  0  0  0  0  0  0  0
  145.7439  132.9107  150.4673 C   0  0  0  0  0  0  0  0  0  0  0  0
  144.2538  133.2212  150.3549 C   0  0  0  0  0  0  0  0  0  0  0  0
  144.1318  134.6346  150.4980 O   0  0  0  0  0  0  0  0  0  0  0  0
  150.2948  139.2509  154.3748 S   0  0  0  0  0  0  0  0  0  0  0  0
  151.1021  143.9699  158.4779 H   0  0  0  0  0  0  0  0  0  0  0  0
  151.8493  143.9693  156.8831 H   0  0  0  0  0  0  0  0  0  0  0  0
  152.3960  142.8314  158.1143 H   0  0  0  0  0  0  0  0  0  0  0  0
  150.1369  141.7167  158.0683 H   0  0  0  0  0  0  0  0  0  0  0  0
  149.6048  142.8414  156.8414 H   0  0  0  0  0  0  0  0  0  0  0  0
  151.5912  141.9556  155.3936 H   0  0  0  0  0  0  0  0  0  0  0  0
  151.7278  140.6646  156.5650 H   0  0  0  0  0  0  0  0  0  0  0  0
  148.6347  137.6064  152.7809 H   0  0  0  0  0  0  0  0  0  0  0  0
  147.3315  136.4590  151.8376 H   0  0  0  0  0  0  0  0  0  0  0  0
  144.6939  135.9633  152.7368 H   0  0  0  0  0  0  0  0  0  0  0  0
  144.6124  137.1426  151.4371 H   0  0  0  0  0  0  0  0  0  0  0  0
  145.8433  135.5939  149.9173 H   0  0  0  0  0  0  0  0  0  0  0  0
  147.3027  134.2158  151.2651 H   0  0  0  0  0  0  0  0  0  0  0  0
  145.9964  133.8254  152.3910 H   0  0  0  0  0  0  0  0  0  0  0  0
  146.2163  132.9716  149.4859 H   0  0  0  0  0  0  0  0  0  0  0  0
  145.9437  131.9231  150.8835 H   0  0  0  0  0  0  0  0  0  0  0  0
  143.8306  132.8788  149.4104 H   0  0  0  0  0  0  0  0  0  0  0  0
  143.7025  132.7437  151.1655 H   0  0  0  0  0  0  0  0  0  0  0  0
  1  2  1  0  0  0  0
  1 19  1  0  0  0  0
  1 20  1  0  0  0  0
  1 21  1  0  0  0  0
  2  3  1  0  0  0  0
  2 22  1  0  0  0  0
  2 23  1  0  0  0  0
  3  4  1  0  0  0  0
  3 24  1  0  0  0  0
  3 25  1  0  0  0  0
  4 18  1  0  0  0  0
  4  5  2  0  0  0  0
  5  6  1  0  0  0  0
  6  7  2  0  0  0  0
  7  8  1  0  0  0  0
  7 18  1  0  0  0  0
  8  9  1  0  0  0  0
  8 26  1  0  0  0  0
  9 10  2  0  0  0  0
  9 11  1  0  0  0  0
 11 12  1  0  0  0  0
 11 27  1  0  0  0  0
 12 13  1  0  0  0  0
 12 28  1  0  0  0  0
 12 29  1  0  0  0  0
 13 17  1  0  0  0  0
 13 14  1  0  0  0  0
 13 30  1  0  0  0  0
 14 15  1  0  0  0  0
 14 31  1  0  0  0  0
 14 32  1  0  0  0  0
 15 16  1  0  0  0  0
 15 33  1  0  0  0  0
 15 34  1  0  0  0  0
 16 17  1  0  0  0  0
 16 35  1  0  0  0  0
 16 36  1  0  0  0  0
M  END
> <s_m_source_file>
AV-unprocessed.smi

> <i_m_source_file_index>
1750

> <i_lp_mmshare_version>
43012

> <i_f3d_flags>
0

> <s_epik_input>
W0NIM11bQ0gyXVtDSDJdYzFubmMoczEpW05IXUMoPU8pW05IXVtDSDJdW0NAQEhdMltDSDJdW0NIMl1bQ0gyXU8y

> <s_epik_cmdline>
J2VwaWtfcHl0aG9uJywgJy1waCcsICc3LjAnLCAnLXRuJywgJzgnLCAnLW1hJywgJzIwMCcsICctbWV0YWxfYmluZGluZycsICctaW1hZScsICc8aW5maWxlLm1hZT4nLCAnLW9tYWUnLCAnPG91dGZpbGUubWFlPic=

> <r_lp_tautomer_probability>
1

> <r_epik_Ionization_Penalty>
0.000503051

> <r_epik_Ionization_Penalty_Charging>
0

> <r_epik_Ionization_Penalty_Neutral>
0.000503051

> <r_epik_State_Penalty>
-0

> <r_epik_Charging_Adjusted_Penalty>
0

> <i_epik_Tot_Q>
0

> <i_epik_Tot_abs_Q>
0

> <r_epik_Metal_State_Penalty>
0.219912

> <b_epik_Metal_Only>
0

> <s_lp_Force_Field>
OPLS_2005

> <r_lp_Energy>
11.8885

> <b_lp_Chiralities_Consistent>
1

> <s_lp_Variant>
AV-unprocessed.smi:1750-2

> <Gold.Version>
5.8.1

> <Gold.Id.Protein>
6NUR|6NUR_protein|mol2

> <Gold.PLP.Fitness>
36.1605

> <Gold.PLP.PLP>
-30.5313

> <Gold.PLP.part.hbond>
-2.1287

> <Gold.PLP.part.metal>
0.0000

> <Gold.PLP.part.buried>
-4.3602

> <Gold.PLP.part.nonpolar>
-25.6255

> <Gold.PLP.part.repulsive>
0.6163

> <Gold.PLP.ligand.clash>
0.0000

> <Gold.PLP.ligand.torsion>
0.1907

> <Gold.PLP.Chemscore.Hbond>
2.0000

> <Gold.PLP.Chemscore.CHOScore>
0.0000

> <Gold.PLP.Chemscore.Metal>
0.0000

> <Gold.Chemscore.Hbonds>
donor molecule, donor type, donor heavy atom, donor atom, acceptor molecule, acceptor atom, score
      L1  H     8    26       P1  7948  1.00
      L1  H    11    27       P1  7948  1.00

> <Gold.PLP.Chemscore.Internal.Correction>
0.0107

> <Gold.Rescore>
     Score         DG    S(hbond)    S(metal)    S(lipo)     H(rot)  DE(clash)    DE(int)     intcor
     14.90     -16.36       1.92        0.00      73.81       1.63       0.12       1.35       ----

> <Gold.Chemscore.Fitness>
14.8986

> <Gold.Chemscore.DG>
-16.3623

> <Gold.Chemscore.ZeroCoef>
-5.4800

> <Gold.Chemscore.Hbond>
1.9230

> <Gold.Chemscore.Metal>
0.0000

> <Gold.Chemscore.Lipo>
73.8054

> <Gold.Chemscore.Internal_Hbond>
0.0000

> <Gold.Chemscore.DEClash>
0.1181

> <Gold.Chemscore.DEInternal>
1.3455

> <Gold.Chemscore.Rot>
1.6311

> <Gold.Chemscore.Internal.Correction>
   9.000000E+99

> <Gold.Chemscore.Hbonds>
donor molecule, donor type, donor heavy atom, donor atom, acceptor molecule, acceptor atom, score
      L1  H     8    26       P1  7948  0.94
      L1  H    11    27       P1  7948  0.93

> <Gold.Chemscore.Hbond.Weighted>
-6.4227

> <Gold.Chemscore.Metal.Weighted>
-0.0000

> <Gold.Chemscore.Lipo.Weighted>
-8.6352

> <Gold.Chemscore.Internal_Hbond.Weighted>
0.0000

> <Gold.Chemscore.DEClash.Weighted>
0.1181

> <Gold.Chemscore.DEInternal.Weighted>
1.3455

> <Gold.Chemscore.Rot.Weighted>
4.1757

> <Gold.Chemscore.Internal.Correction.Weighted>
   9.000000E+99

> <Gold.Protein.RotatedTorsions>
[ 6907 6896 6895 6894 ] final  153.26 input  -60.11 | X-H torsion
[ 7974 7965 7964 7962 ] final  127.59 input  175.53 | X-H torsion
[ 8008 7997 7996 7995 ] final  -11.93 input   59.86 | X-H torsion
[ 10167 10162 10161 10158 ] final  -62.01 input  -65.29 | X-H torsion
[ 10718 10713 10712 10709 ] final   91.52 input   66.30 | X-H torsion
[ 10763 10752 10751 10750 ] final  -49.35 input  -60.55 | X-H torsion
[ 11005 11000 10999 10996 ] final -161.96 input  -57.11 | X-H torsion

> <Gold.Protein.ActiveResidues>
 VAL166  LYS551  ARG553  GLY616  TRP617  ASP618  TYR619  PRO620  LYS621  CYS622 
 ASP623  PHE694  ASN695  SER759  ASP760  ASP761  ALA762  ILE779  LEU786  VAL792 
 PHE793  MET794  SER795  GLU796  ALA797  LYS798  CYS799  TRP800  GLU811  SER814 

> <Gold.Protein.RotatedAtoms>
  152.0751  133.4125  159.4476 H   0  0  0  0  0  0  0  0  0  0  0  0  # atno 6907 bound_to 6896
  150.6863  134.3047  159.4730 H   0  0  0  0  0  0  0  0  0  0  0  0  # atno 6908 bound_to 6896
  152.0882  134.9424  160.0623 H   0  0  0  0  0  0  0  0  0  0  0  0  # atno 6909 bound_to 6896
  145.0488  139.3900  143.5064 H   0  0  0  0  0  0  0  0  0  0  0  0  # atno 7974 bound_to 7965
  154.5421  140.2289  155.8623 H   0  0  0  0  0  0  0  0  0  0  0  0  # atno 8008 bound_to 7997
  156.1868  140.3087  155.9217 H   0  0  0  0  0  0  0  0  0  0  0  0  # atno 8009 bound_to 7997
  155.3237  140.0442  157.3031 H   0  0  0  0  0  0  0  0  0  0  0  0  # atno 8010 bound_to 7997
  140.5968  143.2352  151.6019 H   0  0  0  0  0  0  0  0  0  0  0  0  # atno 10167 bound_to 10162
  157.6960  131.0410  150.3742 H   0  0  0  0  0  0  0  0  0  0  0  0  # atno 10718 bound_to 10713
  154.0927  135.6575  153.4855 H   0  0  0  0  0  0  0  0  0  0  0  0  # atno 10763 bound_to 10752
  153.0316  135.5206  154.7364 H   0  0  0  0  0  0  0  0  0  0  0  0  # atno 10764 bound_to 10752
  154.6493  135.2999  154.9976 H   0  0  0  0  0  0  0  0  0  0  0  0  # atno 10765 bound_to 10752
  140.6146  134.4814  157.5218 H   0  0  0  0  0  0  0  0  0  0  0  0  # atno 11005 bound_to 11000
  146.3516  140.0128  142.8665 LP  0  0  0  0  0  0  0  0  0  0  0  0  # atno 17320 bound_to 7965
  145.1553  140.9644  143.4409 LP  0  0  0  0  0  0  0  0  0  0  0  0  # atno 17321 bound_to 7965
  139.5263  144.3048  152.1043 LP  0  0  0  0  0  0  0  0  0  0  0  0  # atno 17342 bound_to 10162
  140.2222  144.4454  150.6337 LP  0  0  0  0  0  0  0  0  0  0  0  0  # atno 17343 bound_to 10162
  156.4164  130.3944  149.6856 LP  0  0  0  0  0  0  0  0  0  0  0  0  # atno 17370 bound_to 10713
  156.4122  130.7727  151.2741 LP  0  0  0  0  0  0  0  0  0  0  0  0  # atno 17371 bound_to 10713
  139.9178  134.8210  156.1309 LP  0  0  0  0  0  0  0  0  0  0  0  0  # atno 17394 bound_to 11000
  141.0784  133.6765  156.2285 LP  0  0  0  0  0  0  0  0  0  0  0  0  # atno 17395 bound_to 11000

$$$$
