#       Name:                AV-unprocessed.smi:2441
#       Creating user name   scv26
#       Creation time:       Fri Mar 27 13:25:24 2020


#       File generated by GOLD software.
#

@<TRIPOS>MOLECULE
AV-unprocessed.smi:2441
    44    45     1
SMALL
NO_CHARGES


@<TRIPOS>ATOM
      1 ****        -2.1538  -0.5931   2.4435 C.3            1 S1                 0.0000
      2 ****        -2.5631  -1.3269   1.1541 C.3            1 S1                 0.0000
      3 ****        -4.0910  -1.5351   1.1153 C.3            1 S1                 0.0000
      4 ****        -4.5397  -2.2669  -0.1584 C.3            1 S1                 0.0000
      5 ****        -4.0696  -1.5230  -1.4153 C.3            1 S1                 0.0000
      6 ****        -2.5469  -1.3285  -1.3991 C.3            1 S1                 0.0000
      7 ****        -2.0779  -0.5985  -0.1252 C.3            1 S1                 0.0000
      8 ****        -0.6184  -0.5064  -0.1475 N.am           1 S1                 0.0000
      9 ****         0.1015   0.6248  -0.1268 C.2            1 S1                 0.0000
     10 ****        -0.3989   1.7479  -0.0743 O.2            1 S1                 0.0000
     11 ****         1.4180   0.3518  -0.1880 N.am           1 S1                 0.0000
     12 ****         2.5136   1.2324  -0.1628 C.2            1 S1                 0.0000
     13 ****         2.4551   2.5209   0.2581 C.2            1 S1                 0.0000
     14 ****         3.6334   3.3534   0.2629 C.2            1 S1                 0.0000
     15 ****         4.7912   2.8184  -0.1478 C.2            1 S1                 0.0000
     16 ****         4.8802   1.4844  -0.5763 N.am           1 S1                 0.0000
     17 ****         6.2114   1.0393  -0.9978 C.3            1 S1                 0.0000
     18 ****         3.7959   0.6510  -0.6083 C.2            1 S1                 0.0000
     19 ****         3.8923  -0.5176  -0.9902 O.2            1 S1                 0.0000
     20 ****        -2.5571   0.4196   2.4649 H              1 S1                 0.0000
     21 ****        -1.0705  -0.5215   2.5410 H              1 S1                 0.0000
     22 ****        -2.5232  -1.1162   3.3258 H              1 S1                 0.0000
     23 ****        -2.0983  -2.3139   1.1783 H              1 S1                 0.0000
     24 ****        -4.4120  -2.1020   1.9898 H              1 S1                 0.0000
     25 ****        -4.5947  -0.5693   1.1740 H              1 S1                 0.0000
     26 ****        -4.1375  -3.2808  -0.1600 H              1 S1                 0.0000
     27 ****        -5.6255  -2.3641  -0.1683 H              1 S1                 0.0000
     28 ****        -4.3645  -2.0762  -2.3072 H              1 S1                 0.0000
     29 ****        -4.5629  -0.5520  -1.4749 H              1 S1                 0.0000
     30 ****        -2.0599  -2.3025  -1.4676 H              1 S1                 0.0000
     31 ****        -2.2411  -0.7684  -2.2838 H              1 S1                 0.0000
     32 ****        -2.5191   0.4002  -0.1338 H              1 S1                 0.0000
     33 ****        -0.1157  -1.3806  -0.1914 H              1 S1                 0.0000
     34 ****         1.6671  -0.6200  -0.3030 H              1 S1                 0.0000
     35 ****         1.5399   2.9620   0.6182 H              1 S1                 0.0000
     36 ****         3.5828   4.3819   0.5890 H              1 S1                 0.0000
     37 ****         5.7201   3.3702  -0.1771 H              1 S1                 0.0000
     38 ****         6.2761  -0.0230  -1.2351 H              1 S1                 0.0000
     39 ****         6.9387   1.2347  -0.2089 H              1 S1                 0.0000
     40 ****         6.5234   1.5920  -1.8847 H              1 S1                 0.0000
     41 ****        -1.3931   1.8515  -0.0446 LP             1 S1                 0.0000
     42 ****         0.1887   2.5570  -0.0614 LP             1 S1                 0.0000
     43 ****         3.0845  -1.1068  -1.0055 LP             1 S1                 0.0000
     44 ****         4.7783  -0.8759  -1.2846 LP             1 S1                 0.0000
@<TRIPOS>BOND
    1    1    2 1     
    2    1   20 1     
    3    1   21 1     
    4    1   22 1     
    5    2    7 1     
    6    2    3 1     
    7    2   23 1     
    8    3    4 1     
    9    3   24 1     
   10    3   25 1     
   11    4    5 1     
   12    4   26 1     
   13    4   27 1     
   14    5    6 1     
   15    5   28 1     
   16    5   29 1     
   17    6    7 1     
   18    6   30 1     
   19    6   31 1     
   20    7    8 1     
   21    7   32 1     
   22    8    9 am    
   23    8   33 1     
   24    9   10 2     
   25    9   11 am    
   26   11   12 1     
   27   11   34 1     
   28   12   18 1     
   29   12   13 2     
   30   13   14 1     
   31   13   35 1     
   32   14   15 2     
   33   14   36 1     
   34   15   16 1     
   35   15   37 1     
   36   16   17 1     
   37   16   18 am    
   38   17   38 1     
   39   17   39 1     
   40   17   40 1     
   41   18   19 2     
   42   10   41 1     
   43   10   42 1     
   44   19   43 1     
   45   19   44 1     
@<TRIPOS>SUBSTRUCTURE
      1 S1             1
@<TRIPOS>SET
LONE_PAIRS      STATIC     ATOMS    <user>   **** ""
4 41 42 43 44
DONOR_HYDROGENS      STATIC     ATOMS    <user>   **** ""
2 33 34
ATOM$BLUE        STATIC     ATOMS    COLORGROUP SYSTEM
4 41 42 43 44
ATOM$RED        STATIC     ATOMS    COLORGROUP SYSTEM
2 33 34
