AV-unprocessed.smi:1434|AV-procd|sdf|5854|dock9
  -GOLD-   22720 5523D 1   1.00000     0.00000
 Structure written by MMmdl.
 43 44  0  0  0  0  0  0  0  0  2 V2000
  150.7090  138.1230  156.7037 C   0  0  0  0  0  0  0  0  0  0  0  0
  151.7846  138.4305  155.2379 S   0  0  0  0  0  0  0  0  0  0  0  0
  153.1270  138.7291  155.7663 O   0  0  0  0  0  0  0  0  0  0  0  0
  151.6526  137.2225  154.4096 O   0  0  0  0  0  0  0  0  0  0  0  0
  151.0508  139.7034  154.5390 N   0  5  0  0  0  0  0  0  0  0  0  0
  149.6069  139.8770  154.6211 C   0  0  1  0  0  0  0  0  0  0  0  0
  149.2337  141.3828  154.6210 C   0  0  0  0  0  0  0  0  0  0  0  0
  147.7101  141.6446  154.4606 C   0  0  0  0  0  0  0  0  0  0  0  0
  147.0929  140.8595  153.2790 C   0  0  0  0  0  0  0  0  0  0  0  0
  147.4419  139.4354  153.4749 N   0  0  0  0  0  0  0  0  0  0  0  0
  146.5667  138.4419  153.7820 C   0  0  0  0  0  0  0  0  0  0  0  0
  145.4222  138.6520  154.1864 O   0  0  0  0  0  0  0  0  0  0  0  0
  147.0105  137.2034  153.5016 N   0  0  0  0  0  0  0  0  0  0  0  0
  146.1940  135.9919  153.4809 C   0  0  0  0  0  0  0  0  0  0  0  0
  145.1811  136.0012  152.3174 C   0  0  0  0  0  0  0  0  0  0  0  0
  145.0812  134.6751  151.5797 C   0  0  0  0  0  0  0  0  0  0  0  0
  143.8329  134.0379  151.4082 C   0  0  0  0  0  0  0  0  0  0  0  0
  143.7999  132.7881  150.7602 C   0  0  0  0  0  0  0  0  0  0  0  0
  145.0095  132.2280  150.3079 C   0  0  0  0  0  0  0  0  0  0  0  0
  146.2025  132.9464  150.5225 C   0  0  0  0  0  0  0  0  0  0  0  0
  146.2455  134.1466  151.1407 N   0  0  0  0  0  0  0  0  0  0  0  0
  148.9021  139.1964  153.4154 C   0  0  0  0  0  0  0  0  0  0  0  0
  151.0578  137.2315  157.2234 H   0  0  0  0  0  0  0  0  0  0  0  0
  149.6817  137.9706  156.3742 H   0  0  0  0  0  0  0  0  0  0  0  0
  150.7507  138.9733  157.3832 H   0  0  0  0  0  0  0  0  0  0  0  0
  149.2019  139.4269  155.5279 H   0  0  0  0  0  0  0  0  0  0  0  0
  149.5933  141.8568  155.5349 H   0  0  0  0  0  0  0  0  0  0  0  0
  149.7510  141.8789  153.7983 H   0  0  0  0  0  0  0  0  0  0  0  0
  147.1901  141.3753  155.3819 H   0  0  0  0  0  0  0  0  0  0  0  0
  147.5367  142.7119  154.3223 H   0  0  0  0  0  0  0  0  0  0  0  0
  146.0232  141.0553  153.2037 H   0  0  0  0  0  0  0  0  0  0  0  0
  147.5220  141.2042  152.3370 H   0  0  0  0  0  0  0  0  0  0  0  0
  147.9583  137.1153  153.1653 H   0  0  0  0  0  0  0  0  0  0  0  0
  146.8565  135.1319  153.3835 H   0  0  0  0  0  0  0  0  0  0  0  0
  145.6690  135.8632  154.4288 H   0  0  0  0  0  0  0  0  0  0  0  0
  144.1938  136.2656  152.6988 H   0  0  0  0  0  0  0  0  0  0  0  0
  145.4465  136.7838  151.6053 H   0  0  0  0  0  0  0  0  0  0  0  0
  142.9232  134.4852  151.7804 H   0  0  0  0  0  0  0  0  0  0  0  0
  142.8657  132.2640  150.6221 H   0  0  0  0  0  0  0  0  0  0  0  0
  145.0223  131.2679  149.8135 H   0  0  0  0  0  0  0  0  0  0  0  0
  147.1481  132.5455  150.1891 H   0  0  0  0  0  0  0  0  0  0  0  0
  149.2864  139.5989  152.4766 H   0  0  0  0  0  0  0  0  0  0  0  0
  149.1476  138.1334  153.4003 H   0  0  0  0  0  0  0  0  0  0  0  0
  1  2  1  0  0  0  0
  1 23  1  0  0  0  0
  1 24  1  0  0  0  0
  1 25  1  0  0  0  0
  2  3  2  0  0  0  0
  2  4  2  0  0  0  0
  2  5  1  0  0  0  0
  5  6  1  0  0  0  0
  6 22  1  0  0  0  0
  6  7  1  0  0  0  0
  6 26  1  0  0  0  0
  7  8  1  0  0  0  0
  7 27  1  0  0  0  0
  7 28  1  0  0  0  0
  8  9  1  0  0  0  0
  8 29  1  0  0  0  0
  8 30  1  0  0  0  0
  9 10  1  0  0  0  0
  9 31  1  0  0  0  0
  9 32  1  0  0  0  0
 10 11  1  0  0  0  0
 10 22  1  0  0  0  0
 11 12  2  0  0  0  0
 11 13  1  0  0  0  0
 13 14  1  0  0  0  0
 13 33  1  0  0  0  0
 14 15  1  0  0  0  0
 14 34  1  0  0  0  0
 14 35  1  0  0  0  0
 15 16  1  0  0  0  0
 15 36  1  0  0  0  0
 15 37  1  0  0  0  0
 16 21  1  0  0  0  0
 16 17  2  0  0  0  0
 17 18  1  0  0  0  0
 17 38  1  0  0  0  0
 18 19  2  0  0  0  0
 18 39  1  0  0  0  0
 19 20  1  0  0  0  0
 19 40  1  0  0  0  0
 20 21  2  0  0  0  0
 20 41  1  0  0  0  0
 22 42  1  0  0  0  0
 22 43  1  0  0  0  0
M  CHG  1   5  -1
M  END
> <s_m_source_file>
AV-unprocessed.smi

> <i_m_source_file_index>
1434

> <i_lp_mmshare_version>
43012

> <i_f3d_flags>
0

> <s_epik_input>
W0NIM11TKD1PKSg9TylbTkhdW0NAQEhdMVtDSDJdW0NIMl1bQ0gyXU4oW0NIMl0xKUMoPU8pW05IXVtDSDJdW0NIMl1jMltjSF1bY0hdW2NIXVtjSF1uMg==

> <s_epik_cmdline>
J2VwaWtfcHl0aG9uJywgJy1waCcsICc3LjAnLCAnLXRuJywgJzgnLCAnLW1hJywgJzIwMCcsICctbWV0YWxfYmluZGluZycsICctaW1hZScsICc8aW5maWxlLm1hZT4nLCAnLW9tYWUnLCAnPG91dGZpbGUubWFlPic=

> <r_epik_Ionization_Penalty>
6.57847

> <r_epik_Ionization_Penalty_Charging>
6.53351

> <r_epik_Ionization_Penalty_Neutral>
0.0449527

> <r_epik_State_Penalty>
6.57157

> <r_epik_Charging_Adjusted_Penalty>
13.1051

> <i_epik_Tot_Q>
-1

> <i_epik_Tot_abs_Q>
1

> <r_epik_Metal_State_Penalty>
2.53928

> <b_epik_Metal_Only>
1

> <s_lp_Force_Field>
OPLS_2005

> <r_lp_Energy>
21.2682

> <b_lp_Chiralities_Consistent>
1

> <s_lp_Variant>
AV-unprocessed.smi:1434-6

> <Gold.Version>
5.8.1

> <Gold.Id.Protein>
6NUR|6NUR_protein|mol2

> <Gold.PLP.Fitness>
48.9057

> <Gold.PLP.PLP>
-36.4997

> <Gold.PLP.part.hbond>
-4.0000

> <Gold.PLP.part.metal>
0.0000

> <Gold.PLP.part.buried>
-2.8181

> <Gold.PLP.part.nonpolar>
-31.4822

> <Gold.PLP.part.repulsive>
1.1266

> <Gold.PLP.ligand.clash>
0.0324

> <Gold.PLP.ligand.torsion>
1.5267

> <Gold.PLP.Chemscore.Hbond>
3.8320

> <Gold.PLP.Chemscore.CHOScore>
1.0000

> <Gold.PLP.Chemscore.Metal>
0.0000

> <Gold.Chemscore.Hbonds>
donor molecule, donor type, donor heavy atom, donor atom, acceptor molecule, acceptor atom, score
      L1  H    13    33       P1  7948  0.83
      P1  H  7989  7998       L1     5  1.00
      P1  H  7997  8009       L1     3  1.00
      P1  H 10752 10765       L1     4  1.00
      L1  C    20    41       P1 10747  1.00

> <Gold.PLP.Chemscore.Internal.Correction>
0.9960

> <Gold.Rescore>
     Score         DG    S(hbond)    S(metal)    S(lipo)     H(rot)  DE(clash)    DE(int)     intcor
     19.74     -22.63       3.66        0.00      78.77       1.68       1.38       1.51       ----

> <Gold.Chemscore.Fitness>
19.7350

> <Gold.Chemscore.DG>
-22.6266

> <Gold.Chemscore.ZeroCoef>
-5.4800

> <Gold.Chemscore.Hbond>
3.6630

> <Gold.Chemscore.Metal>
0.0000

> <Gold.Chemscore.Lipo>
78.7725

> <Gold.Chemscore.Internal_Hbond>
0.0000

> <Gold.Chemscore.DEClash>
1.3819

> <Gold.Chemscore.DEInternal>
1.5096

> <Gold.Chemscore.Rot>
1.6813

> <Gold.Chemscore.Internal.Correction>
   9.000000E+99

> <Gold.Chemscore.Hbonds>
donor molecule, donor type, donor heavy atom, donor atom, acceptor molecule, acceptor atom, score
      L1  H    13    33       P1  7948  0.81
      P1  H  7989  7998       L1     5  0.65
      P1  H  7997  8009       L1     3  0.96
      P1  H 10752 10765       L1     4  0.92

> <Gold.Chemscore.Hbond.Weighted>
-12.2344

> <Gold.Chemscore.Metal.Weighted>
-0.0000

> <Gold.Chemscore.Lipo.Weighted>
-9.2164

> <Gold.Chemscore.Internal_Hbond.Weighted>
0.0000

> <Gold.Chemscore.DEClash.Weighted>
1.3819

> <Gold.Chemscore.DEInternal.Weighted>
1.5096

> <Gold.Chemscore.Rot.Weighted>
4.3042

> <Gold.Chemscore.Internal.Correction.Weighted>
   9.000000E+99

> <Gold.Protein.RotatedTorsions>
[ 6907 6896 6895 6894 ] final -129.82 input  -60.11 | X-H torsion
[ 7974 7965 7964 7962 ] final  -37.48 input  175.53 | X-H torsion
[ 8008 7997 7996 7995 ] final -161.55 input   59.86 | X-H torsion
[ 10167 10162 10161 10158 ] final -125.76 input  -65.29 | X-H torsion
[ 10718 10713 10712 10709 ] final    9.89 input   66.30 | X-H torsion
[ 10763 10752 10751 10750 ] final  166.79 input  -60.55 | X-H torsion
[ 11005 11000 10999 10996 ] final -139.97 input  -57.11 | X-H torsion

> <Gold.Protein.ActiveResidues>
 VAL166  LYS551  ARG553  GLY616  TRP617  ASP618  TYR619  PRO620  LYS621  CYS622 
 ASP623  PHE694  ASN695  SER759  ASP760  ASP761  ALA762  ILE779  LEU786  VAL792 
 PHE793  MET794  SER795  GLU796  ALA797  LYS798  CYS799  TRP800  GLU811  SER814 

> <Gold.Protein.RotatedAtoms>
  150.9329  133.6746  159.2806 H   0  0  0  0  0  0  0  0  0  0  0  0  # atno 6907 bound_to 6896
  151.4162  135.0990  159.9609 H   0  0  0  0  0  0  0  0  0  0  0  0  # atno 6908 bound_to 6896
  152.5034  133.8791  159.7392 H   0  0  0  0  0  0  0  0  0  0  0  0  # atno 6909 bound_to 6896
  146.0571  140.6401  142.9014 H   0  0  0  0  0  0  0  0  0  0  0  0  # atno 7974 bound_to 7965
  155.7938  140.0882  157.1994 H   0  0  0  0  0  0  0  0  0  0  0  0  # atno 8008 bound_to 7997
  154.3984  140.1485  156.3253 H   0  0  0  0  0  0  0  0  0  0  0  0  # atno 8009 bound_to 7997
  155.8531  140.3433  155.5709 H   0  0  0  0  0  0  0  0  0  0  0  0  # atno 8010 bound_to 7997
  139.9787  143.5766  152.2386 H   0  0  0  0  0  0  0  0  0  0  0  0  # atno 10167 bound_to 10162
  156.9730  130.5976  149.5670 H   0  0  0  0  0  0  0  0  0  0  0  0  # atno 10718 bound_to 10713
  154.3442  135.2753  155.2406 H   0  0  0  0  0  0  0  0  0  0  0  0  # atno 10763 bound_to 10752
  154.4664  135.5894  153.6294 H   0  0  0  0  0  0  0  0  0  0  0  0  # atno 10764 bound_to 10752
  152.9855  135.6077  154.3646 H   0  0  0  0  0  0  0  0  0  0  0  0  # atno 10765 bound_to 10752
  140.8467  134.2335  157.4782 H   0  0  0  0  0  0  0  0  0  0  0  0  # atno 11005 bound_to 11000
  144.7154  140.4190  143.7048 LP  0  0  0  0  0  0  0  0  0  0  0  0  # atno 17320 bound_to 7965
  145.6625  139.1584  143.2800 LP  0  0  0  0  0  0  0  0  0  0  0  0  # atno 17321 bound_to 7965
  139.6426  144.7656  151.2307 LP  0  0  0  0  0  0  0  0  0  0  0  0  # atno 17342 bound_to 10162
  140.7497  143.6291  150.8440 LP  0  0  0  0  0  0  0  0  0  0  0  0  # atno 17343 bound_to 10162
  156.0275  130.5368  150.8445 LP  0  0  0  0  0  0  0  0  0  0  0  0  # atno 17370 bound_to 10713
  157.5579  131.0945  150.9602 LP  0  0  0  0  0  0  0  0  0  0  0  0  # atno 17371 bound_to 10713
  139.8703  134.9663  156.4558 LP  0  0  0  0  0  0  0  0  0  0  0  0  # atno 17394 bound_to 11000
  140.8835  133.7900  155.9492 LP  0  0  0  0  0  0  0  0  0  0  0  0  # atno 17395 bound_to 11000

$$$$
