AV-unprocessed.smi:671|AV-procd|sdf|3274|dock1
  -GOLD-   22720 0233D 1   1.00000     0.00000
 Structure written by MMmdl.
 49 50  0  0  0  0  0  0  0  0  1 V2000
  143.7695  145.8205  155.9385 C   0  0  0  0  0  0  0  0  0  0  0  0
  144.2984  146.7439  156.9985 C   0  0  0  0  0  0  0  0  0  0  0  0
  144.5554  148.0045  156.6915 N   0  0  0  0  0  0  0  0  0  0  0  0
  145.0217  148.5490  157.8332 N   0  0  0  0  0  0  0  0  0  0  0  0
  145.4158  149.9443  157.8465 C   0  0  0  0  0  0  0  0  0  0  0  0
  145.0508  147.6326  158.8661 C   0  0  0  0  0  0  0  0  0  0  0  0
  145.5315  147.9879  160.2361 C   0  0  0  0  0  0  0  0  0  0  0  0
  144.5903  146.4460  158.3619 C   0  0  0  0  0  0  0  0  0  0  0  0
  144.4414  145.1201  159.0672 C   0  0  0  0  0  0  0  0  0  0  0  0
  145.5876  144.8518  160.0620 C   0  0  1  0  0  0  0  0  0  0  0  0
  145.2700  143.6790  161.0016 C   0  0  0  0  0  0  0  0  0  0  0  0
  146.8374  144.5956  159.3380 N   0  0  0  0  0  0  0  0  0  0  0  0
  148.0533  144.3107  159.8371 C   0  0  0  0  0  0  0  0  0  0  0  0
  148.2577  144.2433  161.0475 O   0  0  0  0  0  0  0  0  0  0  0  0
  149.0103  144.1255  158.9134 N   0  0  0  0  0  0  0  0  0  0  0  0
  150.3991  143.7781  159.1960 C   0  0  2  0  0  0  0  0  0  0  0  0
  151.0244  144.7253  160.2417 C   0  0  0  0  0  0  0  0  0  0  0  0
  152.1499  145.4749  159.5257 C   0  0  0  0  0  0  0  0  0  0  0  0
  152.5748  144.5385  158.3995 C   0  0  0  0  0  0  0  0  0  0  0  0
  151.2612  143.9134  157.9244 C   0  0  1  0  0  0  0  0  0  0  0  0
  151.4438  142.5984  157.1548 C   0  0  0  0  0  0  0  0  0  0  0  0
  144.3389  144.8911  155.9120 H   0  0  0  0  0  0  0  0  0  0  0  0
  143.8271  146.2687  154.9457 H   0  0  0  0  0  0  0  0  0  0  0  0
  142.7267  145.5664  156.1286 H   0  0  0  0  0  0  0  0  0  0  0  0
  146.4258  150.0363  158.2470 H   0  0  0  0  0  0  0  0  0  0  0  0
  144.7292  150.5124  158.4744 H   0  0  0  0  0  0  0  0  0  0  0  0
  145.3984  150.3597  156.8377 H   0  0  0  0  0  0  0  0  0  0  0  0
  145.2475  147.2270  160.9630 H   0  0  0  0  0  0  0  0  0  0  0  0
  145.1069  148.9359  160.5671 H   0  0  0  0  0  0  0  0  0  0  0  0
  146.6178  148.0776  160.2515 H   0  0  0  0  0  0  0  0  0  0  0  0
  143.4903  145.0782  159.5988 H   0  0  0  0  0  0  0  0  0  0  0  0
  144.4005  144.3064  158.3421 H   0  0  0  0  0  0  0  0  0  0  0  0
  145.6921  145.7527  160.6682 H   0  0  0  0  0  0  0  0  0  0  0  0
  144.3475  143.8586  161.5541 H   0  0  0  0  0  0  0  0  0  0  0  0
  146.0662  143.5322  161.7320 H   0  0  0  0  0  0  0  0  0  0  0  0
  145.1503  142.7471  160.4478 H   0  0  0  0  0  0  0  0  0  0  0  0
  146.7843  144.6996  158.3350 H   0  0  0  0  0  0  0  0  0  0  0  0
  148.7523  144.2124  157.9415 H   0  0  0  0  0  0  0  0  0  0  0  0
  150.4515  142.7537  159.5707 H   0  0  0  0  0  0  0  0  0  0  0  0
  150.3054  145.4161  160.6849 H   0  0  0  0  0  0  0  0  0  0  0  0
  151.4409  144.1336  161.0578 H   0  0  0  0  0  0  0  0  0  0  0  0
  151.7619  146.4025  159.1029 H   0  0  0  0  0  0  0  0  0  0  0  0
  152.9738  145.7315  160.1920 H   0  0  0  0  0  0  0  0  0  0  0  0
  153.1046  145.0587  157.6011 H   0  0  0  0  0  0  0  0  0  0  0  0
  153.2385  143.7683  158.7954 H   0  0  0  0  0  0  0  0  0  0  0  0
  150.7908  144.6364  157.2547 H   0  0  0  0  0  0  0  0  0  0  0  0
  151.9210  141.8381  157.7738 H   0  0  0  0  0  0  0  0  0  0  0  0
  152.0637  142.7470  156.2706 H   0  0  0  0  0  0  0  0  0  0  0  0
  150.4825  142.2041  156.8239 H   0  0  0  0  0  0  0  0  0  0  0  0
  1  2  1  0  0  0  0
  1 22  1  0  0  0  0
  1 23  1  0  0  0  0
  1 24  1  0  0  0  0
  2  8  1  0  0  0  0
  2  3  2  0  0  0  0
  3  4  1  0  0  0  0
  4  5  1  0  0  0  0
  4  6  1  0  0  0  0
  5 25  1  0  0  0  0
  5 26  1  0  0  0  0
  5 27  1  0  0  0  0
  6  7  1  0  0  0  0
  6  8  2  0  0  0  0
  7 28  1  0  0  0  0
  7 29  1  0  0  0  0
  7 30  1  0  0  0  0
  8  9  1  0  0  0  0
  9 10  1  0  0  0  0
  9 31  1  0  0  0  0
  9 32  1  0  0  0  0
 10 11  1  0  0  0  0
 10 12  1  0  0  0  0
 10 33  1  0  0  0  0
 11 34  1  0  0  0  0
 11 35  1  0  0  0  0
 11 36  1  0  0  0  0
 12 13  1  0  0  0  0
 12 37  1  0  0  0  0
 13 14  2  0  0  0  0
 13 15  1  0  0  0  0
 15 16  1  0  0  0  0
 15 38  1  0  0  0  0
 16 20  1  0  0  0  0
 16 17  1  0  0  0  0
 16 39  1  0  0  0  0
 17 18  1  0  0  0  0
 17 40  1  0  0  0  0
 17 41  1  0  0  0  0
 18 19  1  0  0  0  0
 18 42  1  0  0  0  0
 18 43  1  0  0  0  0
 19 20  1  0  0  0  0
 19 44  1  0  0  0  0
 19 45  1  0  0  0  0
 20 21  1  0  0  0  0
 20 46  1  0  0  0  0
 21 47  1  0  0  0  0
 21 48  1  0  0  0  0
 21 49  1  0  0  0  0
M  END
> <s_m_source_file>
AV-unprocessed.smi

> <i_m_source_file_index>
671

> <i_lp_mmshare_version>
43012

> <i_f3d_flags>
0

> <s_epik_input>
W0NIM11jMW5uKFtDSDNdKWMoW0NIM10pYzFbQ0gyXVtDQEhdKFtDSDNdKVtOSF1DKD1PKVtOSF1bQ0BASF0yW0NIMl1bQ0gyXVtDSDJdW0NASF0yW0NIM10=

> <s_epik_cmdline>
J2VwaWtfcHl0aG9uJywgJy1waCcsICc3LjAnLCAnLXRuJywgJzgnLCAnLW1hJywgJzIwMCcsICctbWV0YWxfYmluZGluZycsICctaW1hZScsICc8aW5maWxlLm1hZT4nLCAnLW9tYWUnLCAnPG91dGZpbGUubWFlPic=

> <r_lp_tautomer_probability>
1

> <r_epik_Ionization_Penalty>
0.0126855

> <r_epik_Ionization_Penalty_Charging>
0

> <r_epik_Ionization_Penalty_Neutral>
0.0126855

> <r_epik_State_Penalty>
0.00977547

> <r_epik_Charging_Adjusted_Penalty>
0.00977547

> <i_epik_Tot_Q>
0

> <i_epik_Tot_abs_Q>
0

> <r_epik_Metal_State_Penalty>
0.00957132

> <b_epik_Metal_Only>
0

> <s_lp_Force_Field>
OPLS_2005

> <r_lp_Energy>
23.179

> <b_lp_Chiralities_Consistent>
1

> <s_lp_Variant>
AV-unprocessed.smi:671-2

> <Gold.Version>
5.8.1

> <Gold.Id.Protein>
6NUR|6NUR_protein|mol2

> <Gold.PLP.Fitness>
50.9806

> <Gold.PLP.PLP>
-47.7220

> <Gold.PLP.part.hbond>
-4.1669

> <Gold.PLP.part.metal>
0.0000

> <Gold.PLP.part.buried>
-7.5838

> <Gold.PLP.part.nonpolar>
-37.7203

> <Gold.PLP.part.repulsive>
0.4505

> <Gold.PLP.ligand.clash>
0.0000

> <Gold.PLP.ligand.torsion>
0.4839

> <Gold.PLP.Chemscore.Hbond>
1.3843

> <Gold.PLP.Chemscore.CHOScore>
0.0000

> <Gold.PLP.Chemscore.Metal>
0.0000

> <Gold.Chemscore.Hbonds>
donor molecule, donor type, donor heavy atom, donor atom, acceptor molecule, acceptor atom, score
      L1  H    12    37       P1  8029  0.51
      L1  H    15    38       P1  8029  0.27
      P1  H  6933  6944       L1    14  1.00

> <Gold.PLP.Chemscore.Internal.Correction>
0.0736

> <Gold.Rescore>
     Score         DG    S(hbond)    S(metal)    S(lipo)     H(rot)  DE(clash)    DE(int)     intcor
     16.38     -19.94       1.38        0.00     116.06       1.45       0.44       3.13       ----

> <Gold.Chemscore.Fitness>
16.3792

> <Gold.Chemscore.DG>
-19.9443

> <Gold.Chemscore.ZeroCoef>
-5.4800

> <Gold.Chemscore.Hbond>
1.3763

> <Gold.Chemscore.Metal>
0.0000

> <Gold.Chemscore.Lipo>
116.0616

> <Gold.Chemscore.Internal_Hbond>
0.0000

> <Gold.Chemscore.DEClash>
0.4366

> <Gold.Chemscore.DEInternal>
3.1285

> <Gold.Chemscore.Rot>
1.4499

> <Gold.Chemscore.Internal.Correction>
   9.000000E+99

> <Gold.Chemscore.Hbonds>
donor molecule, donor type, donor heavy atom, donor atom, acceptor molecule, acceptor atom, score
      L1  H    12    37       P1  8029  0.48
      L1  H    15    38       P1  8029  0.02
      P1  H  6933  6944       L1    14  0.58

> <Gold.Chemscore.Hbond.Weighted>
-4.5969

> <Gold.Chemscore.Metal.Weighted>
-0.0000

> <Gold.Chemscore.Lipo.Weighted>
-13.5792

> <Gold.Chemscore.Internal_Hbond.Weighted>
0.0000

> <Gold.Chemscore.DEClash.Weighted>
0.4366

> <Gold.Chemscore.DEInternal.Weighted>
3.1285

> <Gold.Chemscore.Rot.Weighted>
3.7118

> <Gold.Chemscore.Internal.Correction.Weighted>
   9.000000E+99

> <Gold.Protein.RotatedTorsions>
[ 6907 6896 6895 6894 ] final  -46.60 input  -60.11 | X-H torsion
[ 7974 7965 7964 7962 ] final  -67.57 input  175.53 | X-H torsion
[ 8008 7997 7996 7995 ] final   91.52 input   59.86 | X-H torsion
[ 10167 10162 10161 10158 ] final   28.95 input  -65.29 | X-H torsion
[ 10718 10713 10712 10709 ] final  172.23 input   66.30 | X-H torsion
[ 10763 10752 10751 10750 ] final   71.46 input  -60.55 | X-H torsion
[ 11005 11000 10999 10996 ] final   68.62 input  -57.11 | X-H torsion

> <Gold.Protein.ActiveResidues>
 VAL166  LYS551  ARG553  GLY616  TRP617  ASP618  TYR619  PRO620  LYS621  CYS622 
 ASP623  PHE694  ASN695  SER759  ASP760  ASP761  ALA762  ILE779  LEU786  VAL792 
 PHE793  MET794  SER795  GLU796  ALA797  LYS798  CYS799  TRP800  GLU811  SER814 

> <Gold.Protein.RotatedAtoms>
  150.9095  134.8511  159.7415 H   0  0  0  0  0  0  0  0  0  0  0  0  # atno 6907 bound_to 6896
  152.4936  134.4381  159.9544 H   0  0  0  0  0  0  0  0  0  0  0  0  # atno 6908 bound_to 6896
  151.4424  133.3600  159.2819 H   0  0  0  0  0  0  0  0  0  0  0  0  # atno 6909 bound_to 6896
  145.7275  140.9011  143.0597 H   0  0  0  0  0  0  0  0  0  0  0  0  # atno 7974 bound_to 7965
  156.0248  140.3336  155.7076 H   0  0  0  0  0  0  0  0  0  0  0  0  # atno 8008 bound_to 7997
  155.5971  140.0652  157.2761 H   0  0  0  0  0  0  0  0  0  0  0  0  # atno 8009 bound_to 7997
  154.4330  140.1817  156.1122 H   0  0  0  0  0  0  0  0  0  0  0  0  # atno 8010 bound_to 7997
  140.4808  144.0619  150.6265 H   0  0  0  0  0  0  0  0  0  0  0  0  # atno 10167 bound_to 10162
  156.9820  131.0122  151.2879 H   0  0  0  0  0  0  0  0  0  0  0  0  # atno 10718 bound_to 10713
  153.0400  135.5136  154.7596 H   0  0  0  0  0  0  0  0  0  0  0  0  # atno 10763 bound_to 10752
  154.6541  135.2929  154.9952 H   0  0  0  0  0  0  0  0  0  0  0  0  # atno 10764 bound_to 10752
  154.0826  135.6662  153.4892 H   0  0  0  0  0  0  0  0  0  0  0  0  # atno 10765 bound_to 10752
  139.9701  134.6915  156.0464 H   0  0  0  0  0  0  0  0  0  0  0  0  # atno 11005 bound_to 11000
  144.6901  139.9286  143.7471 LP  0  0  0  0  0  0  0  0  0  0  0  0  # atno 17320 bound_to 7965
  146.0568  139.3564  143.0606 LP  0  0  0  0  0  0  0  0  0  0  0  0  # atno 17321 bound_to 7965
  140.3860  143.2777  152.0115 LP  0  0  0  0  0  0  0  0  0  0  0  0  # atno 17342 bound_to 10162
  139.4833  144.6116  151.7423 LP  0  0  0  0  0  0  0  0  0  0  0  0  # atno 17343 bound_to 10162
  157.5519  130.8188  149.8156 LP  0  0  0  0  0  0  0  0  0  0  0  0  # atno 17370 bound_to 10713
  156.0240  130.3785  150.1876 LP  0  0  0  0  0  0  0  0  0  0  0  0  # atno 17371 bound_to 10713
  141.1381  133.6570  156.3650 LP  0  0  0  0  0  0  0  0  0  0  0  0  # atno 17394 bound_to 11000
  140.5312  134.6211  157.5350 LP  0  0  0  0  0  0  0  0  0  0  0  0  # atno 17395 bound_to 11000

$$$$
