AV-unprocessed.smi:1011|AV-procd|sdf|4420|dock10
  -GOLD-   22720 2373D 1   1.00000     0.00000
 Structure written by MMmdl.
 43 45  0  0  0  0  0  0  0  0  1 V2000
  147.2545  131.8568  153.1190 C   0  0  0  0  0  0  0  0  0  0  0  0
  148.3847  132.4640  153.8989 C   0  0  0  0  0  0  0  0  0  0  0  0
  149.3478  131.7940  154.7057 C   0  0  0  0  0  0  0  0  0  0  0  0
  150.2184  132.6208  155.2611 N   0  0  0  0  0  0  0  0  0  0  0  0
  149.8441  133.8437  154.8299 N   0  0  0  0  0  0  0  0  0  0  0  0
  150.5925  135.0132  155.2469 C   0  0  0  0  0  0  0  0  0  0  0  0
  149.7301  135.9571  156.0958 C   0  0  0  0  0  0  0  0  0  0  0  0
  150.2543  136.0161  157.4501 N   0  0  0  0  0  0  0  0  0  0  0  0
  150.0428  137.3466  158.0016 C   0  0  0  0  0  0  0  0  0  0  0  0
  151.1931  137.8656  158.8178 C   0  0  0  0  0  0  0  0  0  0  0  0
  151.7636  137.1767  159.8099 N   0  0  0  0  0  0  0  0  0  0  0  0
  152.7539  138.0336  160.2485 C   0  0  0  0  0  0  0  0  0  0  0  0
  153.7079  137.8835  161.2801 C   0  0  0  0  0  0  0  0  0  0  0  0
  154.6345  138.9119  161.5510 C   0  0  0  0  0  0  0  0  0  0  0  0
  155.7933  138.7121  162.8136 Cl  0  0  0  0  0  0  0  0  0  0  0  0
  154.6187  140.1029  160.7957 C   0  0  0  0  0  0  0  0  0  0  0  0
  153.6760  140.2730  159.7635 C   0  0  0  0  0  0  0  0  0  0  0  0
  152.7555  139.2420  159.4966 C   0  0  0  0  0  0  0  0  0  0  0  0
  151.7251  139.0893  158.5748 N   0  0  0  0  0  0  0  0  0  0  0  0
  151.3183  140.0601  157.5715 C   0  0  0  0  0  0  0  0  0  0  0  0
  151.4269  139.4815  156.1542 C   0  0  0  0  0  0  0  0  0  0  0  0
  151.0964  140.4745  155.2085 O   0  0  0  0  0  0  0  0  0  0  0  0
  148.7402  133.7789  154.0064 C   0  0  0  0  0  0  0  0  0  0  0  0
  146.9288  130.9105  153.5513 H   0  0  0  0  0  0  0  0  0  0  0  0
  147.5420  131.6567  152.0868 H   0  0  0  0  0  0  0  0  0  0  0  0
  146.3838  132.5123  153.0904 H   0  0  0  0  0  0  0  0  0  0  0  0
  149.4394  130.7360  154.9026 H   0  0  0  0  0  0  0  0  0  0  0  0
  151.4662  134.6829  155.8106 H   0  0  0  0  0  0  0  0  0  0  0  0
  150.9622  135.5248  154.3569 H   0  0  0  0  0  0  0  0  0  0  0  0
  149.7282  136.9579  155.6615 H   0  0  0  0  0  0  0  0  0  0  0  0
  148.6979  135.6045  156.1135 H   0  0  0  0  0  0  0  0  0  0  0  0
  149.7747  135.3371  158.0236 H   0  0  0  0  0  0  0  0  0  0  0  0
  149.8632  138.0485  157.1864 H   0  0  0  0  0  0  0  0  0  0  0  0
  149.1473  137.3325  158.6238 H   0  0  0  0  0  0  0  0  0  0  0  0
  153.7257  136.9746  161.8631 H   0  0  0  0  0  0  0  0  0  0  0  0
  155.3305  140.8870  161.0082 H   0  0  0  0  0  0  0  0  0  0  0  0
  153.6618  141.1840  159.1838 H   0  0  0  0  0  0  0  0  0  0  0  0
  150.2908  140.3618  157.7784 H   0  0  0  0  0  0  0  0  0  0  0  0
  151.9271  140.9595  157.6700 H   0  0  0  0  0  0  0  0  0  0  0  0
  152.4381  139.1252  155.9560 H   0  0  0  0  0  0  0  0  0  0  0  0
  150.7515  138.6341  156.0306 H   0  0  0  0  0  0  0  0  0  0  0  0
  150.1567  140.4941  155.1093 H   0  0  0  0  0  0  0  0  0  0  0  0
  148.3044  134.6646  153.5682 H   0  0  0  0  0  0  0  0  0  0  0  0
  1  2  1  0  0  0  0
  1 24  1  0  0  0  0
  1 25  1  0  0  0  0
  1 26  1  0  0  0  0
  2 23  2  0  0  0  0
  2  3  1  0  0  0  0
  3  4  2  0  0  0  0
  3 27  1  0  0  0  0
  4  5  1  0  0  0  0
  5  6  1  0  0  0  0
  5 23  1  0  0  0  0
  6  7  1  0  0  0  0
  6 28  1  0  0  0  0
  6 29  1  0  0  0  0
  7  8  1  0  0  0  0
  7 30  1  0  0  0  0
  7 31  1  0  0  0  0
  8  9  1  0  0  0  0
  8 32  1  0  0  0  0
  9 10  1  0  0  0  0
  9 33  1  0  0  0  0
  9 34  1  0  0  0  0
 10 19  1  0  0  0  0
 10 11  2  0  0  0  0
 11 12  1  0  0  0  0
 12 18  2  0  0  0  0
 12 13  1  0  0  0  0
 13 14  2  0  0  0  0
 13 35  1  0  0  0  0
 14 15  1  0  0  0  0
 14 16  1  0  0  0  0
 16 17  2  0  0  0  0
 16 36  1  0  0  0  0
 17 18  1  0  0  0  0
 17 37  1  0  0  0  0
 18 19  1  0  0  0  0
 19 20  1  0  0  0  0
 20 21  1  0  0  0  0
 20 38  1  0  0  0  0
 20 39  1  0  0  0  0
 21 22  1  0  0  0  0
 21 40  1  0  0  0  0
 21 41  1  0  0  0  0
 22 42  1  0  0  0  0
 23 43  1  0  0  0  0
M  END
> <s_m_source_file>
AV-unprocessed.smi

> <i_m_source_file_index>
1011

> <i_lp_mmshare_version>
43012

> <i_f3d_flags>
0

> <s_epik_input>
W0NIM11jMVtjSF1ubihbY0hdMSlbQ0gyXVtDSDJdW05IXVtDSDJdYyhuMiluKFtDSDJdW0NIMl1bT0hdKWMoYzIzKVtjSF1bY0hdYyhDbClbY0hdMw==

> <s_epik_cmdline>
J2VwaWtfcHl0aG9uJywgJy1waCcsICc3LjAnLCAnLXRuJywgJzgnLCAnLW1hJywgJzIwMCcsICctbWV0YWxfYmluZGluZycsICctaW1hZScsICc8aW5maWxlLm1hZT4nLCAnLW9tYWUnLCAnPG91dGZpbGUubWFlPic=

> <r_lp_tautomer_probability>
1

> <r_epik_Ionization_Penalty>
0.714951

> <r_epik_Ionization_Penalty_Charging>
0

> <r_epik_Ionization_Penalty_Neutral>
0.714951

> <r_epik_State_Penalty>
0.695393

> <r_epik_Charging_Adjusted_Penalty>
0.695393

> <i_epik_Tot_Q>
0

> <i_epik_Tot_abs_Q>
0

> <r_epik_Metal_State_Penalty>
0.662708

> <b_epik_Metal_Only>
0

> <s_lp_Force_Field>
OPLS_2005

> <r_lp_Energy>
11.4797

> <b_lp_Chiralities_Consistent>
1

> <s_lp_Variant>
AV-unprocessed.smi:1011-2

> <Gold.Version>
5.8.1

> <Gold.Id.Protein>
6NUR|6NUR_protein|mol2

> <Gold.PLP.Fitness>
44.2591

> <Gold.PLP.PLP>
-37.1111

> <Gold.PLP.part.hbond>
-2.2634

> <Gold.PLP.part.metal>
0.0000

> <Gold.PLP.part.buried>
-5.1350

> <Gold.PLP.part.nonpolar>
-29.8560

> <Gold.PLP.part.repulsive>
0.0000

> <Gold.PLP.ligand.clash>
0.0000

> <Gold.PLP.ligand.torsion>
0.9629

> <Gold.PLP.Chemscore.Hbond>
1.9920

> <Gold.PLP.Chemscore.CHOScore>
1.0000

> <Gold.PLP.Chemscore.Metal>
0.0000

> <Gold.Chemscore.Hbonds>
donor molecule, donor type, donor heavy atom, donor atom, acceptor molecule, acceptor atom, score
      P1  H  6896  6907       L1    11  0.89
      P1  H  7989  7998       L1    22  0.98
      L1  C    23    43       P1  7948  1.00

> <Gold.PLP.Chemscore.Internal.Correction>
0.0978

> <Gold.Rescore>
     Score         DG    S(hbond)    S(metal)    S(lipo)     H(rot)  DE(clash)    DE(int)     intcor
     14.07     -14.98       1.96        0.00      87.41       2.84       0.01       0.90       ----

> <Gold.Chemscore.Fitness>
14.0677

> <Gold.Chemscore.DG>
-14.9778

> <Gold.Chemscore.ZeroCoef>
-5.4800

> <Gold.Chemscore.Hbond>
1.9617

> <Gold.Chemscore.Metal>
0.0000

> <Gold.Chemscore.Lipo>
87.4092

> <Gold.Chemscore.Internal_Hbond>
0.0000

> <Gold.Chemscore.DEClash>
0.0110

> <Gold.Chemscore.DEInternal>
0.8991

> <Gold.Chemscore.Rot>
2.8442

> <Gold.Chemscore.Internal.Correction>
   9.000000E+99

> <Gold.Chemscore.Hbonds>
donor molecule, donor type, donor heavy atom, donor atom, acceptor molecule, acceptor atom, score
      P1  H  6896  6907       L1    11  0.85
      P1  H  7989  7998       L1    22  0.28

> <Gold.Chemscore.Hbond.Weighted>
-6.5521

> <Gold.Chemscore.Metal.Weighted>
-0.0000

> <Gold.Chemscore.Lipo.Weighted>
-10.2269

> <Gold.Chemscore.Internal_Hbond.Weighted>
0.0000

> <Gold.Chemscore.DEClash.Weighted>
0.0110

> <Gold.Chemscore.DEInternal.Weighted>
0.8991

> <Gold.Chemscore.Rot.Weighted>
7.2812

> <Gold.Chemscore.Internal.Correction.Weighted>
   9.000000E+99

> <Gold.Protein.RotatedTorsions>
[ 6907 6896 6895 6894 ] final   18.21 input  -60.11 | X-H torsion
[ 7974 7965 7964 7962 ] final  -89.58 input  175.53 | X-H torsion
[ 8008 7997 7996 7995 ] final  119.28 input   59.86 | X-H torsion
[ 10167 10162 10161 10158 ] final  -46.06 input  -65.29 | X-H torsion
[ 10718 10713 10712 10709 ] final   18.52 input   66.30 | X-H torsion
[ 10763 10752 10751 10750 ] final  -14.74 input  -60.55 | X-H torsion
[ 11005 11000 10999 10996 ] final   70.83 input  -57.11 | X-H torsion

> <Gold.Protein.ActiveResidues>
 VAL166  LYS551  ARG553  GLY616  TRP617  ASP618  TYR619  PRO620  LYS621  CYS622 
 ASP623  PHE694  ASN695  SER759  ASP760  ASP761  ALA762  ILE779  LEU786  VAL792 
 PHE793  MET794  SER795  GLU796  ALA797  LYS798  CYS799  TRP800  GLU811  SER814 

> <Gold.Protein.RotatedAtoms>
  151.8618  135.0521  160.0469 H   0  0  0  0  0  0  0  0  0  0  0  0  # atno 6907 bound_to 6896
  152.2657  133.5332  159.5417 H   0  0  0  0  0  0  0  0  0  0  0  0  # atno 6908 bound_to 6896
  150.7133  134.0684  159.3898 H   0  0  0  0  0  0  0  0  0  0  0  0  # atno 6909 bound_to 6896
  145.4379  140.9558  143.2091 H   0  0  0  0  0  0  0  0  0  0  0  0  # atno 7974 bound_to 7965
  156.2588  140.2856  156.0966 H   0  0  0  0  0  0  0  0  0  0  0  0  # atno 8008 bound_to 7997
  155.1405  140.0395  157.2815 H   0  0  0  0  0  0  0  0  0  0  0  0  # atno 8009 bound_to 7997
  154.6533  140.2549  155.7196 H   0  0  0  0  0  0  0  0  0  0  0  0  # atno 8010 bound_to 7997
  140.6833  143.2849  151.3729 H   0  0  0  0  0  0  0  0  0  0  0  0  # atno 10167 bound_to 10162
  157.0976  130.6454  149.5864 H   0  0  0  0  0  0  0  0  0  0  0  0  # atno 10718 bound_to 10713
  153.5328  135.7014  153.5675 H   0  0  0  0  0  0  0  0  0  0  0  0  # atno 10763 bound_to 10752
  153.3675  135.3953  155.1764 H   0  0  0  0  0  0  0  0  0  0  0  0  # atno 10764 bound_to 10752
  154.8683  135.3804  154.4826 H   0  0  0  0  0  0  0  0  0  0  0  0  # atno 10765 bound_to 10752
  139.9576  134.7117  156.0718 H   0  0  0  0  0  0  0  0  0  0  0  0  # atno 11005 bound_to 11000
  144.8140  139.5910  143.7016 LP  0  0  0  0  0  0  0  0  0  0  0  0  # atno 17320 bound_to 7965
  146.2572  139.6328  142.9387 LP  0  0  0  0  0  0  0  0  0  0  0  0  # atno 17321 bound_to 7965
  139.6171  144.0981  152.2356 LP  0  0  0  0  0  0  0  0  0  0  0  0  # atno 17342 bound_to 10162
  140.0413  144.6005  150.7408 LP  0  0  0  0  0  0  0  0  0  0  0  0  # atno 17343 bound_to 10162
  155.9882  130.4924  150.7159 LP  0  0  0  0  0  0  0  0  0  0  0  0  # atno 17370 bound_to 10713
  157.4668  131.0889  151.0685 LP  0  0  0  0  0  0  0  0  0  0  0  0  # atno 17371 bound_to 10713
  141.1249  133.6602  156.3311 LP  0  0  0  0  0  0  0  0  0  0  0  0  # atno 17394 bound_to 11000
  140.5574  134.5968  157.5424 LP  0  0  0  0  0  0  0  0  0  0  0  0  # atno 17395 bound_to 11000

$$$$
