#       Name:                AV-unprocessed.smi:1824
#       Creating user name   scv26
#       Creation time:       Fri Mar 27 09:07:49 2020


#       File generated by GOLD software.
#

@<TRIPOS>MOLECULE
AV-unprocessed.smi:1824
    50    52     1
SMALL
NO_CHARGES


@<TRIPOS>ATOM
      1 ****        -3.1581   3.0004  -1.3993 C.3            1 S1                 0.0000
      2 ****        -3.7169   2.2539  -0.1747 C.3            1 S1                 0.0000
      3 ****        -3.2087   0.8036  -0.0511 C.3            1 S1                 0.0000
      4 ****        -1.7944   0.7687   0.3899 N.4            1 S1                 1.0000
      5 ****        -1.2477  -0.6112   0.4478 C.3            1 S1                 0.0000
      6 ****         0.2854  -0.6454   0.2911 C.3            1 S1                 0.0000
      7 ****         0.6191  -0.2007  -1.0107 O.3            1 S1                 0.0000
      8 ****         0.8509  -2.0621   0.5105 C.3            1 S1                 0.0000
      9 ****         2.2940  -2.1175   0.3541 N.pl3          1 S1                 0.0000
     10 ****         3.2214  -1.7597   1.2631 C.2            1 S1                 0.0000
     11 ****         4.4982  -1.8913   0.9155 N.2            1 S1                 0.0000
     12 ****         4.3884  -2.3950  -0.3692 C.ar           1 S1                 0.0000
     13 ****         5.3873  -2.7582  -1.3007 C.ar           1 S1                 0.0000
     14 ****         5.0325  -3.2572  -2.5713 C.ar           1 S1                 0.0000
     15 ****         6.0023  -3.6020  -3.4515 F              1 S1                 0.0000
     16 ****         3.6754  -3.3988  -2.9297 C.ar           1 S1                 0.0000
     17 ****         3.3431  -3.8770  -4.1521 F              1 S1                 0.0000
     18 ****         2.6626  -3.0431  -2.0184 C.ar           1 S1                 0.0000
     19 ****         3.0212  -2.5479  -0.7510 C.ar           1 S1                 0.0000
     20 ****        -1.6322   1.5261   1.6542 C.3            1 S1                 0.0000
     21 ****        -2.1255   2.9734   1.4776 C.3            1 S1                 0.0000
     22 ****        -2.0574   3.7686   2.7858 C.3            1 S1                 0.0000
     23 ****        -3.4826   2.9623   1.0423 O.3            1 S1                 0.0000
     24 ****        -3.4660   2.5114  -2.3238 H              1 S1                 0.0000
     25 ****        -2.0691   3.0382  -1.4019 H              1 S1                 0.0000
     26 ****        -3.5285   4.0254  -1.4311 H              1 S1                 0.0000
     27 ****        -4.7997   2.2164  -0.2975 H              1 S1                 0.0000
     28 ****        -3.8188   0.2602   0.6723 H              1 S1                 0.0000
     29 ****        -3.3193   0.2898  -1.0070 H              1 S1                 0.0000
     30 ****        -1.5487  -1.0768   1.3875 H              1 S1                 0.0000
     31 ****        -1.6899  -1.2174  -0.3445 H              1 S1                 0.0000
     32 ****         0.7547   0.0274   1.0084 H              1 S1                 0.0000
     33 ****         0.2956  -0.8288  -1.6388 H              1 S1                 0.0000
     34 ****         0.6045  -2.4140   1.5132 H              1 S1                 0.0000
     35 ****         0.3963  -2.7684  -0.1854 H              1 S1                 0.0000
     36 ****         2.9430  -1.3795   2.2353 H              1 S1                 0.0000
     37 ****         6.4294  -2.6532  -1.0382 H              1 S1                 0.0000
     38 ****         1.6239  -3.1511  -2.2921 H              1 S1                 0.0000
     39 ****        -2.1911   1.0311   2.4502 H              1 S1                 0.0000
     40 ****        -0.5866   1.5371   1.9601 H              1 S1                 0.0000
     41 ****        -1.5052   3.4842   0.7411 H              1 S1                 0.0000
     42 ****        -1.0365   3.8132   3.1659 H              1 S1                 0.0000
     43 ****        -2.6832   3.3173   3.5565 H              1 S1                 0.0000
     44 ****        -2.4002   4.7928   2.6364 H              1 S1                 0.0000
     45 ****        -1.2646   1.2550  -0.3200 H              1 S1                 0.0000
     46 ****         1.6125  -0.1221  -1.0948 LP             1 S1                 0.0000
     47 ****         0.1987   0.6908  -1.1795 LP             1 S1                 0.0000
     48 ****         5.3213  -1.6816   1.4434 LP             1 S1                 0.0000
     49 ****        -4.0356   2.5388   1.7598 LP             1 S1                 0.0000
     50 ****        -3.7748   3.9097   0.9117 LP             1 S1                 0.0000
@<TRIPOS>BOND
    1    1    2 1     
    2    1   24 1     
    3    1   25 1     
    4    1   26 1     
    5    2   23 1     
    6    2    3 1     
    7    2   27 1     
    8    3    4 1     
    9    3   28 1     
   10    3   29 1     
   11    4    5 1     
   12    4   20 1     
   13    4   45 1     
   14    5    6 1     
   15    5   30 1     
   16    5   31 1     
   17    6    7 1     
   18    6    8 1     
   19    6   32 1     
   20    7   33 1     
   21    8    9 1     
   22    8   34 1     
   23    8   35 1     
   24    9   19 1     
   25    9   10 1     
   26   10   11 2     
   27   10   36 1     
   28   11   12 1     
   29   12   19 ar    
   30   12   13 ar    
   31   13   14 ar    
   32   13   37 1     
   33   14   15 1     
   34   14   16 ar    
   35   16   17 1     
   36   16   18 ar    
   37   18   19 ar    
   38   18   38 1     
   39   20   21 1     
   40   20   39 1     
   41   20   40 1     
   42   21   22 1     
   43   21   23 1     
   44   21   41 1     
   45   22   42 1     
   46   22   43 1     
   47   22   44 1     
   48    7   46 1     
   49    7   47 1     
   50   11   48 1     
   51   23   49 1     
   52   23   50 1     
@<TRIPOS>SUBSTRUCTURE
      1 S1             1
@<TRIPOS>SET
LONE_PAIRS      STATIC     ATOMS    <user>   **** ""
5 46 47 48 49 50
DONOR_HYDROGENS      STATIC     ATOMS    <user>   **** ""
2 45 33
ATOM$BLUE        STATIC     ATOMS    COLORGROUP SYSTEM
5 46 47 48 49 50
ATOM$RED        STATIC     ATOMS    COLORGROUP SYSTEM
2 45 33
