AV-unprocessed.smi:2766|AV-procd|sdf|10645|dock7
  -GOLD-   2272015 93D 1   1.00000     0.00000
 Structure written by MMmdl.
 32 33  0  0  0  0  0  0  0  0  1 V2000
  147.5052  142.1772  153.8003 C   0  0  0  0  0  0  0  0  0  0  0  0
  148.8782  141.9149  154.0298 O   0  0  0  0  0  0  0  0  0  0  0  0
  149.0853  140.8097  154.8943 C   0  0  0  0  0  0  0  0  0  0  0  0
  150.3047  141.0873  155.7885 C   0  0  1  0  0  0  0  0  0  0  0  0
  150.2679  142.4449  156.1822 O   0  0  0  0  0  0  0  0  0  0  0  0
  150.3122  140.1874  157.0434 C   0  0  0  0  0  0  0  0  0  0  0  0
  151.5650  140.2489  157.7872 N   0  0  0  0  0  0  0  0  0  0  0  0
  152.6204  139.3939  157.7328 C   0  0  0  0  0  0  0  0  0  0  0  0
  152.6217  138.1663  156.8629 C   0  0  0  0  0  0  0  0  0  0  0  0
  152.5014  138.4946  155.5754 F   0  0  0  0  0  0  0  0  0  0  0  0
  153.7640  137.4947  157.0080 F   0  0  0  0  0  0  0  0  0  0  0  0
  151.6086  137.3572  157.1685 F   0  0  0  0  0  0  0  0  0  0  0  0
  153.6448  139.6936  158.5353 N   0  0  0  0  0  0  0  0  0  0  0  0
  153.2148  140.8415  159.1693 C   0  0  0  0  0  0  0  0  0  0  0  0
  153.8516  141.6455  160.1416 C   0  0  0  0  0  0  0  0  0  0  0  0
  153.2034  142.7849  160.6614 C   0  0  0  0  0  0  0  0  0  0  0  0
  151.9117  143.1350  160.2180 C   0  0  0  0  0  0  0  0  0  0  0  0
  151.2604  142.3475  159.2492 C   0  0  0  0  0  0  0  0  0  0  0  0
  151.9131  141.2126  158.7302 C   0  0  0  0  0  0  0  0  0  0  0  0
  151.2175  140.9190  155.2175 H   0  0  0  0  0  0  0  0  0  0  0  0
  147.4027  143.0297  153.1292 H   0  0  0  0  0  0  0  0  0  0  0  0
  146.9896  142.4179  154.7309 H   0  0  0  0  0  0  0  0  0  0  0  0
  147.0110  141.3226  153.3363 H   0  0  0  0  0  0  0  0  0  0  0  0
  148.1972  140.5983  155.4930 H   0  0  0  0  0  0  0  0  0  0  0  0
  149.2749  139.9292  154.2780 H   0  0  0  0  0  0  0  0  0  0  0  0
  149.5858  142.8812  155.6956 H   0  0  0  0  0  0  0  0  0  0  0  0
  149.4995  140.4703  157.7139 H   0  0  0  0  0  0  0  0  0  0  0  0
  150.1191  139.1522  156.7644 H   0  0  0  0  0  0  0  0  0  0  0  0
  154.8400  141.3837  160.4892 H   0  0  0  0  0  0  0  0  0  0  0  0
  153.6990  143.3920  161.4048 H   0  0  0  0  0  0  0  0  0  0  0  0
  151.4213  144.0089  160.6216 H   0  0  0  0  0  0  0  0  0  0  0  0
  150.2716  142.6147  158.9075 H   0  0  0  0  0  0  0  0  0  0  0  0
  1  2  1  0  0  0  0
  1 21  1  0  0  0  0
  1 22  1  0  0  0  0
  1 23  1  0  0  0  0
  2  3  1  0  0  0  0
  3  4  1  0  0  0  0
  3 24  1  0  0  0  0
  3 25  1  0  0  0  0
  4 20  1  0  0  0  0
  4  5  1  0  0  0  0
  4  6  1  0  0  0  0
  5 26  1  0  0  0  0
  6  7  1  0  0  0  0
  6 27  1  0  0  0  0
  6 28  1  0  0  0  0
  7 19  1  0  0  0  0
  7  8  1  0  0  0  0
  8  9  1  0  0  0  0
  8 13  2  0  0  0  0
  9 10  1  0  0  0  0
  9 11  1  0  0  0  0
  9 12  1  0  0  0  0
 13 14  1  0  0  0  0
 14 19  2  0  0  0  0
 14 15  1  0  0  0  0
 15 16  2  0  0  0  0
 15 29  1  0  0  0  0
 16 17  1  0  0  0  0
 16 30  1  0  0  0  0
 17 18  2  0  0  0  0
 17 31  1  0  0  0  0
 18 19  1  0  0  0  0
 18 32  1  0  0  0  0
M  END
> <s_m_source_file>
AV-unprocessed.smi

> <i_m_source_file_index>
2766

> <i_lp_mmshare_version>
43012

> <i_f3d_flags>
0

> <s_epik_input>
W0NIM11PW0NIMl1bQ0BASF0oW09IXSlbQ0gyXW4oYyhuMSlDKEYpKEYpRiljKGMxMilbY0hdW2NIXVtjSF1bY0hdMg==

> <s_epik_cmdline>
J2VwaWtfcHl0aG9uJywgJy1waCcsICc3LjAnLCAnLXRuJywgJzgnLCAnLW1hJywgJzIwMCcsICctbWV0YWxfYmluZGluZycsICctaW1hZScsICc8aW5maWxlLm1hZT4nLCAnLW9tYWUnLCAnPG91dGZpbGUubWFlPic=

> <r_epik_Ionization_Penalty>
0.00044827

> <r_epik_Ionization_Penalty_Charging>
0

> <r_epik_Ionization_Penalty_Neutral>
0.00044827

> <r_epik_State_Penalty>
0.000276591

> <r_epik_Charging_Adjusted_Penalty>
0.000276591

> <i_epik_Tot_Q>
0

> <i_epik_Tot_abs_Q>
0

> <r_epik_Metal_State_Penalty>
-0

> <b_epik_Metal_Only>
0

> <s_lp_Force_Field>
OPLS_2005

> <r_lp_Energy>
13.5685

> <b_lp_Chiralities_Consistent>
1

> <s_lp_Variant>
AV-unprocessed.smi:2766-1

> <Gold.Version>
5.8.1

> <Gold.Id.Protein>
6NUR|6NUR_protein|mol2

> <Gold.PLP.Fitness>
40.1369

> <Gold.PLP.PLP>
-35.3126

> <Gold.PLP.part.hbond>
-3.0000

> <Gold.PLP.part.metal>
0.0000

> <Gold.PLP.part.buried>
-5.7717

> <Gold.PLP.part.nonpolar>
-26.6582

> <Gold.PLP.part.repulsive>
0.1997

> <Gold.PLP.ligand.clash>
0.0000

> <Gold.PLP.ligand.torsion>
0.8123

> <Gold.PLP.Chemscore.Hbond>
2.1412

> <Gold.PLP.Chemscore.CHOScore>
0.0000

> <Gold.PLP.Chemscore.Metal>
0.0000

> <Gold.Chemscore.Hbonds>
donor molecule, donor type, donor heavy atom, donor atom, acceptor molecule, acceptor atom, score
      L1  H     5    26       P1  8028  0.69
      P1  H  7997  8010       L1    13  0.80
      P1  H  8011  8017       L1     2  0.46

> <Gold.PLP.Chemscore.Internal.Correction>
0.0253

> <Gold.Rescore>
     Score         DG    S(hbond)    S(metal)    S(lipo)     H(rot)  DE(clash)    DE(int)     intcor
     13.60     -14.48       1.49        0.00      84.91       2.32       0.09       0.79       ----

> <Gold.Chemscore.Fitness>
13.5955

> <Gold.Chemscore.DG>
-14.4753

> <Gold.Chemscore.ZeroCoef>
-5.4800

> <Gold.Chemscore.Hbond>
1.4943

> <Gold.Chemscore.Metal>
0.0000

> <Gold.Chemscore.Lipo>
84.9074

> <Gold.Chemscore.Internal_Hbond>
0.0000

> <Gold.Chemscore.DEClash>
0.0928

> <Gold.Chemscore.DEInternal>
0.7870

> <Gold.Chemscore.Rot>
2.3164

> <Gold.Chemscore.Internal.Correction>
   9.000000E+99

> <Gold.Chemscore.Hbonds>
donor molecule, donor type, donor heavy atom, donor atom, acceptor molecule, acceptor atom, score
      L1  H     5    26       P1  8028  0.69
      P1  H  7997  8010       L1    13  0.10
      P1  H  8011  8017       L1     2  0.22

> <Gold.Chemscore.Hbond.Weighted>
-4.9910

> <Gold.Chemscore.Metal.Weighted>
-0.0000

> <Gold.Chemscore.Lipo.Weighted>
-9.9342

> <Gold.Chemscore.Internal_Hbond.Weighted>
0.0000

> <Gold.Chemscore.DEClash.Weighted>
0.0928

> <Gold.Chemscore.DEInternal.Weighted>
0.7870

> <Gold.Chemscore.Rot.Weighted>
5.9299

> <Gold.Chemscore.Internal.Correction.Weighted>
   9.000000E+99

> <Gold.Protein.RotatedTorsions>
[ 6907 6896 6895 6894 ] final -168.84 input  -60.11 | X-H torsion
[ 7974 7965 7964 7962 ] final   49.36 input  175.53 | X-H torsion
[ 8008 7997 7996 7995 ] final   17.22 input   59.86 | X-H torsion
[ 10167 10162 10161 10158 ] final  114.27 input  -65.29 | X-H torsion
[ 10718 10713 10712 10709 ] final   -0.47 input   66.30 | X-H torsion
[ 10763 10752 10751 10750 ] final  139.27 input  -60.55 | X-H torsion
[ 11005 11000 10999 10996 ] final -107.13 input  -57.11 | X-H torsion

> <Gold.Protein.ActiveResidues>
 VAL166  LYS551  ARG553  GLY616  TRP617  ASP618  TYR619  PRO620  LYS621  CYS622 
 ASP623  PHE694  ASN695  SER759  ASP760  ASP761  ALA762  ILE779  LEU786  VAL792 
 PHE793  MET794  SER795  GLU796  ALA797  LYS798  CYS799  TRP800  GLU811  SER814 

> <Gold.Protein.RotatedAtoms>
  151.4820  133.3544  159.2839 H   0  0  0  0  0  0  0  0  0  0  0  0  # atno 6907 bound_to 6896
  150.8891  134.8294  159.7291 H   0  0  0  0  0  0  0  0  0  0  0  0  # atno 6908 bound_to 6896
  152.4811  134.4727  159.9692 H   0  0  0  0  0  0  0  0  0  0  0  0  # atno 6909 bound_to 6896
  146.0117  139.4550  142.9952 H   0  0  0  0  0  0  0  0  0  0  0  0  # atno 7974 bound_to 7965
  154.8882  140.2983  155.5386 H   0  0  0  0  0  0  0  0  0  0  0  0  # atno 8008 bound_to 7997
  156.3021  140.2429  156.3828 H   0  0  0  0  0  0  0  0  0  0  0  0  # atno 8009 bound_to 7997
  154.8646  140.0404  157.1675 H   0  0  0  0  0  0  0  0  0  0  0  0  # atno 8010 bound_to 7997
  139.6401  144.7123  151.2255 H   0  0  0  0  0  0  0  0  0  0  0  0  # atno 10167 bound_to 10162
  156.8200  130.5453  149.5698 H   0  0  0  0  0  0  0  0  0  0  0  0  # atno 10718 bound_to 10713
  153.9034  135.3019  155.3448 H   0  0  0  0  0  0  0  0  0  0  0  0  # atno 10763 bound_to 10752
  154.7659  135.4910  153.9557 H   0  0  0  0  0  0  0  0  0  0  0  0  # atno 10764 bound_to 10752
  153.1232  135.6787  153.9400 H   0  0  0  0  0  0  0  0  0  0  0  0  # atno 10765 bound_to 10752
  141.0970  133.8953  157.1939 H   0  0  0  0  0  0  0  0  0  0  0  0  # atno 11005 bound_to 11000
  145.7332  141.0035  143.1340 LP  0  0  0  0  0  0  0  0  0  0  0  0  # atno 17320 bound_to 7965
  144.6955  139.9010  143.7458 LP  0  0  0  0  0  0  0  0  0  0  0  0  # atno 17321 bound_to 7965
  140.7486  143.6327  150.8408 LP  0  0  0  0  0  0  0  0  0  0  0  0  # atno 17342 bound_to 10162
  139.9963  143.5792  152.2892 LP  0  0  0  0  0  0  0  0  0  0  0  0  # atno 17343 bound_to 10162
  156.0994  130.5957  150.9869 LP  0  0  0  0  0  0  0  0  0  0  0  0  # atno 17370 bound_to 10713
  157.6462  131.0903  150.8149 LP  0  0  0  0  0  0  0  0  0  0  0  0  # atno 17371 bound_to 10713
  139.9809  135.0098  156.9747 LP  0  0  0  0  0  0  0  0  0  0  0  0  # atno 17394 bound_to 11000
  140.5116  134.0996  155.7271 LP  0  0  0  0  0  0  0  0  0  0  0  0  # atno 17395 bound_to 11000

$$$$
