AV-unprocessed.smi:158|AV-procd|sdf|1331|dock6
  -GOLD-   2262019 23D 1   1.00000     0.00000
 Structure written by MMmdl.
 31 33  0  0  0  0  0  0  0  0  1 V2000
  143.9149  141.7661  155.0469 N   0  0  0  0  0  0  0  0  0  0  0  0
  145.1148  141.8883  155.6317 C   0  0  0  0  0  0  0  0  0  0  0  0
  145.1784  142.4541  156.8593 N   0  0  0  0  0  0  0  0  0  0  0  0
  146.3571  142.5923  157.4777 C   0  0  0  0  0  0  0  0  0  0  0  0
  146.3272  143.3237  159.0387 Cl  0  0  0  0  0  0  0  0  0  0  0  0
  147.5589  142.2266  157.0211 N   0  0  0  0  0  0  0  0  0  0  0  0
  147.5029  141.6564  155.7832 C   0  0  0  0  0  0  0  0  0  0  0  0
  146.3181  141.4519  155.0252 C   0  0  0  0  0  0  0  0  0  0  0  0
  146.6270  140.8461  153.8159 N   0  0  0  0  0  0  0  0  0  0  0  0
  147.9241  140.7021  153.8611 C   0  0  0  0  0  0  0  0  0  0  0  0
  148.5350  141.1638  155.0069 N   0  0  0  0  0  0  0  0  0  0  0  0
  150.0008  141.1320  155.3162 C   0  0  2  0  0  0  0  0  0  0  0  0
  150.6297  140.2218  154.4594 O   0  0  0  0  0  0  0  0  0  0  0  0
  151.3562  139.2536  155.2163 C   0  0  2  0  0  0  0  0  0  0  0  0
  151.4250  137.9243  154.4469 C   0  0  0  0  0  0  0  0  0  0  0  0
  152.0634  136.9342  155.2252 O   0  0  0  0  0  0  0  0  0  0  0  0
  150.6000  139.1966  156.5459 C   0  0  1  0  0  0  0  0  0  0  0  0
  151.3683  138.6896  157.6184 O   0  0  0  0  0  0  0  0  0  0  0  0
  150.2349  140.6557  156.7537 C   0  0  1  0  0  0  0  0  0  0  0  0
  151.2671  141.3473  157.2434 F   0  0  0  0  0  0  0  0  0  0  0  0
  150.3396  142.1522  155.1307 H   0  0  0  0  0  0  0  0  0  0  0  0
  152.3603  139.6539  155.3705 H   0  0  0  0  0  0  0  0  0  0  0  0
  149.6938  138.5995  156.4459 H   0  0  0  0  0  0  0  0  0  0  0  0
  149.3714  140.8208  157.3996 H   0  0  0  0  0  0  0  0  0  0  0  0
  143.8429  141.3462  154.1311 H   0  0  0  0  0  0  0  0  0  0  0  0
  143.0859  142.0910  155.5232 H   0  0  0  0  0  0  0  0  0  0  0  0
  148.4775  140.2528  153.0492 H   0  0  0  0  0  0  0  0  0  0  0  0
  150.4326  137.5777  154.1601 H   0  0  0  0  0  0  0  0  0  0  0  0
  151.9979  138.0550  153.5286 H   0  0  0  0  0  0  0  0  0  0  0  0
  151.4100  136.4995  155.7521 H   0  0  0  0  0  0  0  0  0  0  0  0
  152.2779  138.6939  157.3603 H   0  0  0  0  0  0  0  0  0  0  0  0
  1  2  1  0  0  0  0
  1 25  1  0  0  0  0
  1 26  1  0  0  0  0
  2  8  1  0  0  0  0
  2  3  2  0  0  0  0
  3  4  1  0  0  0  0
  4  5  1  0  0  0  0
  4  6  2  0  0  0  0
  6  7  1  0  0  0  0
  7 11  1  0  0  0  0
  7  8  2  0  0  0  0
  8  9  1  0  0  0  0
  9 10  2  0  0  0  0
 10 11  1  0  0  0  0
 10 27  1  0  0  0  0
 11 12  1  0  0  0  0
 12 21  1  0  0  0  0
 12 19  1  0  0  0  0
 12 13  1  0  0  0  0
 13 14  1  0  0  0  0
 14 22  1  0  0  0  0
 14 15  1  0  0  0  0
 14 17  1  0  0  0  0
 15 16  1  0  0  0  0
 15 28  1  0  0  0  0
 15 29  1  0  0  0  0
 16 30  1  0  0  0  0
 17 23  1  0  0  0  0
 17 18  1  0  0  0  0
 17 19  1  0  0  0  0
 18 31  1  0  0  0  0
 19 24  1  0  0  0  0
 19 20  1  0  0  0  0
M  END
> <s_m_source_file>
AV-unprocessed.smi

> <i_m_source_file_index>
158

> <i_lp_mmshare_version>
43012

> <i_f3d_flags>
0

> <s_epik_input>
Q2xjKG4xKW5jKFtOSDJdKWMoYzEyKW5bY0hdbjJbQ0BASF0zT1tDQEhdKFtDSDJdW09IXSlbQ0BASF0oW09IXSlbQ0BASF0zRg==

> <s_epik_cmdline>
J2VwaWtfcHl0aG9uJywgJy1waCcsICc3LjAnLCAnLXRuJywgJzgnLCAnLW1hJywgJzIwMCcsICctbWV0YWxfYmluZGluZycsICctaW1hZScsICc8aW5maWxlLm1hZT4nLCAnLW9tYWUnLCAnPG91dGZpbGUubWFlPic=

> <r_lp_tautomer_probability>
1

> <r_epik_Ionization_Penalty>
6.51543e-05

> <r_epik_Ionization_Penalty_Charging>
0

> <r_epik_Ionization_Penalty_Neutral>
6.51543e-05

> <r_epik_State_Penalty>
-0

> <r_epik_Charging_Adjusted_Penalty>
0

> <i_epik_Tot_Q>
0

> <i_epik_Tot_abs_Q>
0

> <r_epik_Metal_State_Penalty>
-0

> <b_epik_Metal_Only>
0

> <s_epik_Chemistry_Notes>
This compound contains an acetal/aminal-like group ( X-CH(R)-Y where X, Y are N, S, or O) that may be acid/base labile, releasing an aldehyde.

> <s_lp_Force_Field>
OPLS_2005

> <r_lp_Energy>
33.8646

> <b_lp_Chiralities_Consistent>
1

> <s_lp_Variant>
AV-unprocessed.smi:158-9

> <Gold.Version>
5.8.1

> <Gold.Id.Protein>
6NUR|6NUR_protein|mol2

> <Gold.PLP.Fitness>
38.8843

> <Gold.PLP.PLP>
-27.7204

> <Gold.PLP.part.hbond>
-3.3528

> <Gold.PLP.part.metal>
0.0000

> <Gold.PLP.part.buried>
-4.8706

> <Gold.PLP.part.nonpolar>
-21.3726

> <Gold.PLP.part.repulsive>
1.0962

> <Gold.PLP.ligand.clash>
0.0000

> <Gold.PLP.ligand.torsion>
0.4213

> <Gold.PLP.Chemscore.Hbond>
3.0000

> <Gold.PLP.Chemscore.CHOScore>
1.0000

> <Gold.PLP.Chemscore.Metal>
0.0000

> <Gold.Chemscore.Hbonds>
donor molecule, donor type, donor heavy atom, donor atom, acceptor molecule, acceptor atom, score
      L1  H     1    25       P1 10175  1.00
      P1  H  7989  7998       L1    13  1.00
      P1  H 10752 10765       L1    16  0.98
      L1  C    10    27       P1  7957  1.00

> <Gold.PLP.Chemscore.Internal.Correction>
0.0065

> <Gold.Rescore>
     Score         DG    S(hbond)    S(metal)    S(lipo)     H(rot)  DE(clash)    DE(int)     intcor
      7.45      -7.79       2.18        0.00      25.78       3.12       0.00       0.34       ----

> <Gold.Chemscore.Fitness>
7.4528

> <Gold.Chemscore.DG>
-7.7924

> <Gold.Chemscore.ZeroCoef>
-5.4800

> <Gold.Chemscore.Hbond>
2.1829

> <Gold.Chemscore.Metal>
0.0000

> <Gold.Chemscore.Lipo>
25.7826

> <Gold.Chemscore.Internal_Hbond>
0.0000

> <Gold.Chemscore.DEClash>
0.0000

> <Gold.Chemscore.DEInternal>
0.3396

> <Gold.Chemscore.Rot>
3.1230

> <Gold.Chemscore.Internal.Correction>
   9.000000E+99

> <Gold.Chemscore.Hbonds>
donor molecule, donor type, donor heavy atom, donor atom, acceptor molecule, acceptor atom, score
      L1  H     1    25       P1 10175  0.30
      P1  H  7989  7998       L1    13  0.50
      P1  H 10752 10765       L1    16  0.24

> <Gold.Chemscore.Hbond.Weighted>
-7.2908

> <Gold.Chemscore.Metal.Weighted>
-0.0000

> <Gold.Chemscore.Lipo.Weighted>
-3.0166

> <Gold.Chemscore.Internal_Hbond.Weighted>
0.0000

> <Gold.Chemscore.DEClash.Weighted>
0.0000

> <Gold.Chemscore.DEInternal.Weighted>
0.3396

> <Gold.Chemscore.Rot.Weighted>
7.9950

> <Gold.Chemscore.Internal.Correction.Weighted>
   9.000000E+99

> <Gold.Protein.RotatedTorsions>
[ 6907 6896 6895 6894 ] final  -51.20 input  -60.11 | X-H torsion
[ 7974 7965 7964 7962 ] final   83.27 input  175.53 | X-H torsion
[ 8008 7997 7996 7995 ] final  -59.45 input   59.86 | X-H torsion
[ 10167 10162 10161 10158 ] final  -17.45 input  -65.29 | X-H torsion
[ 10718 10713 10712 10709 ] final   19.45 input   66.30 | X-H torsion
[ 10763 10752 10751 10750 ] final -171.33 input  -60.55 | X-H torsion
[ 11005 11000 10999 10996 ] final   71.94 input  -57.11 | X-H torsion

> <Gold.Protein.ActiveResidues>
 VAL166  LYS551  ARG553  GLY616  TRP617  ASP618  TYR619  PRO620  LYS621  CYS622 
 ASP623  PHE694  ASN695  SER759  ASP760  ASP761  ALA762  ILE779  LEU786  VAL792 
 PHE793  MET794  SER795  GLU796  ALA797  LYS798  CYS799  TRP800  GLU811  SER814 

> <Gold.Protein.RotatedAtoms>
  150.8634  134.7992  159.7099 H   0  0  0  0  0  0  0  0  0  0  0  0  # atno 6907 bound_to 6896
  152.4664  134.5063  159.9750 H   0  0  0  0  0  0  0  0  0  0  0  0  # atno 6908 bound_to 6896
  151.5163  133.3437  159.2929 H   0  0  0  0  0  0  0  0  0  0  0  0  # atno 6909 bound_to 6896
  145.6141  139.2373  143.2175 H   0  0  0  0  0  0  0  0  0  0  0  0  # atno 7974 bound_to 7965
  154.4353  140.1061  156.6118 H   0  0  0  0  0  0  0  0  0  0  0  0  # atno 8008 bound_to 7997
  155.5801  140.3490  155.4519 H   0  0  0  0  0  0  0  0  0  0  0  0  # atno 8009 bound_to 7997
  156.0325  140.1263  157.0232 H   0  0  0  0  0  0  0  0  0  0  0  0  # atno 8010 bound_to 7997
  140.7247  143.5014  150.9865 H   0  0  0  0  0  0  0  0  0  0  0  0  # atno 10167 bound_to 10162
  157.1105  130.6507  149.5896 H   0  0  0  0  0  0  0  0  0  0  0  0  # atno 10718 bound_to 10713
  154.6317  135.2887  155.0209 H   0  0  0  0  0  0  0  0  0  0  0  0  # atno 10763 bound_to 10752
  154.1367  135.6525  153.4937 H   0  0  0  0  0  0  0  0  0  0  0  0  # atno 10764 bound_to 10752
  153.0283  135.5323  154.7147 H   0  0  0  0  0  0  0  0  0  0  0  0  # atno 10765 bound_to 10752
  139.9517  134.7216  156.0847 H   0  0  0  0  0  0  0  0  0  0  0  0  # atno 11005 bound_to 11000
  146.1481  140.6963  142.9335 LP  0  0  0  0  0  0  0  0  0  0  0  0  # atno 17320 bound_to 7965
  144.7258  140.4518  143.6974 LP  0  0  0  0  0  0  0  0  0  0  0  0  # atno 17321 bound_to 7965
  139.8723  143.7176  152.3165 LP  0  0  0  0  0  0  0  0  0  0  0  0  # atno 17342 bound_to 10162
  139.7429  144.7554  151.0624 LP  0  0  0  0  0  0  0  0  0  0  0  0  # atno 17343 bound_to 10162
  155.9851  130.4880  150.7017 LP  0  0  0  0  0  0  0  0  0  0  0  0  # atno 17370 bound_to 10713
  157.4563  131.0878  151.0793 LP  0  0  0  0  0  0  0  0  0  0  0  0  # atno 17371 bound_to 10713
  141.1181  133.6621  156.3144 LP  0  0  0  0  0  0  0  0  0  0  0  0  # atno 17394 bound_to 11000
  140.5704  134.5846  157.5456 LP  0  0  0  0  0  0  0  0  0  0  0  0  # atno 17395 bound_to 11000

$$$$
