AV-unprocessed.smi:581|AV-procd|sdf|2994|dock2
  -GOLD-   2262023503D 1   1.00000     0.00000
 Structure written by MMmdl.
 34 35  0  0  0  0  0  0  0  0  3 V2000
  155.1216  139.4493  162.9778 C   0  0  0  0  0  0  0  0  0  0  0  0
  154.5379  139.8224  161.6266 C   0  0  0  0  0  0  0  0  0  0  0  0
  153.9718  141.1030  161.5369 N   0  0  0  0  0  0  0  0  0  0  0  0
  153.4524  141.5113  160.4182 C   0  0  0  0  0  0  0  0  0  0  0  0
  152.8817  142.7804  160.2855 N   0  0  0  0  0  0  0  0  0  0  0  0
  153.2623  143.6709  159.1862 C   0  0  0  0  0  0  0  0  0  0  0  0
  152.1613  144.7045  158.8973 C   0  0  0  0  0  0  0  0  0  0  0  0
  151.8617  145.4298  160.0823 O   0  0  0  0  0  0  0  0  0  0  0  0
  151.3754  144.5703  161.1043 C   0  0  0  0  0  0  0  0  0  0  0  0
  152.4502  143.5313  161.4650 C   0  0  0  0  0  0  0  0  0  0  0  0
  153.4176  140.7181  159.2823 N   0  5  0  0  0  0  0  0  0  0  0  0
  153.9554  139.4651  159.2943 C   0  0  0  0  0  0  0  0  0  0  0  0
  153.9491  138.7449  158.2967 O   0  0  0  0  0  0  0  0  0  0  0  0
  154.5574  138.9858  160.5509 C   0  0  0  0  0  0  0  0  0  0  0  0
  155.1503  137.5781  160.5949 C   0  0  0  0  0  0  0  0  0  0  0  0
  154.3577  136.6417  161.5250 C   0  0  0  0  0  0  0  0  0  0  0  0
  154.7672  135.1859  161.3018 C   0  0  0  0  0  0  0  0  0  0  0  0
  155.3753  134.6124  162.2322 O   0  0  0  0  0  0  0  0  0  0  0  0
  154.4664  134.6698  160.2029 O   0  5  0  0  0  0  0  0  0  0  0  0
  156.1425  139.0822  162.8685 H   0  0  0  0  0  0  0  0  0  0  0  0
  154.5202  138.6715  163.4489 H   0  0  0  0  0  0  0  0  0  0  0  0
  155.1465  140.3094  163.6480 H   0  0  0  0  0  0  0  0  0  0  0  0
  154.1871  144.1811  159.4583 H   0  0  0  0  0  0  0  0  0  0  0  0
  153.4722  143.1158  158.2716 H   0  0  0  0  0  0  0  0  0  0  0  0
  152.4954  145.4029  158.1300 H   0  0  0  0  0  0  0  0  0  0  0  0
  151.2624  144.2178  158.5152 H   0  0  0  0  0  0  0  0  0  0  0  0
  151.1238  145.1683  161.9801 H   0  0  0  0  0  0  0  0  0  0  0  0
  150.4563  144.0805  160.7783 H   0  0  0  0  0  0  0  0  0  0  0  0
  152.0497  142.8557  162.2222 H   0  0  0  0  0  0  0  0  0  0  0  0
  153.3165  144.0265  161.9056 H   0  0  0  0  0  0  0  0  0  0  0  0
  155.1808  137.1576  159.5898 H   0  0  0  0  0  0  0  0  0  0  0  0
  156.1937  137.6311  160.9098 H   0  0  0  0  0  0  0  0  0  0  0  0
  154.5284  136.9072  162.5690 H   0  0  0  0  0  0  0  0  0  0  0  0
  153.2868  136.7460  161.3458 H   0  0  0  0  0  0  0  0  0  0  0  0
  1  2  1  0  0  0  0
  1 20  1  0  0  0  0
  1 21  1  0  0  0  0
  1 22  1  0  0  0  0
  2 14  2  0  0  0  0
  2  3  1  0  0  0  0
  3  4  2  0  0  0  0
  4  5  1  0  0  0  0
  4 11  1  0  0  0  0
  5 10  1  0  0  0  0
  5  6  1  0  0  0  0
  6  7  1  0  0  0  0
  6 23  1  0  0  0  0
  6 24  1  0  0  0  0
  7  8  1  0  0  0  0
  7 25  1  0  0  0  0
  7 26  1  0  0  0  0
  8  9  1  0  0  0  0
  9 10  1  0  0  0  0
  9 27  1  0  0  0  0
  9 28  1  0  0  0  0
 10 29  1  0  0  0  0
 10 30  1  0  0  0  0
 11 12  1  0  0  0  0
 12 13  2  0  0  0  0
 12 14  1  0  0  0  0
 14 15  1  0  0  0  0
 15 16  1  0  0  0  0
 15 31  1  0  0  0  0
 15 32  1  0  0  0  0
 16 17  1  0  0  0  0
 16 33  1  0  0  0  0
 16 34  1  0  0  0  0
 17 18  2  0  0  0  0
 17 19  1  0  0  0  0
M  CHG  1  11  -1
M  CHG  1  19  -1
M  END
> <s_m_source_file>
AV-unprocessed.smi

> <i_m_source_file_index>
581

> <i_lp_mmshare_version>
43012

> <i_f3d_flags>
0

> <s_epik_input>
W0NIMl0xW0NIMl1PW0NIMl1bQ0gyXU4xYyhuYzJbQ0gzXSlbbkhdYyg9TyljMltDSDJdW0NIMl1DKD1PKVtPSF0=

> <s_epik_cmdline>
J2VwaWtfcHl0aG9uJywgJy1waCcsICc3LjAnLCAnLXRuJywgJzgnLCAnLW1hJywgJzIwMCcsICctbWV0YWxfYmluZGluZycsICctaW1hZScsICc8aW5maWxlLm1hZT4nLCAnLW9tYWUnLCAnPG91dGZpbGUubWFlPic=

> <r_lp_tautomer_probability>
0.878553

> <r_epik_Ionization_Penalty>
5.42566

> <r_epik_Ionization_Penalty_Charging>
0.003235

> <r_epik_Ionization_Penalty_Neutral>
5.42243

> <r_epik_State_Penalty>
3.98511

> <r_epik_Charging_Adjusted_Penalty>
3.98834

> <i_epik_Tot_Q>
-2

> <i_epik_Tot_abs_Q>
2

> <r_epik_Metal_State_Penalty>
0.64219

> <b_epik_Metal_Only>
1

> <s_lp_Force_Field>
OPLS_2005

> <r_lp_Energy>
30.9787

> <b_lp_Chiralities_Consistent>
1

> <s_lp_Variant>
AV-unprocessed.smi:581-4

> <Gold.Version>
5.8.1

> <Gold.Id.Protein>
6NUR|6NUR_protein|mol2

> <Gold.PLP.Fitness>
43.4068

> <Gold.PLP.PLP>
-35.5717

> <Gold.PLP.part.hbond>
-2.0159

> <Gold.PLP.part.metal>
0.0000

> <Gold.PLP.part.buried>
-3.3496

> <Gold.PLP.part.nonpolar>
-29.6662

> <Gold.PLP.part.repulsive>
0.1513

> <Gold.PLP.ligand.clash>
0.0000

> <Gold.PLP.ligand.torsion>
0.6817

> <Gold.PLP.Chemscore.Hbond>
2.9920

> <Gold.PLP.Chemscore.CHOScore>
0.0000

> <Gold.PLP.Chemscore.Metal>
0.0000

> <Gold.Chemscore.Hbonds>
donor molecule, donor type, donor heavy atom, donor atom, acceptor molecule, acceptor atom, score
      P1  H  6896  6908       L1    19  2.00
      P1  H  7997  8010       L1    13  0.99

> <Gold.PLP.Chemscore.Internal.Correction>
0.2226

> <Gold.Rescore>
     Score         DG    S(hbond)    S(metal)    S(lipo)     H(rot)  DE(clash)    DE(int)     intcor
     14.22     -15.32       1.48        0.00      82.48       1.86       0.42       0.68       ----

> <Gold.Chemscore.Fitness>
14.2202

> <Gold.Chemscore.DG>
-15.3205

> <Gold.Chemscore.ZeroCoef>
-5.4800

> <Gold.Chemscore.Hbond>
1.4850

> <Gold.Chemscore.Metal>
0.0000

> <Gold.Chemscore.Lipo>
82.4792

> <Gold.Chemscore.Internal_Hbond>
0.0000

> <Gold.Chemscore.DEClash>
0.4228

> <Gold.Chemscore.DEInternal>
0.6775

> <Gold.Chemscore.Rot>
1.8630

> <Gold.Chemscore.Internal.Correction>
   9.000000E+99

> <Gold.Chemscore.Hbonds>
donor molecule, donor type, donor heavy atom, donor atom, acceptor molecule, acceptor atom, score
      P1  H  6896  6908       L1    19  0.76
      P1  H  7997  8010       L1    13  0.24

> <Gold.Chemscore.Hbond.Weighted>
-4.9598

> <Gold.Chemscore.Metal.Weighted>
-0.0000

> <Gold.Chemscore.Lipo.Weighted>
-9.6501

> <Gold.Chemscore.Internal_Hbond.Weighted>
0.0000

> <Gold.Chemscore.DEClash.Weighted>
0.4228

> <Gold.Chemscore.DEInternal.Weighted>
0.6775

> <Gold.Chemscore.Rot.Weighted>
4.7694

> <Gold.Chemscore.Internal.Correction.Weighted>
   9.000000E+99

> <Gold.Protein.RotatedTorsions>
[ 6907 6896 6895 6894 ] final  -53.63 input  -60.11 | X-H torsion
[ 7974 7965 7964 7962 ] final  -80.65 input  175.53 | X-H torsion
[ 8008 7997 7996 7995 ] final   41.32 input   59.86 | X-H torsion
[ 10167 10162 10161 10158 ] final  -59.80 input  -65.29 | X-H torsion
[ 10718 10713 10712 10709 ] final  -96.89 input   66.30 | X-H torsion
[ 10763 10752 10751 10750 ] final -119.89 input  -60.55 | X-H torsion
[ 11005 11000 10999 10996 ] final   21.13 input  -57.11 | X-H torsion

> <Gold.Protein.ActiveResidues>
 VAL166  LYS551  ARG553  GLY616  TRP617  ASP618  TYR619  PRO620  LYS621  CYS622 
 ASP623  PHE694  ASN695  SER759  ASP760  ASP761  ALA762  ILE779  LEU786  VAL792 
 PHE793  MET794  SER795  GLU796  ALA797  LYS798  CYS799  TRP800  GLU811  SER814 

> <Gold.Protein.RotatedAtoms>
  150.8409  134.7701  159.6931 H   0  0  0  0  0  0  0  0  0  0  0  0  # atno 6907 bound_to 6896
  152.4497  134.5417  159.9851 H   0  0  0  0  0  0  0  0  0  0  0  0  # atno 6908 bound_to 6896
  151.5557  133.3373  159.2997 H   0  0  0  0  0  0  0  0  0  0  0  0  # atno 6909 bound_to 6896
  145.5571  140.9488  143.1468 H   0  0  0  0  0  0  0  0  0  0  0  0  # atno 7974 bound_to 7965
  155.2677  140.3364  155.4268 H   0  0  0  0  0  0  0  0  0  0  0  0  # atno 8008 bound_to 7997
  156.2147  140.1784  156.7659 H   0  0  0  0  0  0  0  0  0  0  0  0  # atno 8009 bound_to 7997
  154.5736  140.0666  156.8985 H   0  0  0  0  0  0  0  0  0  0  0  0  # atno 8010 bound_to 7997
  140.6112  143.2388  151.5705 H   0  0  0  0  0  0  0  0  0  0  0  0  # atno 10167 bound_to 10162
  156.0071  130.5171  150.6293 H   0  0  0  0  0  0  0  0  0  0  0  0  # atno 10718 bound_to 10713
  154.8629  135.4222  154.2371 H   0  0  0  0  0  0  0  0  0  0  0  0  # atno 10763 bound_to 10752
  153.3344  135.6990  153.6926 H   0  0  0  0  0  0  0  0  0  0  0  0  # atno 10764 bound_to 10752
  153.5929  135.3551  155.2891 H   0  0  0  0  0  0  0  0  0  0  0  0  # atno 10765 bound_to 10752
  140.3949  134.1779  155.7663 H   0  0  0  0  0  0  0  0  0  0  0  0  # atno 11005 bound_to 11000
  144.7501  139.7216  143.7276 LP  0  0  0  0  0  0  0  0  0  0  0  0  # atno 17320 bound_to 7965
  146.1877  139.5101  142.9825 LP  0  0  0  0  0  0  0  0  0  0  0  0  # atno 17321 bound_to 7965
  139.5363  144.2773  152.1257 LP  0  0  0  0  0  0  0  0  0  0  0  0  # atno 17342 bound_to 10162
  140.1973  144.4693  150.6449 LP  0  0  0  0  0  0  0  0  0  0  0  0  # atno 17343 bound_to 10162
  157.4094  131.0821  151.1235 LP  0  0  0  0  0  0  0  0  0  0  0  0  # atno 17370 bound_to 10713
  157.1871  130.6335  149.5692 LP  0  0  0  0  0  0  0  0  0  0  0  0  # atno 17371 bound_to 10713
  141.1877  133.8274  157.1020 LP  0  0  0  0  0  0  0  0  0  0  0  0  # atno 17394 bound_to 11000
  140.0379  134.9869  157.0906 LP  0  0  0  0  0  0  0  0  0  0  0  0  # atno 17395 bound_to 11000

$$$$
