#       Name:                AV-unprocessed.smi:3131
#       Creating user name   scv26
#       Creation time:       Fri Mar 27 17:31:32 2020


#       File generated by GOLD software.
#

@<TRIPOS>MOLECULE
AV-unprocessed.smi:3131
    46    46     1
SMALL
NO_CHARGES


@<TRIPOS>ATOM
      1 ****        -4.3425   0.4638   2.0326 C.3            1 S1                 0.0000
      2 ****        -3.8040   0.9451   0.6769 C.3            1 S1                 0.0000
      3 ****        -2.2610   0.9408   0.5611 C.3            1 S1                 0.0000
      4 ****        -1.7960   1.7081  -0.7015 C.3            1 S1                 0.0000
      5 ****        -1.9708   3.2315  -0.6136 C.3            1 S1                 0.0000
      6 ****        -1.7046  -0.5008   0.5657 C.3            1 S1                 0.0000
      7 ****        -0.2329  -0.5174   0.6814 N.4            1 S1                 1.0000
      8 ****         0.3635  -1.8694   0.7179 C.3            1 S1                 0.0000
      9 ****         1.9060  -1.8139   0.6756 C.3            1 S1                 0.0000
     10 ****         2.4972  -3.2337   0.6694 C.3            1 S1                 0.0000
     11 ****         2.3412  -1.2155   1.8830 O.3            1 S1                 0.0000
     12 ****         2.3869  -1.0496  -0.5399 C.2            1 S1                 0.0000
     13 ****         2.0917  -1.3183  -1.9090 C.2            1 S1                 0.0000
     14 ****         2.6505  -0.4549  -2.7395 N.2            1 S1                 0.0000
     15 ****         3.3302   0.3890  -1.9379 N.pl3          1 S1                 0.0000
     16 ****         4.0805   1.4792  -2.5234 C.3            1 S1                 0.0000
     17 ****         3.1917   0.0551  -0.6082 C.2            1 S1                 0.0000
     18 ****        -5.4247   0.5873   2.0788 H              1 S1                 0.0000
     19 ****        -3.9107   1.0356   2.8545 H              1 S1                 0.0000
     20 ****        -4.1335  -0.5910   2.2070 H              1 S1                 0.0000
     21 ****        -4.2379   0.3439  -0.1230 H              1 S1                 0.0000
     22 ****        -4.1817   1.9553   0.5262 H              1 S1                 0.0000
     23 ****        -1.8578   1.4561   1.4346 H              1 S1                 0.0000
     24 ****        -0.7377   1.5201  -0.8830 H              1 S1                 0.0000
     25 ****        -2.3180   1.3285  -1.5808 H              1 S1                 0.0000
     26 ****        -1.5485   3.7172  -1.4936 H              1 S1                 0.0000
     27 ****        -1.4614   3.6368   0.2612 H              1 S1                 0.0000
     28 ****        -3.0191   3.5227  -0.5579 H              1 S1                 0.0000
     29 ****        -2.1026  -1.0661   1.4075 H              1 S1                 0.0000
     30 ****        -2.0070  -1.0253  -0.3419 H              1 S1                 0.0000
     31 ****         0.1520  -0.0260  -0.1128 H              1 S1                 0.0000
     32 ****         0.0196  -2.3917   1.6120 H              1 S1                 0.0000
     33 ****        -0.0073  -2.4354  -0.1381 H              1 S1                 0.0000
     34 ****         2.1908  -3.7883  -0.2182 H              1 S1                 0.0000
     35 ****         2.1727  -3.8062   1.5393 H              1 S1                 0.0000
     36 ****         3.5878  -3.2091   0.6796 H              1 S1                 0.0000
     37 ****         2.0873  -1.7699   2.6055 H              1 S1                 0.0000
     38 ****         1.4826  -2.1099  -2.3201 H              1 S1                 0.0000
     39 ****         4.5246   2.0922  -1.7386 H              1 S1                 0.0000
     40 ****         3.4192   2.1013  -3.1273 H              1 S1                 0.0000
     41 ****         4.8754   1.0820  -3.1554 H              1 S1                 0.0000
     42 ****         3.6700   0.6276   0.1731 H              1 S1                 0.0000
     43 ****         0.0365  -0.0265   1.5221 H              1 S1                 0.0000
     44 ****         1.9171  -0.3156   1.9843 LP             1 S1                 0.0000
     45 ****         3.3361  -1.1154   1.8693 LP             1 S1                 0.0000
     46 ****         2.5840  -0.4329  -3.7371 LP             1 S1                 0.0000
@<TRIPOS>BOND
    1    1    2 1     
    2    1   18 1     
    3    1   19 1     
    4    1   20 1     
    5    2    3 1     
    6    2   21 1     
    7    2   22 1     
    8    3    4 1     
    9    3    6 1     
   10    3   23 1     
   11    4    5 1     
   12    4   24 1     
   13    4   25 1     
   14    5   26 1     
   15    5   27 1     
   16    5   28 1     
   17    6    7 1     
   18    6   29 1     
   19    6   30 1     
   20    7    8 1     
   21    7   31 1     
   22    7   43 1     
   23    8    9 1     
   24    8   32 1     
   25    8   33 1     
   26    9   10 1     
   27    9   11 1     
   28    9   12 1     
   29   10   34 1     
   30   10   35 1     
   31   10   36 1     
   32   11   37 1     
   33   12   17 2     
   34   12   13 1     
   35   13   14 2     
   36   13   38 1     
   37   14   15 1     
   38   15   16 1     
   39   15   17 1     
   40   16   39 1     
   41   16   40 1     
   42   16   41 1     
   43   17   42 1     
   44   11   44 1     
   45   11   45 1     
   46   14   46 1     
@<TRIPOS>SUBSTRUCTURE
      1 S1             1
@<TRIPOS>SET
LONE_PAIRS      STATIC     ATOMS    <user>   **** ""
3 44 45 46
DONOR_HYDROGENS      STATIC     ATOMS    <user>   **** ""
3 31 43 37
ATOM$BLUE        STATIC     ATOMS    COLORGROUP SYSTEM
3 44 45 46
ATOM$RED        STATIC     ATOMS    COLORGROUP SYSTEM
3 31 43 37
