AV-unprocessed.smi:1627|AV-procd|sdf|6518|dock7
  -GOLD-   22720 7193D 1   1.00000     0.00000
 Structure written by MMmdl.
 44 45  0  0  0  0  0  0  0  0  2 V2000
  154.7906  133.2486  160.2901 C   0  0  0  0  0  0  0  0  0  0  0  0
  155.5008  134.4583  160.9156 C   0  0  2  0  0  0  0  0  0  0  0  0
  155.5864  134.2264  162.3191 O   0  0  0  0  0  0  0  0  0  0  0  0
  154.3659  133.8629  162.9568 C   0  0  0  0  0  0  0  0  0  0  0  0
  154.3465  134.4351  164.3793 C   0  0  0  0  0  0  0  0  0  0  0  0
  153.5386  133.6962  165.1387 F   0  0  0  0  0  0  0  0  0  0  0  0
  155.5716  134.4059  164.9030 F   0  0  0  0  0  0  0  0  0  0  0  0
  153.8933  135.6884  164.3665 F   0  0  0  0  0  0  0  0  0  0  0  0
  154.7341  135.7611  160.6351 C   0  0  0  0  0  0  0  0  0  0  0  0
  153.6901  135.7211  159.9858 O   0  0  0  0  0  0  0  0  0  0  0  0
  155.2807  136.8804  161.1468 N   0  0  0  0  0  0  0  0  0  0  0  0
  154.8246  138.2263  161.0739 C   0  0  0  0  0  0  0  0  0  0  0  0
  154.0074  138.5748  159.9760 C   0  0  0  0  0  0  0  0  0  0  0  0
  153.5316  139.8955  159.8446 C   0  0  0  0  0  0  0  0  0  0  0  0
  153.8842  140.8573  160.8179 C   0  0  0  0  0  0  0  0  0  0  0  0
  153.4653  142.1933  160.7709 N   0  0  0  0  0  0  0  0  0  0  0  0
  152.7898  142.6213  161.9933 C   0  0  0  0  0  0  0  0  0  0  0  0
  152.5197  144.1360  161.9685 C   0  0  0  0  0  0  0  0  0  0  0  0
  151.7497  144.5370  160.7000 C   0  0  0  0  0  0  0  0  0  0  0  0
  152.4918  144.0385  159.4497 C   0  0  0  0  0  0  0  0  0  0  0  0
  152.7577  142.5258  159.5371 C   0  0  0  0  0  0  0  0  0  0  0  0
  154.6690  140.4889  161.8529 N   0  3  0  0  0  0  0  0  0  0  0  0
  155.1458  139.2355  162.0161 C   0  0  0  0  0  0  0  0  0  0  0  0
  154.6781  133.3689  159.2120 H   0  0  0  0  0  0  0  0  0  0  0  0
  153.7977  133.0993  160.7163 H   0  0  0  0  0  0  0  0  0  0  0  0
  155.3611  132.3356  160.4611 H   0  0  0  0  0  0  0  0  0  0  0  0
  156.5068  134.5183  160.4954 H   0  0  0  0  0  0  0  0  0  0  0  0
  153.5200  134.2564  162.3911 H   0  0  0  0  0  0  0  0  0  0  0  0
  154.2539  132.7790  163.0000 H   0  0  0  0  0  0  0  0  0  0  0  0
  156.1531  136.7489  161.6379 H   0  0  0  0  0  0  0  0  0  0  0  0
  153.7435  137.8351  159.2341 H   0  0  0  0  0  0  0  0  0  0  0  0
  152.9054  140.1624  159.0055 H   0  0  0  0  0  0  0  0  0  0  0  0
  151.8485  142.0800  162.0989 H   0  0  0  0  0  0  0  0  0  0  0  0
  153.4027  142.3696  162.8598 H   0  0  0  0  0  0  0  0  0  0  0  0
  151.9601  144.4313  162.8566 H   0  0  0  0  0  0  0  0  0  0  0  0
  153.4669  144.6762  162.0055 H   0  0  0  0  0  0  0  0  0  0  0  0
  150.7469  144.1091  160.7275 H   0  0  0  0  0  0  0  0  0  0  0  0
  151.6263  145.6199  160.6591 H   0  0  0  0  0  0  0  0  0  0  0  0
  151.9135  144.2657  158.5536 H   0  0  0  0  0  0  0  0  0  0  0  0
  153.4389  144.5705  159.3508 H   0  0  0  0  0  0  0  0  0  0  0  0
  153.3465  142.2032  158.6773 H   0  0  0  0  0  0  0  0  0  0  0  0
  151.8123  141.9828  159.4999 H   0  0  0  0  0  0  0  0  0  0  0  0
  155.7656  139.1072  162.8897 H   0  0  0  0  0  0  0  0  0  0  0  0
  154.9172  141.1946  162.5470 H   0  0  0  0  0  0  0  0  0  0  0  0
  1  2  1  0  0  0  0
  1 24  1  0  0  0  0
  1 25  1  0  0  0  0
  1 26  1  0  0  0  0
  2  3  1  0  0  0  0
  2  9  1  0  0  0  0
  2 27  1  0  0  0  0
  3  4  1  0  0  0  0
  4  5  1  0  0  0  0
  4 28  1  0  0  0  0
  4 29  1  0  0  0  0
  5  6  1  0  0  0  0
  5  7  1  0  0  0  0
  5  8  1  0  0  0  0
  9 10  2  0  0  0  0
  9 11  1  0  0  0  0
 11 12  1  0  0  0  0
 11 30  1  0  0  0  0
 12 23  1  0  0  0  0
 12 13  2  0  0  0  0
 13 14  1  0  0  0  0
 13 31  1  0  0  0  0
 14 15  2  0  0  0  0
 14 32  1  0  0  0  0
 15 16  1  0  0  0  0
 15 22  1  0  0  0  0
 16 21  1  0  0  0  0
 16 17  1  0  0  0  0
 17 18  1  0  0  0  0
 17 33  1  0  0  0  0
 17 34  1  0  0  0  0
 18 19  1  0  0  0  0
 18 35  1  0  0  0  0
 18 36  1  0  0  0  0
 19 20  1  0  0  0  0
 19 37  1  0  0  0  0
 19 38  1  0  0  0  0
 20 21  1  0  0  0  0
 20 39  1  0  0  0  0
 20 40  1  0  0  0  0
 21 41  1  0  0  0  0
 21 42  1  0  0  0  0
 22 23  2  0  0  0  0
 22 44  1  0  0  0  0
 23 43  1  0  0  0  0
M  CHG  1  22   1
M  END
> <s_m_source_file>
AV-unprocessed.smi

> <i_m_source_file_index>
1627

> <i_lp_mmshare_version>
43012

> <i_f3d_flags>
0

> <s_epik_input>
RkMoRikoRilbQ0gyXU9bQ0BASF0oW0NIM10pQyg9TylbTkhdYzFbY0hdW2NIXWMobltjSF0xKU4yW0NIMl1bQ0gyXVtDSDJdW0NIMl1bQ0gyXTI=

> <s_epik_cmdline>
J2VwaWtfcHl0aG9uJywgJy1waCcsICc3LjAnLCAnLXRuJywgJzgnLCAnLW1hJywgJzIwMCcsICctbWV0YWxfYmluZGluZycsICctaW1hZScsICc8aW5maWxlLm1hZT4nLCAnLW9tYWUnLCAnPG91dGZpbGUubWFlPic=

> <r_lp_tautomer_probability>
0.999994

> <r_epik_Ionization_Penalty>
1.93197

> <r_epik_Ionization_Penalty_Charging>
1.93197

> <r_epik_Ionization_Penalty_Neutral>
3.16684e-06

> <r_epik_State_Penalty>
2.05557

> <r_epik_Charging_Adjusted_Penalty>
3.98754

> <i_epik_Tot_Q>
1

> <i_epik_Tot_abs_Q>
1

> <r_epik_Metal_State_Penalty>
2.08108

> <b_epik_Metal_Only>
0

> <s_lp_Force_Field>
OPLS_2005

> <r_lp_Energy>
33.3851

> <b_lp_Chiralities_Consistent>
1

> <s_lp_Variant>
AV-unprocessed.smi:1627-3

> <Gold.Version>
5.8.1

> <Gold.Id.Protein>
6NUR|6NUR_protein|mol2

> <Gold.PLP.Fitness>
46.3402

> <Gold.PLP.PLP>
-44.9420

> <Gold.PLP.part.hbond>
-1.0841

> <Gold.PLP.part.metal>
0.0000

> <Gold.PLP.part.buried>
-6.0821

> <Gold.PLP.part.nonpolar>
-37.4951

> <Gold.PLP.part.repulsive>
0.0016

> <Gold.PLP.ligand.clash>
0.0000

> <Gold.PLP.ligand.torsion>
0.9003

> <Gold.PLP.Chemscore.Hbond>
1.0000

> <Gold.PLP.Chemscore.CHOScore>
0.0000

> <Gold.PLP.Chemscore.Metal>
0.0000

> <Gold.Chemscore.Hbonds>
donor molecule, donor type, donor heavy atom, donor atom, acceptor molecule, acceptor atom, score
      P1  H  6896  6909       L1    10  1.00

> <Gold.PLP.Chemscore.Internal.Correction>
0.1988

> <Gold.Rescore>
     Score         DG    S(hbond)    S(metal)    S(lipo)     H(rot)  DE(clash)    DE(int)     intcor
     14.03     -16.31       1.00        0.00     105.61       1.90       0.07       2.21       ----

> <Gold.Chemscore.Fitness>
14.0338

> <Gold.Chemscore.DG>
-16.3108

> <Gold.Chemscore.ZeroCoef>
-5.4800

> <Gold.Chemscore.Hbond>
1.0000

> <Gold.Chemscore.Metal>
0.0000

> <Gold.Chemscore.Lipo>
105.6109

> <Gold.Chemscore.Internal_Hbond>
0.0000

> <Gold.Chemscore.DEClash>
0.0707

> <Gold.Chemscore.DEInternal>
2.2063

> <Gold.Chemscore.Rot>
1.9007

> <Gold.Chemscore.Internal.Correction>
   9.000000E+99

> <Gold.Chemscore.Hbonds>
donor molecule, donor type, donor heavy atom, donor atom, acceptor molecule, acceptor atom, score
      P1  H  6896  6909       L1    10  0.99

> <Gold.Chemscore.Hbond.Weighted>
-3.3400

> <Gold.Chemscore.Metal.Weighted>
-0.0000

> <Gold.Chemscore.Lipo.Weighted>
-12.3565

> <Gold.Chemscore.Internal_Hbond.Weighted>
0.0000

> <Gold.Chemscore.DEClash.Weighted>
0.0707

> <Gold.Chemscore.DEInternal.Weighted>
2.2063

> <Gold.Chemscore.Rot.Weighted>
4.8657

> <Gold.Chemscore.Internal.Correction.Weighted>
   9.000000E+99

> <Gold.Protein.RotatedTorsions>
[ 6907 6896 6895 6894 ] final  164.83 input  -60.11 | X-H torsion
[ 7974 7965 7964 7962 ] final -123.37 input  175.53 | X-H torsion
[ 8008 7997 7996 7995 ] final  170.12 input   59.86 | X-H torsion
[ 10167 10162 10161 10158 ] final  -66.43 input  -65.29 | X-H torsion
[ 10718 10713 10712 10709 ] final -153.95 input   66.30 | X-H torsion
[ 10763 10752 10751 10750 ] final -153.78 input  -60.55 | X-H torsion
[ 11005 11000 10999 10996 ] final -111.14 input  -57.11 | X-H torsion

> <Gold.Protein.ActiveResidues>
 VAL166  LYS551  ARG553  GLY616  TRP617  ASP618  TYR619  PRO620  LYS621  CYS622 
 ASP623  PHE694  ASN695  SER759  ASP760  ASP761  ALA762  ILE779  LEU786  VAL792 
 PHE793  MET794  SER795  GLU796  ALA797  LYS798  CYS799  TRP800  GLU811  SER814 

> <Gold.Protein.RotatedAtoms>
  151.9038  133.3544  159.3839 H   0  0  0  0  0  0  0  0  0  0  0  0  # atno 6907 bound_to 6896
  150.7074  134.4801  159.5475 H   0  0  0  0  0  0  0  0  0  0  0  0  # atno 6908 bound_to 6896
  152.2394  134.8243  160.0513 H   0  0  0  0  0  0  0  0  0  0  0  0  # atno 6909 bound_to 6896
  145.0194  140.7975  143.4390 H   0  0  0  0  0  0  0  0  0  0  0  0  # atno 7974 bound_to 7965
  156.1395  140.1546  156.8942 H   0  0  0  0  0  0  0  0  0  0  0  0  # atno 8008 bound_to 7997
  154.4975  140.0834  156.7767 H   0  0  0  0  0  0  0  0  0  0  0  0  # atno 8009 bound_to 7997
  155.4105  140.3418  155.4265 H   0  0  0  0  0  0  0  0  0  0  0  0  # atno 8010 bound_to 7997
  140.5657  143.2314  151.6639 H   0  0  0  0  0  0  0  0  0  0  0  0  # atno 10167 bound_to 10162
  156.4928  130.8355  151.2577 H   0  0  0  0  0  0  0  0  0  0  0  0  # atno 10718 bound_to 10713
  154.7904  135.3205  154.7790 H   0  0  0  0  0  0  0  0  0  0  0  0  # atno 10763 bound_to 10752
  153.8481  135.6865  153.4799 H   0  0  0  0  0  0  0  0  0  0  0  0  # atno 10764 bound_to 10752
  153.1572  135.4675  154.9661 H   0  0  0  0  0  0  0  0  0  0  0  0  # atno 10765 bound_to 10752
  141.0751  133.9314  157.2405 H   0  0  0  0  0  0  0  0  0  0  0  0  # atno 11005 bound_to 11000
  145.1915  139.2298  143.5240 LP  0  0  0  0  0  0  0  0  0  0  0  0  # atno 17320 bound_to 7965
  146.3483  140.1712  142.8589 LP  0  0  0  0  0  0  0  0  0  0  0  0  # atno 17321 bound_to 7965
  139.5092  144.3585  152.0584 LP  0  0  0  0  0  0  0  0  0  0  0  0  # atno 17342 bound_to 10162
  140.2717  144.3957  150.6149 LP  0  0  0  0  0  0  0  0  0  0  0  0  # atno 17343 bound_to 10162
  157.7472  131.0008  150.2939 LP  0  0  0  0  0  0  0  0  0  0  0  0  # atno 17370 bound_to 10713
  156.3410  130.3815  149.7409 LP  0  0  0  0  0  0  0  0  0  0  0  0  # atno 17371 bound_to 10713
  139.9564  135.0164  156.9139 LP  0  0  0  0  0  0  0  0  0  0  0  0  # atno 17394 bound_to 11000
  140.5590  134.0554  155.7392 LP  0  0  0  0  0  0  0  0  0  0  0  0  # atno 17395 bound_to 11000

$$$$
