#       Name:                AV-unprocessed.smi:36
#       Creating user name   scv26
#       Creation time:       Thu Mar 26 16:05:47 2020


#       File generated by GOLD software.
#

@<TRIPOS>MOLECULE
AV-unprocessed.smi:36
    73    76     1
SMALL
NO_CHARGES


@<TRIPOS>ATOM
      1 ****        -6.1115   5.0703   1.1945 C.3            1 S1                 0.0000
      2 ****        -5.0785   3.9339   1.2815 C.3            1 S1                 0.0000
      3 ****        -4.0795   4.2405   2.4102 C.3            1 S1                 0.0000
      4 ****        -5.7920   2.6029   1.5719 C.3            1 S1                 0.0000
      5 ****        -4.1607   3.7955  -0.3950 Si             1 S1                 0.0000
      6 ****        -5.4066   3.5294  -1.8042 C.3            1 S1                 0.0000
      7 ****        -3.1207   5.3485  -0.7415 C.3            1 S1                 0.0000
      8 ****        -3.1382   2.4456  -0.3665 O.3            1 S1                 0.0000
      9 ****        -1.8013   2.4729   0.0908 C.3            1 S1                 0.0000
     10 ****        -1.2837   1.0344   0.2387 C.3            1 S1                 0.0000
     11 ****         0.0694   1.0177   0.6805 O.3            1 S1                 0.0000
     12 ****         0.3295  -0.1544   1.3958 C.3            1 S1                 0.0000
     13 ****         1.3298  -0.9586   0.6343 N.pl3          1 S1                 0.0000
     14 ****         1.5389  -1.0205  -0.7267 C.2            1 S1                 0.0000
     15 ****         2.4965  -1.8236  -1.1077 N.2            1 S1                 0.0000
     16 ****         2.9811  -2.3574   0.0801 C.ar           1 S1                 0.0000
     17 ****         4.0099  -3.2826   0.3973 C.ar           1 S1                 0.0000
     18 ****         4.7518  -3.8412  -0.5877 N.am           1 S1                 0.0000
     19 ****         5.9245  -4.6880  -0.4555 C.2            1 S1                 0.0000
     20 ****         6.3531  -5.0462   0.6419 O.2            1 S1                 0.0000
     21 ****         6.5453  -5.1635  -1.7372 C.ar           1 S1                 0.0000
     22 ****         7.2514  -6.3873  -1.7680 C.ar           1 S1                 0.0000
     23 ****         7.8537  -6.8341  -2.9602 C.ar           1 S1                 0.0000
     24 ****         7.7611  -6.0577  -4.1307 C.ar           1 S1                 0.0000
     25 ****         7.0691  -4.8323  -4.1070 C.ar           1 S1                 0.0000
     26 ****         6.4667  -4.3841  -2.9151 C.ar           1 S1                 0.0000
     27 ****         4.1990  -3.5807   1.7100 N.ar           1 S1                 0.0000
     28 ****         3.4371  -3.0093   2.6475 C.ar           1 S1                 0.0000
     29 ****         2.4468  -2.1274   2.4944 N.ar           1 S1                 0.0000
     30 ****         2.2517  -1.8244   1.1788 C.ar           1 S1                 0.0000
     31 ****        -0.9862  -0.9319   1.5164 C.3            1 S1                 0.0000
     32 ****        -2.0226   0.1383   1.2401 C.3            1 S1                 0.0000
     33 ****        -2.3663   0.8263   2.4278 O.3            1 S1                 0.0000
     34 ****        -6.6587   5.1813   2.1313 H              1 S1                 0.0000
     35 ****        -6.8447   4.8841   0.4094 H              1 S1                 0.0000
     36 ****        -5.6329   6.0259   0.9785 H              1 S1                 0.0000
     37 ****        -3.5174   5.1527   2.2096 H              1 S1                 0.0000
     38 ****        -3.3639   3.4314   2.5447 H              1 S1                 0.0000
     39 ****        -4.5919   4.3764   3.3634 H              1 S1                 0.0000
     40 ****        -6.3222   2.6366   2.5243 H              1 S1                 0.0000
     41 ****        -5.0831   1.7757   1.6187 H              1 S1                 0.0000
     42 ****        -6.5225   2.3656   0.7982 H              1 S1                 0.0000
     43 ****        -6.0870   4.3747  -1.9048 H              1 S1                 0.0000
     44 ****        -6.0142   2.6396  -1.6405 H              1 S1                 0.0000
     45 ****        -4.9024   3.4049  -2.7622 H              1 S1                 0.0000
     46 ****        -3.7403   6.2440  -0.7819 H              1 S1                 0.0000
     47 ****        -2.5976   5.2728  -1.6946 H              1 S1                 0.0000
     48 ****        -2.3669   5.5098   0.0288 H              1 S1                 0.0000
     49 ****        -1.1930   3.0111  -0.6364 H              1 S1                 0.0000
     50 ****        -1.7234   3.0188   1.0300 H              1 S1                 0.0000
     51 ****        -1.3060   0.5486  -0.7382 H              1 S1                 0.0000
     52 ****         0.7995   0.0788   2.3520 H              1 S1                 0.0000
     53 ****         0.9578  -0.4468  -1.4336 H              1 S1                 0.0000
     54 ****         4.4733  -3.6177  -1.5320 H              1 S1                 0.0000
     55 ****         7.3337  -6.9942  -0.8778 H              1 S1                 0.0000
     56 ****         8.3882  -7.7724  -2.9756 H              1 S1                 0.0000
     57 ****         8.2237  -6.4001  -5.0445 H              1 S1                 0.0000
     58 ****         7.0027  -4.2337  -5.0035 H              1 S1                 0.0000
     59 ****         5.9490  -3.4359  -2.9184 H              1 S1                 0.0000
     60 ****         3.6525  -3.3001   3.6650 H              1 S1                 0.0000
     61 ****        -1.0329  -1.7018   0.7442 H              1 S1                 0.0000
     62 ****        -1.0786  -1.4094   2.4925 H              1 S1                 0.0000
     63 ****        -2.9331  -0.2806   0.8105 H              1 S1                 0.0000
     64 ****        -2.9840   1.5079   2.2104 H              1 S1                 0.0000
     65 ****         0.2339   1.8081   1.2706 LP             1 S1                 0.0000
     66 ****         0.6764   1.0620  -0.1129 LP             1 S1                 0.0000
     67 ****         2.8086  -2.0108  -2.0391 LP             1 S1                 0.0000
     68 ****         5.8908  -4.7537   1.4790 LP             1 S1                 0.0000
     69 ****         7.1634  -5.6296   0.6961 LP             1 S1                 0.0000
     70 ****         4.9113  -4.2304   1.9754 LP             1 S1                 0.0000
     71 ****         1.9160  -1.7387   3.2476 LP             1 S1                 0.0000
     72 ****        -1.5464   1.2306   2.8331 LP             1 S1                 0.0000
     73 ****        -2.7808   0.1901   3.0786 LP             1 S1                 0.0000
@<TRIPOS>BOND
    1    1    2 1     
    2    1   34 1     
    3    1   35 1     
    4    1   36 1     
    5    2    3 1     
    6    2    4 1     
    7    2    5 1     
    8    3   37 1     
    9    3   38 1     
   10    3   39 1     
   11    4   40 1     
   12    4   41 1     
   13    4   42 1     
   14    5    6 1     
   15    5    7 1     
   16    5    8 1     
   17    6   43 1     
   18    6   44 1     
   19    6   45 1     
   20    7   46 1     
   21    7   47 1     
   22    7   48 1     
   23    8    9 1     
   24    9   10 1     
   25    9   49 1     
   26    9   50 1     
   27   10   32 1     
   28   10   11 1     
   29   10   51 1     
   30   11   12 1     
   31   12   13 1     
   32   12   31 1     
   33   12   52 1     
   34   13   30 1     
   35   13   14 1     
   36   14   15 2     
   37   14   53 1     
   38   15   16 1     
   39   16   30 ar    
   40   16   17 ar    
   41   17   18 1     
   42   17   27 ar    
   43   18   19 am    
   44   18   54 1     
   45   19   20 2     
   46   19   21 1     
   47   21   26 ar    
   48   21   22 ar    
   49   22   23 ar    
   50   22   55 1     
   51   23   24 ar    
   52   23   56 1     
   53   24   25 ar    
   54   24   57 1     
   55   25   26 ar    
   56   25   58 1     
   57   26   59 1     
   58   27   28 ar    
   59   28   29 ar    
   60   28   60 1     
   61   29   30 ar    
   62   31   32 1     
   63   31   61 1     
   64   31   62 1     
   65   32   33 1     
   66   32   63 1     
   67   33   64 1     
   68   11   65 1     
   69   11   66 1     
   70   15   67 1     
   71   20   68 1     
   72   20   69 1     
   73   27   70 1     
   74   29   71 1     
   75   33   72 1     
   76   33   73 1     
@<TRIPOS>SUBSTRUCTURE
      1 S1             1
@<TRIPOS>SET
LONE_PAIRS      STATIC     ATOMS    <user>   **** ""
9 65 66 67 68 69 70 71 72 73
DONOR_HYDROGENS      STATIC     ATOMS    <user>   **** ""
2 54 64
ATOM$BLUE        STATIC     ATOMS    COLORGROUP SYSTEM
9 65 66 67 68 69 70 71 72 73
ATOM$RED        STATIC     ATOMS    COLORGROUP SYSTEM
2 54 64
