AV-unprocessed.smi:3030|AV-procd|sdf|11537|dock4
  -GOLD-   2272016483D 1   1.00000     0.00000
 Structure written by MMmdl.
 52 53  0  0  0  0  0  0  0  0  1 V2000
  150.7875  140.3602  158.0437 C   0  0  0  0  0  0  0  0  0  0  0  0
  151.1998  140.9060  156.6722 C   0  0  0  0  0  0  0  0  0  0  0  0
  150.1585  140.7030  155.6752 N   0  0  0  0  0  0  0  0  0  0  0  0
  149.4942  141.7777  155.0929 C   0  0  0  0  0  0  0  0  0  0  0  0
  148.4830  141.6523  154.2116 C   0  0  0  0  0  0  0  0  0  0  0  0
  148.0258  140.3029  153.8217 C   0  0  0  0  0  0  0  0  0  0  0  0
  147.1021  140.1510  153.0224 O   0  0  0  0  0  0  0  0  0  0  0  0
  148.7369  139.1544  154.4429 C   0  0  0  0  0  0  0  0  0  0  0  0
  148.2912  137.8734  154.0793 N   0  0  0  0  0  0  0  0  0  0  0  0
  147.5253  137.0132  154.7749 C   0  0  0  0  0  0  0  0  0  0  0  0
  147.1000  137.1883  155.9165 O   0  0  0  0  0  0  0  0  0  0  0  0
  147.2859  135.9045  154.0609 N   0  0  0  0  0  0  0  0  0  0  0  0
  146.4994  134.7530  154.5067 C   0  0  2  0  0  0  0  0  0  0  0  0
  147.2671  133.9561  155.5821 C   0  0  0  0  0  0  0  0  0  0  0  0
  148.4875  133.2132  155.0095 C   0  0  1  0  0  0  0  0  0  0  0  0
  149.2239  132.4196  156.0980 C   0  0  0  0  0  0  0  0  0  0  0  0
  148.0482  132.3068  153.8493 C   0  0  0  0  0  0  0  0  0  0  0  0
  147.3107  133.0974  152.7571 C   0  0  0  0  0  0  0  0  0  0  0  0
  146.0773  133.8591  153.3054 C   0  0  2  0  0  0  0  0  0  0  0  0
  145.3051  134.6327  152.1917 C   0  0  0  0  0  0  0  0  0  0  0  0
  143.9557  135.1910  152.6848 C   0  0  0  0  0  0  0  0  0  0  0  0
  145.0566  133.7758  150.9355 C   0  0  0  0  0  0  0  0  0  0  0  0
  149.7354  139.4232  155.3224 C   0  0  0  0  0  0  0  0  0  0  0  0
  151.5777  140.5192  158.7774 H   0  0  0  0  0  0  0  0  0  0  0  0
  150.5860  139.2897  157.9974 H   0  0  0  0  0  0  0  0  0  0  0  0
  149.8883  140.8561  158.4106 H   0  0  0  0  0  0  0  0  0  0  0  0
  151.4263  141.9701  156.7493 H   0  0  0  0  0  0  0  0  0  0  0  0
  152.1198  140.4217  156.3425 H   0  0  0  0  0  0  0  0  0  0  0  0
  149.8591  142.7468  155.4012 H   0  0  0  0  0  0  0  0  0  0  0  0
  147.9977  142.5169  153.7829 H   0  0  0  0  0  0  0  0  0  0  0  0
  148.6153  137.5580  153.1764 H   0  0  0  0  0  0  0  0  0  0  0  0
  147.6789  135.8474  153.1327 H   0  0  0  0  0  0  0  0  0  0  0  0
  145.5913  135.1166  154.9888 H   0  0  0  0  0  0  0  0  0  0  0  0
  147.5787  134.6229  156.3873 H   0  0  0  0  0  0  0  0  0  0  0  0
  146.5881  133.2335  156.0373 H   0  0  0  0  0  0  0  0  0  0  0  0
  149.1873  133.9517  154.6159 H   0  0  0  0  0  0  0  0  0  0  0  0
  148.5790  131.6594  156.5401 H   0  0  0  0  0  0  0  0  0  0  0  0
  149.5630  133.0764  156.8995 H   0  0  0  0  0  0  0  0  0  0  0  0
  150.1018  131.9164  155.6918 H   0  0  0  0  0  0  0  0  0  0  0  0
  148.9173  131.8114  153.4148 H   0  0  0  0  0  0  0  0  0  0  0  0
  147.3987  131.5146  154.2243 H   0  0  0  0  0  0  0  0  0  0  0  0
  148.0003  133.7974  152.2837 H   0  0  0  0  0  0  0  0  0  0  0  0
  147.0143  132.3895  151.9844 H   0  0  0  0  0  0  0  0  0  0  0  0
  145.3928  133.1067  153.7014 H   0  0  0  0  0  0  0  0  0  0  0  0
  145.9103  135.4840  151.8776 H   0  0  0  0  0  0  0  0  0  0  0  0
  143.3236  134.4000  153.0894 H   0  0  0  0  0  0  0  0  0  0  0  0
  143.4069  135.6697  151.8733 H   0  0  0  0  0  0  0  0  0  0  0  0
  144.0844  135.9486  153.4575 H   0  0  0  0  0  0  0  0  0  0  0  0
  144.5388  132.8487  151.1827 H   0  0  0  0  0  0  0  0  0  0  0  0
  145.9839  133.5201  150.4245 H   0  0  0  0  0  0  0  0  0  0  0  0
  144.4444  134.3114  150.2093 H   0  0  0  0  0  0  0  0  0  0  0  0
  150.2878  138.6520  155.8355 H   0  0  0  0  0  0  0  0  0  0  0  0
  1  2  1  0  0  0  0
  1 24  1  0  0  0  0
  1 25  1  0  0  0  0
  1 26  1  0  0  0  0
  2  3  1  0  0  0  0
  2 27  1  0  0  0  0
  2 28  1  0  0  0  0
  3 23  1  0  0  0  0
  3  4  1  0  0  0  0
  4  5  2  0  0  0  0
  4 29  1  0  0  0  0
  5  6  1  0  0  0  0
  5 30  1  0  0  0  0
  6  7  2  0  0  0  0
  6  8  1  0  0  0  0
  8  9  1  0  0  0  0
  8 23  2  0  0  0  0
  9 10  1  0  0  0  0
  9 31  1  0  0  0  0
 10 11  2  0  0  0  0
 10 12  1  0  0  0  0
 12 13  1  0  0  0  0
 12 32  1  0  0  0  0
 13 19  1  0  0  0  0
 13 14  1  0  0  0  0
 13 33  1  0  0  0  0
 14 15  1  0  0  0  0
 14 34  1  0  0  0  0
 14 35  1  0  0  0  0
 15 16  1  0  0  0  0
 15 17  1  0  0  0  0
 15 36  1  0  0  0  0
 16 37  1  0  0  0  0
 16 38  1  0  0  0  0
 16 39  1  0  0  0  0
 17 18  1  0  0  0  0
 17 40  1  0  0  0  0
 17 41  1  0  0  0  0
 18 19  1  0  0  0  0
 18 42  1  0  0  0  0
 18 43  1  0  0  0  0
 19 20  1  0  0  0  0
 19 44  1  0  0  0  0
 20 21  1  0  0  0  0
 20 22  1  0  0  0  0
 20 45  1  0  0  0  0
 21 46  1  0  0  0  0
 21 47  1  0  0  0  0
 21 48  1  0  0  0  0
 22 49  1  0  0  0  0
 22 50  1  0  0  0  0
 22 51  1  0  0  0  0
 23 52  1  0  0  0  0
M  END
> <s_m_source_file>
AV-unprocessed.smi

> <i_m_source_file_index>
3030

> <i_lp_mmshare_version>
43012

> <i_f3d_flags>
0

> <s_epik_input>
W0NIM11bQ0gyXW4xW2NIXVtjSF1jKD1PKWMoW2NIXTEpW05IXUMoPU8pW05IXVtDQEBIXTJbQ0gyXVtDQEBIXShbQ0gzXSlbQ0gyXVtDSDJdW0NASF0yW0NIXShbQ0gzXSlbQ0gzXQ==

> <s_epik_cmdline>
J2VwaWtfcHl0aG9uJywgJy1waCcsICc3LjAnLCAnLXRuJywgJzgnLCAnLW1hJywgJzIwMCcsICctbWV0YWxfYmluZGluZycsICctaW1hZScsICc8aW5maWxlLm1hZT4nLCAnLW9tYWUnLCAnPG91dGZpbGUubWFlPic=

> <r_lp_tautomer_probability>
1

> <r_epik_Ionization_Penalty>
0.00147933

> <r_epik_Ionization_Penalty_Charging>
0.00145753

> <r_epik_Ionization_Penalty_Neutral>
2.17987e-05

> <r_epik_State_Penalty>
0.00097457

> <r_epik_Charging_Adjusted_Penalty>
0.0024321

> <i_epik_Tot_Q>
0

> <i_epik_Tot_abs_Q>
0

> <r_epik_Metal_State_Penalty>
-0

> <b_epik_Metal_Only>
0

> <s_lp_Force_Field>
OPLS_2005

> <r_lp_Energy>
9.06052

> <b_lp_Chiralities_Consistent>
1

> <s_lp_Variant>
AV-unprocessed.smi:3030-5

> <Gold.Version>
5.8.1

> <Gold.Id.Protein>
6NUR|6NUR_protein|mol2

> <Gold.PLP.Fitness>
42.7608

> <Gold.PLP.PLP>
-35.9616

> <Gold.PLP.part.hbond>
-1.7376

> <Gold.PLP.part.metal>
0.0000

> <Gold.PLP.part.buried>
-2.4563

> <Gold.PLP.part.nonpolar>
-32.6864

> <Gold.PLP.part.repulsive>
0.2371

> <Gold.PLP.ligand.clash>
0.0000

> <Gold.PLP.ligand.torsion>
0.9829

> <Gold.PLP.Chemscore.Hbond>
1.8720

> <Gold.PLP.Chemscore.CHOScore>
1.0000

> <Gold.PLP.Chemscore.Metal>
0.0000

> <Gold.Chemscore.Hbonds>
donor molecule, donor type, donor heavy atom, donor atom, acceptor molecule, acceptor atom, score
      L1  H     9    31       P1  7948  1.00
      L1  H    12    32       P1  7948  1.00
      L1  C     4    29       P1  8028  1.00

> <Gold.PLP.Chemscore.Internal.Correction>
0.1490

> <Gold.Rescore>
     Score         DG    S(hbond)    S(metal)    S(lipo)     H(rot)  DE(clash)    DE(int)     intcor
     16.77     -17.77       1.79        0.00      81.65       1.27       0.07       0.93       ----

> <Gold.Chemscore.Fitness>
16.7689

> <Gold.Chemscore.DG>
-17.7678

> <Gold.Chemscore.ZeroCoef>
-5.4800

> <Gold.Chemscore.Hbond>
1.7910

> <Gold.Chemscore.Metal>
0.0000

> <Gold.Chemscore.Lipo>
81.6530

> <Gold.Chemscore.Internal_Hbond>
0.0000

> <Gold.Chemscore.DEClash>
0.0707

> <Gold.Chemscore.DEInternal>
0.9282

> <Gold.Chemscore.Rot>
1.2685

> <Gold.Chemscore.Internal.Correction>
   9.000000E+99

> <Gold.Chemscore.Hbonds>
donor molecule, donor type, donor heavy atom, donor atom, acceptor molecule, acceptor atom, score
      L1  H     9    31       P1  7948  0.98
      L1  H    12    32       P1  7948  0.98

> <Gold.Chemscore.Hbond.Weighted>
-5.9818

> <Gold.Chemscore.Metal.Weighted>
-0.0000

> <Gold.Chemscore.Lipo.Weighted>
-9.5534

> <Gold.Chemscore.Internal_Hbond.Weighted>
0.0000

> <Gold.Chemscore.DEClash.Weighted>
0.0707

> <Gold.Chemscore.DEInternal.Weighted>
0.9282

> <Gold.Chemscore.Rot.Weighted>
3.2474

> <Gold.Chemscore.Internal.Correction.Weighted>
   9.000000E+99

> <Gold.Protein.RotatedTorsions>
[ 6907 6896 6895 6894 ] final  -35.76 input  -60.11 | X-H torsion
[ 7974 7965 7964 7962 ] final  131.96 input  175.53 | X-H torsion
[ 8008 7997 7996 7995 ] final  -64.99 input   59.86 | X-H torsion
[ 10167 10162 10161 10158 ] final  -60.03 input  -65.29 | X-H torsion
[ 10718 10713 10712 10709 ] final  104.54 input   66.30 | X-H torsion
[ 10763 10752 10751 10750 ] final -118.95 input  -60.55 | X-H torsion
[ 11005 11000 10999 10996 ] final  -92.78 input  -57.11 | X-H torsion

> <Gold.Protein.ActiveResidues>
 VAL166  LYS551  ARG553  GLY616  TRP617  ASP618  TYR619  PRO620  LYS621  CYS622 
 ASP623  PHE694  ASN695  SER759  ASP760  ASP761  ALA762  ILE779  LEU786  VAL792 
 PHE793  MET794  SER795  GLU796  ALA797  LYS798  CYS799  TRP800  GLU811  SER814 

> <Gold.Protein.RotatedAtoms>
  151.0357  134.9571  159.8134 H   0  0  0  0  0  0  0  0  0  0  0  0  # atno 6907 bound_to 6896
  152.5354  134.2723  159.8986 H   0  0  0  0  0  0  0  0  0  0  0  0  # atno 6908 bound_to 6896
  151.2733  133.4202  159.2656 H   0  0  0  0  0  0  0  0  0  0  0  0  # atno 6909 bound_to 6896
  145.0019  139.4304  143.5288 H   0  0  0  0  0  0  0  0  0  0  0  0  # atno 7974 bound_to 7965
  154.4645  140.0942  156.6982 H   0  0  0  0  0  0  0  0  0  0  0  0  # atno 8008 bound_to 7997
  155.4899  140.3470  155.4335 H   0  0  0  0  0  0  0  0  0  0  0  0  # atno 8009 bound_to 7997
  156.0930  140.1402  156.9555 H   0  0  0  0  0  0  0  0  0  0  0  0  # atno 8010 bound_to 7997
  140.6097  143.2383  151.5738 H   0  0  0  0  0  0  0  0  0  0  0  0  # atno 10167 bound_to 10162
  157.6736  131.0806  150.5722 H   0  0  0  0  0  0  0  0  0  0  0  0  # atno 10718 bound_to 10713
  154.8603  135.4255  154.2221 H   0  0  0  0  0  0  0  0  0  0  0  0  # atno 10763 bound_to 10752
  153.3224  135.6983  153.7025 H   0  0  0  0  0  0  0  0  0  0  0  0  # atno 10764 bound_to 10752
  153.6075  135.3525  155.2940 H   0  0  0  0  0  0  0  0  0  0  0  0  # atno 10765 bound_to 10752
  141.1513  133.7843  157.0068 H   0  0  0  0  0  0  0  0  0  0  0  0  # atno 11005 bound_to 11000
  146.3453  139.9412  142.8741 LP  0  0  0  0  0  0  0  0  0  0  0  0  # atno 17320 bound_to 7965
  145.2142  140.9908  143.4083 LP  0  0  0  0  0  0  0  0  0  0  0  0  # atno 17321 bound_to 7965
  139.5352  144.2802  152.1235 LP  0  0  0  0  0  0  0  0  0  0  0  0  # atno 17342 bound_to 10162
  140.1999  144.4669  150.6437 LP  0  0  0  0  0  0  0  0  0  0  0  0  # atno 17343 bound_to 10162
  156.6024  130.4358  149.5892 LP  0  0  0  0  0  0  0  0  0  0  0  0  # atno 17370 bound_to 10713
  156.2496  130.6899  151.1632 LP  0  0  0  0  0  0  0  0  0  0  0  0  # atno 17371 bound_to 10713
  140.0904  134.9596  157.1767 LP  0  0  0  0  0  0  0  0  0  0  0  0  # atno 17394 bound_to 11000
  140.3454  134.2658  155.7206 LP  0  0  0  0  0  0  0  0  0  0  0  0  # atno 17395 bound_to 11000

$$$$
