AV-unprocessed.smi:13|AV-procd|sdf|76|dock3
  -GOLD-   2262015203D 1   1.00000     0.00000
 Structure written by MMmdl.
 54 58  0  0  0  0  0  0  0  0  1 V2000
  148.2181  141.6894  153.7577 C   0  0  0  0  0  0  0  0  0  0  0  0
  148.6272  140.7338  154.8786 C   0  0  0  0  0  0  0  0  0  0  0  0
  149.5347  141.5323  155.8243 C   0  0  0  0  0  0  0  0  0  0  0  0
  147.4829  139.9641  155.5555 C   0  0  0  0  0  0  0  0  0  0  0  0
  148.3495  138.7993  155.5344 N   0  0  0  0  0  0  0  0  0  0  0  0
  147.6403  137.5818  155.3360 C   0  0  0  0  0  0  0  0  0  0  0  0
  147.7086  136.5605  156.2328 N   0  0  0  0  0  0  0  0  0  0  0  0
  147.0347  135.4243  156.0323 C   0  0  0  0  0  0  0  0  0  0  0  0
  146.2396  135.0960  155.0134 N   0  0  0  0  0  0  0  0  0  0  0  0
  146.1619  136.1109  154.1069 C   0  0  0  0  0  0  0  0  0  0  0  0
  146.8269  137.3668  154.1906 C   0  0  0  0  0  0  0  0  0  0  0  0
  146.5170  138.1418  153.0803 N   0  0  0  0  0  0  0  0  0  0  0  0
  145.7136  137.3881  152.3808 C   0  0  0  0  0  0  0  0  0  0  0  0
  145.4360  136.1556  152.9291 N   0  0  0  0  0  0  0  0  0  0  0  0
  144.5752  135.1239  152.3700 C   0  0  0  0  0  0  0  0  0  0  0  0
  145.1009  134.5266  151.0427 C   0  0  2  0  0  0  0  0  0  0  0  0
  145.1725  135.5509  150.0662 O   0  0  0  0  0  0  0  0  0  0  0  0
  144.2094  133.4151  150.5021 C   0  0  0  0  0  0  0  0  0  0  0  0
  145.1914  132.5341  149.7419 C   0  0  0  0  0  0  0  0  0  0  0  0
  146.3356  132.5451  150.5779 O   0  0  0  0  0  0  0  0  0  0  0  0
  146.4825  133.8460  151.1397 C   0  0  0  0  0  0  0  0  0  0  0  0
  149.1208  139.3431  154.4193 C   0  0  2  0  0  0  0  0  0  0  0  0
  150.6051  138.9614  154.4948 C   0  0  1  0  0  0  0  0  0  0  0  0
  151.2015  139.0389  155.9048 C   0  0  0  0  0  0  0  0  0  0  0  0
  150.8832  137.6772  156.4767 C   0  0  0  0  0  0  0  0  0  0  0  0
  151.0865  136.7895  155.2558 C   0  0  0  0  0  0  0  0  0  0  0  0
  150.6998  137.5820  154.1369 O   0  0  0  0  0  0  0  0  0  0  0  0
  147.6880  142.5599  154.1452 H   0  0  0  0  0  0  0  0  0  0  0  0
  147.5569  141.2034  153.0395 H   0  0  0  0  0  0  0  0  0  0  0  0
  149.0862  142.0488  153.2040 H   0  0  0  0  0  0  0  0  0  0  0  0
  149.8465  140.9378  156.6833 H   0  0  0  0  0  0  0  0  0  0  0  0
  149.0259  142.4136  156.2162 H   0  0  0  0  0  0  0  0  0  0  0  0
  150.4398  141.8727  155.3201 H   0  0  0  0  0  0  0  0  0  0  0  0
  147.2336  140.3074  156.5598 H   0  0  0  0  0  0  0  0  0  0  0  0
  146.5984  139.8528  154.9249 H   0  0  0  0  0  0  0  0  0  0  0  0
  147.1480  134.6717  156.7985 H   0  0  0  0  0  0  0  0  0  0  0  0
  145.2970  137.7157  151.4395 H   0  0  0  0  0  0  0  0  0  0  0  0
  144.4631  134.3368  153.1164 H   0  0  0  0  0  0  0  0  0  0  0  0
  143.5810  135.5485  152.2235 H   0  0  0  0  0  0  0  0  0  0  0  0
  145.6899  135.2382  149.3400 H   0  0  0  0  0  0  0  0  0  0  0  0
  143.7799  132.8402  151.3240 H   0  0  0  0  0  0  0  0  0  0  0  0
  143.3859  133.7739  149.8832 H   0  0  0  0  0  0  0  0  0  0  0  0
  144.8178  131.5224  149.5834 H   0  0  0  0  0  0  0  0  0  0  0  0
  145.4400  132.9687  148.7724 H   0  0  0  0  0  0  0  0  0  0  0  0
  147.2554  134.4005  150.6047 H   0  0  0  0  0  0  0  0  0  0  0  0
  146.8180  133.7307  152.1697 H   0  0  0  0  0  0  0  0  0  0  0  0
  148.6753  139.1102  153.4510 H   0  0  0  0  0  0  0  0  0  0  0  0
  151.1982  139.5581  153.8010 H   0  0  0  0  0  0  0  0  0  0  0  0
  152.2832  139.1624  155.8398 H   0  0  0  0  0  0  0  0  0  0  0  0
  150.8142  139.8599  156.5071 H   0  0  0  0  0  0  0  0  0  0  0  0
  151.5221  137.4027  157.3164 H   0  0  0  0  0  0  0  0  0  0  0  0
  149.8446  137.6391  156.8080 H   0  0  0  0  0  0  0  0  0  0  0  0
  152.1394  136.5264  155.1478 H   0  0  0  0  0  0  0  0  0  0  0  0
  150.5092  135.8663  155.3090 H   0  0  0  0  0  0  0  0  0  0  0  0
  1  2  1  0  0  0  0
  1 28  1  0  0  0  0
  1 29  1  0  0  0  0
  1 30  1  0  0  0  0
  2 22  1  0  0  0  0
  2  3  1  0  0  0  0
  2  4  1  0  0  0  0
  3 31  1  0  0  0  0
  3 32  1  0  0  0  0
  3 33  1  0  0  0  0
  4  5  1  0  0  0  0
  4 34  1  0  0  0  0
  4 35  1  0  0  0  0
  5  6  1  0  0  0  0
  5 22  1  0  0  0  0
  6 11  1  0  0  0  0
  6  7  2  0  0  0  0
  7  8  1  0  0  0  0
  8  9  2  0  0  0  0
  8 36  1  0  0  0  0
  9 10  1  0  0  0  0
 10 14  1  0  0  0  0
 10 11  2  0  0  0  0
 11 12  1  0  0  0  0
 12 13  2  0  0  0  0
 13 14  1  0  0  0  0
 13 37  1  0  0  0  0
 14 15  1  0  0  0  0
 15 16  1  0  0  0  0
 15 38  1  0  0  0  0
 15 39  1  0  0  0  0
 16 21  1  0  0  0  0
 16 17  1  0  0  0  0
 16 18  1  0  0  0  0
 17 40  1  0  0  0  0
 18 19  1  0  0  0  0
 18 41  1  0  0  0  0
 18 42  1  0  0  0  0
 19 20  1  0  0  0  0
 19 43  1  0  0  0  0
 19 44  1  0  0  0  0
 20 21  1  0  0  0  0
 21 45  1  0  0  0  0
 21 46  1  0  0  0  0
 22 23  1  0  0  0  0
 22 47  1  0  0  0  0
 23 27  1  0  0  0  0
 23 24  1  0  0  0  0
 23 48  1  0  0  0  0
 24 25  1  0  0  0  0
 24 49  1  0  0  0  0
 24 50  1  0  0  0  0
 25 26  1  0  0  0  0
 25 51  1  0  0  0  0
 25 52  1  0  0  0  0
 26 27  1  0  0  0  0
 26 53  1  0  0  0  0
 26 54  1  0  0  0  0
M  END
> <s_m_source_file>
AV-unprocessed.smi

> <i_m_source_file_index>
13

> <i_lp_mmshare_version>
43012

> <i_f3d_flags>
0

> <s_epik_input>
TzFbQ0gyXVtDSDJdW0NIMl1bQ0BIXTFbQ0BASF0yTihbQ0gyXUMyKFtDSDNdKVtDSDNdKWMobltjSF1uMyljKGMzNCluW2NIXW40W0NIMl1bQ0BAXTUoW09IXSlbQ0gyXVtDSDJdT1tDSDJdNQ==

> <s_epik_cmdline>
J2VwaWtfcHl0aG9uJywgJy1waCcsICc3LjAnLCAnLXRuJywgJzgnLCAnLW1hJywgJzIwMCcsICctbWV0YWxfYmluZGluZycsICctaW1hZScsICc8aW5maWxlLm1hZT4nLCAnLW9tYWUnLCAnPG91dGZpbGUubWFlPic=

> <r_lp_tautomer_probability>
1

> <r_epik_Ionization_Penalty>
0.00202764

> <r_epik_Ionization_Penalty_Charging>
0

> <r_epik_Ionization_Penalty_Neutral>
0.00202764

> <r_epik_State_Penalty>
0.00134017

> <r_epik_Charging_Adjusted_Penalty>
0.00134017

> <i_epik_Tot_Q>
0

> <i_epik_Tot_abs_Q>
0

> <r_epik_Metal_State_Penalty>
-0

> <b_epik_Metal_Only>
0

> <s_lp_Force_Field>
OPLS_2005

> <r_lp_Energy>
64.8662

> <b_lp_Chiralities_Consistent>
1

> <s_lp_Variant>
AV-unprocessed.smi:13-8

> <Gold.Version>
5.8.1

> <Gold.Id.Protein>
6NUR|6NUR_protein|mol2

> <Gold.PLP.Fitness>
37.2050

> <Gold.PLP.PLP>
-31.3775

> <Gold.PLP.part.hbond>
-1.2968

> <Gold.PLP.part.metal>
0.0000

> <Gold.PLP.part.buried>
-5.6466

> <Gold.PLP.part.nonpolar>
-26.2487

> <Gold.PLP.part.repulsive>
1.1216

> <Gold.PLP.ligand.clash>
0.0000

> <Gold.PLP.ligand.torsion>
0.3211

> <Gold.PLP.Chemscore.Hbond>
1.0000

> <Gold.PLP.Chemscore.CHOScore>
1.0000

> <Gold.PLP.Chemscore.Metal>
0.0000

> <Gold.Chemscore.Hbonds>
donor molecule, donor type, donor heavy atom, donor atom, acceptor molecule, acceptor atom, score
      L1  H    17    40       P1  7921  1.00
      L1  C    13    37       P1 10171  1.00

> <Gold.PLP.Chemscore.Internal.Correction>
0.4697

> <Gold.Rescore>
     Score         DG    S(hbond)    S(metal)    S(lipo)     H(rot)  DE(clash)    DE(int)     intcor
     10.21     -12.48       0.99        0.00      81.85       2.30       0.58       1.69       ----

> <Gold.Chemscore.Fitness>
10.2141

> <Gold.Chemscore.DG>
-12.4774

> <Gold.Chemscore.ZeroCoef>
-5.4800

> <Gold.Chemscore.Hbond>
0.9902

> <Gold.Chemscore.Metal>
0.0000

> <Gold.Chemscore.Lipo>
81.8544

> <Gold.Chemscore.Internal_Hbond>
0.0000

> <Gold.Chemscore.DEClash>
0.5770

> <Gold.Chemscore.DEInternal>
1.6863

> <Gold.Chemscore.Rot>
2.2996

> <Gold.Chemscore.Internal.Correction>
   9.000000E+99

> <Gold.Chemscore.Hbonds>
donor molecule, donor type, donor heavy atom, donor atom, acceptor molecule, acceptor atom, score
      L1  H    17    40       P1  7921  0.99

> <Gold.Chemscore.Hbond.Weighted>
-3.3073

> <Gold.Chemscore.Metal.Weighted>
-0.0000

> <Gold.Chemscore.Lipo.Weighted>
-9.5770

> <Gold.Chemscore.Internal_Hbond.Weighted>
0.0000

> <Gold.Chemscore.DEClash.Weighted>
0.5770

> <Gold.Chemscore.DEInternal.Weighted>
1.6863

> <Gold.Chemscore.Rot.Weighted>
5.8869

> <Gold.Chemscore.Internal.Correction.Weighted>
   9.000000E+99

> <Gold.Protein.RotatedTorsions>
[ 6907 6896 6895 6894 ] final -163.26 input  -60.11 | X-H torsion
[ 7974 7965 7964 7962 ] final  131.37 input  175.53 | X-H torsion
[ 8008 7997 7996 7995 ] final  171.27 input   59.86 | X-H torsion
[ 10167 10162 10161 10158 ] final  -11.64 input  -65.29 | X-H torsion
[ 10718 10713 10712 10709 ] final   22.01 input   66.30 | X-H torsion
[ 10763 10752 10751 10750 ] final   39.36 input  -60.55 | X-H torsion
[ 11005 11000 10999 10996 ] final -175.08 input  -57.11 | X-H torsion

> <Gold.Protein.ActiveResidues>
 VAL166  LYS551  ARG553  GLY616  TRP617  ASP618  TYR619  PRO620  LYS621  CYS622 
 ASP623  PHE694  ASN695  SER759  ASP760  ASP761  ALA762  ILE779  LEU786  VAL792 
 PHE793  MET794  SER795  GLU796  ALA797  LYS798  CYS799  TRP800  GLU811  SER814 

> <Gold.Protein.RotatedAtoms>
  151.3932  133.3782  159.2723 H   0  0  0  0  0  0  0  0  0  0  0  0  # atno 6907 bound_to 6896
  150.9489  134.8892  159.7670 H   0  0  0  0  0  0  0  0  0  0  0  0  # atno 6908 bound_to 6896
  152.5103  134.3887  159.9428 H   0  0  0  0  0  0  0  0  0  0  0  0  # atno 6909 bound_to 6896
  145.0080  139.4247  143.5259 H   0  0  0  0  0  0  0  0  0  0  0  0  # atno 7974 bound_to 7965
  156.1287  140.1516  156.9098 H   0  0  0  0  0  0  0  0  0  0  0  0  # atno 8008 bound_to 7997
  154.4891  140.0856  156.7595 H   0  0  0  0  0  0  0  0  0  0  0  0  # atno 8009 bound_to 7997
  155.4297  140.3426  155.4281 H   0  0  0  0  0  0  0  0  0  0  0  0  # atno 8010 bound_to 7997
  140.7143  143.5618  150.9187 H   0  0  0  0  0  0  0  0  0  0  0  0  # atno 10167 bound_to 10162
  157.1464  130.6655  149.5997 H   0  0  0  0  0  0  0  0  0  0  0  0  # atno 10718 bound_to 10713
  152.9970  135.6223  154.2452 H   0  0  0  0  0  0  0  0  0  0  0  0  # atno 10763 bound_to 10752
  154.2192  135.2796  155.2932 H   0  0  0  0  0  0  0  0  0  0  0  0  # atno 10764 bound_to 10752
  154.5542  135.5724  153.7008 H   0  0  0  0  0  0  0  0  0  0  0  0  # atno 10765 bound_to 10752
  140.4673  134.6198  157.4868 H   0  0  0  0  0  0  0  0  0  0  0  0  # atno 11005 bound_to 11000
  146.3465  139.9508  142.8729 LP  0  0  0  0  0  0  0  0  0  0  0  0  # atno 17320 bound_to 7965
  145.2061  140.9876  143.4127 LP  0  0  0  0  0  0  0  0  0  0  0  0  # atno 17321 bound_to 7965
  139.9343  143.6456  152.3069 LP  0  0  0  0  0  0  0  0  0  0  0  0  # atno 17342 bound_to 10162
  139.6918  144.7646  151.1426 LP  0  0  0  0  0  0  0  0  0  0  0  0  # atno 17343 bound_to 10162
  155.9779  130.4760  150.6620 LP  0  0  0  0  0  0  0  0  0  0  0  0  # atno 17370 bound_to 10713
  157.4261  131.0843  151.1084 LP  0  0  0  0  0  0  0  0  0  0  0  0  # atno 17371 bound_to 10713
  139.9907  134.6990  155.9694 LP  0  0  0  0  0  0  0  0  0  0  0  0  # atno 17394 bound_to 11000
  141.1593  133.6540  156.4266 LP  0  0  0  0  0  0  0  0  0  0  0  0  # atno 17395 bound_to 11000

$$$$
