AV-unprocessed.smi:2214|AV-procd|sdf|8959|dock8
  -GOLD-   2272012173D 1   1.00000     0.00000
 Structure written by MMmdl.
 41 42  0  0  0  0  0  0  0  0  1 V2000
  151.7993  145.3114  159.5184 C   0  0  0  0  0  0  0  0  0  0  0  0
  151.9980  143.8150  159.3899 C   0  0  0  0  0  0  0  0  0  0  0  0
  152.6908  143.1006  160.3872 C   0  0  0  0  0  0  0  0  0  0  0  0
  152.8682  141.7108  160.2603 C   0  0  0  0  0  0  0  0  0  0  0  0
  152.3549  141.0312  159.1388 C   0  0  0  0  0  0  0  0  0  0  0  0
  152.5889  139.3246  159.0034 Cl  0  0  0  0  0  0  0  0  0  0  0  0
  151.6594  141.7338  158.1301 C   0  0  0  0  0  0  0  0  0  0  0  0
  151.1856  141.0009  157.0633 O   0  0  0  0  0  0  0  0  0  0  0  0
  150.6530  141.6946  155.9434 C   0  0  0  0  0  0  0  0  0  0  0  0
  150.2596  140.6553  154.8833 C   0  0  1  0  0  0  0  0  0  0  0  0
  151.3039  139.7059  154.8157 O   0  0  0  0  0  0  0  0  0  0  0  0
  148.9385  139.9310  155.2353 C   0  0  0  0  0  0  0  0  0  0  0  0
  147.7871  140.8462  155.1953 N   0  0  0  0  0  0  0  0  0  0  0  0
  147.4151  141.3246  153.9272 C   0  0  0  0  0  0  0  0  0  0  0  0
  146.4113  142.1241  153.7711 N   0  0  0  0  0  0  0  0  0  0  0  0
  145.6639  142.5289  154.8810 C   0  0  0  0  0  0  0  0  0  0  0  0
  144.5071  143.4670  154.5853 C   0  0  0  0  0  0  0  0  0  0  0  0
  145.9682  142.0953  156.1351 C   0  0  0  0  0  0  0  0  0  0  0  0
  145.1893  142.5014  157.3801 C   0  0  0  0  0  0  0  0  0  0  0  0
  147.1059  141.1813  156.3280 C   0  0  0  0  0  0  0  0  0  0  0  0
  147.4301  140.7421  157.4331 O   0  0  0  0  0  0  0  0  0  0  0  0
  151.4846  143.1343  158.2670 C   0  0  0  0  0  0  0  0  0  0  0  0
  152.3219  145.7093  160.3887 H   0  0  0  0  0  0  0  0  0  0  0  0
  150.7390  145.5435  159.6212 H   0  0  0  0  0  0  0  0  0  0  0  0
  152.1785  145.8212  158.6324 H   0  0  0  0  0  0  0  0  0  0  0  0
  153.0879  143.6129  161.2515 H   0  0  0  0  0  0  0  0  0  0  0  0
  153.4004  141.1656  161.0259 H   0  0  0  0  0  0  0  0  0  0  0  0
  149.7733  142.2619  156.2522 H   0  0  0  0  0  0  0  0  0  0  0  0
  151.3844  142.3934  155.5335 H   0  0  0  0  0  0  0  0  0  0  0  0
  150.1880  141.1545  153.9159 H   0  0  0  0  0  0  0  0  0  0  0  0
  151.1655  139.0568  155.4885 H   0  0  0  0  0  0  0  0  0  0  0  0
  148.7873  139.0598  154.5948 H   0  0  0  0  0  0  0  0  0  0  0  0
  149.0069  139.5015  156.2370 H   0  0  0  0  0  0  0  0  0  0  0  0
  148.0251  140.9705  153.0939 H   0  0  0  0  0  0  0  0  0  0  0  0
  144.6361  144.4125  155.1128 H   0  0  0  0  0  0  0  0  0  0  0  0
  143.5635  143.0185  154.8968 H   0  0  0  0  0  0  0  0  0  0  0  0
  144.4363  143.6864  153.5192 H   0  0  0  0  0  0  0  0  0  0  0  0
  144.7631  141.6200  157.8603 H   0  0  0  0  0  0  0  0  0  0  0  0
  144.3719  143.1893  157.1702 H   0  0  0  0  0  0  0  0  0  0  0  0
  145.8524  142.9892  158.0957 H   0  0  0  0  0  0  0  0  0  0  0  0
  150.9549  143.7084  157.5218 H   0  0  0  0  0  0  0  0  0  0  0  0
  1  2  1  0  0  0  0
  1 23  1  0  0  0  0
  1 24  1  0  0  0  0
  1 25  1  0  0  0  0
  2 22  1  0  0  0  0
  2  3  2  0  0  0  0
  3  4  1  0  0  0  0
  3 26  1  0  0  0  0
  4  5  2  0  0  0  0
  4 27  1  0  0  0  0
  5  6  1  0  0  0  0
  5  7  1  0  0  0  0
  7  8  1  0  0  0  0
  7 22  2  0  0  0  0
  8  9  1  0  0  0  0
  9 10  1  0  0  0  0
  9 28  1  0  0  0  0
  9 29  1  0  0  0  0
 10 11  1  0  0  0  0
 10 12  1  0  0  0  0
 10 30  1  0  0  0  0
 11 31  1  0  0  0  0
 12 13  1  0  0  0  0
 12 32  1  0  0  0  0
 12 33  1  0  0  0  0
 13 20  1  0  0  0  0
 13 14  1  0  0  0  0
 14 15  2  0  0  0  0
 14 34  1  0  0  0  0
 15 16  1  0  0  0  0
 16 17  1  0  0  0  0
 16 18  2  0  0  0  0
 17 35  1  0  0  0  0
 17 36  1  0  0  0  0
 17 37  1  0  0  0  0
 18 19  1  0  0  0  0
 18 20  1  0  0  0  0
 19 38  1  0  0  0  0
 19 39  1  0  0  0  0
 19 40  1  0  0  0  0
 20 21  2  0  0  0  0
 22 41  1  0  0  0  0
M  END
> <s_m_source_file>
AV-unprocessed.smi

> <i_m_source_file_index>
2214

> <i_lp_mmshare_version>
43012

> <i_f3d_flags>
0

> <s_epik_input>
W0NIM11jMVtjSF1bY0hdYyhDbCljKFtjSF0xKU9bQ0gyXVtDQEhdKFtPSF0pW0NIMl1uMltjSF1uYyhbQ0gzXSljKFtDSDNdKWMyPU8=

> <s_epik_cmdline>
J2VwaWtfcHl0aG9uJywgJy1waCcsICc3LjAnLCAnLXRuJywgJzgnLCAnLW1hJywgJzIwMCcsICctbWV0YWxfYmluZGluZycsICctaW1hZScsICc8aW5maWxlLm1hZT4nLCAnLW9tYWUnLCAnPG91dGZpbGUubWFlPic=

> <r_lp_tautomer_probability>
1

> <r_epik_Ionization_Penalty>
3.50205e-05

> <r_epik_Ionization_Penalty_Charging>
7.87908e-08

> <r_epik_Ionization_Penalty_Neutral>
3.49418e-05

> <r_epik_State_Penalty>
-0

> <r_epik_Charging_Adjusted_Penalty>
7.87908e-08

> <i_epik_Tot_Q>
0

> <i_epik_Tot_abs_Q>
0

> <r_epik_Metal_State_Penalty>
-0

> <b_epik_Metal_Only>
0

> <s_lp_Force_Field>
OPLS_2005

> <r_lp_Energy>
22.3765

> <b_lp_Chiralities_Consistent>
1

> <s_lp_Variant>
AV-unprocessed.smi:2214-2

> <Gold.Version>
5.8.1

> <Gold.Id.Protein>
6NUR|6NUR_protein|mol2

> <Gold.PLP.Fitness>
46.1401

> <Gold.PLP.PLP>
-43.7035

> <Gold.PLP.part.hbond>
-1.0000

> <Gold.PLP.part.metal>
0.0000

> <Gold.PLP.part.buried>
-3.9093

> <Gold.PLP.part.nonpolar>
-38.6578

> <Gold.PLP.part.repulsive>
0.2558

> <Gold.PLP.ligand.clash>
0.0000

> <Gold.PLP.ligand.torsion>
0.2917

> <Gold.PLP.Chemscore.Hbond>
0.0000

> <Gold.PLP.Chemscore.CHOScore>
0.9895

> <Gold.PLP.Chemscore.Metal>
0.0000

> <Gold.Chemscore.Hbonds>
donor molecule, donor type, donor heavy atom, donor atom, acceptor molecule, acceptor atom, score
      L1  C    14    34       P1  7957  0.69

> <Gold.PLP.Chemscore.Internal.Correction>
0.0516

> <Gold.Rescore>
     Score         DG    S(hbond)    S(metal)    S(lipo)     H(rot)  DE(clash)    DE(int)     intcor
     12.16     -12.61       0.00        0.00     112.33       2.35       0.02       0.43       ----

> <Gold.Chemscore.Fitness>
12.1605

> <Gold.Chemscore.DG>
-12.6093

> <Gold.Chemscore.ZeroCoef>
-5.4800

> <Gold.Chemscore.Hbond>
0.0000

> <Gold.Chemscore.Metal>
0.0000

> <Gold.Chemscore.Lipo>
112.3318

> <Gold.Chemscore.Internal_Hbond>
0.0000

> <Gold.Chemscore.DEClash>
0.0234

> <Gold.Chemscore.DEInternal>
0.4253

> <Gold.Chemscore.Rot>
2.3490

> <Gold.Chemscore.Internal.Correction>
   9.000000E+99

> <Gold.Chemscore.Hbond.Weighted>
-0.0000

> <Gold.Chemscore.Metal.Weighted>
-0.0000

> <Gold.Chemscore.Lipo.Weighted>
-13.1428

> <Gold.Chemscore.Internal_Hbond.Weighted>
0.0000

> <Gold.Chemscore.DEClash.Weighted>
0.0234

> <Gold.Chemscore.DEInternal.Weighted>
0.4253

> <Gold.Chemscore.Rot.Weighted>
6.0136

> <Gold.Chemscore.Internal.Correction.Weighted>
   9.000000E+99

> <Gold.Protein.RotatedTorsions>
[ 6907 6896 6895 6894 ] final  -29.18 input  -60.11 | X-H torsion
[ 7974 7965 7964 7962 ] final  -80.10 input  175.53 | X-H torsion
[ 8008 7997 7996 7995 ] final   67.47 input   59.86 | X-H torsion
[ 10167 10162 10161 10158 ] final  103.28 input  -65.29 | X-H torsion
[ 10718 10713 10712 10709 ] final   97.98 input   66.30 | X-H torsion
[ 10763 10752 10751 10750 ] final -110.65 input  -60.55 | X-H torsion
[ 11005 11000 10999 10996 ] final  -41.64 input  -57.11 | X-H torsion

> <Gold.Protein.ActiveResidues>
 VAL166  LYS551  ARG553  GLY616  TRP617  ASP618  TYR619  PRO620  LYS621  CYS622 
 ASP623  PHE694  ASN695  SER759  ASP760  ASP761  ALA762  ILE779  LEU786  VAL792 
 PHE793  MET794  SER795  GLU796  ALA797  LYS798  CYS799  TRP800  GLU811  SER814 

> <Gold.Protein.RotatedAtoms>
  151.1227  135.0088  159.8545 H   0  0  0  0  0  0  0  0  0  0  0  0  # atno 6907 bound_to 6896
  152.5448  134.1703  159.8604 H   0  0  0  0  0  0  0  0  0  0  0  0  # atno 6908 bound_to 6896
  151.1763  133.4708  159.2627 H   0  0  0  0  0  0  0  0  0  0  0  0  # atno 6909 bound_to 6896
  145.5644  140.9477  143.1430 H   0  0  0  0  0  0  0  0  0  0  0  0  # atno 7974 bound_to 7965
  155.6934  140.3496  155.4903 H   0  0  0  0  0  0  0  0  0  0  0  0  # atno 8008 bound_to 7997
  155.9504  140.1118  157.1004 H   0  0  0  0  0  0  0  0  0  0  0  0  # atno 8009 bound_to 7997
  154.4120  140.1195  156.5031 H   0  0  0  0  0  0  0  0  0  0  0  0  # atno 8010 bound_to 7997
  139.7276  144.7043  151.0772 H   0  0  0  0  0  0  0  0  0  0  0  0  # atno 10167 bound_to 10162
  157.6903  131.0626  150.4727 H   0  0  0  0  0  0  0  0  0  0  0  0  # atno 10718 bound_to 10713
  154.8259  135.4556  154.0918 H   0  0  0  0  0  0  0  0  0  0  0  0  # atno 10763 bound_to 10752
  153.2232  135.6896  153.7982 H   0  0  0  0  0  0  0  0  0  0  0  0  # atno 10764 bound_to 10752
  153.7391  135.3315  155.3277 H   0  0  0  0  0  0  0  0  0  0  0  0  # atno 10765 bound_to 10752
  141.0260  133.6841  156.2486 H   0  0  0  0  0  0  0  0  0  0  0  0  # atno 11005 bound_to 11000
  144.7467  139.7300  143.7289 LP  0  0  0  0  0  0  0  0  0  0  0  0  # atno 17320 bound_to 7965
  146.1828  139.5029  142.9855 LP  0  0  0  0  0  0  0  0  0  0  0  0  # atno 17321 bound_to 7965
  140.7765  143.5084  150.9683 LP  0  0  0  0  0  0  0  0  0  0  0  0  # atno 17342 bound_to 10162
  139.8772  143.7117  152.3160 LP  0  0  0  0  0  0  0  0  0  0  0  0  # atno 17343 bound_to 10162
  156.5064  130.4129  149.6325 LP  0  0  0  0  0  0  0  0  0  0  0  0  # atno 17370 bound_to 10713
  156.3281  130.7317  151.2241 LP  0  0  0  0  0  0  0  0  0  0  0  0  # atno 17371 bound_to 10713
  140.6490  134.5087  157.5576 LP  0  0  0  0  0  0  0  0  0  0  0  0  # atno 17394 bound_to 11000
  139.9176  134.8213  156.1314 LP  0  0  0  0  0  0  0  0  0  0  0  0  # atno 17395 bound_to 11000

$$$$
