AV-unprocessed.smi:1896|AV-procd|sdf|7683|dock5
  -GOLD-   22720 9423D 1   1.00000     0.00000
 Structure written by MMmdl.
 47 48  0  0  0  0  0  0  0  0  2 V2000
  154.4599  140.2846  159.6767 C   0  0  0  0  0  0  0  0  0  0  0  0
  153.8033  141.3954  160.4451 C   0  0  0  0  0  0  0  0  0  0  0  0
  154.1222  141.5715  161.7162 N   0  0  0  0  0  0  0  0  0  0  0  0
  153.3705  142.6152  162.1189 N   0  0  0  0  0  0  0  0  0  0  0  0
  153.4753  143.0814  163.4878 C   0  0  0  0  0  0  0  0  0  0  0  0
  152.5711  143.0973  161.1009 C   0  0  0  0  0  0  0  0  0  0  0  0
  151.6378  144.2476  161.3016 C   0  0  0  0  0  0  0  0  0  0  0  0
  152.8244  142.3305  159.9944 C   0  0  0  0  0  0  0  0  0  0  0  0
  152.2125  142.4329  158.6201 C   0  0  0  0  0  0  0  0  0  0  0  0
  151.5514  141.1035  158.2580 C   0  0  0  0  0  0  0  0  0  0  0  0
  151.5915  140.1592  159.0464 O   0  0  0  0  0  0  0  0  0  0  0  0
  150.9591  141.0359  157.0570 N   0  0  0  0  0  0  0  0  0  0  0  0
  150.3295  139.8373  156.5167 C   0  0  0  0  0  0  0  0  0  0  0  0
  150.6290  139.6493  155.0092 C   0  0  1  0  0  0  0  0  0  0  0  0
  150.9387  138.1697  154.6882 C   0  0  0  0  0  0  0  0  0  0  0  0
  149.5035  140.1451  154.1641 N   0  3  0  0  0  0  0  0  0  0  0  0
  148.3141  139.2679  154.0925 C   0  0  0  0  0  0  0  0  0  0  0  0
  147.1823  140.1733  153.6209 C   0  0  0  0  0  0  0  0  0  0  0  0
  147.4826  141.4920  154.3231 C   0  0  0  0  0  0  0  0  0  0  0  0
  149.0067  141.5033  154.5039 C   0  0  0  0  0  0  0  0  0  0  0  0
  153.8618  139.3751  159.7257 H   0  0  0  0  0  0  0  0  0  0  0  0
  155.4486  140.0527  160.0743 H   0  0  0  0  0  0  0  0  0  0  0  0
  154.5833  140.5471  158.6261 H   0  0  0  0  0  0  0  0  0  0  0  0
  153.7427  144.1381  163.4959 H   0  0  0  0  0  0  0  0  0  0  0  0
  154.2391  142.5211  164.0291 H   0  0  0  0  0  0  0  0  0  0  0  0
  152.5179  142.9513  163.9931 H   0  0  0  0  0  0  0  0  0  0  0  0
  151.0398  144.4350  160.4101 H   0  0  0  0  0  0  0  0  0  0  0  0
  152.1905  145.1584  161.5323 H   0  0  0  0  0  0  0  0  0  0  0  0
  150.9510  144.0502  162.1247 H   0  0  0  0  0  0  0  0  0  0  0  0
  151.4624  143.2228  158.5727 H   0  0  0  0  0  0  0  0  0  0  0  0
  152.9591  142.6892  157.8675 H   0  0  0  0  0  0  0  0  0  0  0  0
  150.9722  141.8582  156.4707 H   0  0  0  0  0  0  0  0  0  0  0  0
  150.6790  138.9699  157.0797 H   0  0  0  0  0  0  0  0  0  0  0  0
  149.2560  139.9204  156.6907 H   0  0  0  0  0  0  0  0  0  0  0  0
  151.5116  140.2428  154.7643 H   0  0  0  0  0  0  0  0  0  0  0  0
  151.8012  137.8095  155.2481 H   0  0  0  0  0  0  0  0  0  0  0  0
  151.1760  138.0151  153.6360 H   0  0  0  0  0  0  0  0  0  0  0  0
  150.0928  137.5272  154.9342 H   0  0  0  0  0  0  0  0  0  0  0  0
  148.4665  138.4248  153.4180 H   0  0  0  0  0  0  0  0  0  0  0  0
  148.0832  138.8768  155.0850 H   0  0  0  0  0  0  0  0  0  0  0  0
  147.2396  140.3063  152.5395 H   0  0  0  0  0  0  0  0  0  0  0  0
  146.1941  139.7791  153.8607 H   0  0  0  0  0  0  0  0  0  0  0  0
  147.1202  142.3534  153.7611 H   0  0  0  0  0  0  0  0  0  0  0  0
  146.9973  141.5064  155.2999 H   0  0  0  0  0  0  0  0  0  0  0  0
  149.2498  141.7770  155.5317 H   0  0  0  0  0  0  0  0  0  0  0  0
  149.4788  142.2330  153.8451 H   0  0  0  0  0  0  0  0  0  0  0  0
  149.8516  140.2070  153.2178 H   0  0  0  0  0  0  0  0  0  0  0  0
  1  2  1  0  0  0  0
  1 21  1  0  0  0  0
  1 22  1  0  0  0  0
  1 23  1  0  0  0  0
  2  8  1  0  0  0  0
  2  3  2  0  0  0  0
  3  4  1  0  0  0  0
  4  5  1  0  0  0  0
  4  6  1  0  0  0  0
  5 24  1  0  0  0  0
  5 25  1  0  0  0  0
  5 26  1  0  0  0  0
  6  7  1  0  0  0  0
  6  8  2  0  0  0  0
  7 27  1  0  0  0  0
  7 28  1  0  0  0  0
  7 29  1  0  0  0  0
  8  9  1  0  0  0  0
  9 10  1  0  0  0  0
  9 30  1  0  0  0  0
  9 31  1  0  0  0  0
 10 11  2  0  0  0  0
 10 12  1  0  0  0  0
 12 13  1  0  0  0  0
 12 32  1  0  0  0  0
 13 14  1  0  0  0  0
 13 33  1  0  0  0  0
 13 34  1  0  0  0  0
 14 15  1  0  0  0  0
 14 16  1  0  0  0  0
 14 35  1  0  0  0  0
 15 36  1  0  0  0  0
 15 37  1  0  0  0  0
 15 38  1  0  0  0  0
 16 20  1  0  0  0  0
 16 17  1  0  0  0  0
 16 47  1  0  0  0  0
 17 18  1  0  0  0  0
 17 39  1  0  0  0  0
 17 40  1  0  0  0  0
 18 19  1  0  0  0  0
 18 41  1  0  0  0  0
 18 42  1  0  0  0  0
 19 20  1  0  0  0  0
 19 43  1  0  0  0  0
 19 44  1  0  0  0  0
 20 45  1  0  0  0  0
 20 46  1  0  0  0  0
M  CHG  1  16   1
M  END
> <s_m_source_file>
AV-unprocessed.smi

> <i_m_source_file_index>
1896

> <i_lp_mmshare_version>
43012

> <i_f3d_flags>
0

> <s_epik_input>
W0NIM11jMW5uKFtDSDNdKWMoW0NIM10pYzFbQ0gyXUMoPU8pW05IXVtDSDJdW0NASF0oW0NIM10pTjJbQ0gyXVtDSDJdW0NIMl1bQ0gyXTI=

> <s_epik_cmdline>
J2VwaWtfcHl0aG9uJywgJy1waCcsICc3LjAnLCAnLXRuJywgJzgnLCAnLW1hJywgJzIwMCcsICctbWV0YWxfYmluZGluZycsICctaW1hZScsICc8aW5maWxlLm1hZT4nLCAnLW9tYWUnLCAnPG91dGZpbGUubWFlPic=

> <r_lp_tautomer_probability>
1

> <r_epik_Ionization_Penalty>
0.00723064

> <r_epik_Ionization_Penalty_Charging>
0.0050435

> <r_epik_Ionization_Penalty_Neutral>
0.00218714

> <r_epik_State_Penalty>
-0

> <r_epik_Charging_Adjusted_Penalty>
0.0050435

> <i_epik_Tot_Q>
1

> <i_epik_Tot_abs_Q>
1

> <r_epik_Metal_State_Penalty>
-0

> <b_epik_Metal_Only>
0

> <s_lp_Force_Field>
OPLS_2005

> <r_lp_Energy>
24.4883

> <b_lp_Chiralities_Consistent>
1

> <s_lp_Variant>
AV-unprocessed.smi:1896-2

> <Gold.Version>
5.8.1

> <Gold.Id.Protein>
6NUR|6NUR_protein|mol2

> <Gold.PLP.Fitness>
49.1402

> <Gold.PLP.PLP>
-47.7956

> <Gold.PLP.part.hbond>
-1.4877

> <Gold.PLP.part.metal>
0.0000

> <Gold.PLP.part.buried>
-3.5774

> <Gold.PLP.part.nonpolar>
-41.9746

> <Gold.PLP.part.repulsive>
0.5223

> <Gold.PLP.ligand.clash>
0.0000

> <Gold.PLP.ligand.torsion>
0.8550

> <Gold.PLP.Chemscore.Hbond>
1.0000

> <Gold.PLP.Chemscore.CHOScore>
0.0000

> <Gold.PLP.Chemscore.Metal>
0.0000

> <Gold.Chemscore.Hbonds>
donor molecule, donor type, donor heavy atom, donor atom, acceptor molecule, acceptor atom, score
      L1  H    16    47       P1  7957  0.89

> <Gold.PLP.Chemscore.Internal.Correction>
0.0546

> <Gold.Rescore>
     Score         DG    S(hbond)    S(metal)    S(lipo)     H(rot)  DE(clash)    DE(int)     intcor
     16.88     -18.65       0.99        0.00     120.37       1.65       0.09       1.67       ----

> <Gold.Chemscore.Fitness>
16.8802

> <Gold.Chemscore.DG>
-18.6497

> <Gold.Chemscore.ZeroCoef>
-5.4800

> <Gold.Chemscore.Hbond>
0.9908

> <Gold.Chemscore.Metal>
0.0000

> <Gold.Chemscore.Lipo>
120.3674

> <Gold.Chemscore.Internal_Hbond>
0.0000

> <Gold.Chemscore.DEClash>
0.0948

> <Gold.Chemscore.DEInternal>
1.6747

> <Gold.Chemscore.Rot>
1.6495

> <Gold.Chemscore.Internal.Correction>
   9.000000E+99

> <Gold.Chemscore.Hbonds>
donor molecule, donor type, donor heavy atom, donor atom, acceptor molecule, acceptor atom, score
      L1  H    16    47       P1  7957  0.83

> <Gold.Chemscore.Hbond.Weighted>
-3.3094

> <Gold.Chemscore.Metal.Weighted>
-0.0000

> <Gold.Chemscore.Lipo.Weighted>
-14.0830

> <Gold.Chemscore.Internal_Hbond.Weighted>
0.0000

> <Gold.Chemscore.DEClash.Weighted>
0.0948

> <Gold.Chemscore.DEInternal.Weighted>
1.6747

> <Gold.Chemscore.Rot.Weighted>
4.2227

> <Gold.Chemscore.Internal.Correction.Weighted>
   9.000000E+99

> <Gold.Protein.RotatedTorsions>
[ 6907 6896 6895 6894 ] final   81.89 input  -60.11 | X-H torsion
[ 7974 7965 7964 7962 ] final  106.84 input  175.53 | X-H torsion
[ 8008 7997 7996 7995 ] final  -84.68 input   59.86 | X-H torsion
[ 10167 10162 10161 10158 ] final  -29.79 input  -65.29 | X-H torsion
[ 10718 10713 10712 10709 ] final  -69.72 input   66.30 | X-H torsion
[ 10763 10752 10751 10750 ] final   92.84 input  -60.55 | X-H torsion
[ 11005 11000 10999 10996 ] final  -14.48 input  -57.11 | X-H torsion

> <Gold.Protein.ActiveResidues>
 VAL166  LYS551  ARG553  GLY616  TRP617  ASP618  TYR619  PRO620  LYS621  CYS622 
 ASP623  PHE694  ASN695  SER759  ASP760  ASP761  ALA762  ILE779  LEU786  VAL792 
 PHE793  MET794  SER795  GLU796  ALA797  LYS798  CYS799  TRP800  GLU811  SER814 

> <Gold.Protein.RotatedAtoms>
  152.5282  134.3134  159.9121 H   0  0  0  0  0  0  0  0  0  0  0  0  # atno 6907 bound_to 6896
  151.3084  133.4085  159.2652 H   0  0  0  0  0  0  0  0  0  0  0  0  # atno 6908 bound_to 6896
  151.0059  134.9376  159.8037 H   0  0  0  0  0  0  0  0  0  0  0  0  # atno 6909 bound_to 6896
  145.3014  139.2568  143.3811 H   0  0  0  0  0  0  0  0  0  0  0  0  # atno 7974 bound_to 7965
  154.6325  140.0601  156.9749 H   0  0  0  0  0  0  0  0  0  0  0  0  # atno 8008 bound_to 7997
  155.1644  140.3285  155.4386 H   0  0  0  0  0  0  0  0  0  0  0  0  # atno 8009 bound_to 7997
  156.2490  140.1925  156.6749 H   0  0  0  0  0  0  0  0  0  0  0  0  # atno 8010 bound_to 7997
  140.7257  143.3900  151.1447 H   0  0  0  0  0  0  0  0  0  0  0  0  # atno 10167 bound_to 10162
  156.0442  130.4318  150.2189 H   0  0  0  0  0  0  0  0  0  0  0  0  # atno 10718 bound_to 10713
  153.2236  135.4347  155.0517 H   0  0  0  0  0  0  0  0  0  0  0  0  # atno 10763 bound_to 10752
  154.8262  135.3362  154.6891 H   0  0  0  0  0  0  0  0  0  0  0  0  # atno 10764 bound_to 10752
  153.7321  135.7010  153.5043 H   0  0  0  0  0  0  0  0  0  0  0  0  # atno 10765 bound_to 10752
  140.7869  133.8319  155.9343 H   0  0  0  0  0  0  0  0  0  0  0  0  # atno 11005 bound_to 11000
  146.3150  140.3529  142.8658 LP  0  0  0  0  0  0  0  0  0  0  0  0  # atno 17320 bound_to 7965
  144.9090  140.7734  143.5819 LP  0  0  0  0  0  0  0  0  0  0  0  0  # atno 17321 bound_to 7965
  139.7504  143.8788  152.3075 LP  0  0  0  0  0  0  0  0  0  0  0  0  # atno 17342 bound_to 10162
  139.8639  144.7103  150.9066 LP  0  0  0  0  0  0  0  0  0  0  0  0  # atno 17343 bound_to 10162
  157.0281  130.9999  151.3320 LP  0  0  0  0  0  0  0  0  0  0  0  0  # atno 17370 bound_to 10713
  157.5297  130.8050  149.7902 LP  0  0  0  0  0  0  0  0  0  0  0  0  # atno 17371 bound_to 10713
  140.9428  134.1879  157.4785 LP  0  0  0  0  0  0  0  0  0  0  0  0  # atno 17394 bound_to 11000
  139.8736  134.9878  156.5386 LP  0  0  0  0  0  0  0  0  0  0  0  0  # atno 17395 bound_to 11000

$$$$
