AV-unprocessed.smi:3085|AV-procd|sdf|11752|dock5
  -GOLD-   2272017143D 1   1.00000     0.00000
 Structure written by MMmdl.
 28 29  0  0  0  0  0  0  0  0  2 V2000
  138.8636  136.9457  153.5111 C   0  0  0  0  0  0  0  0  0  0  0  0
  140.2336  137.1358  154.1719 C   0  0  0  0  0  0  0  0  0  0  0  0
  141.2081  136.0808  153.7642 C   0  0  0  0  0  0  0  0  0  0  0  0
  142.3827  136.3658  153.1249 N   0  0  0  0  0  0  0  0  0  0  0  0
  142.8992  135.1447  153.0234 C   0  0  0  0  0  0  0  0  0  0  0  0
  144.2197  134.8095  152.4051 C   0  0  2  0  0  0  0  0  0  0  0  0
  144.3142  135.2656  150.9362 C   0  0  0  0  0  0  0  0  0  0  0  0
  145.5945  134.8218  150.3514 N   0  3  0  0  0  0  0  0  0  0  0  0
  145.7788  133.3645  150.4990 C   0  0  0  0  0  0  0  0  0  0  0  0
  145.6333  132.9597  151.9766 C   0  0  0  0  0  0  0  0  0  0  0  0
  144.3706  133.3935  152.4719 O   0  0  0  0  0  0  0  0  0  0  0  0
  142.1126  134.2133  153.5677 N   0  0  0  0  0  0  0  0  0  0  0  0
  141.0040  134.7994  154.0661 N   0  0  0  0  0  0  0  0  0  0  0  0
  142.2823  133.2194  153.6252 H   0  0  0  0  0  0  0  0  0  0  0  0
  138.1717  137.7301  153.8181 H   0  0  0  0  0  0  0  0  0  0  0  0
  138.4243  135.9866  153.7863 H   0  0  0  0  0  0  0  0  0  0  0  0
  138.9433  136.9786  152.4241 H   0  0  0  0  0  0  0  0  0  0  0  0
  140.6363  138.1162  153.9142 H   0  0  0  0  0  0  0  0  0  0  0  0
  140.1264  137.1215  155.2570 H   0  0  0  0  0  0  0  0  0  0  0  0
  145.0075  135.2821  152.9956 H   0  0  0  0  0  0  0  0  0  0  0  0
  143.4939  134.8459  150.3520 H   0  0  0  0  0  0  0  0  0  0  0  0
  144.2394  136.3510  150.8628 H   0  0  0  0  0  0  0  0  0  0  0  0
  145.6201  135.0666  149.3715 H   0  0  0  0  0  0  0  0  0  0  0  0
  145.0356  132.8459  149.8919 H   0  0  0  0  0  0  0  0  0  0  0  0
  146.7601  133.0822  150.1169 H   0  0  0  0  0  0  0  0  0  0  0  0
  145.7003  131.8763  152.0787 H   0  0  0  0  0  0  0  0  0  0  0  0
  146.4376  133.3866  152.5779 H   0  0  0  0  0  0  0  0  0  0  0  0
  146.3497  135.2934  150.8285 H   0  0  0  0  0  0  0  0  0  0  0  0
  1  2  1  0  0  0  0
  1 15  1  0  0  0  0
  1 16  1  0  0  0  0
  1 17  1  0  0  0  0
  2 18  1  0  0  0  0
  2 19  1  0  0  0  0
  2  3  1  0  0  0  0
  3  4  1  0  0  0  0
  3 13  2  0  0  0  0
  4  5  2  0  0  0  0
  5  6  1  0  0  0  0
  5 12  1  0  0  0  0
  6 11  1  0  0  0  0
  6  7  1  0  0  0  0
  6 20  1  0  0  0  0
  7  8  1  0  0  0  0
  7 21  1  0  0  0  0
  7 22  1  0  0  0  0
  8  9  1  0  0  0  0
  8 23  1  0  0  0  0
  8 28  1  0  0  0  0
  9 10  1  0  0  0  0
  9 24  1  0  0  0  0
  9 25  1  0  0  0  0
 10 11  1  0  0  0  0
 10 26  1  0  0  0  0
 10 27  1  0  0  0  0
 12 13  1  0  0  0  0
 12 14  1  0  0  0  0
M  CHG  1   8   1
M  END
> <s_m_source_file>
AV-unprocessed.smi

> <i_m_source_file_index>
3085

> <i_lp_mmshare_version>
43012

> <i_f3d_flags>
0

> <s_epik_input>
W0NIM11bQ0gyXWMxbmMobltuSF0xKVtDQEBIXTJbQ0gyXVtOSF1bQ0gyXVtDSDJdTzI=

> <s_epik_cmdline>
J2VwaWtfcHl0aG9uJywgJy1waCcsICc3LjAnLCAnLXRuJywgJzgnLCAnLW1hJywgJzIwMCcsICctbWV0YWxfYmluZGluZycsICctaW1hZScsICc8aW5maWxlLm1hZT4nLCAnLW9tYWUnLCAnPG91dGZpbGUubWFlPic=

> <r_epik_Ionization_Penalty>
0.162344

> <r_epik_Ionization_Penalty_Charging>
0.125708

> <r_epik_Ionization_Penalty_Neutral>
0.0366364

> <r_epik_State_Penalty>
0.637958

> <r_epik_Charging_Adjusted_Penalty>
0.763666

> <i_epik_Tot_Q>
1

> <i_epik_Tot_abs_Q>
1

> <r_epik_Metal_State_Penalty>
0.860091

> <b_epik_Metal_Only>
0

> <s_lp_Force_Field>
OPLS_2005

> <r_lp_Energy>
9.17309

> <b_lp_Chiralities_Consistent>
1

> <s_lp_Variant>
AV-unprocessed.smi:3085-3

> <Gold.Version>
5.8.1

> <Gold.Id.Protein>
6NUR|6NUR_protein|mol2

> <Gold.PLP.Fitness>
32.8691

> <Gold.PLP.PLP>
-24.1144

> <Gold.PLP.part.hbond>
-3.5806

> <Gold.PLP.part.metal>
0.0000

> <Gold.PLP.part.buried>
-5.6006

> <Gold.PLP.part.nonpolar>
-14.9997

> <Gold.PLP.part.repulsive>
0.6082

> <Gold.PLP.ligand.clash>
0.0000

> <Gold.PLP.ligand.torsion>
0.0185

> <Gold.PLP.Chemscore.Hbond>
2.9280

> <Gold.PLP.Chemscore.CHOScore>
0.0000

> <Gold.PLP.Chemscore.Metal>
0.0000

> <Gold.Chemscore.Hbonds>
donor molecule, donor type, donor heavy atom, donor atom, acceptor molecule, acceptor atom, score
      L1  H     8    23       P1  7921  1.00
      L1  H    12    14       P1 10957  0.93
      P1  H 11000 11005       L1    13  1.00

> <Gold.PLP.Chemscore.Internal.Correction>
0.0078

> <Gold.Rescore>
     Score         DG    S(hbond)    S(metal)    S(lipo)     H(rot)  DE(clash)    DE(int)     intcor
     15.84     -15.90       2.84        0.00      36.58       1.30       0.00       0.05       ----

> <Gold.Chemscore.Fitness>
15.8444

> <Gold.Chemscore.DG>
-15.9001

> <Gold.Chemscore.ZeroCoef>
-5.4800

> <Gold.Chemscore.Hbond>
2.8356

> <Gold.Chemscore.Metal>
0.0000

> <Gold.Chemscore.Lipo>
36.5824

> <Gold.Chemscore.Internal_Hbond>
0.0000

> <Gold.Chemscore.DEClash>
0.0029

> <Gold.Chemscore.DEInternal>
0.0528

> <Gold.Chemscore.Rot>
1.3011

> <Gold.Chemscore.Internal.Correction>
   9.000000E+99

> <Gold.Chemscore.Hbonds>
donor molecule, donor type, donor heavy atom, donor atom, acceptor molecule, acceptor atom, score
      L1  H     8    23       P1  7921  0.97
      L1  H    12    14       P1 10957  0.87
      P1  H 11000 11005       L1    13  0.94

> <Gold.Chemscore.Hbond.Weighted>
-9.4708

> <Gold.Chemscore.Metal.Weighted>
-0.0000

> <Gold.Chemscore.Lipo.Weighted>
-4.2801

> <Gold.Chemscore.Internal_Hbond.Weighted>
0.0000

> <Gold.Chemscore.DEClash.Weighted>
0.0029

> <Gold.Chemscore.DEInternal.Weighted>
0.0528

> <Gold.Chemscore.Rot.Weighted>
3.3308

> <Gold.Chemscore.Internal.Correction.Weighted>
   9.000000E+99

> <Gold.Protein.RotatedTorsions>
[ 6907 6896 6895 6894 ] final  -40.54 input  -60.11 | X-H torsion
[ 7974 7965 7964 7962 ] final -152.88 input  175.53 | X-H torsion
[ 8008 7997 7996 7995 ] final  152.56 input   59.86 | X-H torsion
[ 10167 10162 10161 10158 ] final  159.02 input  -65.29 | X-H torsion
[ 10718 10713 10712 10709 ] final -130.39 input   66.30 | X-H torsion
[ 10763 10752 10751 10750 ] final  109.44 input  -60.55 | X-H torsion
[ 11005 11000 10999 10996 ] final   33.53 input  -57.11 | X-H torsion

> <Gold.Protein.ActiveResidues>
 VAL166  LYS551  ARG553  GLY616  TRP617  ASP618  TYR619  PRO620  LYS621  CYS622 
 ASP623  PHE694  ASN695  SER759  ASP760  ASP761  ALA762  ILE779  LEU786  VAL792 
 PHE793  MET794  SER795  GLU796  ALA797  LYS798  CYS799  TRP800  GLU811  SER814 

> <Gold.Protein.RotatedAtoms>
  150.9772  134.9134  159.7822 H   0  0  0  0  0  0  0  0  0  0  0  0  # atno 6907 bound_to 6896
  152.5210  134.3459  159.9244 H   0  0  0  0  0  0  0  0  0  0  0  0  # atno 6908 bound_to 6896
  151.3467  133.3900  159.2711 H   0  0  0  0  0  0  0  0  0  0  0  0  # atno 6909 bound_to 6896
  144.7770  140.4601  143.5866 H   0  0  0  0  0  0  0  0  0  0  0  0  # atno 7974 bound_to 7965
  156.2623  140.2017  156.6352 H   0  0  0  0  0  0  0  0  0  0  0  0  # atno 8008 bound_to 7997
  154.6652  140.0556  157.0130 H   0  0  0  0  0  0  0  0  0  0  0  0  # atno 8009 bound_to 7997
  155.1218  140.3225  155.4498 H   0  0  0  0  0  0  0  0  0  0  0  0  # atno 8010 bound_to 7997
  139.4830  144.4769  151.8498 H   0  0  0  0  0  0  0  0  0  0  0  0  # atno 10167 bound_to 10162
  156.2140  130.6936  151.0682 H   0  0  0  0  0  0  0  0  0  0  0  0  # atno 10718 bound_to 10713
  153.4348  135.3780  155.2192 H   0  0  0  0  0  0  0  0  0  0  0  0  # atno 10763 bound_to 10752
  154.8751  135.3849  154.4224 H   0  0  0  0  0  0  0  0  0  0  0  0  # atno 10764 bound_to 10752
  153.4761  135.7087  153.6028 H   0  0  0  0  0  0  0  0  0  0  0  0  # atno 10765 bound_to 10752
  140.2622  134.3179  155.7854 H   0  0  0  0  0  0  0  0  0  0  0  0  # atno 11005 bound_to 11000
  145.6158  139.1518  143.3050 LP  0  0  0  0  0  0  0  0  0  0  0  0  # atno 17320 bound_to 7965
  146.1956  140.6271  142.9126 LP  0  0  0  0  0  0  0  0  0  0  0  0  # atno 17321 bound_to 7965
  140.4242  144.2202  150.5887 LP  0  0  0  0  0  0  0  0  0  0  0  0  # atno 17342 bound_to 10162
  140.4843  143.2368  151.8910 LP  0  0  0  0  0  0  0  0  0  0  0  0  # atno 17343 bound_to 10162
  157.7053  131.0759  150.6686 LP  0  0  0  0  0  0  0  0  0  0  0  0  # atno 17370 bound_to 10713
  156.6747  130.4549  149.5646 LP  0  0  0  0  0  0  0  0  0  0  0  0  # atno 17371 bound_to 10713
  141.2189  133.7416  156.9204 LP  0  0  0  0  0  0  0  0  0  0  0  0  # atno 17394 bound_to 11000
  140.1454  134.9266  157.2522 LP  0  0  0  0  0  0  0  0  0  0  0  0  # atno 17395 bound_to 11000

$$$$
