AV-unprocessed.smi:1207|AV-procd|sdf|5060|dock6
  -GOLD-   22720 4103D 1   1.00000     0.00000
 Structure written by MMmdl.
 53 55  0  0  0  0  0  0  0  0  3 V2000
  152.2923  144.1814  159.9281 C   0  0  0  0  0  0  0  0  0  0  0  0
  152.0610  143.0970  158.8896 C   0  0  0  0  0  0  0  0  0  0  0  0
  151.1384  143.3457  157.8487 C   0  0  0  0  0  0  0  0  0  0  0  0
  150.9483  142.3348  156.9143 C   0  0  0  0  0  0  0  0  0  0  0  0
  150.1216  142.2739  155.7907 N   0  3  0  0  0  0  0  0  0  0  0  0
  150.2756  141.0682  155.1770 C   0  0  0  0  0  0  0  0  0  0  0  0
  151.1854  140.3550  155.8952 N   0  0  0  0  0  0  0  0  0  0  0  0
  151.7076  139.0008  155.6611 C   0  0  0  0  0  0  0  0  0  0  0  0
  150.8100  138.1518  154.7366 C   0  0  1  0  0  0  0  0  0  0  0  0
  151.6353  137.1625  154.1546 O   0  0  0  0  0  0  0  0  0  0  0  0
  149.6323  137.4723  155.4728 C   0  0  0  0  0  0  0  0  0  0  0  0
  148.5421  137.0039  154.5713 N   0  3  2  0  0  0  0  0  0  0  0  0
  147.6184  138.0886  154.1605 C   0  0  0  0  0  0  0  0  0  0  0  0
  147.7932  135.8395  155.1131 C   0  0  0  0  0  0  0  0  0  0  0  0
  148.6849  134.8868  155.8682 C   0  0  0  0  0  0  0  0  0  0  0  0
  149.1153  134.9797  157.2232 C   0  0  0  0  0  0  0  0  0  0  0  0
  148.7840  136.0374  158.2368 C   0  0  0  0  0  0  0  0  0  0  0  0
  149.9083  133.9771  157.5589 N   0  0  0  0  0  0  0  0  0  0  0  0
  150.0147  133.1743  156.4189 O   0  0  0  0  0  0  0  0  0  0  0  0
  149.2763  133.7344  155.4280 C   0  0  0  0  0  0  0  0  0  0  0  0
  149.2682  133.0193  154.1193 C   0  0  0  0  0  0  0  0  0  0  0  0
  151.6380  141.1086  156.9865 C   0  0  0  0  0  0  0  0  0  0  0  0
  152.5514  140.8485  158.0065 C   0  0  0  0  0  0  0  0  0  0  0  0
  152.7578  141.8636  158.9678 C   0  0  0  0  0  0  0  0  0  0  0  0
  153.7465  141.6053  160.0921 C   0  0  0  0  0  0  0  0  0  0  0  0
  151.7270  145.0843  159.6948 H   0  0  0  0  0  0  0  0  0  0  0  0
  153.3472  144.4527  159.9727 H   0  0  0  0  0  0  0  0  0  0  0  0
  151.9803  143.8378  160.9147 H   0  0  0  0  0  0  0  0  0  0  0  0
  150.6043  144.2826  157.7831 H   0  0  0  0  0  0  0  0  0  0  0  0
  149.7677  140.7382  154.2819 H   0  0  0  0  0  0  0  0  0  0  0  0
  152.6983  139.1109  155.2177 H   0  0  0  0  0  0  0  0  0  0  0  0
  151.8623  138.5067  156.6202 H   0  0  0  0  0  0  0  0  0  0  0  0
  150.4384  138.8002  153.9438 H   0  0  0  0  0  0  0  0  0  0  0  0
  151.2823  136.9221  153.3120 H   0  0  0  0  0  0  0  0  0  0  0  0
  150.0417  136.6313  156.0310 H   0  0  0  0  0  0  0  0  0  0  0  0
  149.2005  138.1481  156.2120 H   0  0  0  0  0  0  0  0  0  0  0  0
  147.1389  138.5429  155.0286 H   0  0  0  0  0  0  0  0  0  0  0  0
  146.8367  137.7040  153.5048 H   0  0  0  0  0  0  0  0  0  0  0  0
  148.1353  138.8694  153.6048 H   0  0  0  0  0  0  0  0  0  0  0  0
  146.9801  136.2045  155.7420 H   0  0  0  0  0  0  0  0  0  0  0  0
  147.3140  135.3110  154.2880 H   0  0  0  0  0  0  0  0  0  0  0  0
  149.0747  137.0251  157.8804 H   0  0  0  0  0  0  0  0  0  0  0  0
  149.2935  135.8634  159.1851 H   0  0  0  0  0  0  0  0  0  0  0  0
  147.7132  136.0604  158.4381 H   0  0  0  0  0  0  0  0  0  0  0  0
  148.6133  133.5162  153.4037 H   0  0  0  0  0  0  0  0  0  0  0  0
  148.9174  131.9944  154.2413 H   0  0  0  0  0  0  0  0  0  0  0  0
  150.2705  132.9852  153.6926 H   0  0  0  0  0  0  0  0  0  0  0  0
  153.0847  139.9118  158.0725 H   0  0  0  0  0  0  0  0  0  0  0  0
  154.1393  140.5887  160.0531 H   0  0  0  0  0  0  0  0  0  0  0  0
  153.2687  141.7383  161.0629 H   0  0  0  0  0  0  0  0  0  0  0  0
  154.5899  142.2928  160.0244 H   0  0  0  0  0  0  0  0  0  0  0  0
  148.9905  136.6741  153.7284 H   0  0  0  0  0  0  0  0  0  0  0  0
  149.5004  143.0024  155.4620 H   0  0  0  0  0  0  0  0  0  0  0  0
  1  2  1  0  0  0  0
  1 26  1  0  0  0  0
  1 27  1  0  0  0  0
  1 28  1  0  0  0  0
  2 24  1  0  0  0  0
  2  3  2  0  0  0  0
  3  4  1  0  0  0  0
  3 29  1  0  0  0  0
  4 22  2  0  0  0  0
  4  5  1  0  0  0  0
  5  6  2  0  0  0  0
  5 53  1  0  0  0  0
  6  7  1  0  0  0  0
  6 30  1  0  0  0  0
  7  8  1  0  0  0  0
  7 22  1  0  0  0  0
  8  9  1  0  0  0  0
  8 31  1  0  0  0  0
  8 32  1  0  0  0  0
  9 10  1  0  0  0  0
  9 11  1  0  0  0  0
  9 33  1  0  0  0  0
 10 34  1  0  0  0  0
 11 12  1  0  0  0  0
 11 35  1  0  0  0  0
 11 36  1  0  0  0  0
 12 13  1  0  0  0  0
 12 14  1  0  0  0  0
 12 52  1  0  0  0  0
 13 37  1  0  0  0  0
 13 38  1  0  0  0  0
 13 39  1  0  0  0  0
 14 15  1  0  0  0  0
 14 40  1  0  0  0  0
 14 41  1  0  0  0  0
 15 20  2  0  0  0  0
 15 16  1  0  0  0  0
 16 17  1  0  0  0  0
 16 18  2  0  0  0  0
 17 42  1  0  0  0  0
 17 43  1  0  0  0  0
 17 44  1  0  0  0  0
 18 19  1  0  0  0  0
 19 20  1  0  0  0  0
 20 21  1  0  0  0  0
 21 45  1  0  0  0  0
 21 46  1  0  0  0  0
 21 47  1  0  0  0  0
 22 23  1  0  0  0  0
 23 24  2  0  0  0  0
 23 48  1  0  0  0  0
 24 25  1  0  0  0  0
 25 49  1  0  0  0  0
 25 50  1  0  0  0  0
 25 51  1  0  0  0  0
M  CHG  1   5   1
M  CHG  1  12   1
M  END
> <s_m_source_file>
AV-unprocessed.smi

> <i_m_source_file_index>
1207

> <i_lp_mmshare_version>
43012

> <i_f3d_flags>
0

> <s_epik_input>
W0NIM11jKFtjSF0xKWMoW0NIM10pW2NIXWMoYzEyKW4oW2NIXW4yKVtDSDJdW0NASF0oW09IXSlbQ0gyXU4oW0NIM10pW0NIMl1jM2MoW0NIM10pbm9jM1tDSDNd

> <s_epik_cmdline>
J2VwaWtfcHl0aG9uJywgJy1waCcsICc3LjAnLCAnLXRuJywgJzgnLCAnLW1hJywgJzIwMCcsICctbWV0YWxfYmluZGluZycsICctaW1hZScsICc8aW5maWxlLm1hZT4nLCAnLW9tYWUnLCAnPG91dGZpbGUubWFlPic=

> <r_epik_Ionization_Penalty>
1.77463

> <r_epik_Ionization_Penalty_Charging>
1.77463

> <r_epik_Ionization_Penalty_Neutral>
3.70885e-06

> <r_epik_State_Penalty>
1.85225

> <r_epik_Charging_Adjusted_Penalty>
3.62688

> <i_epik_Tot_Q>
2

> <i_epik_Tot_abs_Q>
2

> <r_epik_Metal_State_Penalty>
1.92674

> <b_epik_Metal_Only>
0

> <s_lp_Force_Field>
OPLS_2005

> <r_lp_Energy>
19.6609

> <b_lp_Chiralities_Consistent>
1

> <s_lp_Variant>
AV-unprocessed.smi:1207-12

> <Gold.Version>
5.8.1

> <Gold.Id.Protein>
6NUR|6NUR_protein|mol2

> <Gold.PLP.Fitness>
63.7107

> <Gold.PLP.PLP>
-45.5360

> <Gold.PLP.part.hbond>
-5.0000

> <Gold.PLP.part.metal>
0.0000

> <Gold.PLP.part.buried>
-4.8920

> <Gold.PLP.part.nonpolar>
-35.5970

> <Gold.PLP.part.repulsive>
0.1277

> <Gold.PLP.ligand.clash>
0.0000

> <Gold.PLP.ligand.torsion>
1.4456

> <Gold.PLP.Chemscore.Hbond>
6.9600

> <Gold.PLP.Chemscore.CHOScore>
0.0000

> <Gold.PLP.Chemscore.Metal>
0.0000

> <Gold.Chemscore.Hbonds>
donor molecule, donor type, donor heavy atom, donor atom, acceptor molecule, acceptor atom, score
      L1  H     5    53       P1  8028  1.92
      L1  H    10    34       P1  7949  0.96
      L1  H    12    52       P1  7948  2.00
      P1  H  6896  6909       L1    18  1.00
      P1  H 10752 10765       L1    10  0.90

> <Gold.PLP.Chemscore.Internal.Correction>
0.1859

> <Gold.Rescore>
     Score         DG    S(hbond)    S(metal)    S(lipo)     H(rot)  DE(clash)    DE(int)     intcor
     24.45     -25.86       4.02        0.00     114.89       2.54       0.02       1.39       ----

> <Gold.Chemscore.Fitness>
24.4542

> <Gold.Chemscore.DG>
-25.8612

> <Gold.Chemscore.ZeroCoef>
-5.4800

> <Gold.Chemscore.Hbond>
4.0206

> <Gold.Chemscore.Metal>
0.0000

> <Gold.Chemscore.Lipo>
114.8907

> <Gold.Chemscore.Internal_Hbond>
0.0000

> <Gold.Chemscore.DEClash>
0.0200

> <Gold.Chemscore.DEInternal>
1.3870

> <Gold.Chemscore.Rot>
2.5351

> <Gold.Chemscore.Internal.Correction>
   9.000000E+99

> <Gold.Chemscore.Hbonds>
donor molecule, donor type, donor heavy atom, donor atom, acceptor molecule, acceptor atom, score
      L1  H     5    53       P1  8028  0.92
      L1  H    10    34       P1  7949  0.58
      L1  H    12    52       P1  7948  0.97
      P1  H  6896  6909       L1    18  0.94
      P1  H 10752 10765       L1    10  0.17

> <Gold.Chemscore.Hbond.Weighted>
-13.4289

> <Gold.Chemscore.Metal.Weighted>
-0.0000

> <Gold.Chemscore.Lipo.Weighted>
-13.4422

> <Gold.Chemscore.Internal_Hbond.Weighted>
0.0000

> <Gold.Chemscore.DEClash.Weighted>
0.0200

> <Gold.Chemscore.DEInternal.Weighted>
1.3870

> <Gold.Chemscore.Rot.Weighted>
6.4900

> <Gold.Chemscore.Internal.Correction.Weighted>
   9.000000E+99

> <Gold.Protein.RotatedTorsions>
[ 6907 6896 6895 6894 ] final   -0.78 input  -60.11 | X-H torsion
[ 7974 7965 7964 7962 ] final  112.04 input  175.53 | X-H torsion
[ 8008 7997 7996 7995 ] final   77.21 input   59.86 | X-H torsion
[ 10167 10162 10161 10158 ] final  156.23 input  -65.29 | X-H torsion
[ 10718 10713 10712 10709 ] final   46.83 input   66.30 | X-H torsion
[ 10763 10752 10751 10750 ] final  165.35 input  -60.55 | X-H torsion
[ 11005 11000 10999 10996 ] final -110.83 input  -57.11 | X-H torsion

> <Gold.Protein.ActiveResidues>
 VAL166  LYS551  ARG553  GLY616  TRP617  ASP618  TYR619  PRO620  LYS621  CYS622 
 ASP623  PHE694  ASN695  SER759  ASP760  ASP761  ALA762  ILE779  LEU786  VAL792 
 PHE793  MET794  SER795  GLU796  ALA797  LYS798  CYS799  TRP800  GLU811  SER814 

> <Gold.Protein.RotatedAtoms>
  151.5567  135.1066  159.9962 H   0  0  0  0  0  0  0  0  0  0  0  0  # atno 6907 bound_to 6896
  152.4466  133.7543  159.6722 H   0  0  0  0  0  0  0  0  0  0  0  0  # atno 6908 bound_to 6896
  150.8383  133.7910  159.3095 H   0  0  0  0  0  0  0  0  0  0  0  0  # atno 6909 bound_to 6896
  145.2346  139.2804  143.4150 H   0  0  0  0  0  0  0  0  0  0  0  0  # atno 7974 bound_to 7965
  155.8383  140.3463  155.5616 H   0  0  0  0  0  0  0  0  0  0  0  0  # atno 8008 bound_to 7997
  155.8168  140.0907  157.1892 H   0  0  0  0  0  0  0  0  0  0  0  0  # atno 8009 bound_to 7997
  154.4004  140.1437  156.3440 H   0  0  0  0  0  0  0  0  0  0  0  0  # atno 8010 bound_to 7997
  139.4821  144.5027  151.8143 H   0  0  0  0  0  0  0  0  0  0  0  0  # atno 10167 bound_to 10162
  157.4521  130.8145  149.7799 H   0  0  0  0  0  0  0  0  0  0  0  0  # atno 10718 bound_to 10713
  154.3227  135.2755  155.2511 H   0  0  0  0  0  0  0  0  0  0  0  0  # atno 10763 bound_to 10752
  154.4858  135.5846  153.6426 H   0  0  0  0  0  0  0  0  0  0  0  0  # atno 10764 bound_to 10752
  152.9875  135.6122  154.3413 H   0  0  0  0  0  0  0  0  0  0  0  0  # atno 10765 bound_to 10752
  141.0769  133.9286  157.2370 H   0  0  0  0  0  0  0  0  0  0  0  0  # atno 11005 bound_to 11000
  146.3344  140.2692  142.8605 LP  0  0  0  0  0  0  0  0  0  0  0  0  # atno 17320 bound_to 7965
  144.9645  140.8308  143.5493 LP  0  0  0  0  0  0  0  0  0  0  0  0  # atno 17321 bound_to 7965
  140.4522  144.1839  150.5898 LP  0  0  0  0  0  0  0  0  0  0  0  0  # atno 17342 bound_to 10162
  140.4572  143.2463  151.9268 LP  0  0  0  0  0  0  0  0  0  0  0  0  # atno 17343 bound_to 10162
  155.9992  130.3890  150.2674 LP  0  0  0  0  0  0  0  0  0  0  0  0  # atno 17370 bound_to 10713
  157.0847  131.0153  151.3144 LP  0  0  0  0  0  0  0  0  0  0  0  0  # atno 17371 bound_to 10713
  139.9582  135.0160  156.9186 LP  0  0  0  0  0  0  0  0  0  0  0  0  # atno 17394 bound_to 11000
  140.5553  134.0587  155.7382 LP  0  0  0  0  0  0  0  0  0  0  0  0  # atno 17395 bound_to 11000

$$$$
