#       Name:                AV-unprocessed.smi:2339
#       Creating user name   scv26
#       Creation time:       Fri Mar 27 12:56:20 2020


#       File generated by GOLD software.
#

@<TRIPOS>MOLECULE
AV-unprocessed.smi:2339
    55    58     1
SMALL
NO_CHARGES


@<TRIPOS>ATOM
      1 ****        -5.0319   1.3891  -3.8666 C.3            1 S1                 0.0000
      2 ****        -4.5758  -0.0741  -3.8745 C.3            1 S1                 0.0000
      3 ****        -3.1348  -0.1908  -3.7031 N.pl3          1 S1                 0.0000
      4 ****        -2.2786  -0.2491  -4.7979 C.2            1 S1                 0.0000
      5 ****        -0.9433  -0.4000  -4.7047 C.2            1 S1                 0.0000
      6 ****        -0.3200  -0.5186  -3.3712 C.2            1 S1                 0.0000
      7 ****         0.8984  -0.6457  -3.2477 O.2            1 S1                 0.0000
      8 ****        -1.2370  -0.4729  -2.2021 C.2            1 S1                 0.0000
      9 ****        -0.6324  -0.5827  -0.9404 N.am           1 S1                 0.0000
     10 ****        -1.1940  -0.6471   0.2839 C.2            1 S1                 0.0000
     11 ****        -2.4005  -0.6741   0.5156 O.2            1 S1                 0.0000
     12 ****        -0.2959  -0.6788   1.2838 N.am           1 S1                 0.0000
     13 ****        -0.5715  -0.7488   2.7285 C.3            1 S1                 0.0000
     14 ****        -0.9714  -2.1427   3.2282 C.3            1 S1                 0.0000
     15 ****        -1.5199  -3.3783   2.6091 C.3            1 S1                 0.0000
     16 ****        -0.6258  -4.3935   3.3678 C.3            1 S1                 0.0000
     17 ****         0.3786  -3.6045   4.0545 O.3            1 S1                 0.0000
     18 ****         0.5123  -2.4425   3.2582 C.3            1 S1                 0.0000
     19 ****         0.7090  -0.9525   3.6271 C.3            1 S1                 0.0000
     20 ****         0.6104  -0.5880   5.1229 C.3            1 S1                 0.0000
     21 ****         1.7944   0.3117   5.4816 C.3            1 S1                 0.0000
     22 ****         2.8411   0.0051   4.4209 C.3            1 S1                 0.0000
     23 ****         2.0143  -0.2881   3.1726 C.3            1 S1                 0.0000
     24 ****        -2.5642  -0.3131  -2.4378 C.2            1 S1                 0.0000
     25 ****        -6.1124   1.4584  -3.9922 H              1 S1                 0.0000
     26 ****        -4.5655   1.9515  -4.6759 H              1 S1                 0.0000
     27 ****        -4.7740   1.8773  -2.9263 H              1 S1                 0.0000
     28 ****        -5.0820  -0.6248  -3.0807 H              1 S1                 0.0000
     29 ****        -4.8709  -0.5490  -4.8110 H              1 S1                 0.0000
     30 ****        -2.7722  -0.1565  -5.7546 H              1 S1                 0.0000
     31 ****        -0.3167  -0.4367  -5.5837 H              1 S1                 0.0000
     32 ****         0.3770  -0.6031  -0.9641 H              1 S1                 0.0000
     33 ****         0.6785  -0.6518   1.0202 H              1 S1                 0.0000
     34 ****        -1.2216   0.0500   3.0894 H              1 S1                 0.0000
     35 ****        -1.3923  -2.0339   4.2331 H              1 S1                 0.0000
     36 ****        -2.5823  -3.5184   2.8101 H              1 S1                 0.0000
     37 ****        -1.3505  -3.4141   1.5325 H              1 S1                 0.0000
     38 ****        -1.1946  -4.9749   4.0938 H              1 S1                 0.0000
     39 ****        -0.1533  -5.0883   2.6725 H              1 S1                 0.0000
     40 ****         0.9409  -2.6959   2.2832 H              1 S1                 0.0000
     41 ****        -0.3308  -0.0937   5.3664 H              1 S1                 0.0000
     42 ****         0.6533  -1.4906   5.7338 H              1 S1                 0.0000
     43 ****         1.4947   1.3579   5.4057 H              1 S1                 0.0000
     44 ****         2.1600   0.1432   6.4950 H              1 S1                 0.0000
     45 ****         3.5497   0.8214   4.2775 H              1 S1                 0.0000
     46 ****         3.4048  -0.8842   4.7057 H              1 S1                 0.0000
     47 ****         2.5733  -0.9044   2.4677 H              1 S1                 0.0000
     48 ****         1.7959   0.6519   2.6642 H              1 S1                 0.0000
     49 ****        -3.2983  -0.2509  -1.6506 H              1 S1                 0.0000
     50 ****         1.4833  -0.6700  -4.0585 LP             1 S1                 0.0000
     51 ****         1.3030  -0.7246  -2.3367 LP             1 S1                 0.0000
     52 ****        -3.0554  -0.6478  -0.2397 LP             1 S1                 0.0000
     53 ****        -2.7275  -0.7223   1.4594 LP             1 S1                 0.0000
     54 ****         1.2452  -4.1008   4.1058 LP             1 S1                 0.0000
     55 ****         0.0743  -3.3688   4.9774 LP             1 S1                 0.0000
@<TRIPOS>BOND
    1    1    2 1     
    2    1   25 1     
    3    1   26 1     
    4    1   27 1     
    5    2    3 1     
    6    2   28 1     
    7    2   29 1     
    8    3   24 1     
    9    3    4 1     
   10    4    5 2     
   11    4   30 1     
   12    5    6 1     
   13    5   31 1     
   14    6    7 2     
   15    6    8 1     
   16    8    9 1     
   17    8   24 2     
   18    9   10 am    
   19    9   32 1     
   20   10   11 2     
   21   10   12 am    
   22   12   13 1     
   23   12   33 1     
   24   13   19 1     
   25   13   14 1     
   26   13   34 1     
   27   14   18 1     
   28   14   15 1     
   29   14   35 1     
   30   15   16 1     
   31   15   36 1     
   32   15   37 1     
   33   16   17 1     
   34   16   38 1     
   35   16   39 1     
   36   17   18 1     
   37   18   19 1     
   38   18   40 1     
   39   19   23 1     
   40   19   20 1     
   41   20   21 1     
   42   20   41 1     
   43   20   42 1     
   44   21   22 1     
   45   21   43 1     
   46   21   44 1     
   47   22   23 1     
   48   22   45 1     
   49   22   46 1     
   50   23   47 1     
   51   23   48 1     
   52   24   49 1     
   53    7   50 1     
   54    7   51 1     
   55   11   52 1     
   56   11   53 1     
   57   17   54 1     
   58   17   55 1     
@<TRIPOS>SUBSTRUCTURE
      1 S1             1
@<TRIPOS>SET
LONE_PAIRS      STATIC     ATOMS    <user>   **** ""
6 50 51 52 53 54 55
DONOR_HYDROGENS      STATIC     ATOMS    <user>   **** ""
2 32 33
ATOM$BLUE        STATIC     ATOMS    COLORGROUP SYSTEM
6 50 51 52 53 54 55
ATOM$RED        STATIC     ATOMS    COLORGROUP SYSTEM
2 32 33
