#       Name:                AV-unprocessed.smi:1437
#       Creating user name   scv26
#       Creation time:       Fri Mar 27 05:53:59 2020


#       File generated by GOLD software.
#

@<TRIPOS>MOLECULE
AV-unprocessed.smi:1437
    41    42     1
SMALL
NO_CHARGES


@<TRIPOS>ATOM
      1 ****        -6.4591  -2.7352   0.9561 C.3            1 S1                 0.0000
      2 ****        -5.1490  -2.4536   0.3031 C.2            1 S1                 0.0000
      3 ****        -3.8655  -2.4373   0.7699 C.2            1 S1                 0.0000
      4 ****        -3.1057  -2.0863  -0.3792 C.2            1 S1                 0.0000
      5 ****        -1.7714  -1.9526  -0.4304 N.pl3          1 S1                -1.0000
      6 ****        -1.1924  -0.7761  -0.0991 C.2            1 S1                 0.0000
      7 ****        -1.7740   0.2532   0.2516 O.2            1 S1                 0.0000
      8 ****         0.1461  -0.7939  -0.1786 N.am           1 S1                 0.0000
      9 ****         1.0374   0.3215   0.1251 C.3            1 S1                 0.0000
     10 ****         1.1655   1.2640  -1.0858 C.3            1 S1                 0.0000
     11 ****         2.1808   2.3850  -0.8102 C.3            1 S1                 0.0000
     12 ****         3.5021   1.8262  -0.4304 N.4            1 S1                 1.0000
     13 ****         4.5331   2.8744  -0.2747 C.3            1 S1                 0.0000
     14 ****         3.4120   0.9419   0.7582 C.3            1 S1                 0.0000
     15 ****         2.4255  -0.2118   0.5143 C.3            1 S1                 0.0000
     16 ****        -3.8602  -1.9211  -1.4528 N.2            1 S1                 0.0000
     17 ****        -5.1728  -2.1481  -1.0221 O.3            1 S1                 0.0000
     18 ****        -6.5096  -3.7729   1.2857 H              1 S1                 0.0000
     19 ****        -7.2881  -2.5575   0.2705 H              1 S1                 0.0000
     20 ****        -6.5995  -2.0959   1.8277 H              1 S1                 0.0000
     21 ****        -3.5236  -2.6402   1.7734 H              1 S1                 0.0000
     22 ****         0.5772  -1.6584  -0.4722 H              1 S1                 0.0000
     23 ****         0.6381   0.8810   0.9733 H              1 S1                 0.0000
     24 ****         1.4791   0.6980  -1.9644 H              1 S1                 0.0000
     25 ****         0.1960   1.6999  -1.3297 H              1 S1                 0.0000
     26 ****         2.2881   3.0045  -1.7014 H              1 S1                 0.0000
     27 ****         1.8146   3.0344  -0.0134 H              1 S1                 0.0000
     28 ****         4.2830   3.5510   0.5436 H              1 S1                 0.0000
     29 ****         4.6261   3.4619  -1.1887 H              1 S1                 0.0000
     30 ****         5.5064   2.4289  -0.0660 H              1 S1                 0.0000
     31 ****         4.3975   0.5347   0.9869 H              1 S1                 0.0000
     32 ****         3.1002   1.5253   1.6263 H              1 S1                 0.0000
     33 ****         2.3513  -0.8296   1.4103 H              1 S1                 0.0000
     34 ****         2.8112  -0.8579  -0.2759 H              1 S1                 0.0000
     35 ****         3.7987   1.2432  -1.2002 H              1 S1                 0.0000
     36 ****        -1.2035  -2.7252  -0.7144 LP             1 S1                 0.0000
     37 ****        -2.7720   0.2677   0.3119 LP             1 S1                 0.0000
     38 ****        -1.2475   1.0733   0.4757 LP             1 S1                 0.0000
     39 ****        -3.5574  -1.6844  -2.3760 LP             1 S1                 0.0000
     40 ****        -5.7221  -1.3254  -1.1682 LP             1 S1                 0.0000
     41 ****        -5.5689  -2.9090  -1.5360 LP             1 S1                 0.0000
@<TRIPOS>BOND
    1    1    2 1     
    2    1   18 1     
    3    1   19 1     
    4    1   20 1     
    5    2   17 1     
    6    2    3 2     
    7    3    4 1     
    8    3   21 1     
    9    4    5 1     
   10    4   16 2     
   11    5    6 1     
   12    6    7 2     
   13    6    8 am    
   14    8    9 1     
   15    8   22 1     
   16    9   15 1     
   17    9   10 1     
   18    9   23 1     
   19   10   11 1     
   20   10   24 1     
   21   10   25 1     
   22   11   12 1     
   23   11   26 1     
   24   11   27 1     
   25   12   13 1     
   26   12   14 1     
   27   12   35 1     
   28   13   28 1     
   29   13   29 1     
   30   13   30 1     
   31   14   15 1     
   32   14   31 1     
   33   14   32 1     
   34   15   33 1     
   35   15   34 1     
   36   16   17 1     
   37    5   36 1     
   38    7   37 1     
   39    7   38 1     
   40   16   39 1     
   41   17   40 1     
   42   17   41 1     
@<TRIPOS>SUBSTRUCTURE
      1 S1             1
@<TRIPOS>SET
LONE_PAIRS      STATIC     ATOMS    <user>   **** ""
6 36 37 38 39 40 41
DONOR_HYDROGENS      STATIC     ATOMS    <user>   **** ""
2 22 35
ATOM$BLUE        STATIC     ATOMS    COLORGROUP SYSTEM
6 36 37 38 39 40 41
ATOM$RED        STATIC     ATOMS    COLORGROUP SYSTEM
2 22 35
