AV-unprocessed.smi:1041|AV-procd|sdf|4529|dock5
  -GOLD-   22720 2553D 1   1.00000     0.00000
 Structure written by MMmdl.
 53 54  0  0  0  0  0  0  0  0  2 V2000
  151.5407  143.5155  159.7471 C   0  0  0  0  0  0  0  0  0  0  0  0
  150.4829  142.6325  159.4167 O   0  0  0  0  0  0  0  0  0  0  0  0
  150.0702  142.7587  158.0661 C   0  0  0  0  0  0  0  0  0  0  0  0
  149.0672  141.6387  157.7487 C   0  0  0  0  0  0  0  0  0  0  0  0
  148.4121  141.8226  156.4290 N   0  3  2  0  0  0  0  0  0  0  0  0
  147.0944  141.1400  156.3545 C   0  0  0  0  0  0  0  0  0  0  0  0
  146.3756  141.4490  155.0274 C   0  0  0  0  0  0  0  0  0  0  0  0
  147.2379  141.0983  153.8003 C   0  0  2  0  0  0  0  0  0  0  0  0
  147.3197  139.5713  153.5657 C   0  0  0  0  0  0  0  0  0  0  0  0
  146.0218  139.0059  153.2142 N   0  0  0  0  0  0  0  0  0  0  0  0
  145.6368  137.7394  153.4362 C   0  0  0  0  0  0  0  0  0  0  0  0
  146.3242  136.9121  154.0338 O   0  0  0  0  0  0  0  0  0  0  0  0
  144.2801  137.3379  152.8595 C   0  0  0  0  0  0  0  0  0  0  0  0
  144.3069  136.0881  151.9822 C   0  0  0  0  0  0  0  0  0  0  0  0
  143.4137  135.0632  152.1122 C   0  0  0  0  0  0  0  0  0  0  0  0
  142.2931  135.0677  153.1375 C   0  0  0  0  0  0  0  0  0  0  0  0
  143.4752  133.9275  151.2928 N   0  0  0  0  0  0  0  0  0  0  0  0
  144.4036  133.8556  150.3969 C   0  0  0  0  0  0  0  0  0  0  0  0
  144.5751  132.6868  149.4498 C   0  0  0  0  0  0  0  0  0  0  0  0
  145.3502  134.8626  150.2176 N   0  0  0  0  0  0  0  0  0  0  0  0
  145.3695  135.9903  150.9626 C   0  0  0  0  0  0  0  0  0  0  0  0
  146.2363  136.8434  150.7777 O   0  0  0  0  0  0  0  0  0  0  0  0
  148.6056  141.7985  153.9450 C   0  0  0  0  0  0  0  0  0  0  0  0
  149.2858  141.4600  155.2818 C   0  0  0  0  0  0  0  0  0  0  0  0
  146.0561  134.7498  149.5047 H   0  0  0  0  0  0  0  0  0  0  0  0
  151.8232  143.3747  160.7903 H   0  0  0  0  0  0  0  0  0  0  0  0
  151.2398  144.5561  159.6178 H   0  0  0  0  0  0  0  0  0  0  0  0
  152.4208  143.3257  159.1313 H   0  0  0  0  0  0  0  0  0  0  0  0
  149.6432  143.7448  157.8821 H   0  0  0  0  0  0  0  0  0  0  0  0
  150.9382  142.6616  157.4122 H   0  0  0  0  0  0  0  0  0  0  0  0
  149.5572  140.6647  157.7823 H   0  0  0  0  0  0  0  0  0  0  0  0
  148.3137  141.6301  158.5376 H   0  0  0  0  0  0  0  0  0  0  0  0
  147.2304  140.0652  156.4797 H   0  0  0  0  0  0  0  0  0  0  0  0
  146.4651  141.4724  157.1809 H   0  0  0  0  0  0  0  0  0  0  0  0
  145.4235  140.9190  154.9855 H   0  0  0  0  0  0  0  0  0  0  0  0
  146.1296  142.5115  154.9990 H   0  0  0  0  0  0  0  0  0  0  0  0
  146.7469  141.5221  152.9229 H   0  0  0  0  0  0  0  0  0  0  0  0
  148.0673  139.3285  152.8100 H   0  0  0  0  0  0  0  0  0  0  0  0
  147.6529  139.0804  154.4805 H   0  0  0  0  0  0  0  0  0  0  0  0
  145.3839  139.6098  152.7150 H   0  0  0  0  0  0  0  0  0  0  0  0
  143.5893  137.1890  153.6892 H   0  0  0  0  0  0  0  0  0  0  0  0
  143.8603  138.1776  152.3032 H   0  0  0  0  0  0  0  0  0  0  0  0
  141.6071  135.8946  152.9525 H   0  0  0  0  0  0  0  0  0  0  0  0
  142.6931  135.1652  154.1462 H   0  0  0  0  0  0  0  0  0  0  0  0
  141.7163  134.1429  153.0975 H   0  0  0  0  0  0  0  0  0  0  0  0
  144.7447  131.7689  150.0133 H   0  0  0  0  0  0  0  0  0  0  0  0
  145.4195  132.8345  148.7750 H   0  0  0  0  0  0  0  0  0  0  0  0
  143.6757  132.5581  148.8471 H   0  0  0  0  0  0  0  0  0  0  0  0
  149.2660  141.5534  153.1133 H   0  0  0  0  0  0  0  0  0  0  0  0
  148.4590  142.8780  153.8905 H   0  0  0  0  0  0  0  0  0  0  0  0
  150.2290  142.0014  155.3379 H   0  0  0  0  0  0  0  0  0  0  0  0
  149.5332  140.3987  155.3276 H   0  0  0  0  0  0  0  0  0  0  0  0
  148.2166  142.8104  156.3479 H   0  0  0  0  0  0  0  0  0  0  0  0
  1  2  1  0  0  0  0
  1 26  1  0  0  0  0
  1 27  1  0  0  0  0
  1 28  1  0  0  0  0
  2  3  1  0  0  0  0
  3  4  1  0  0  0  0
  3 29  1  0  0  0  0
  3 30  1  0  0  0  0
  4  5  1  0  0  0  0
  4 31  1  0  0  0  0
  4 32  1  0  0  0  0
  5 24  1  0  0  0  0
  5  6  1  0  0  0  0
  5 53  1  0  0  0  0
  6  7  1  0  0  0  0
  6 33  1  0  0  0  0
  6 34  1  0  0  0  0
  7  8  1  0  0  0  0
  7 35  1  0  0  0  0
  7 36  1  0  0  0  0
  8  9  1  0  0  0  0
  8 23  1  0  0  0  0
  8 37  1  0  0  0  0
  9 10  1  0  0  0  0
  9 38  1  0  0  0  0
  9 39  1  0  0  0  0
 10 11  1  0  0  0  0
 10 40  1  0  0  0  0
 11 12  2  0  0  0  0
 11 13  1  0  0  0  0
 13 14  1  0  0  0  0
 13 41  1  0  0  0  0
 13 42  1  0  0  0  0
 14 21  1  0  0  0  0
 14 15  2  0  0  0  0
 15 16  1  0  0  0  0
 15 17  1  0  0  0  0
 16 43  1  0  0  0  0
 16 44  1  0  0  0  0
 16 45  1  0  0  0  0
 17 18  2  0  0  0  0
 18 19  1  0  0  0  0
 18 20  1  0  0  0  0
 19 46  1  0  0  0  0
 19 47  1  0  0  0  0
 19 48  1  0  0  0  0
 20 25  1  0  0  0  0
 20 21  1  0  0  0  0
 21 22  2  0  0  0  0
 23 24  1  0  0  0  0
 23 49  1  0  0  0  0
 23 50  1  0  0  0  0
 24 51  1  0  0  0  0
 24 52  1  0  0  0  0
M  CHG  1   5   1
M  END
> <s_m_source_file>
AV-unprocessed.smi

> <i_m_source_file_index>
1041

> <i_lp_mmshare_version>
43012

> <i_f3d_flags>
0

> <s_epik_input>
W0NIM11PW0NIMl1bQ0gyXU4xW0NIMl1bQ0gyXVtDSF0oW0NIMl1bQ0gyXTEpW0NIMl1bTkhdQyg9TylbQ0gyXWMyYyhbQ0gzXSluYyhbQ0gzXSlbbkhdYzI9Tw==

> <s_epik_cmdline>
J2VwaWtfcHl0aG9uJywgJy1waCcsICc3LjAnLCAnLXRuJywgJzgnLCAnLW1hJywgJzIwMCcsICctbWV0YWxfYmluZGluZycsICctaW1hZScsICc8aW5maWxlLm1hZT4nLCAnLW9tYWUnLCAnPG91dGZpbGUubWFlPic=

> <r_lp_tautomer_probability>
0.839158

> <r_epik_Ionization_Penalty>
0.00964357

> <r_epik_Ionization_Penalty_Charging>
0.00961423

> <r_epik_Ionization_Penalty_Neutral>
2.93415e-05

> <r_epik_State_Penalty>
0.0972512

> <r_epik_Charging_Adjusted_Penalty>
0.106865

> <i_epik_Tot_Q>
1

> <i_epik_Tot_abs_Q>
1

> <r_epik_Metal_State_Penalty>
0.270886

> <b_epik_Metal_Only>
0

> <s_lp_Force_Field>
OPLS_2005

> <r_lp_Energy>
21.6557

> <b_lp_Chiralities_Consistent>
1

> <s_lp_Variant>
AV-unprocessed.smi:1041-2

> <Gold.Version>
5.8.1

> <Gold.Id.Protein>
6NUR|6NUR_protein|mol2

> <Gold.PLP.Fitness>
49.1016

> <Gold.PLP.PLP>
-38.1017

> <Gold.PLP.part.hbond>
-3.5029

> <Gold.PLP.part.metal>
0.0000

> <Gold.PLP.part.buried>
-2.3719

> <Gold.PLP.part.nonpolar>
-33.1412

> <Gold.PLP.part.repulsive>
2.1586

> <Gold.PLP.ligand.clash>
0.0000

> <Gold.PLP.ligand.torsion>
0.6546

> <Gold.PLP.Chemscore.Hbond>
4.0578

> <Gold.PLP.Chemscore.CHOScore>
0.0000

> <Gold.PLP.Chemscore.Metal>
0.0000

> <Gold.Chemscore.Hbonds>
donor molecule, donor type, donor heavy atom, donor atom, acceptor molecule, acceptor atom, score
      L1  H     5    53       P1  8028  1.47
      L1  H    10    40       P1 10175  1.00
      L1  H    20    25       P1  7921  0.75
      P1  H  7954  7966       L1    22  0.20

> <Gold.PLP.Chemscore.Internal.Correction>
0.1356

> <Gold.Rescore>
     Score         DG    S(hbond)    S(metal)    S(lipo)     H(rot)  DE(clash)    DE(int)     intcor
     14.25     -19.71       2.89        0.00      92.12       2.43       3.49       1.96       ----

> <Gold.Chemscore.Fitness>
14.2524

> <Gold.Chemscore.DG>
-19.7058

> <Gold.Chemscore.ZeroCoef>
-5.4800

> <Gold.Chemscore.Hbond>
2.8942

> <Gold.Chemscore.Metal>
0.0000

> <Gold.Chemscore.Lipo>
92.1167

> <Gold.Chemscore.Internal_Hbond>
0.0000

> <Gold.Chemscore.DEClash>
3.4918

> <Gold.Chemscore.DEInternal>
1.9616

> <Gold.Chemscore.Rot>
2.4291

> <Gold.Chemscore.Internal.Correction>
   9.000000E+99

> <Gold.Chemscore.Hbonds>
donor molecule, donor type, donor heavy atom, donor atom, acceptor molecule, acceptor atom, score
      L1  H     5    53       P1  8028  0.53
      L1  H    10    40       P1 10175  0.96
      L1  H    20    25       P1  7921  0.46
      P1  H  7954  7966       L1    22  0.21

> <Gold.Chemscore.Hbond.Weighted>
-9.6667

> <Gold.Chemscore.Metal.Weighted>
-0.0000

> <Gold.Chemscore.Lipo.Weighted>
-10.7777

> <Gold.Chemscore.Internal_Hbond.Weighted>
0.0000

> <Gold.Chemscore.DEClash.Weighted>
3.4918

> <Gold.Chemscore.DEInternal.Weighted>
1.9616

> <Gold.Chemscore.Rot.Weighted>
6.2186

> <Gold.Chemscore.Internal.Correction.Weighted>
   9.000000E+99

> <Gold.Protein.RotatedTorsions>
[ 6907 6896 6895 6894 ] final -131.03 input  -60.11 | X-H torsion
[ 7974 7965 7964 7962 ] final  -18.39 input  175.53 | X-H torsion
[ 8008 7997 7996 7995 ] final    8.71 input   59.86 | X-H torsion
[ 10167 10162 10161 10158 ] final -127.67 input  -65.29 | X-H torsion
[ 10718 10713 10712 10709 ] final  126.42 input   66.30 | X-H torsion
[ 10763 10752 10751 10750 ] final -168.86 input  -60.55 | X-H torsion
[ 11005 11000 10999 10996 ] final  -93.26 input  -57.11 | X-H torsion

> <Gold.Protein.ActiveResidues>
 VAL166  LYS551  ARG553  GLY616  TRP617  ASP618  TYR619  PRO620  LYS621  CYS622 
 ASP623  PHE694  ASN695  SER759  ASP760  ASP761  ALA762  ILE779  LEU786  VAL792 
 PHE793  MET794  SER795  GLU796  ALA797  LYS798  CYS799  TRP800  GLU811  SER814 

> <Gold.Protein.RotatedAtoms>
  150.9464  133.6599  159.2780 H   0  0  0  0  0  0  0  0  0  0  0  0  # atno 6907 bound_to 6896
  151.3970  135.0964  159.9554 H   0  0  0  0  0  0  0  0  0  0  0  0  # atno 6908 bound_to 6896
  152.5091  133.8966  159.7475 H   0  0  0  0  0  0  0  0  0  0  0  0  # atno 6909 bound_to 6896
  146.1895  140.3914  142.8463 H   0  0  0  0  0  0  0  0  0  0  0  0  # atno 7974 bound_to 7965
  154.7705  140.2801  155.6142 H   0  0  0  0  0  0  0  0  0  0  0  0  # atno 8008 bound_to 7997
  156.2933  140.2642  156.2434 H   0  0  0  0  0  0  0  0  0  0  0  0  # atno 8009 bound_to 7997
  154.9906  140.0373  157.2307 H   0  0  0  0  0  0  0  0  0  0  0  0  # atno 8010 bound_to 7997
  139.9584  143.5977  152.2453 H   0  0  0  0  0  0  0  0  0  0  0  0  # atno 10167 bound_to 10162
  157.5420  131.1096  150.8843 H   0  0  0  0  0  0  0  0  0  0  0  0  # atno 10718 bound_to 10713
  154.6584  135.2921  154.9898 H   0  0  0  0  0  0  0  0  0  0  0  0  # atno 10763 bound_to 10752
  154.0967  135.6583  153.4865 H   0  0  0  0  0  0  0  0  0  0  0  0  # atno 10764 bound_to 10752
  153.0415  135.5233  154.7523 H   0  0  0  0  0  0  0  0  0  0  0  0  # atno 10765 bound_to 10752
  141.1502  133.7875  157.0134 H   0  0  0  0  0  0  0  0  0  0  0  0  # atno 11005 bound_to 11000
  144.8459  140.6928  143.6199 LP  0  0  0  0  0  0  0  0  0  0  0  0  # atno 17320 bound_to 7965
  145.3838  139.1631  143.4266 LP  0  0  0  0  0  0  0  0  0  0  0  0  # atno 17321 bound_to 7965
  139.6573  144.7662  151.2030 LP  0  0  0  0  0  0  0  0  0  0  0  0  # atno 17342 bound_to 10162
  140.7561  143.6065  150.8648 LP  0  0  0  0  0  0  0  0  0  0  0  0  # atno 17343 bound_to 10162
  156.9393  130.5378  149.5280 LP  0  0  0  0  0  0  0  0  0  0  0  0  # atno 17370 bound_to 10713
  156.0505  130.5575  150.8977 LP  0  0  0  0  0  0  0  0  0  0  0  0  # atno 17371 bound_to 10713
  140.0862  134.9619  157.1704 LP  0  0  0  0  0  0  0  0  0  0  0  0  # atno 17394 bound_to 11000
  140.3508  134.2601  155.7199 LP  0  0  0  0  0  0  0  0  0  0  0  0  # atno 17395 bound_to 11000

$$$$
