AV-unprocessed.smi:197|AV-procd|sdf|1550|dock4
  -GOLD-   2262019413D 1   1.00000     0.00000
 Structure written by MMmdl.
 54 57  0  0  0  0  0  0  0  0  1 V2000
  147.3545  136.0143  162.7954 C   0  0  0  0  0  0  0  0  0  0  0  0
  148.1544  136.8222  161.9445 O   0  0  0  0  0  0  0  0  0  0  0  0
  148.0747  136.4856  160.5646 C   0  0  0  0  0  0  0  0  0  0  0  0
  149.3902  136.7732  159.8173 C   0  0  0  0  0  0  0  0  0  0  0  0
  149.3372  136.4407  158.3019 C   0  0  2  0  0  0  0  0  0  0  0  0
  148.6018  135.1032  158.0528 C   0  0  0  0  0  0  0  0  0  0  0  0
  148.5765  134.8002  156.6624 O   0  0  0  0  0  0  0  0  0  0  0  0
  149.8853  134.6476  156.1295 C   0  0  0  0  0  0  0  0  0  0  0  0
  150.6461  135.9705  156.2879 C   0  0  0  0  0  0  0  0  0  0  0  0
  150.6708  136.3745  157.6891 N   0  0  0  0  0  0  0  0  0  0  0  0
  151.4534  137.4639  157.8596 C   0  0  0  0  0  0  0  0  0  0  0  0
  152.6908  137.2587  158.3736 N   0  0  0  0  0  0  0  0  0  0  0  0
  153.4956  138.2991  158.6104 C   0  0  0  0  0  0  0  0  0  0  0  0
  153.2611  139.5985  158.4143 N   0  0  0  0  0  0  0  0  0  0  0  0
  152.0206  139.8055  157.8861 C   0  0  0  0  0  0  0  0  0  0  0  0
  151.0640  138.8021  157.5663 C   0  0  0  0  0  0  0  0  0  0  0  0
  149.9236  139.3886  157.0307 N   0  0  0  0  0  0  0  0  0  0  0  0
  150.1835  140.6666  157.0500 C   0  0  0  0  0  0  0  0  0  0  0  0
  151.4143  141.0073  157.5641 N   0  0  0  0  0  0  0  0  0  0  0  0
  151.9514  142.3496  157.7249 C   0  0  0  0  0  0  0  0  0  0  0  0
  151.4665  143.0529  159.0206 C   0  0  2  0  0  0  0  0  0  0  0  0
  150.0813  142.7899  159.1713 O   0  0  0  0  0  0  0  0  0  0  0  0
  151.6506  144.5686  158.9986 C   0  0  0  0  0  0  0  0  0  0  0  0
  151.8241  144.9153  160.4690 C   0  0  0  0  0  0  0  0  0  0  0  0
  152.6234  143.8453  160.9402 O   0  0  0  0  0  0  0  0  0  0  0  0
  152.1735  142.6331  160.3407 C   0  0  2  0  0  0  0  0  0  0  0  0
  153.3872  141.6997  160.2107 C   0  0  0  0  0  0  0  0  0  0  0  0
  147.4416  136.3736  163.8207 H   0  0  0  0  0  0  0  0  0  0  0  0
  147.6701  134.9717  162.7886 H   0  0  0  0  0  0  0  0  0  0  0  0
  146.3024  136.0625  162.5123 H   0  0  0  0  0  0  0  0  0  0  0  0
  147.7922  135.4383  160.4488 H   0  0  0  0  0  0  0  0  0  0  0  0
  147.2632  137.0634  160.1239 H   0  0  0  0  0  0  0  0  0  0  0  0
  149.6432  137.8183  159.9868 H   0  0  0  0  0  0  0  0  0  0  0  0
  150.2007  136.2103  160.2815 H   0  0  0  0  0  0  0  0  0  0  0  0
  148.7754  137.2229  157.7918 H   0  0  0  0  0  0  0  0  0  0  0  0
  149.0768  134.2869  158.5997 H   0  0  0  0  0  0  0  0  0  0  0  0
  147.5706  135.1589  158.3996 H   0  0  0  0  0  0  0  0  0  0  0  0
  150.4072  133.8325  156.6337 H   0  0  0  0  0  0  0  0  0  0  0  0
  149.8121  134.3787  155.0756 H   0  0  0  0  0  0  0  0  0  0  0  0
  151.6644  135.8572  155.9133 H   0  0  0  0  0  0  0  0  0  0  0  0
  150.1662  136.7459  155.6888 H   0  0  0  0  0  0  0  0  0  0  0  0
  154.4635  138.0563  159.0233 H   0  0  0  0  0  0  0  0  0  0  0  0
  149.4741  141.4010  156.6973 H   0  0  0  0  0  0  0  0  0  0  0  0
  153.0402  142.2850  157.7108 H   0  0  0  0  0  0  0  0  0  0  0  0
  151.6635  142.9256  156.8452 H   0  0  0  0  0  0  0  0  0  0  0  0
  149.8708  142.8092  160.0925 H   0  0  0  0  0  0  0  0  0  0  0  0
  152.5683  144.8276  158.4689 H   0  0  0  0  0  0  0  0  0  0  0  0
  150.8296  145.1075  158.5237 H   0  0  0  0  0  0  0  0  0  0  0  0
  152.3091  145.8794  160.6226 H   0  0  0  0  0  0  0  0  0  0  0  0
  150.8655  144.9206  160.9901 H   0  0  0  0  0  0  0  0  0  0  0  0
  151.4585  142.1730  161.0254 H   0  0  0  0  0  0  0  0  0  0  0  0
  153.1068  140.7394  159.7777 H   0  0  0  0  0  0  0  0  0  0  0  0
  153.8230  141.4993  161.1898 H   0  0  0  0  0  0  0  0  0  0  0  0
  154.1683  142.1405  159.5911 H   0  0  0  0  0  0  0  0  0  0  0  0
  1  2  1  0  0  0  0
  1 28  1  0  0  0  0
  1 29  1  0  0  0  0
  1 30  1  0  0  0  0
  2  3  1  0  0  0  0
  3  4  1  0  0  0  0
  3 31  1  0  0  0  0
  3 32  1  0  0  0  0
  4  5  1  0  0  0  0
  4 33  1  0  0  0  0
  4 34  1  0  0  0  0
  5 10  1  0  0  0  0
  5  6  1  0  0  0  0
  5 35  1  0  0  0  0
  6  7  1  0  0  0  0
  6 36  1  0  0  0  0
  6 37  1  0  0  0  0
  7  8  1  0  0  0  0
  8  9  1  0  0  0  0
  8 38  1  0  0  0  0
  8 39  1  0  0  0  0
  9 10  1  0  0  0  0
  9 40  1  0  0  0  0
  9 41  1  0  0  0  0
 10 11  1  0  0  0  0
 11 16  1  0  0  0  0
 11 12  2  0  0  0  0
 12 13  1  0  0  0  0
 13 14  2  0  0  0  0
 13 42  1  0  0  0  0
 14 15  1  0  0  0  0
 15 19  1  0  0  0  0
 15 16  2  0  0  0  0
 16 17  1  0  0  0  0
 17 18  2  0  0  0  0
 18 19  1  0  0  0  0
 18 43  1  0  0  0  0
 19 20  1  0  0  0  0
 20 21  1  0  0  0  0
 20 44  1  0  0  0  0
 20 45  1  0  0  0  0
 21 26  1  0  0  0  0
 21 22  1  0  0  0  0
 21 23  1  0  0  0  0
 22 46  1  0  0  0  0
 23 24  1  0  0  0  0
 23 47  1  0  0  0  0
 23 48  1  0  0  0  0
 24 25  1  0  0  0  0
 24 49  1  0  0  0  0
 24 50  1  0  0  0  0
 25 26  1  0  0  0  0
 26 27  1  0  0  0  0
 26 51  1  0  0  0  0
 27 52  1  0  0  0  0
 27 53  1  0  0  0  0
 27 54  1  0  0  0  0
M  END
> <s_m_source_file>
AV-unprocessed.smi

> <i_m_source_file_index>
197

> <i_lp_mmshare_version>
43012

> <i_f3d_flags>
0

> <s_epik_input>
W0NIM11PW0NIMl1bQ0gyXVtDQEBIXTFbQ0gyXU9bQ0gyXVtDSDJdTjFjKG5bY0hdbjIpYyhjMjMpbltjSF1uM1tDSDJdW0NAQF00KFtPSF0pW0NIMl1bQ0gyXU9bQ0BIXTRbQ0gzXQ==

> <s_epik_cmdline>
J2VwaWtfcHl0aG9uJywgJy1waCcsICc3LjAnLCAnLXRuJywgJzgnLCAnLW1hJywgJzIwMCcsICctbWV0YWxfYmluZGluZycsICctaW1hZScsICc8aW5maWxlLm1hZT4nLCAnLW9tYWUnLCAnPG91dGZpbGUubWFlPic=

> <r_lp_tautomer_probability>
1

> <r_epik_Ionization_Penalty>
0.000106218

> <r_epik_Ionization_Penalty_Charging>
0

> <r_epik_Ionization_Penalty_Neutral>
0.000106218

> <r_epik_State_Penalty>
-0

> <r_epik_Charging_Adjusted_Penalty>
0

> <i_epik_Tot_Q>
0

> <i_epik_Tot_abs_Q>
0

> <r_epik_Metal_State_Penalty>
-0

> <b_epik_Metal_Only>
0

> <s_lp_Force_Field>
OPLS_2005

> <r_lp_Energy>
42.452

> <b_lp_Chiralities_Consistent>
1

> <s_lp_Variant>
AV-unprocessed.smi:197-7

> <Gold.Version>
5.8.1

> <Gold.Id.Protein>
6NUR|6NUR_protein|mol2

> <Gold.PLP.Fitness>
46.5125

> <Gold.PLP.PLP>
-42.6531

> <Gold.PLP.part.hbond>
-3.2561

> <Gold.PLP.part.metal>
0.0000

> <Gold.PLP.part.buried>
-6.5878

> <Gold.PLP.part.nonpolar>
-33.5570

> <Gold.PLP.part.repulsive>
0.0827

> <Gold.PLP.ligand.clash>
0.0000

> <Gold.PLP.ligand.torsion>
1.1931

> <Gold.PLP.Chemscore.Hbond>
2.0000

> <Gold.PLP.Chemscore.CHOScore>
0.0000

> <Gold.PLP.Chemscore.Metal>
0.0000

> <Gold.Chemscore.Hbonds>
donor molecule, donor type, donor heavy atom, donor atom, acceptor molecule, acceptor atom, score
      P1  H  6931  6943       L1     2  1.00
      P1  H  7997  8008       L1    14  0.95

> <Gold.PLP.Chemscore.Internal.Correction>
0.2455

> <Gold.Rescore>
     Score         DG    S(hbond)    S(metal)    S(lipo)     H(rot)  DE(clash)    DE(int)     intcor
     10.89     -14.88       1.59        0.00      96.95       2.84       0.12       3.87       ----

> <Gold.Chemscore.Fitness>
10.8932

> <Gold.Chemscore.DG>
-14.8755

> <Gold.Chemscore.ZeroCoef>
-5.4800

> <Gold.Chemscore.Hbond>
1.5903

> <Gold.Chemscore.Metal>
0.0000

> <Gold.Chemscore.Lipo>
96.9525

> <Gold.Chemscore.Internal_Hbond>
0.0000

> <Gold.Chemscore.DEClash>
0.1151

> <Gold.Chemscore.DEInternal>
3.8673

> <Gold.Chemscore.Rot>
2.8358

> <Gold.Chemscore.Internal.Correction>
   9.000000E+99

> <Gold.Chemscore.Hbonds>
donor molecule, donor type, donor heavy atom, donor atom, acceptor molecule, acceptor atom, score
      P1  H  6931  6943       L1     2  0.40
      P1  H  7997  8008       L1    14  0.19

> <Gold.Chemscore.Hbond.Weighted>
-5.3116

> <Gold.Chemscore.Metal.Weighted>
-0.0000

> <Gold.Chemscore.Lipo.Weighted>
-11.3434

> <Gold.Chemscore.Internal_Hbond.Weighted>
0.0000

> <Gold.Chemscore.DEClash.Weighted>
0.1151

> <Gold.Chemscore.DEInternal.Weighted>
3.8673

> <Gold.Chemscore.Rot.Weighted>
7.2596

> <Gold.Chemscore.Internal.Correction.Weighted>
   9.000000E+99

> <Gold.Protein.RotatedTorsions>
[ 6907 6896 6895 6894 ] final  -30.25 input  -60.11 | X-H torsion
[ 7974 7965 7964 7962 ] final  -75.12 input  175.53 | X-H torsion
[ 8008 7997 7996 7995 ] final -101.18 input   59.86 | X-H torsion
[ 10167 10162 10161 10158 ] final   19.41 input  -65.29 | X-H torsion
[ 10718 10713 10712 10709 ] final  118.80 input   66.30 | X-H torsion
[ 10763 10752 10751 10750 ] final  -57.41 input  -60.55 | X-H torsion
[ 11005 11000 10999 10996 ] final -173.16 input  -57.11 | X-H torsion

> <Gold.Protein.ActiveResidues>
 VAL166  LYS551  ARG553  GLY616  TRP617  ASP618  TYR619  PRO620  LYS621  CYS622 
 ASP623  PHE694  ASN695  SER759  ASP760  ASP761  ALA762  ILE779  LEU786  VAL792 
 PHE793  MET794  SER795  GLU796  ALA797  LYS798  CYS799  TRP800  GLU811  SER814 

> <Gold.Protein.RotatedAtoms>
  151.1081  135.0011  159.8480 H   0  0  0  0  0  0  0  0  0  0  0  0  # atno 6907 bound_to 6896
  152.5441  134.1869  159.8668 H   0  0  0  0  0  0  0  0  0  0  0  0  # atno 6908 bound_to 6896
  151.1917  133.4619  159.2628 H   0  0  0  0  0  0  0  0  0  0  0  0  # atno 6909 bound_to 6896
  145.6302  140.9340  143.1091 H   0  0  0  0  0  0  0  0  0  0  0  0  # atno 7974 bound_to 7965
  154.8390  140.0436  157.1529 H   0  0  0  0  0  0  0  0  0  0  0  0  # atno 8008 bound_to 7997
  154.9068  140.3008  155.5267 H   0  0  0  0  0  0  0  0  0  0  0  0  # atno 8009 bound_to 7997
  156.2991  140.2365  156.4102 H   0  0  0  0  0  0  0  0  0  0  0  0  # atno 8010 bound_to 7997
  140.5581  143.9388  150.6623 H   0  0  0  0  0  0  0  0  0  0  0  0  # atno 10167 bound_to 10162
  157.6005  131.1051  150.7807 H   0  0  0  0  0  0  0  0  0  0  0  0  # atno 10718 bound_to 10713
  154.2219  135.6376  153.5147 H   0  0  0  0  0  0  0  0  0  0  0  0  # atno 10763 bound_to 10752
  152.9967  135.5499  154.6105 H   0  0  0  0  0  0  0  0  0  0  0  0  # atno 10764 bound_to 10752
  154.5567  135.2905  155.0932 H   0  0  0  0  0  0  0  0  0  0  0  0  # atno 10765 bound_to 10752
  140.4889  134.6004  157.4947 H   0  0  0  0  0  0  0  0  0  0  0  0  # atno 11005 bound_to 11000
  144.7197  139.8074  143.7386 LP  0  0  0  0  0  0  0  0  0  0  0  0  # atno 17320 bound_to 7965
  146.1363  139.4409  143.0137 LP  0  0  0  0  0  0  0  0  0  0  0  0  # atno 17321 bound_to 7965
  140.2831  143.3375  152.1132 LP  0  0  0  0  0  0  0  0  0  0  0  0  # atno 17342 bound_to 10162
  139.5057  144.6800  151.6033 LP  0  0  0  0  0  0  0  0  0  0  0  0  # atno 17343 bound_to 10162
  156.8208  130.4983  149.5343 LP  0  0  0  0  0  0  0  0  0  0  0  0  # atno 17370 bound_to 10713
  156.1077  130.6017  150.9998 LP  0  0  0  0  0  0  0  0  0  0  0  0  # atno 17371 bound_to 10713
  139.9781  134.7182  155.9911 LP  0  0  0  0  0  0  0  0  0  0  0  0  # atno 17394 bound_to 11000
  141.1494  133.6551  156.3966 LP  0  0  0  0  0  0  0  0  0  0  0  0  # atno 17395 bound_to 11000

$$$$
