AV-unprocessed.smi:1492|AV-procd|sdf|6047|dock6
  -GOLD-   22720 6163D 1   1.00000     0.00000
 Structure written by MMmdl.
 52 53  0  0  0  0  0  0  0  0  3 V2000
  146.2744  132.7614  155.5642 C   0  0  0  0  0  0  0  0  0  0  0  0
  147.2505  132.3979  154.4315 C   0  0  0  0  0  0  0  0  0  0  0  0
  148.0508  133.5911  153.8199 C   0  0  2  0  0  0  0  0  0  0  0  0
  149.0806  132.9897  152.8271 C   0  0  0  0  0  0  0  0  0  0  0  0
  148.8078  134.3427  154.9600 C   0  0  0  0  0  0  0  0  0  0  0  0
  149.5619  135.4899  154.4664 N   0  0  0  0  0  0  0  0  0  0  0  0
  150.2847  136.3483  155.2026 C   0  0  0  0  0  0  0  0  0  0  0  0
  150.5345  136.1769  156.3950 O   0  0  0  0  0  0  0  0  0  0  0  0
  150.7668  137.6161  154.4904 C   0  0  0  0  0  0  0  0  0  0  0  0
  151.2232  138.7493  155.4125 C   0  0  0  0  0  0  0  0  0  0  0  0
  150.5372  139.9178  155.5689 C   0  0  0  0  0  0  0  0  0  0  0  0
  149.2642  140.2389  154.8057 C   0  0  0  0  0  0  0  0  0  0  0  0
  150.9706  140.8982  156.4771 N   0  0  0  0  0  0  0  0  0  0  0  0
  152.0159  140.6856  157.1820 C   0  0  0  0  0  0  0  0  0  0  0  0
  152.4751  141.7418  158.1642 C   0  0  0  0  0  0  0  0  0  0  0  0
  152.7712  139.5372  157.1089 N   0  5  0  0  0  0  0  0  0  0  0  0
  152.4275  138.5473  156.2375 C   0  0  0  0  0  0  0  0  0  0  0  0
  153.0774  137.5073  156.1387 O   0  0  0  0  0  0  0  0  0  0  0  0
  147.1240  134.5284  153.0871 N   0  3  0  0  0  0  0  0  0  0  0  0
  146.2872  133.9140  152.0174 C   0  0  0  0  0  0  0  0  0  0  0  0
  145.5524  135.0025  151.2189 C   0  0  0  0  0  0  0  0  0  0  0  0
  144.7461  135.7744  152.0977 O   0  0  0  0  0  0  0  0  0  0  0  0
  145.5279  136.4394  153.0798 C   0  0  0  0  0  0  0  0  0  0  0  0
  146.2719  135.4045  153.9410 C   0  0  0  0  0  0  0  0  0  0  0  0
  145.7685  131.8675  155.9291 H   0  0  0  0  0  0  0  0  0  0  0  0
  145.5016  133.4512  155.2257 H   0  0  0  0  0  0  0  0  0  0  0  0
  146.7842  133.2153  156.4136 H   0  0  0  0  0  0  0  0  0  0  0  0
  147.9297  131.6214  154.7822 H   0  0  0  0  0  0  0  0  0  0  0  0
  146.6655  131.9086  153.6513 H   0  0  0  0  0  0  0  0  0  0  0  0
  149.6005  132.1322  153.2546 H   0  0  0  0  0  0  0  0  0  0  0  0
  149.8532  133.7076  152.5511 H   0  0  0  0  0  0  0  0  0  0  0  0
  148.6053  132.6472  151.9078 H   0  0  0  0  0  0  0  0  0  0  0  0
  148.1226  134.6588  155.7466 H   0  0  0  0  0  0  0  0  0  0  0  0
  149.5339  133.6872  155.4387 H   0  0  0  0  0  0  0  0  0  0  0  0
  149.4311  135.7228  153.4921 H   0  0  0  0  0  0  0  0  0  0  0  0
  151.5770  137.3553  153.8079 H   0  0  0  0  0  0  0  0  0  0  0  0
  149.9589  137.9616  153.8463 H   0  0  0  0  0  0  0  0  0  0  0  0
  149.4723  140.3247  153.7391 H   0  0  0  0  0  0  0  0  0  0  0  0
  148.8308  141.1825  155.1396 H   0  0  0  0  0  0  0  0  0  0  0  0
  148.5178  139.4586  154.9531 H   0  0  0  0  0  0  0  0  0  0  0  0
  153.4655  142.1060  157.8898 H   0  0  0  0  0  0  0  0  0  0  0  0
  152.5253  141.3262  159.1713 H   0  0  0  0  0  0  0  0  0  0  0  0
  151.7902  142.5908  158.1787 H   0  0  0  0  0  0  0  0  0  0  0  0
  146.8877  133.3358  151.3183 H   0  0  0  0  0  0  0  0  0  0  0  0
  145.5548  133.2333  152.4517 H   0  0  0  0  0  0  0  0  0  0  0  0
  146.2594  135.6446  150.6908 H   0  0  0  0  0  0  0  0  0  0  0  0
  144.9118  134.5459  150.4642 H   0  0  0  0  0  0  0  0  0  0  0  0
  146.2290  137.1261  152.6025 H   0  0  0  0  0  0  0  0  0  0  0  0
  144.8686  137.0421  153.7046 H   0  0  0  0  0  0  0  0  0  0  0  0
  145.5466  134.8052  154.4916 H   0  0  0  0  0  0  0  0  0  0  0  0
  146.8624  135.9496  154.6750 H   0  0  0  0  0  0  0  0  0  0  0  0
  147.7448  135.1611  152.6029 H   0  0  0  0  0  0  0  0  0  0  0  0
  1  2  1  0  0  0  0
  1 25  1  0  0  0  0
  1 26  1  0  0  0  0
  1 27  1  0  0  0  0
  2  3  1  0  0  0  0
  2 28  1  0  0  0  0
  2 29  1  0  0  0  0
  3  4  1  0  0  0  0
  3  5  1  0  0  0  0
  3 19  1  0  0  0  0
  4 30  1  0  0  0  0
  4 31  1  0  0  0  0
  4 32  1  0  0  0  0
  5  6  1  0  0  0  0
  5 33  1  0  0  0  0
  5 34  1  0  0  0  0
  6  7  1  0  0  0  0
  6 35  1  0  0  0  0
  7  8  2  0  0  0  0
  7  9  1  0  0  0  0
  9 10  1  0  0  0  0
  9 36  1  0  0  0  0
  9 37  1  0  0  0  0
 10 17  1  0  0  0  0
 10 11  2  0  0  0  0
 11 12  1  0  0  0  0
 11 13  1  0  0  0  0
 12 38  1  0  0  0  0
 12 39  1  0  0  0  0
 12 40  1  0  0  0  0
 13 14  2  0  0  0  0
 14 15  1  0  0  0  0
 14 16  1  0  0  0  0
 15 41  1  0  0  0  0
 15 42  1  0  0  0  0
 15 43  1  0  0  0  0
 16 17  1  0  0  0  0
 17 18  2  0  0  0  0
 19 24  1  0  0  0  0
 19 20  1  0  0  0  0
 19 52  1  0  0  0  0
 20 21  1  0  0  0  0
 20 44  1  0  0  0  0
 20 45  1  0  0  0  0
 21 22  1  0  0  0  0
 21 46  1  0  0  0  0
 21 47  1  0  0  0  0
 22 23  1  0  0  0  0
 23 24  1  0  0  0  0
 23 48  1  0  0  0  0
 23 49  1  0  0  0  0
 24 50  1  0  0  0  0
 24 51  1  0  0  0  0
M  CHG  1  16  -1
M  CHG  1  19   1
M  END
> <s_m_source_file>
AV-unprocessed.smi

> <i_m_source_file_index>
1492

> <i_lp_mmshare_version>
43012

> <i_f3d_flags>
0

> <s_epik_input>
W0NIMl0xW0NIMl1PW0NIMl1bQ0gyXU4xW0NAQF0oW0NIM10pKFtDSDJdW0NIM10pW0NIMl1bTkhdQyg9TylbQ0gyXWMyYyhbQ0gzXSluYyhbQ0gzXSlbbkhdYzI9Tw==

> <s_epik_cmdline>
J2VwaWtfcHl0aG9uJywgJy1waCcsICc3LjAnLCAnLXRuJywgJzgnLCAnLW1hJywgJzIwMCcsICctbWV0YWxfYmluZGluZycsICctaW1hZScsICc8aW5maWxlLm1hZT4nLCAnLW9tYWUnLCAnPG91dGZpbGUubWFlPic=

> <r_lp_tautomer_probability>
0.839158

> <r_epik_Ionization_Penalty>
6.90614

> <r_epik_Ionization_Penalty_Charging>
0.570079

> <r_epik_Ionization_Penalty_Neutral>
6.33607

> <r_epik_State_Penalty>
4.81716

> <r_epik_Charging_Adjusted_Penalty>
5.38724

> <i_epik_Tot_Q>
0

> <i_epik_Tot_abs_Q>
2

> <r_epik_Metal_State_Penalty>
1.25629

> <b_epik_Metal_Only>
1

> <s_lp_Force_Field>
OPLS_2005

> <r_lp_Energy>
27.3859

> <b_lp_Chiralities_Consistent>
1

> <s_lp_Variant>
AV-unprocessed.smi:1492-12

> <Gold.Version>
5.8.1

> <Gold.Id.Protein>
6NUR|6NUR_protein|mol2

> <Gold.PLP.Fitness>
46.5049

> <Gold.PLP.PLP>
-31.7217

> <Gold.PLP.part.hbond>
-3.6523

> <Gold.PLP.part.metal>
0.0000

> <Gold.PLP.part.buried>
-5.5827

> <Gold.PLP.part.nonpolar>
-22.4201

> <Gold.PLP.part.repulsive>
0.2702

> <Gold.PLP.ligand.clash>
0.0000

> <Gold.PLP.ligand.torsion>
0.4529

> <Gold.PLP.Chemscore.Hbond>
5.1310

> <Gold.PLP.Chemscore.CHOScore>
0.0000

> <Gold.PLP.Chemscore.Metal>
0.0000

> <Gold.Chemscore.Hbonds>
donor molecule, donor type, donor heavy atom, donor atom, acceptor molecule, acceptor atom, score
      L1  H     6    35       P1  7948  1.00
      L1  H    19    52       P1  7948  2.00
      P1  H  7997  8010       L1    16  2.00
      P1  H 10752 10765       L1    18  0.23

> <Gold.PLP.Chemscore.Internal.Correction>
0.2958

> <Gold.Rescore>
     Score         DG    S(hbond)    S(metal)    S(lipo)     H(rot)  DE(clash)    DE(int)     intcor
     15.66     -16.46       2.52        0.00      68.30       2.12       0.09       0.71       ----

> <Gold.Chemscore.Fitness>
15.6557

> <Gold.Chemscore.DG>
-16.4598

> <Gold.Chemscore.ZeroCoef>
-5.4800

> <Gold.Chemscore.Hbond>
2.5223

> <Gold.Chemscore.Metal>
0.0000

> <Gold.Chemscore.Lipo>
68.3023

> <Gold.Chemscore.Internal_Hbond>
0.0000

> <Gold.Chemscore.DEClash>
0.0915

> <Gold.Chemscore.DEInternal>
0.7125

> <Gold.Chemscore.Rot>
2.1235

> <Gold.Chemscore.Internal.Correction>
   9.000000E+99

> <Gold.Chemscore.Hbonds>
donor molecule, donor type, donor heavy atom, donor atom, acceptor molecule, acceptor atom, score
      L1  H     6    35       P1  7948  0.30
      L1  H    19    52       P1  7948  0.99
      P1  H  7997  8010       L1    16  0.41
      P1  H 10752 10765       L1    18  0.22

> <Gold.Chemscore.Hbond.Weighted>
-8.4244

> <Gold.Chemscore.Metal.Weighted>
-0.0000

> <Gold.Chemscore.Lipo.Weighted>
-7.9914

> <Gold.Chemscore.Internal_Hbond.Weighted>
0.0000

> <Gold.Chemscore.DEClash.Weighted>
0.0915

> <Gold.Chemscore.DEInternal.Weighted>
0.7125

> <Gold.Chemscore.Rot.Weighted>
5.4360

> <Gold.Chemscore.Internal.Correction.Weighted>
   9.000000E+99

> <Gold.Protein.RotatedTorsions>
[ 6907 6896 6895 6894 ] final  -26.38 input  -60.11 | X-H torsion
[ 7974 7965 7964 7962 ] final -125.89 input  175.53 | X-H torsion
[ 8008 7997 7996 7995 ] final   49.95 input   59.86 | X-H torsion
[ 10167 10162 10161 10158 ] final  100.25 input  -65.29 | X-H torsion
[ 10718 10713 10712 10709 ] final  -30.28 input   66.30 | X-H torsion
[ 10763 10752 10751 10750 ] final -147.65 input  -60.55 | X-H torsion
[ 11005 11000 10999 10996 ] final  114.09 input  -57.11 | X-H torsion

> <Gold.Protein.ActiveResidues>
 VAL166  LYS551  ARG553  GLY616  TRP617  ASP618  TYR619  PRO620  LYS621  CYS622 
 ASP623  PHE694  ASN695  SER759  ASP760  ASP761  ALA762  ILE779  LEU786  VAL792 
 PHE793  MET794  SER795  GLU796  ALA797  LYS798  CYS799  TRP800  GLU811  SER814 

> <Gold.Protein.RotatedAtoms>
  151.1618  135.0277  159.8713 H   0  0  0  0  0  0  0  0  0  0  0  0  # atno 6907 bound_to 6896
  152.5451  134.1270  159.8433 H   0  0  0  0  0  0  0  0  0  0  0  0  # atno 6908 bound_to 6896
  151.1367  133.4953  159.2630 H   0  0  0  0  0  0  0  0  0  0  0  0  # atno 6909 bound_to 6896
  144.9929  140.7749  143.4543 H   0  0  0  0  0  0  0  0  0  0  0  0  # atno 7974 bound_to 7965
  155.4107  140.3442  155.4263 H   0  0  0  0  0  0  0  0  0  0  0  0  # atno 8008 bound_to 7997
  156.1450  140.1553  156.8892 H   0  0  0  0  0  0  0  0  0  0  0  0  # atno 8009 bound_to 7997
  154.5003  140.0816  156.7765 H   0  0  0  0  0  0  0  0  0  0  0  0  # atno 8010 bound_to 7997
  139.7544  144.6974  151.0384 H   0  0  0  0  0  0  0  0  0  0  0  0  # atno 10167 bound_to 10162
  156.4018  130.4391  149.7317 H   0  0  0  0  0  0  0  0  0  0  0  0  # atno 10718 bound_to 10713
  154.8275  135.3355  154.6851 H   0  0  0  0  0  0  0  0  0  0  0  0  # atno 10763 bound_to 10752
  153.7475  135.6941  153.4957 H   0  0  0  0  0  0  0  0  0  0  0  0  # atno 10764 bound_to 10752
  153.2200  135.4452  155.0428 H   0  0  0  0  0  0  0  0  0  0  0  0  # atno 10765 bound_to 10752
  139.8971  134.9561  156.6838 H   0  0  0  0  0  0  0  0  0  0  0  0  # atno 11005 bound_to 11000
  145.2260  139.2137  143.5068 LP  0  0  0  0  0  0  0  0  0  0  0  0  # atno 17320 bound_to 7965
  146.3435  140.2127  142.8590 LP  0  0  0  0  0  0  0  0  0  0  0  0  # atno 17321 bound_to 7965
  140.7801  143.4771  151.0068 LP  0  0  0  0  0  0  0  0  0  0  0  0  # atno 17342 bound_to 10162
  139.8458  143.7504  152.3179 LP  0  0  0  0  0  0  0  0  0  0  0  0  # atno 17343 bound_to 10162
  156.4330  130.7824  151.2844 LP  0  0  0  0  0  0  0  0  0  0  0  0  # atno 17370 bound_to 10713
  157.7504  131.0148  150.3479 LP  0  0  0  0  0  0  0  0  0  0  0  0  # atno 17371 bound_to 10713
  140.7278  133.9085  155.8190 LP  0  0  0  0  0  0  0  0  0  0  0  0  # atno 17394 bound_to 11000
  141.0177  134.0932  157.4154 LP  0  0  0  0  0  0  0  0  0  0  0  0  # atno 17395 bound_to 11000

$$$$
