#       Name:                AV-unprocessed.smi:1824
#       Creating user name   scv26
#       Creation time:       Fri Mar 27 09:06:41 2020


#       File generated by GOLD software.
#

@<TRIPOS>MOLECULE
AV-unprocessed.smi:1824
    50    52     1
SMALL
NO_CHARGES


@<TRIPOS>ATOM
      1 ****        -5.1164   1.2193  -1.0430 C.3            1 S1                 0.0000
      2 ****        -3.6377   1.1102  -0.6570 C.3            1 S1                 0.0000
      3 ****        -3.1383  -0.3459  -0.6741 C.3            1 S1                 0.0000
      4 ****        -1.7538  -0.4468  -0.2331 N.3            1 S1                 0.0000
      5 ****        -1.2669  -1.8249  -0.3162 C.3            1 S1                 0.0000
      6 ****         0.2533  -1.9891  -0.1237 C.3            1 S1                 0.0000
      7 ****         0.5572  -3.3690  -0.1253 O.3            1 S1                 0.0000
      8 ****         1.0686  -1.2941  -1.2321 C.3            1 S1                 0.0000
      9 ****         2.4848  -1.2560  -0.9233 N.pl3          1 S1                 0.0000
     10 ****         3.4493  -2.0772  -1.3806 C.2            1 S1                 0.0000
     11 ****         4.6901  -1.8510  -0.9572 N.2            1 S1                 0.0000
     12 ****         4.5100  -0.7529  -0.1330 C.ar           1 S1                 0.0000
     13 ****         5.4415  -0.0128   0.6298 C.ar           1 S1                 0.0000
     14 ****         5.0175   1.0859   1.4066 C.ar           1 S1                 0.0000
     15 ****         5.9236   1.7848   2.1306 F              1 S1                 0.0000
     16 ****         3.6573   1.4605   1.4332 C.ar           1 S1                 0.0000
     17 ****         3.2582   2.5164   2.1811 F              1 S1                 0.0000
     18 ****         2.7113   0.7378   0.6820 C.ar           1 S1                 0.0000
     19 ****         3.1399  -0.3565  -0.0911 C.ar           1 S1                 0.0000
     20 ****        -1.6424   0.1139   1.1125 C.3            1 S1                 0.0000
     21 ****        -2.1622   1.5624   1.1964 C.3            1 S1                 0.0000
     22 ****        -1.2107   2.5855   0.5529 C.3            1 S1                 0.0000
     23 ****        -3.4811   1.6488   0.6544 O.3            1 S1                 0.0000
     24 ****        -5.2886   0.8339  -2.0481 H              1 S1                 0.0000
     25 ****        -5.4476   2.2580  -1.0243 H              1 S1                 0.0000
     26 ****        -5.7473   0.6561  -0.3548 H              1 S1                 0.0000
     27 ****        -3.0547   1.7029  -1.3628 H              1 S1                 0.0000
     28 ****        -3.7752  -0.9602  -0.0356 H              1 S1                 0.0000
     29 ****        -3.2329  -0.7445  -1.6849 H              1 S1                 0.0000
     30 ****        -1.7949  -2.4377   0.4163 H              1 S1                 0.0000
     31 ****        -1.5273  -2.2375  -1.2922 H              1 S1                 0.0000
     32 ****         0.5500  -1.6062   0.8521 H              1 S1                 0.0000
     33 ****         1.4806  -3.4726   0.0462 H              1 S1                 0.0000
     34 ****         0.9235  -1.7901  -2.1930 H              1 S1                 0.0000
     35 ****         0.7346  -0.2642  -1.3625 H              1 S1                 0.0000
     36 ****         3.2277  -2.8879  -2.0597 H              1 S1                 0.0000
     37 ****         6.4851  -0.2899   0.6170 H              1 S1                 0.0000
     38 ****         1.6694   1.0205   0.6991 H              1 S1                 0.0000
     39 ****        -2.2085  -0.5058   1.8097 H              1 S1                 0.0000
     40 ****        -0.6090   0.0963   1.4558 H              1 S1                 0.0000
     41 ****        -2.2469   1.8276   2.2505 H              1 S1                 0.0000
     42 ****        -0.2468   2.5918   1.0622 H              1 S1                 0.0000
     43 ****        -1.6232   3.5925   0.6163 H              1 S1                 0.0000
     44 ****        -1.0218   2.3661  -0.4978 H              1 S1                 0.0000
     45 ****        -1.1650   0.0842  -0.8426 LP             1 S1                 0.0000
     46 ****         0.3334  -3.7627  -1.0168 LP             1 S1                 0.0000
     47 ****         0.0280  -3.8318   0.5858 LP             1 S1                 0.0000
     48 ****         5.5318  -2.3444  -1.1765 LP             1 S1                 0.0000
     49 ****        -4.0996   1.1562   1.2666 LP             1 S1                 0.0000
     50 ****        -3.7403   2.6142   0.6249 LP             1 S1                 0.0000
@<TRIPOS>BOND
    1    1    2 1     
    2    1   24 1     
    3    1   25 1     
    4    1   26 1     
    5    2   23 1     
    6    2    3 1     
    7    2   27 1     
    8    3    4 1     
    9    3   28 1     
   10    3   29 1     
   11    4    5 1     
   12    4   20 1     
   13    5    6 1     
   14    5   30 1     
   15    5   31 1     
   16    6    7 1     
   17    6    8 1     
   18    6   32 1     
   19    7   33 1     
   20    8    9 1     
   21    8   34 1     
   22    8   35 1     
   23    9   19 1     
   24    9   10 1     
   25   10   11 2     
   26   10   36 1     
   27   11   12 1     
   28   12   19 ar    
   29   12   13 ar    
   30   13   14 ar    
   31   13   37 1     
   32   14   15 1     
   33   14   16 ar    
   34   16   17 1     
   35   16   18 ar    
   36   18   19 ar    
   37   18   38 1     
   38   20   21 1     
   39   20   39 1     
   40   20   40 1     
   41   21   22 1     
   42   21   23 1     
   43   21   41 1     
   44   22   42 1     
   45   22   43 1     
   46   22   44 1     
   47    4   45 1     
   48    7   46 1     
   49    7   47 1     
   50   11   48 1     
   51   23   49 1     
   52   23   50 1     
@<TRIPOS>SUBSTRUCTURE
      1 S1             1
@<TRIPOS>SET
LONE_PAIRS      STATIC     ATOMS    <user>   **** ""
6 45 46 47 48 49 50
DONOR_HYDROGENS      STATIC     ATOMS    <user>   **** ""
1 33
ATOM$BLUE        STATIC     ATOMS    COLORGROUP SYSTEM
6 45 46 47 48 49 50
ATOM$RED        STATIC     ATOMS    COLORGROUP SYSTEM
1 33
