AV-unprocessed.smi:472|AV-procd|sdf|2660|dock1
  -GOLD-   2262023 73D 1   1.00000     0.00000
 Structure written by MMmdl.
 35 36  0  0  0  0  0  0  0  0  1 V2000
  150.5203  135.6453  154.9889 C   0  0  0  0  0  0  0  0  0  0  0  0
  151.5305  136.6006  155.2586 O   0  0  0  0  0  0  0  0  0  0  0  0
  151.0053  137.8390  155.7076 C   0  0  0  0  0  0  0  0  0  0  0  0
  152.1487  138.8274  155.9801 C   0  0  0  0  0  0  0  0  0  0  0  0
  151.6562  140.1294  156.4218 N   0  0  0  0  0  0  0  0  0  0  0  0
  150.7488  140.9185  155.7952 C   0  0  0  0  0  0  0  0  0  0  0  0
  150.1780  140.5144  154.5930 N   0  0  0  0  0  0  0  0  0  0  0  0
  149.2354  141.2307  153.8490 N   0  0  0  0  0  0  0  0  0  0  0  0
  150.4794  142.0681  156.4186 N   0  0  0  0  0  0  0  0  0  0  0  0
  151.2947  142.0065  157.5405 C   0  0  0  0  0  0  0  0  0  0  0  0
  152.0105  140.8568  157.5607 C   0  0  0  0  0  0  0  0  0  0  0  0
  152.9666  140.5369  158.6278 C   0  0  0  0  0  0  0  0  0  0  0  0
  153.6144  139.4890  158.6228 O   0  0  0  0  0  0  0  0  0  0  0  0
  153.0643  141.4982  159.5983 N   0  0  0  0  0  0  0  0  0  0  0  0
  154.0154  141.2126  160.6893 C   0  0  0  0  0  0  0  0  0  0  0  0
  152.3593  142.6900  159.6144 C   0  0  0  0  0  0  0  0  0  0  0  0
  152.5145  143.5203  160.5138 O   0  0  0  0  0  0  0  0  0  0  0  0
  151.4722  142.9373  158.5966 N   0  0  0  0  0  0  0  0  0  0  0  0
  150.7009  144.1837  158.5848 C   0  0  0  0  0  0  0  0  0  0  0  0
  150.9774  134.7175  154.6451 H   0  0  0  0  0  0  0  0  0  0  0  0
  149.8434  135.9966  154.2093 H   0  0  0  0  0  0  0  0  0  0  0  0
  149.9391  135.4231  155.8848 H   0  0  0  0  0  0  0  0  0  0  0  0
  150.3312  138.2496  154.9543 H   0  0  0  0  0  0  0  0  0  0  0  0
  150.4236  137.6901  156.6185 H   0  0  0  0  0  0  0  0  0  0  0  0
  152.8159  138.4225  156.7415 H   0  0  0  0  0  0  0  0  0  0  0  0
  152.7677  138.9520  155.0934 H   0  0  0  0  0  0  0  0  0  0  0  0
  150.4838  139.6319  154.2087 H   0  0  0  0  0  0  0  0  0  0  0  0
  149.3416  140.9955  152.8641 H   0  0  0  0  0  0  0  0  0  0  0  0
  148.3016  140.9536  154.1468 H   0  0  0  0  0  0  0  0  0  0  0  0
  154.0057  141.9306  161.5096 H   0  0  0  0  0  0  0  0  0  0  0  0
  155.0354  141.1889  160.3022 H   0  0  0  0  0  0  0  0  0  0  0  0
  153.8059  140.2405  161.1396 H   0  0  0  0  0  0  0  0  0  0  0  0
  150.1308  144.2930  159.5088 H   0  0  0  0  0  0  0  0  0  0  0  0
  149.9883  144.2322  157.7613 H   0  0  0  0  0  0  0  0  0  0  0  0
  151.3669  145.0427  158.4915 H   0  0  0  0  0  0  0  0  0  0  0  0
  1  2  1  0  0  0  0
  1 20  1  0  0  0  0
  1 21  1  0  0  0  0
  1 22  1  0  0  0  0
  2  3  1  0  0  0  0
  3  4  1  0  0  0  0
  3 23  1  0  0  0  0
  3 24  1  0  0  0  0
  4  5  1  0  0  0  0
  4 25  1  0  0  0  0
  4 26  1  0  0  0  0
  5 11  1  0  0  0  0
  5  6  1  0  0  0  0
  6  7  1  0  0  0  0
  6  9  2  0  0  0  0
  7  8  1  0  0  0  0
  7 27  1  0  0  0  0
  8 28  1  0  0  0  0
  8 29  1  0  0  0  0
  9 10  1  0  0  0  0
 10 18  1  0  0  0  0
 10 11  2  0  0  0  0
 11 12  1  0  0  0  0
 12 13  2  0  0  0  0
 12 14  1  0  0  0  0
 14 15  1  0  0  0  0
 14 16  1  0  0  0  0
 15 30  1  0  0  0  0
 15 31  1  0  0  0  0
 15 32  1  0  0  0  0
 16 17  2  0  0  0  0
 16 18  1  0  0  0  0
 18 19  1  0  0  0  0
 19 33  1  0  0  0  0
 19 34  1  0  0  0  0
 19 35  1  0  0  0  0
M  END
> <s_m_source_file>
AV-unprocessed.smi

> <i_m_source_file_index>
472

> <i_lp_mmshare_version>
43012

> <i_f3d_flags>
0

> <s_epik_input>
W0NIM11PW0NIMl1bQ0gyXW4oYyhuMSlbTkhdW05IMl0pYyhjMTIpYyg9TyluKFtDSDNdKWMoPU8pbjJbQ0gzXQ==

> <s_epik_cmdline>
J2VwaWtfcHl0aG9uJywgJy1waCcsICc3LjAnLCAnLXRuJywgJzgnLCAnLW1hJywgJzIwMCcsICctbWV0YWxfYmluZGluZycsICctaW1hZScsICc8aW5maWxlLm1hZT4nLCAnLW9tYWUnLCAnPG91dGZpbGUubWFlPic=

> <r_lp_tautomer_probability>
1

> <r_epik_Ionization_Penalty>
0.000822794

> <r_epik_Ionization_Penalty_Charging>
3.05595e-09

> <r_epik_Ionization_Penalty_Neutral>
0.000822791

> <r_epik_State_Penalty>
-0

> <r_epik_Charging_Adjusted_Penalty>
3.05595e-09

> <i_epik_Tot_Q>
0

> <i_epik_Tot_abs_Q>
0

> <r_epik_Metal_State_Penalty>
-0

> <b_epik_Metal_Only>
0

> <s_lp_Force_Field>
OPLS_2005

> <r_lp_Energy>
30.834

> <b_lp_Chiralities_Consistent>
1

> <s_lp_Variant>
AV-unprocessed.smi:472-1

> <Gold.Version>
5.8.1

> <Gold.Id.Protein>
6NUR|6NUR_protein|mol2

> <Gold.PLP.Fitness>
43.4248

> <Gold.PLP.PLP>
-34.6788

> <Gold.PLP.part.hbond>
-5.0000

> <Gold.PLP.part.metal>
0.0000

> <Gold.PLP.part.buried>
-6.3530

> <Gold.PLP.part.nonpolar>
-26.3682

> <Gold.PLP.part.repulsive>
2.6024

> <Gold.PLP.ligand.clash>
0.0000

> <Gold.PLP.ligand.torsion>
0.0417

> <Gold.PLP.Chemscore.Hbond>
2.9424

> <Gold.PLP.Chemscore.CHOScore>
0.0000

> <Gold.PLP.Chemscore.Metal>
0.0000

> <Gold.Chemscore.Hbonds>
donor molecule, donor type, donor heavy atom, donor atom, acceptor molecule, acceptor atom, score
      L1  H     8    28       P1  7957  1.00
      P1  H  7997  8008       L1    13  0.89
      P1  H 10752 10764       L1     2  0.95

> <Gold.PLP.Chemscore.Internal.Correction>
0.0023

> <Gold.Rescore>
     Score         DG    S(hbond)    S(metal)    S(lipo)     H(rot)  DE(clash)    DE(int)     intcor
     12.08     -12.20       1.89        0.00      40.79       1.70       0.10       0.03       ----

> <Gold.Chemscore.Fitness>
12.0792

> <Gold.Chemscore.DG>
-12.2028

> <Gold.Chemscore.ZeroCoef>
-5.4800

> <Gold.Chemscore.Hbond>
1.8859

> <Gold.Chemscore.Metal>
0.0000

> <Gold.Chemscore.Lipo>
40.7945

> <Gold.Chemscore.Internal_Hbond>
0.0000

> <Gold.Chemscore.DEClash>
0.0952

> <Gold.Chemscore.DEInternal>
0.0284

> <Gold.Chemscore.Rot>
1.6988

> <Gold.Chemscore.Internal.Correction>
   9.000000E+99

> <Gold.Chemscore.Hbonds>
donor molecule, donor type, donor heavy atom, donor atom, acceptor molecule, acceptor atom, score
      L1  H     8    28       P1  7957  0.99
      P1  H  7997  8008       L1    13  0.16
      P1  H 10752 10764       L1     2  0.20

> <Gold.Chemscore.Hbond.Weighted>
-6.2989

> <Gold.Chemscore.Metal.Weighted>
-0.0000

> <Gold.Chemscore.Lipo.Weighted>
-4.7730

> <Gold.Chemscore.Internal_Hbond.Weighted>
0.0000

> <Gold.Chemscore.DEClash.Weighted>
0.0952

> <Gold.Chemscore.DEInternal.Weighted>
0.0284

> <Gold.Chemscore.Rot.Weighted>
4.3490

> <Gold.Chemscore.Internal.Correction.Weighted>
   9.000000E+99

> <Gold.Protein.RotatedTorsions>
[ 6907 6896 6895 6894 ] final  166.02 input  -60.11 | X-H torsion
[ 7974 7965 7964 7962 ] final   29.22 input  175.53 | X-H torsion
[ 8008 7997 7996 7995 ] final -116.76 input   59.86 | X-H torsion
[ 10167 10162 10161 10158 ] final   11.34 input  -65.29 | X-H torsion
[ 10718 10713 10712 10709 ] final  -47.14 input   66.30 | X-H torsion
[ 10763 10752 10751 10750 ] final  -35.85 input  -60.55 | X-H torsion
[ 11005 11000 10999 10996 ] final  101.14 input  -57.11 | X-H torsion

> <Gold.Protein.ActiveResidues>
 VAL166  LYS551  ARG553  GLY616  TRP617  ASP618  TYR619  PRO620  LYS621  CYS622 
 ASP623  PHE694  ASN695  SER759  ASP760  ASP761  ALA762  ILE779  LEU786  VAL792 
 PHE793  MET794  SER795  GLU796  ALA797  LYS798  CYS799  TRP800  GLU811  SER814 

> <Gold.Protein.RotatedAtoms>
  151.8854  133.3504  159.3780 H   0  0  0  0  0  0  0  0  0  0  0  0  # atno 6907 bound_to 6896
  150.7116  134.4977  159.5555 H   0  0  0  0  0  0  0  0  0  0  0  0  # atno 6908 bound_to 6896
  152.2536  134.8107  160.0493 H   0  0  0  0  0  0  0  0  0  0  0  0  # atno 6909 bound_to 6896
  146.1684  139.6950  142.8985 H   0  0  0  0  0  0  0  0  0  0  0  0  # atno 7974 bound_to 7965
  155.0729  140.0393  157.2614 H   0  0  0  0  0  0  0  0  0  0  0  0  # atno 8008 bound_to 7997
  154.6968  140.2665  155.6734 H   0  0  0  0  0  0  0  0  0  0  0  0  # atno 8009 bound_to 7997
  156.2747  140.2748  156.1565 H   0  0  0  0  0  0  0  0  0  0  0  0  # atno 8010 bound_to 7997
  140.6138  143.8351  150.7095 H   0  0  0  0  0  0  0  0  0  0  0  0  # atno 10167 bound_to 10162
  156.2114  130.4161  149.9110 H   0  0  0  0  0  0  0  0  0  0  0  0  # atno 10718 bound_to 10713
  153.8701  135.6832  153.4775 H   0  0  0  0  0  0  0  0  0  0  0  0  # atno 10763 bound_to 10752
  153.1292  135.4705  154.9319 H   0  0  0  0  0  0  0  0  0  0  0  0  # atno 10764 bound_to 10752
  154.7718  135.3241  154.8124 H   0  0  0  0  0  0  0  0  0  0  0  0  # atno 10765 bound_to 10752
  139.8772  134.9170  156.4862 H   0  0  0  0  0  0  0  0  0  0  0  0  # atno 11005 bound_to 11000
  145.4406  141.0422  143.2859 LP  0  0  0  0  0  0  0  0  0  0  0  0  # atno 17320 bound_to 7965
  144.8126  139.5934  143.7023 LP  0  0  0  0  0  0  0  0  0  0  0  0  # atno 17321 bound_to 7965
  140.1926  143.4024  152.1852 LP  0  0  0  0  0  0  0  0  0  0  0  0  # atno 17342 bound_to 10162
  139.5382  144.7231  151.4821 LP  0  0  0  0  0  0  0  0  0  0  0  0  # atno 17343 bound_to 10162
  156.6787  130.8849  151.3572 LP  0  0  0  0  0  0  0  0  0  0  0  0  # atno 17370 bound_to 10713
  157.7040  130.9365  150.0874 LP  0  0  0  0  0  0  0  0  0  0  0  0  # atno 17371 bound_to 10713
  140.8692  133.8001  155.9346 LP  0  0  0  0  0  0  0  0  0  0  0  0  # atno 17394 bound_to 11000
  140.8970  134.2425  157.5063 LP  0  0  0  0  0  0  0  0  0  0  0  0  # atno 17395 bound_to 11000

$$$$
