#       Name:                AV-unprocessed.smi:2962
#       Creating user name   scv26
#       Creation time:       Fri Mar 27 16:21:54 2020


#       File generated by GOLD software.
#

@<TRIPOS>MOLECULE
AV-unprocessed.smi:2962
    41    42     1
SMALL
NO_CHARGES


@<TRIPOS>ATOM
      1 ****        -3.2454   1.3044   1.5342 C.3            1 S1                 0.0000
      2 ****        -2.3611   1.9520   0.6331 O.3            1 S1                 0.0000
      3 ****        -2.3977   1.4161  -0.6820 C.3            1 S1                 0.0000
      4 ****        -1.4830   0.1873  -0.8271 C.3            1 S1                 0.0000
      5 ****        -0.0907   0.5064  -0.5426 N.pl3          1 S1                 0.0000
      6 ****         0.6073   0.3108   0.6044 C.2            1 S1                 0.0000
      7 ****        -0.1074  -0.4220   2.0386 S.3            1 S1                 0.0000
      8 ****         0.0617  -2.1689   1.5608 C.3            1 S1                 0.0000
      9 ****        -1.2023  -2.9508   1.9574 C.3            1 S1                 0.0000
     10 ****         1.3389  -2.7912   2.1425 C.2            1 S1                 0.0000
     11 ****         2.4936  -2.4609   1.5581 N.am           1 S1                 0.0000
     12 ****         1.2948  -3.5617   3.1000 O.2            1 S1                 0.0000
     13 ****         1.8795   0.7076   0.5819 N.2            1 S1                 0.0000
     14 ****         2.0222   1.2049  -0.6982 C.ar           1 S1                 0.0000
     15 ****         3.1436   1.7734  -1.3437 C.ar           1 S1                 0.0000
     16 ****         3.0490   2.2179  -2.6789 C.ar           1 S1                 0.0000
     17 ****         1.8349   2.1002  -3.3860 C.ar           1 S1                 0.0000
     18 ****         0.7060   1.5359  -2.7616 C.ar           1 S1                 0.0000
     19 ****         0.8062   1.0935  -1.4290 C.ar           1 S1                 0.0000
     20 ****        -3.1348   1.7385   2.5278 H              1 S1                 0.0000
     21 ****        -3.0396   0.2368   1.6117 H              1 S1                 0.0000
     22 ****        -4.2830   1.4356   1.2253 H              1 S1                 0.0000
     23 ****        -3.4201   1.1786  -0.9800 H              1 S1                 0.0000
     24 ****        -2.0571   2.1953  -1.3645 H              1 S1                 0.0000
     25 ****        -1.8164  -0.6280  -0.1873 H              1 S1                 0.0000
     26 ****        -1.5418  -0.1929  -1.8472 H              1 S1                 0.0000
     27 ****         0.1397  -2.2204   0.4740 H              1 S1                 0.0000
     28 ****        -1.1224  -4.0034   1.6832 H              1 S1                 0.0000
     29 ****        -2.0812  -2.5492   1.4525 H              1 S1                 0.0000
     30 ****        -1.3871  -2.8965   3.0310 H              1 S1                 0.0000
     31 ****         3.3599  -2.8602   1.8890 H              1 S1                 0.0000
     32 ****         2.4929  -1.8281   0.7713 H              1 S1                 0.0000
     33 ****         4.0781   1.8686  -0.8105 H              1 S1                 0.0000
     34 ****         3.9118   2.6518  -3.1628 H              1 S1                 0.0000
     35 ****         1.7705   2.4438  -4.4082 H              1 S1                 0.0000
     36 ****        -0.2257   1.4453  -3.3001 H              1 S1                 0.0000
     37 ****        -1.4294   1.8628   0.9852 LP             1 S1                 0.0000
     38 ****        -2.6089   2.9197   0.5874 LP             1 S1                 0.0000
     39 ****         0.4150  -3.7938   3.5149 LP             1 S1                 0.0000
     40 ****         2.1387  -3.9561   3.4637 LP             1 S1                 0.0000
     41 ****         2.5616   0.6575   1.3114 LP             1 S1                 0.0000
@<TRIPOS>BOND
    1    1    2 1     
    2    1   20 1     
    3    1   21 1     
    4    1   22 1     
    5    2    3 1     
    6    3    4 1     
    7    3   23 1     
    8    3   24 1     
    9    4    5 1     
   10    4   25 1     
   11    4   26 1     
   12    5   19 1     
   13    5    6 1     
   14    6    7 1     
   15    6   13 2     
   16    7    8 1     
   17    8    9 1     
   18    8   10 1     
   19    8   27 1     
   20    9   28 1     
   21    9   29 1     
   22    9   30 1     
   23   10   11 am    
   24   10   12 2     
   25   11   31 1     
   26   11   32 1     
   27   13   14 1     
   28   14   19 ar    
   29   14   15 ar    
   30   15   16 ar    
   31   15   33 1     
   32   16   17 ar    
   33   16   34 1     
   34   17   18 ar    
   35   17   35 1     
   36   18   19 ar    
   37   18   36 1     
   38    2   37 1     
   39    2   38 1     
   40   12   39 1     
   41   12   40 1     
   42   13   41 1     
@<TRIPOS>SUBSTRUCTURE
      1 S1             1
@<TRIPOS>SET
LONE_PAIRS      STATIC     ATOMS    <user>   **** ""
5 37 38 39 40 41
DONOR_HYDROGENS      STATIC     ATOMS    <user>   **** ""
2 31 32
ATOM$BLUE        STATIC     ATOMS    COLORGROUP SYSTEM
5 37 38 39 40 41
ATOM$RED        STATIC     ATOMS    COLORGROUP SYSTEM
2 31 32
