AV-unprocessed.smi:901|AV-procd|sdf|4091|dock3
  -GOLD-   22720 1583D 1   1.00000     0.00000
 Structure written by MMmdl.
 43 44  0  0  0  0  0  0  0  0  1 V2000
  152.5074  144.8663  158.6886 C   0  0  0  0  0  0  0  0  0  0  0  0
  152.2159  143.4446  159.1254 C   0  0  0  0  0  0  0  0  0  0  0  0
  152.4345  143.1774  160.6043 C   0  0  0  0  0  0  0  0  0  0  0  0
  151.7945  142.5092  158.2527 C   0  0  0  0  0  0  0  0  0  0  0  0
  151.4819  141.0826  158.5605 C   0  0  1  0  0  0  0  0  0  0  0  0
  150.2270  140.3554  158.0861 C   0  0  1  0  0  0  0  0  0  0  0  0
  149.2237  141.0759  157.2416 C   0  0  0  0  0  0  0  0  0  0  0  0
  148.6368  142.0812  157.6398 O   0  0  0  0  0  0  0  0  0  0  0  0
  148.9761  140.4632  156.0698 N   0  0  0  0  0  0  0  0  0  0  0  0
  148.1150  140.8731  155.0195 C   0  0  0  0  0  0  0  0  0  0  0  0
  147.7640  140.1044  153.8692 C   0  0  0  0  0  0  0  0  0  0  0  0
  146.9246  140.9346  153.1829 C   0  0  0  0  0  0  0  0  0  0  0  0
  146.8046  142.1014  153.9116 N   0  0  0  0  0  0  0  0  0  0  0  0
  146.0236  143.2869  153.5958 C   0  0  0  0  0  0  0  0  0  0  0  0
  144.9968  143.6244  154.6840 C   0  0  0  0  0  0  0  0  0  0  0  0
  143.7153  143.6442  154.3099 N   0  0  0  0  0  0  0  0  0  0  0  0
  145.3425  143.8688  155.8390 O   0  0  0  0  0  0  0  0  0  0  0  0
  147.5424  142.0645  155.0431 N   0  0  0  0  0  0  0  0  0  0  0  0
  151.5914  139.9895  157.5114 C   0  0  0  0  0  0  0  0  0  0  0  0
  151.9892  140.3189  156.0742 C   0  0  0  0  0  0  0  0  0  0  0  0
  152.1953  138.6531  157.9048 C   0  0  0  0  0  0  0  0  0  0  0  0
  153.5462  145.1215  158.8996 H   0  0  0  0  0  0  0  0  0  0  0  0
  151.8661  145.5649  159.2266 H   0  0  0  0  0  0  0  0  0  0  0  0
  152.3342  145.0022  157.6206 H   0  0  0  0  0  0  0  0  0  0  0  0
  151.8058  143.8395  161.2000 H   0  0  0  0  0  0  0  0  0  0  0  0
  153.4749  143.3653  160.8696 H   0  0  0  0  0  0  0  0  0  0  0  0
  152.1957  142.1517  160.8840 H   0  0  0  0  0  0  0  0  0  0  0  0
  151.6730  142.8015  157.2204 H   0  0  0  0  0  0  0  0  0  0  0  0
  151.8211  140.8249  159.5621 H   0  0  0  0  0  0  0  0  0  0  0  0
  149.7884  139.6826  158.8206 H   0  0  0  0  0  0  0  0  0  0  0  0
  149.4918  139.6129  155.8962 H   0  0  0  0  0  0  0  0  0  0  0  0
  148.0661  139.1095  153.5792 H   0  0  0  0  0  0  0  0  0  0  0  0
  146.4035  140.7929  152.2476 H   0  0  0  0  0  0  0  0  0  0  0  0
  146.6925  144.1378  153.4574 H   0  0  0  0  0  0  0  0  0  0  0  0
  145.5166  143.1176  152.6449 H   0  0  0  0  0  0  0  0  0  0  0  0
  142.9949  143.8568  154.9847 H   0  0  0  0  0  0  0  0  0  0  0  0
  143.4704  143.4424  153.3512 H   0  0  0  0  0  0  0  0  0  0  0  0
  151.6346  139.5414  155.3969 H   0  0  0  0  0  0  0  0  0  0  0  0
  153.0744  140.3815  155.9881 H   0  0  0  0  0  0  0  0  0  0  0  0
  151.5709  141.2685  155.7415 H   0  0  0  0  0  0  0  0  0  0  0  0
  151.8238  137.8618  157.2532 H   0  0  0  0  0  0  0  0  0  0  0  0
  151.9361  138.3985  158.9330 H   0  0  0  0  0  0  0  0  0  0  0  0
  153.2824  138.6892  157.8267 H   0  0  0  0  0  0  0  0  0  0  0  0
  1  2  1  0  0  0  0
  1 22  1  0  0  0  0
  1 23  1  0  0  0  0
  1 24  1  0  0  0  0
  2  3  1  0  0  0  0
  2  4  2  0  0  0  0
  3 25  1  0  0  0  0
  3 26  1  0  0  0  0
  3 27  1  0  0  0  0
  4  5  1  0  0  0  0
  4 28  1  0  0  0  0
  5 19  1  0  0  0  0
  5  6  1  0  0  0  0
  5 29  1  0  0  0  0
  6  7  1  0  0  0  0
  6 19  1  0  0  0  0
  6 30  1  0  0  0  0
  7  8  2  0  0  0  0
  7  9  1  0  0  0  0
  9 10  1  0  0  0  0
  9 31  1  0  0  0  0
 10 18  2  0  0  0  0
 10 11  1  0  0  0  0
 11 12  2  0  0  0  0
 11 32  1  0  0  0  0
 12 13  1  0  0  0  0
 12 33  1  0  0  0  0
 13 14  1  0  0  0  0
 13 18  1  0  0  0  0
 14 15  1  0  0  0  0
 14 34  1  0  0  0  0
 14 35  1  0  0  0  0
 15 16  1  0  0  0  0
 15 17  2  0  0  0  0
 16 36  1  0  0  0  0
 16 37  1  0  0  0  0
 19 20  1  0  0  0  0
 19 21  1  0  0  0  0
 20 38  1  0  0  0  0
 20 39  1  0  0  0  0
 20 40  1  0  0  0  0
 21 41  1  0  0  0  0
 21 42  1  0  0  0  0
 21 43  1  0  0  0  0
M  END
> <s_m_source_file>
AV-unprocessed.smi

> <i_m_source_file_index>
901

> <i_lp_mmshare_version>
43012

> <i_f3d_flags>
0

> <s_epik_input>
W0NIM11DKFtDSDNdKT1bQ0hdW0NAQEhdKEMxKFtDSDNdKVtDSDNdKVtDQEhdMUMoPU8pW05IXWMyW2NIXVtjSF1uKG4yKVtDSDJdQyg9TylbTkgyXQ==

> <s_epik_cmdline>
J2VwaWtfcHl0aG9uJywgJy1waCcsICc3LjAnLCAnLXRuJywgJzgnLCAnLW1hJywgJzIwMCcsICctbWV0YWxfYmluZGluZycsICctaW1hZScsICc8aW5maWxlLm1hZT4nLCAnLW9tYWUnLCAnPG91dGZpbGUubWFlPic=

> <r_lp_tautomer_probability>
1

> <r_epik_Ionization_Penalty>
1.01454e-05

> <r_epik_Ionization_Penalty_Charging>
0

> <r_epik_Ionization_Penalty_Neutral>
1.01454e-05

> <r_epik_State_Penalty>
-0

> <r_epik_Charging_Adjusted_Penalty>
0

> <i_epik_Tot_Q>
0

> <i_epik_Tot_abs_Q>
0

> <r_epik_Metal_State_Penalty>
-0

> <b_epik_Metal_Only>
0

> <s_lp_Force_Field>
OPLS_2005

> <r_lp_Energy>
23.331

> <b_lp_Chiralities_Consistent>
1

> <s_lp_Variant>
AV-unprocessed.smi:901-2

> <Gold.Version>
5.8.1

> <Gold.Id.Protein>
6NUR|6NUR_protein|mol2

> <Gold.PLP.Fitness>
43.5690

> <Gold.PLP.PLP>
-38.6102

> <Gold.PLP.part.hbond>
-1.0000

> <Gold.PLP.part.metal>
0.0000

> <Gold.PLP.part.buried>
-6.3317

> <Gold.PLP.part.nonpolar>
-33.1183

> <Gold.PLP.part.repulsive>
0.6852

> <Gold.PLP.ligand.clash>
0.0000

> <Gold.PLP.ligand.torsion>
0.3565

> <Gold.PLP.Chemscore.Hbond>
1.0000

> <Gold.PLP.Chemscore.CHOScore>
0.8106

> <Gold.PLP.Chemscore.Metal>
0.0000

> <Gold.Chemscore.Hbonds>
donor molecule, donor type, donor heavy atom, donor atom, acceptor molecule, acceptor atom, score
      L1  H    16    37       P1 10174  1.00
      L1  C    12    33       P1 10175  0.30

> <Gold.PLP.Chemscore.Internal.Correction>
0.2402

> <Gold.Rescore>
     Score         DG    S(hbond)    S(metal)    S(lipo)     H(rot)  DE(clash)    DE(int)     intcor
     11.95     -13.84       0.93        0.00      91.62       2.13       0.08       1.81       ----

> <Gold.Chemscore.Fitness>
11.9523

> <Gold.Chemscore.DG>
-13.8369

> <Gold.Chemscore.ZeroCoef>
-5.4800

> <Gold.Chemscore.Hbond>
0.9260

> <Gold.Chemscore.Metal>
0.0000

> <Gold.Chemscore.Lipo>
91.6164

> <Gold.Chemscore.Internal_Hbond>
0.0000

> <Gold.Chemscore.DEClash>
0.0777

> <Gold.Chemscore.DEInternal>
1.8069

> <Gold.Chemscore.Rot>
2.1309

> <Gold.Chemscore.Internal.Correction>
   9.000000E+99

> <Gold.Chemscore.Hbonds>
donor molecule, donor type, donor heavy atom, donor atom, acceptor molecule, acceptor atom, score
      L1  H    16    37       P1 10174  0.80

> <Gold.Chemscore.Hbond.Weighted>
-3.0929

> <Gold.Chemscore.Metal.Weighted>
-0.0000

> <Gold.Chemscore.Lipo.Weighted>
-10.7191

> <Gold.Chemscore.Internal_Hbond.Weighted>
0.0000

> <Gold.Chemscore.DEClash.Weighted>
0.0777

> <Gold.Chemscore.DEInternal.Weighted>
1.8069

> <Gold.Chemscore.Rot.Weighted>
5.4552

> <Gold.Chemscore.Internal.Correction.Weighted>
   9.000000E+99

> <Gold.Protein.RotatedTorsions>
[ 6907 6896 6895 6894 ] final -119.64 input  -60.11 | X-H torsion
[ 7974 7965 7964 7962 ] final    2.89 input  175.53 | X-H torsion
[ 8008 7997 7996 7995 ] final -122.66 input   59.86 | X-H torsion
[ 10167 10162 10161 10158 ] final  172.02 input  -65.29 | X-H torsion
[ 10718 10713 10712 10709 ] final  140.27 input   66.30 | X-H torsion
[ 10763 10752 10751 10750 ] final   84.75 input  -60.55 | X-H torsion
[ 11005 11000 10999 10996 ] final -129.83 input  -57.11 | X-H torsion

> <Gold.Protein.ActiveResidues>
 VAL166  LYS551  ARG553  GLY616  TRP617  ASP618  TYR619  PRO620  LYS621  CYS622 
 ASP623  PHE694  ASN695  SER759  ASP760  ASP761  ALA762  ILE779  LEU786  VAL792 
 PHE793  MET794  SER795  GLU796  ALA797  LYS798  CYS799  TRP800  GLU811  SER814 

> <Gold.Protein.RotatedAtoms>
  150.8323  133.8071  159.3093 H   0  0  0  0  0  0  0  0  0  0  0  0  # atno 6907 bound_to 6896
  151.5797  135.1057  160.0024 H   0  0  0  0  0  0  0  0  0  0  0  0  # atno 6908 bound_to 6896
  152.4401  133.7390  159.6686 H   0  0  0  0  0  0  0  0  0  0  0  0  # atno 6909 bound_to 6896
  146.2444  140.0767  142.8359 H   0  0  0  0  0  0  0  0  0  0  0  0  # atno 7974 bound_to 7965
  155.1679  140.0407  157.2856 H   0  0  0  0  0  0  0  0  0  0  0  0  # atno 8008 bound_to 7997
  154.6290  140.2519  155.7429 H   0  0  0  0  0  0  0  0  0  0  0  0  # atno 8009 bound_to 7997
  156.2475  140.2879  156.0633 H   0  0  0  0  0  0  0  0  0  0  0  0  # atno 8010 bound_to 7997
  139.5064  144.3420  152.0008 H   0  0  0  0  0  0  0  0  0  0  0  0  # atno 10167 bound_to 10162
  157.4051  131.1021  151.0512 H   0  0  0  0  0  0  0  0  0  0  0  0  # atno 10718 bound_to 10713
  153.1410  135.4643  154.9496 H   0  0  0  0  0  0  0  0  0  0  0  0  # atno 10763 bound_to 10752
  154.7747  135.3169  154.8119 H   0  0  0  0  0  0  0  0  0  0  0  0  # atno 10764 bound_to 10752
  153.8642  135.6910  153.4834 H   0  0  0  0  0  0  0  0  0  0  0  0  # atno 10765 bound_to 10752
  140.9398  134.1209  157.4161 H   0  0  0  0  0  0  0  0  0  0  0  0  # atno 11005 bound_to 11000
  145.0768  140.9194  143.4849 LP  0  0  0  0  0  0  0  0  0  0  0  0  # atno 17320 bound_to 7965
  145.0912  139.2888  143.5734 LP  0  0  0  0  0  0  0  0  0  0  0  0  # atno 17321 bound_to 7965
  140.2858  144.3809  150.6104 LP  0  0  0  0  0  0  0  0  0  0  0  0  # atno 17342 bound_to 10162
  140.5984  143.2167  151.7120 LP  0  0  0  0  0  0  0  0  0  0  0  0  # atno 17343 bound_to 10162
  157.1497  130.6178  149.5578 LP  0  0  0  0  0  0  0  0  0  0  0  0  # atno 17370 bound_to 10713
  155.9834  130.4853  150.6931 LP  0  0  0  0  0  0  0  0  0  0  0  0  # atno 17371 bound_to 10713
  139.8817  135.0033  156.6177 LP  0  0  0  0  0  0  0  0  0  0  0  0  # atno 17394 bound_to 11000
  140.7750  133.8707  155.8522 LP  0  0  0  0  0  0  0  0  0  0  0  0  # atno 17395 bound_to 11000

$$$$
