AV-unprocessed.smi:2923|AV-procd|sdf|11216|dock10
  -GOLD-   2272016103D 1   1.00000     0.00000
 Structure written by MMmdl.
 46 48  0  0  0  0  0  0  0  0  1 V2000
  148.9705  142.1999  158.0735 C   0  0  0  0  0  0  0  0  0  0  0  0
  149.7429  141.6035  156.9909 N   0  0  0  0  0  0  0  0  0  0  0  0
  150.9995  142.2153  156.5710 C   0  0  0  0  0  0  0  0  0  0  0  0
  149.2627  140.4531  156.3240 C   0  0  0  0  0  0  0  0  0  0  0  0
  148.3465  139.5672  156.9433 C   0  0  0  0  0  0  0  0  0  0  0  0
  147.8933  138.4363  156.2372 C   0  0  0  0  0  0  0  0  0  0  0  0
  148.3713  138.2083  154.9264 C   0  0  0  0  0  0  0  0  0  0  0  0
  147.9726  137.1213  154.1019 N   0  0  0  0  0  0  0  0  0  0  0  0
  146.8601  136.3713  154.1799 C   0  0  0  0  0  0  0  0  0  0  0  0
  146.0014  136.4569  155.0574 O   0  0  0  0  0  0  0  0  0  0  0  0
  146.8012  135.4875  153.1753 N   0  0  0  0  0  0  0  0  0  0  0  0
  145.7039  134.5500  152.9676 C   0  0  2  0  0  0  0  0  0  0  0  0
  146.1005  133.3731  152.0761 C   0  0  1  0  0  0  0  0  0  0  0  0
  146.2576  131.9094  152.2858 C   0  0  0  0  0  0  0  0  0  0  0  0
  145.4855  131.4307  151.0271 C   0  0  0  0  0  0  0  0  0  0  0  0
  144.8245  132.6050  150.4958 O   0  0  0  0  0  0  0  0  0  0  0  0
  144.6537  133.4343  151.6267 C   0  0  2  0  0  0  0  0  0  0  0  0
  144.7334  134.9642  151.7975 C   0  0  0  0  0  0  0  0  0  0  0  0
  143.4330  135.6394  152.2344 C   0  0  0  0  0  0  0  0  0  0  0  0
  145.2730  135.7914  150.6125 C   0  0  0  0  0  0  0  0  0  0  0  0
  149.2723  139.1485  154.3903 C   0  0  0  0  0  0  0  0  0  0  0  0
  149.7093  140.2330  155.0634 N   0  0  0  0  0  0  0  0  0  0  0  0
  147.9852  142.5037  157.7189 H   0  0  0  0  0  0  0  0  0  0  0  0
  149.4656  143.0842  158.4751 H   0  0  0  0  0  0  0  0  0  0  0  0
  148.8445  141.4897  158.8912 H   0  0  0  0  0  0  0  0  0  0  0  0
  150.9409  142.5344  155.5299 H   0  0  0  0  0  0  0  0  0  0  0  0
  151.8223  141.5067  156.6716 H   0  0  0  0  0  0  0  0  0  0  0  0
  151.2384  143.0908  157.1748 H   0  0  0  0  0  0  0  0  0  0  0  0
  147.9765  139.7335  157.9435 H   0  0  0  0  0  0  0  0  0  0  0  0
  147.1795  137.7816  156.7114 H   0  0  0  0  0  0  0  0  0  0  0  0
  148.6263  136.8695  153.3751 H   0  0  0  0  0  0  0  0  0  0  0  0
  147.5512  135.4745  152.4999 H   0  0  0  0  0  0  0  0  0  0  0  0
  145.1969  134.2404  153.8862 H   0  0  0  0  0  0  0  0  0  0  0  0
  146.8027  133.7009  151.3059 H   0  0  0  0  0  0  0  0  0  0  0  0
  147.2997  131.5896  152.2848 H   0  0  0  0  0  0  0  0  0  0  0  0
  145.7821  131.5756  153.2093 H   0  0  0  0  0  0  0  0  0  0  0  0
  146.1542  131.0165  150.2722 H   0  0  0  0  0  0  0  0  0  0  0  0
  144.7532  130.6657  151.2880 H   0  0  0  0  0  0  0  0  0  0  0  0
  143.9505  132.9806  152.3345 H   0  0  0  0  0  0  0  0  0  0  0  0
  142.6895  135.6287  151.4371 H   0  0  0  0  0  0  0  0  0  0  0  0
  143.5965  136.6788  152.5208 H   0  0  0  0  0  0  0  0  0  0  0  0
  142.9904  135.1372  153.0952 H   0  0  0  0  0  0  0  0  0  0  0  0
  144.5677  135.7900  149.7809 H   0  0  0  0  0  0  0  0  0  0  0  0
  146.2190  135.4271  150.2170 H   0  0  0  0  0  0  0  0  0  0  0  0
  145.4339  136.8319  150.8964 H   0  0  0  0  0  0  0  0  0  0  0  0
  149.6584  139.0291  153.3885 H   0  0  0  0  0  0  0  0  0  0  0  0
  1  2  1  0  0  0  0
  1 23  1  0  0  0  0
  1 24  1  0  0  0  0
  1 25  1  0  0  0  0
  2  3  1  0  0  0  0
  2  4  1  0  0  0  0
  3 26  1  0  0  0  0
  3 27  1  0  0  0  0
  3 28  1  0  0  0  0
  4 22  1  0  0  0  0
  4  5  2  0  0  0  0
  5  6  1  0  0  0  0
  5 29  1  0  0  0  0
  6  7  2  0  0  0  0
  6 30  1  0  0  0  0
  7  8  1  0  0  0  0
  7 21  1  0  0  0  0
  8  9  1  0  0  0  0
  8 31  1  0  0  0  0
  9 10  2  0  0  0  0
  9 11  1  0  0  0  0
 11 12  1  0  0  0  0
 11 32  1  0  0  0  0
 12 18  1  0  0  0  0
 12 13  1  0  0  0  0
 12 33  1  0  0  0  0
 13 17  1  0  0  0  0
 13 14  1  0  0  0  0
 13 34  1  0  0  0  0
 14 15  1  0  0  0  0
 14 35  1  0  0  0  0
 14 36  1  0  0  0  0
 15 16  1  0  0  0  0
 15 37  1  0  0  0  0
 15 38  1  0  0  0  0
 16 17  1  0  0  0  0
 17 18  1  0  0  0  0
 17 39  1  0  0  0  0
 18 19  1  0  0  0  0
 18 20  1  0  0  0  0
 19 40  1  0  0  0  0
 19 41  1  0  0  0  0
 19 42  1  0  0  0  0
 20 43  1  0  0  0  0
 20 44  1  0  0  0  0
 20 45  1  0  0  0  0
 21 22  2  0  0  0  0
 21 46  1  0  0  0  0
M  END
> <s_m_source_file>
AV-unprocessed.smi

> <i_m_source_file_index>
2923

> <i_lp_mmshare_version>
43012

> <i_f3d_flags>
0

> <s_epik_input>
W0NIM11OKFtDSDNdKWMxW2NIXVtjSF1jKFtjSF1uMSlbTkhdQyg9TylbTkhdW0NASF0yQyhbQ0gzXSkoW0NIM10pW0NAQEhdKFtDQEhdMjMpT1tDSDJdW0NIMl0z

> <s_epik_cmdline>
J2VwaWtfcHl0aG9uJywgJy1waCcsICc3LjAnLCAnLXRuJywgJzgnLCAnLW1hJywgJzIwMCcsICctbWV0YWxfYmluZGluZycsICctaW1hZScsICc8aW5maWxlLm1hZT4nLCAnLW9tYWUnLCAnPG91dGZpbGUubWFlPic=

> <r_lp_tautomer_probability>
1

> <r_epik_Ionization_Penalty>
0.628785

> <r_epik_Ionization_Penalty_Charging>
0

> <r_epik_Ionization_Penalty_Neutral>
0.628785

> <r_epik_State_Penalty>
0.644286

> <r_epik_Charging_Adjusted_Penalty>
0.644286

> <i_epik_Tot_Q>
0

> <i_epik_Tot_abs_Q>
0

> <r_epik_Metal_State_Penalty>
0.308404

> <b_epik_Metal_Only>
0

> <s_lp_Force_Field>
OPLS_2005

> <r_lp_Energy>
62.6556

> <b_lp_Chiralities_Consistent>
1

> <s_lp_Variant>
AV-unprocessed.smi:2923-15

> <Gold.Version>
5.8.1

> <Gold.Id.Protein>
6NUR|6NUR_protein|mol2

> <Gold.PLP.Fitness>
35.9595

> <Gold.PLP.PLP>
-27.8839

> <Gold.PLP.part.hbond>
-2.0000

> <Gold.PLP.part.metal>
0.0000

> <Gold.PLP.part.buried>
-4.9307

> <Gold.PLP.part.nonpolar>
-21.0231

> <Gold.PLP.part.repulsive>
0.2412

> <Gold.PLP.ligand.clash>
0.0000

> <Gold.PLP.ligand.torsion>
0.5842

> <Gold.PLP.Chemscore.Hbond>
1.9920

> <Gold.PLP.Chemscore.CHOScore>
1.0000

> <Gold.PLP.Chemscore.Metal>
0.0000

> <Gold.Chemscore.Hbonds>
donor molecule, donor type, donor heavy atom, donor atom, acceptor molecule, acceptor atom, score
      L1  H     8    31       P1  7948  1.00
      L1  H    11    32       P1  7948  0.99
      L1  C    21    46       P1  7957  1.00

> <Gold.PLP.Chemscore.Internal.Correction>
0.2682

> <Gold.Rescore>
     Score         DG    S(hbond)    S(metal)    S(lipo)     H(rot)  DE(clash)    DE(int)     intcor
     15.29     -16.96       1.89        0.00      66.13       1.00       0.04       1.63       ----

> <Gold.Chemscore.Fitness>
15.2946

> <Gold.Chemscore.DG>
-16.9650

> <Gold.Chemscore.ZeroCoef>
-5.4800

> <Gold.Chemscore.Hbond>
1.8884

> <Gold.Chemscore.Metal>
0.0000

> <Gold.Chemscore.Lipo>
66.1343

> <Gold.Chemscore.Internal_Hbond>
0.0000

> <Gold.Chemscore.DEClash>
0.0397

> <Gold.Chemscore.DEInternal>
1.6307

> <Gold.Chemscore.Rot>
1.0000

> <Gold.Chemscore.Internal.Correction>
   9.000000E+99

> <Gold.Chemscore.Hbonds>
donor molecule, donor type, donor heavy atom, donor atom, acceptor molecule, acceptor atom, score
      L1  H     8    31       P1  7948  0.96
      L1  H    11    32       P1  7948  0.94

> <Gold.Chemscore.Hbond.Weighted>
-6.3073

> <Gold.Chemscore.Metal.Weighted>
-0.0000

> <Gold.Chemscore.Lipo.Weighted>
-7.7377

> <Gold.Chemscore.Internal_Hbond.Weighted>
0.0000

> <Gold.Chemscore.DEClash.Weighted>
0.0397

> <Gold.Chemscore.DEInternal.Weighted>
1.6307

> <Gold.Chemscore.Rot.Weighted>
2.5600

> <Gold.Chemscore.Internal.Correction.Weighted>
   9.000000E+99

> <Gold.Protein.RotatedTorsions>
[ 6907 6896 6895 6894 ] final  144.44 input  -60.11 | X-H torsion
[ 7974 7965 7964 7962 ] final   35.54 input  175.53 | X-H torsion
[ 8008 7997 7996 7995 ] final   26.82 input   59.86 | X-H torsion
[ 10167 10162 10161 10158 ] final  -85.71 input  -65.29 | X-H torsion
[ 10718 10713 10712 10709 ] final   96.60 input   66.30 | X-H torsion
[ 10763 10752 10751 10750 ] final   41.50 input  -60.55 | X-H torsion
[ 11005 11000 10999 10996 ] final   13.13 input  -57.11 | X-H torsion

> <Gold.Protein.ActiveResidues>
 VAL166  LYS551  ARG553  GLY616  TRP617  ASP618  TYR619  PRO620  LYS621  CYS622 
 ASP623  PHE694  ASN695  SER759  ASP760  ASP761  ALA762  ILE779  LEU786  VAL792 
 PHE793  MET794  SER795  GLU796  ALA797  LYS798  CYS799  TRP800  GLU811  SER814 

> <Gold.Protein.RotatedAtoms>
  152.1937  133.4791  159.5021 H   0  0  0  0  0  0  0  0  0  0  0  0  # atno 6907 bound_to 6896
  150.6956  134.1680  159.4210 H   0  0  0  0  0  0  0  0  0  0  0  0  # atno 6908 bound_to 6896
  151.9595  135.0130  160.0597 H   0  0  0  0  0  0  0  0  0  0  0  0  # atno 6909 bound_to 6896
  146.1276  139.6130  142.9248 H   0  0  0  0  0  0  0  0  0  0  0  0  # atno 7974 bound_to 7965
  155.0333  140.3161  155.4750 H   0  0  0  0  0  0  0  0  0  0  0  0  # atno 8008 bound_to 7997
  156.2869  140.2176  156.5397 H   0  0  0  0  0  0  0  0  0  0  0  0  # atno 8009 bound_to 7997
  154.7352  140.0478  157.0750 H   0  0  0  0  0  0  0  0  0  0  0  0  # atno 8010 bound_to 7997
  140.4011  143.2662  151.9141 H   0  0  0  0  0  0  0  0  0  0  0  0  # atno 10167 bound_to 10162
  157.6925  131.0583  150.4515 H   0  0  0  0  0  0  0  0  0  0  0  0  # atno 10718 bound_to 10713
  152.9906  135.6160  154.2798 H   0  0  0  0  0  0  0  0  0  0  0  0  # atno 10763 bound_to 10752
  154.2528  135.2785  155.2811 H   0  0  0  0  0  0  0  0  0  0  0  0  # atno 10764 bound_to 10752
  154.5273  135.5798  153.6787 H   0  0  0  0  0  0  0  0  0  0  0  0  # atno 10765 bound_to 10752
  140.4842  134.0905  155.7757 H   0  0  0  0  0  0  0  0  0  0  0  0  # atno 11005 bound_to 11000
  145.5331  141.0426  143.2372 LP  0  0  0  0  0  0  0  0  0  0  0  0  # atno 17320 bound_to 7965
  144.7658  139.6849  143.7215 LP  0  0  0  0  0  0  0  0  0  0  0  0  # atno 17321 bound_to 7965
  139.4785  144.5632  151.8206 LP  0  0  0  0  0  0  0  0  0  0  0  0  # atno 17342 bound_to 10162
  140.4738  144.1548  150.5922 LP  0  0  0  0  0  0  0  0  0  0  0  0  # atno 17343 bound_to 10162
  156.4866  130.4086  149.6430 LP  0  0  0  0  0  0  0  0  0  0  0  0  # atno 17370 bound_to 10713
  156.3456  130.7405  151.2357 LP  0  0  0  0  0  0  0  0  0  0  0  0  # atno 17371 bound_to 10713
  141.1516  133.8958  157.2083 LP  0  0  0  0  0  0  0  0  0  0  0  0  # atno 17394 bound_to 11000
  139.9808  135.0099  156.9745 LP  0  0  0  0  0  0  0  0  0  0  0  0  # atno 17395 bound_to 11000

$$$$
