#       Name:                AV-unprocessed.smi:2656
#       Creating user name   scv26
#       Creation time:       Fri Mar 27 14:32:12 2020


#       File generated by GOLD software.
#

@<TRIPOS>MOLECULE
AV-unprocessed.smi:2656
    48    49     1
SMALL
NO_CHARGES


@<TRIPOS>ATOM
      1 ****        -3.8252   0.2532  -0.4077 C.3            1 S1                 0.0000
      2 ****        -2.7910  -0.5069   0.3038 N.am           1 S1                 0.0000
      3 ****        -2.9315  -1.9579   0.1565 C.3            1 S1                 0.0000
      4 ****        -1.8385   0.1559   1.0144 C.2            1 S1                 0.0000
      5 ****        -1.8976   1.3840   1.1145 O.2            1 S1                 0.0000
      6 ****        -0.6362  -0.5826   1.7015 C.3            1 S1                 0.0000
      7 ****         0.1281  -1.5551   0.7475 C.3            1 S1                 0.0000
      8 ****         0.4179  -0.9842  -0.5686 N.am           1 S1                 0.0000
      9 ****         1.5427  -0.3422  -0.9152 C.2            1 S1                 0.0000
     10 ****         2.4894  -0.1700  -0.1483 O.2            1 S1                 0.0000
     11 ****         1.4769   0.0918  -2.1859 N.am           1 S1                 0.0000
     12 ****         2.4434   0.8153  -2.9368 C.ar           1 S1                 0.0000
     13 ****         2.0070   1.4550  -4.1154 C.ar           1 S1                 0.0000
     14 ****         2.9440   2.1687  -4.8889 C.ar           1 S1                 0.0000
     15 ****         4.2500   2.2696  -4.5647 N.ar           1 S1                 0.0000
     16 ****         4.6693   1.6461  -3.4434 C.ar           1 S1                 0.0000
     17 ****         3.8160   0.9062  -2.6005 C.ar           1 S1                 0.0000
     18 ****         0.3810   0.4409   2.2824 C.3            1 S1                 0.0000
     19 ****        -0.1538   0.9062   3.6429 C.3            1 S1                 0.0000
     20 ****        -1.1352  -0.1781   4.0934 C.3            1 S1                 0.0000
     21 ****        -1.0873  -1.2662   3.0136 C.3            1 S1                 0.0000
     22 ****        -4.5303   0.6885   0.3013 H              1 S1                 0.0000
     23 ****        -4.3928  -0.3641  -1.1052 H              1 S1                 0.0000
     24 ****        -3.3884   1.0625  -0.9951 H              1 S1                 0.0000
     25 ****        -2.5883  -2.5210   1.0195 H              1 S1                 0.0000
     26 ****        -2.3835  -2.3002  -0.7216 H              1 S1                 0.0000
     27 ****        -3.9758  -2.2413   0.0211 H              1 S1                 0.0000
     28 ****         1.0581  -1.8870   1.2122 H              1 S1                 0.0000
     29 ****        -0.4190  -2.4821   0.5967 H              1 S1                 0.0000
     30 ****        -0.3050  -1.0767  -1.2672 H              1 S1                 0.0000
     31 ****         0.6020  -0.0729  -2.6614 H              1 S1                 0.0000
     32 ****         0.9727   1.4069  -4.4233 H              1 S1                 0.0000
     33 ****         2.6353   2.6712  -5.7934 H              1 S1                 0.0000
     34 ****         5.7205   1.7346  -3.2124 H              1 S1                 0.0000
     35 ****         4.2333   0.4232  -1.7310 H              1 S1                 0.0000
     36 ****         1.3425  -0.0447   2.4542 H              1 S1                 0.0000
     37 ****         0.5900   1.2793   1.6163 H              1 S1                 0.0000
     38 ****         0.6572   1.0435   4.3587 H              1 S1                 0.0000
     39 ****        -0.6695   1.8626   3.5486 H              1 S1                 0.0000
     40 ****        -0.8842  -0.5770   5.0767 H              1 S1                 0.0000
     41 ****        -2.1403   0.2407   4.1582 H              1 S1                 0.0000
     42 ****        -2.0485  -1.7727   2.9489 H              1 S1                 0.0000
     43 ****        -0.3549  -2.0218   3.3022 H              1 S1                 0.0000
     44 ****        -2.6423   1.8862   0.6749 LP             1 S1                 0.0000
     45 ****        -1.2009   1.8773   1.6353 LP             1 S1                 0.0000
     46 ****         2.4435  -0.5170   0.7885 LP             1 S1                 0.0000
     47 ****         3.3046   0.3169  -0.4618 LP             1 S1                 0.0000
     48 ****         4.8857   2.7888  -5.1359 LP             1 S1                 0.0000
@<TRIPOS>BOND
    1    1    2 1     
    2    1   22 1     
    3    1   23 1     
    4    1   24 1     
    5    2    3 1     
    6    2    4 am    
    7    3   25 1     
    8    3   26 1     
    9    3   27 1     
   10    4    5 2     
   11    4    6 1     
   12    6   21 1     
   13    6    7 1     
   14    6   18 1     
   15    7    8 1     
   16    7   28 1     
   17    7   29 1     
   18    8    9 am    
   19    8   30 1     
   20    9   10 2     
   21    9   11 am    
   22   11   12 1     
   23   11   31 1     
   24   12   17 ar    
   25   12   13 ar    
   26   13   14 ar    
   27   13   32 1     
   28   14   15 ar    
   29   14   33 1     
   30   15   16 ar    
   31   16   17 ar    
   32   16   34 1     
   33   17   35 1     
   34   18   19 1     
   35   18   36 1     
   36   18   37 1     
   37   19   20 1     
   38   19   38 1     
   39   19   39 1     
   40   20   21 1     
   41   20   40 1     
   42   20   41 1     
   43   21   42 1     
   44   21   43 1     
   45    5   44 1     
   46    5   45 1     
   47   10   46 1     
   48   10   47 1     
   49   15   48 1     
@<TRIPOS>SUBSTRUCTURE
      1 S1             1
@<TRIPOS>SET
LONE_PAIRS      STATIC     ATOMS    <user>   **** ""
5 44 45 46 47 48
DONOR_HYDROGENS      STATIC     ATOMS    <user>   **** ""
2 30 31
ATOM$BLUE        STATIC     ATOMS    COLORGROUP SYSTEM
5 44 45 46 47 48
ATOM$RED        STATIC     ATOMS    COLORGROUP SYSTEM
2 30 31
