#       Name:                AV-unprocessed.smi:2467
#       Creating user name   scv26
#       Creation time:       Fri Mar 27 13:36:49 2020


#       File generated by GOLD software.
#

@<TRIPOS>MOLECULE
AV-unprocessed.smi:2467
    51    52     1
SMALL
NO_CHARGES


@<TRIPOS>ATOM
      1 ****        -4.2376  -1.6807   0.7583 C.3            1 S1                 0.0000
      2 ****        -2.7233  -1.9063   0.6299 C.3            1 S1                 0.0000
      3 ****        -2.2043  -1.9431  -0.8299 C.3            1 S1                 0.0000
      4 ****        -2.6530  -3.2407  -1.5480 C.3            1 S1                 0.0000
      5 ****        -2.5004  -3.2145  -3.0766 C.3            1 S1                 0.0000
      6 ****        -0.6663  -1.7531  -0.9119 C.3            1 S1                 0.0000
      7 ****        -0.1757  -0.3368  -0.5365 C.3            1 S1                 0.0000
      8 ****         1.3525  -0.2483  -0.6597 C.3            1 S1                 0.0000
      9 ****         1.8152   1.0538  -0.1896 N.am           1 S1                 0.0000
     10 ****         2.9550   1.6594  -0.5615 C.2            1 S1                 0.0000
     11 ****         3.7374   1.1631  -1.3708 O.2            1 S1                 0.0000
     12 ****         3.2087   2.8600   0.0027 N.am           1 S1                 0.0000
     13 ****         4.2968   3.7691  -0.1514 C.ar           1 S1                 0.0000
     14 ****         4.2016   4.9336   0.6443 C.ar           1 S1                 0.0000
     15 ****         5.2135   5.9106   0.5743 C.ar           1 S1                 0.0000
     16 ****         6.2996   5.6995  -0.2930 C.ar           1 S1                 0.0000
     17 ****         6.3204   4.5154  -1.0521 C.ar           1 S1                 0.0000
     18 ****         5.3509   3.5783  -0.9857 N.ar           1 S1                 0.0000
     19 ****         1.9924  -1.3820   0.1585 C.3            1 S1                 0.0000
     20 ****         1.3925  -2.7412  -0.2352 C.3            1 S1                 0.0000
     21 ****        -0.0231  -2.7186  -0.0823 O.3            1 S1                 0.0000
     22 ****        -4.5214  -1.5831   1.8064 H              1 S1                 0.0000
     23 ****        -4.8142  -2.5073   0.3457 H              1 S1                 0.0000
     24 ****        -4.5443  -0.7669   0.2486 H              1 S1                 0.0000
     25 ****        -2.2394  -1.1042   1.1830 H              1 S1                 0.0000
     26 ****        -2.4461  -2.8267   1.1450 H              1 S1                 0.0000
     27 ****        -2.6599  -1.1040  -1.3577 H              1 S1                 0.0000
     28 ****        -2.1130  -4.0967  -1.1415 H              1 S1                 0.0000
     29 ****        -3.7045  -3.4322  -1.3403 H              1 S1                 0.0000
     30 ****        -2.9400  -4.1086  -3.5191 H              1 S1                 0.0000
     31 ****        -1.4564  -3.1856  -3.3863 H              1 S1                 0.0000
     32 ****        -3.0063  -2.3510  -3.5093 H              1 S1                 0.0000
     33 ****        -0.3540  -1.9283  -1.9410 H              1 S1                 0.0000
     34 ****        -0.6453   0.4052  -1.1833 H              1 S1                 0.0000
     35 ****        -0.4619  -0.0861   0.4843 H              1 S1                 0.0000
     36 ****         1.6200  -0.3704  -1.7111 H              1 S1                 0.0000
     37 ****         1.2292   1.5312   0.4811 H              1 S1                 0.0000
     38 ****         2.4854   3.1835   0.6281 H              1 S1                 0.0000
     39 ****         3.3603   5.0823   1.3060 H              1 S1                 0.0000
     40 ****         5.1558   6.8059   1.1755 H              1 S1                 0.0000
     41 ****         7.0949   6.4256  -0.3744 H              1 S1                 0.0000
     42 ****         7.1363   4.3142  -1.7304 H              1 S1                 0.0000
     43 ****         3.0728  -1.3963   0.0109 H              1 S1                 0.0000
     44 ****         1.8243  -1.2111   1.2229 H              1 S1                 0.0000
     45 ****         1.6532  -2.9970  -1.2634 H              1 S1                 0.0000
     46 ****         1.8013  -3.5275   0.3996 H              1 S1                 0.0000
     47 ****         3.5355   0.2735  -1.7804 LP             1 S1                 0.0000
     48 ****         4.5751   1.6494  -1.6192 LP             1 S1                 0.0000
     49 ****         5.4086   2.7517  -1.5454 LP             1 S1                 0.0000
     50 ****        -0.3813  -3.6234  -0.3124 LP             1 S1                 0.0000
     51 ****        -0.2356  -2.5086   0.8720 LP             1 S1                 0.0000
@<TRIPOS>BOND
    1    1    2 1     
    2    1   22 1     
    3    1   23 1     
    4    1   24 1     
    5    2    3 1     
    6    2   25 1     
    7    2   26 1     
    8    3    4 1     
    9    3    6 1     
   10    3   27 1     
   11    4    5 1     
   12    4   28 1     
   13    4   29 1     
   14    5   30 1     
   15    5   31 1     
   16    5   32 1     
   17    6   21 1     
   18    6    7 1     
   19    6   33 1     
   20    7    8 1     
   21    7   34 1     
   22    7   35 1     
   23    8    9 1     
   24    8   19 1     
   25    8   36 1     
   26    9   10 am    
   27    9   37 1     
   28   10   11 2     
   29   10   12 am    
   30   12   13 1     
   31   12   38 1     
   32   13   18 ar    
   33   13   14 ar    
   34   14   15 ar    
   35   14   39 1     
   36   15   16 ar    
   37   15   40 1     
   38   16   17 ar    
   39   16   41 1     
   40   17   18 ar    
   41   17   42 1     
   42   19   20 1     
   43   19   43 1     
   44   19   44 1     
   45   20   21 1     
   46   20   45 1     
   47   20   46 1     
   48   11   47 1     
   49   11   48 1     
   50   18   49 1     
   51   21   50 1     
   52   21   51 1     
@<TRIPOS>SUBSTRUCTURE
      1 S1             1
@<TRIPOS>SET
LONE_PAIRS      STATIC     ATOMS    <user>   **** ""
5 47 48 49 50 51
DONOR_HYDROGENS      STATIC     ATOMS    <user>   **** ""
2 37 38
ATOM$BLUE        STATIC     ATOMS    COLORGROUP SYSTEM
5 47 48 49 50 51
ATOM$RED        STATIC     ATOMS    COLORGROUP SYSTEM
2 37 38
