#       Name:                AV-unprocessed.smi:2125
#       Creating user name   scv26
#       Creation time:       Fri Mar 27 11:42:37 2020


#       File generated by GOLD software.
#

@<TRIPOS>MOLECULE
AV-unprocessed.smi:2125
    38    39     1
SMALL
NO_CHARGES


@<TRIPOS>ATOM
      1 ****        -2.9810   1.4028  -3.5195 C.3            1 S1                 0.0000
      2 ****        -2.8397   1.3121  -2.0813 N.am           1 S1                 0.0000
      3 ****        -3.4604   2.2858  -1.2614 C.2            1 S1                 0.0000
      4 ****        -4.1237   3.2166  -1.7193 O.2            1 S1                 0.0000
      5 ****        -3.2480   2.0931   0.1682 C.2            1 S1                 0.0000
      6 ****        -2.5136   1.0565   0.6281 C.2            1 S1                 0.0000
      7 ****        -1.9185   0.1188  -0.1960 N.am           1 S1                 0.0000
      8 ****        -1.1266  -0.9693   0.3921 C.3            1 S1                 0.0000
      9 ****         0.3823  -0.6875   0.3890 C.2            1 S1                 0.0000
     10 ****         0.8085   0.4664   0.3234 O.2            1 S1                 0.0000
     11 ****         1.1805  -1.7613   0.4827 N.am           1 S1                 0.0000
     12 ****         2.6364  -1.7189   0.5186 C.3            1 S1                 0.0000
     13 ****         3.2310  -1.3193   1.8560 C.3            1 S1                 0.0000
     14 ****         3.6469   0.1074   2.1336 C.3            1 S1                 0.0000
     15 ****         4.6956  -0.9644   1.9643 C.3            1 S1                 0.0000
     16 ****        -2.0714   0.2322  -1.5942 C.2            1 S1                 0.0000
     17 ****        -1.5482  -0.5869  -2.3542 O.2            1 S1                 0.0000
     18 ****        -3.5912   2.2582  -3.8068 H              1 S1                 0.0000
     19 ****        -3.4571   0.4801  -3.8564 H              1 S1                 0.0000
     20 ****        -1.9777   1.5083  -3.9361 H              1 S1                 0.0000
     21 ****        -3.6839   2.7905   0.8683 H              1 S1                 0.0000
     22 ****        -2.3829   0.9598   1.6962 H              1 S1                 0.0000
     23 ****        -1.4382  -1.1378   1.4237 H              1 S1                 0.0000
     24 ****        -1.3280  -1.9055  -0.1320 H              1 S1                 0.0000
     25 ****         0.7482  -2.6724   0.5348 H              1 S1                 0.0000
     26 ****         2.9998  -2.7166   0.2715 H              1 S1                 0.0000
     27 ****         3.0105  -1.0563  -0.2641 H              1 S1                 0.0000
     28 ****         2.8255  -1.8764   2.6986 H              1 S1                 0.0000
     29 ****         3.5372   0.8339   1.3308 H              1 S1                 0.0000
     30 ****         3.4761   0.4927   3.1367 H              1 S1                 0.0000
     31 ****         5.2274  -1.2927   2.8551 H              1 S1                 0.0000
     32 ****         5.2837  -0.9497   1.0486 H              1 S1                 0.0000
     33 ****        -4.2416   3.3075  -2.7081 LP             1 S1                 0.0000
     34 ****        -4.5444   3.8817  -1.1023 LP             1 S1                 0.0000
     35 ****         0.1690   1.2334   0.2713 LP             1 S1                 0.0000
     36 ****         1.7940   0.6361   0.3223 LP             1 S1                 0.0000
     37 ****        -1.6631  -0.4956  -3.3433 LP             1 S1                 0.0000
     38 ****        -1.0092  -1.3420  -1.9810 LP             1 S1                 0.0000
@<TRIPOS>BOND
    1    1    2 1     
    2    1   18 1     
    3    1   19 1     
    4    1   20 1     
    5    2   16 am    
    6    2    3 am    
    7    3    4 2     
    8    3    5 1     
    9    5    6 2     
   10    5   21 1     
   11    6    7 1     
   12    6   22 1     
   13    7    8 1     
   14    7   16 am    
   15    8    9 1     
   16    8   23 1     
   17    8   24 1     
   18    9   10 2     
   19    9   11 am    
   20   11   12 1     
   21   11   25 1     
   22   12   13 1     
   23   12   26 1     
   24   12   27 1     
   25   13   15 1     
   26   13   14 1     
   27   13   28 1     
   28   14   15 1     
   29   14   29 1     
   30   14   30 1     
   31   15   31 1     
   32   15   32 1     
   33   16   17 2     
   34    4   33 1     
   35    4   34 1     
   36   10   35 1     
   37   10   36 1     
   38   17   37 1     
   39   17   38 1     
@<TRIPOS>SUBSTRUCTURE
      1 S1             1
@<TRIPOS>SET
LONE_PAIRS      STATIC     ATOMS    <user>   **** ""
6 33 34 35 36 37 38
DONOR_HYDROGENS      STATIC     ATOMS    <user>   **** ""
1 25
ATOM$BLUE        STATIC     ATOMS    COLORGROUP SYSTEM
6 33 34 35 36 37 38
ATOM$RED        STATIC     ATOMS    COLORGROUP SYSTEM
1 25
