AV-unprocessed.smi:2448|AV-procd|sdf|9659|dock3
  -GOLD-   2272013293D 1   1.00000     0.00000
 Structure written by MMmdl.
 38 39  0  0  0  0  0  0  0  0  2 V2000
  153.5200  138.4529  156.7763 O   0  0  0  0  0  0  0  0  0  0  0  0
  152.1804  138.9136  156.8086 C   0  0  1  0  0  0  0  0  0  0  0  0
  151.9958  139.7645  158.0820 C   0  0  0  0  0  0  0  0  0  0  0  0
  153.2521  140.3760  158.5207 N   0  0  0  0  0  0  0  0  0  0  0  0
  153.2524  140.9957  159.8543 C   0  0  2  0  0  0  0  0  0  0  0  0
  153.5859  142.5106  159.8201 C   0  0  0  0  0  0  0  0  0  0  0  0
  152.4673  143.4163  159.3299 C   0  0  0  0  0  0  0  0  0  0  0  0
  151.8558  144.3369  160.2107 C   0  0  0  0  0  0  0  0  0  0  0  0
  150.8176  145.1629  159.7339 C   0  0  0  0  0  0  0  0  0  0  0  0
  150.4155  145.0634  158.4481 N   0  3  0  0  0  0  0  0  0  0  0  0
  150.9657  144.1916  157.5750 C   0  0  0  0  0  0  0  0  0  0  0  0
  152.0074  143.3397  157.9955 C   0  0  0  0  0  0  0  0  0  0  0  0
  154.2327  140.2347  160.7719 C   0  0  0  0  0  0  0  0  0  0  0  0
  154.1666  140.7243  162.0107 F   0  0  0  0  0  0  0  0  0  0  0  0
  153.9364  138.9349  160.8053 F   0  0  0  0  0  0  0  0  0  0  0  0
  155.4836  140.3832  160.3354 F   0  0  0  0  0  0  0  0  0  0  0  0
  151.9472  139.7435  155.5351 C   0  0  0  0  0  0  0  0  0  0  0  0
  151.8377  138.7737  154.3539 C   0  0  0  0  0  0  0  0  0  0  0  0
  151.0463  137.2631  154.9598 S   0  0  0  0  0  0  0  0  0  0  0  0
  151.2106  137.7217  156.7062 C   0  0  0  0  0  0  0  0  0  0  0  0
  153.5936  137.7824  156.1148 H   0  0  0  0  0  0  0  0  0  0  0  0
  151.2380  140.5227  157.8961 H   0  0  0  0  0  0  0  0  0  0  0  0
  151.6110  139.1266  158.8784 H   0  0  0  0  0  0  0  0  0  0  0  0
  153.9986  139.6894  158.4697 H   0  0  0  0  0  0  0  0  0  0  0  0
  152.2667  140.8639  160.3017 H   0  0  0  0  0  0  0  0  0  0  0  0
  153.8303  142.8539  160.8253 H   0  0  0  0  0  0  0  0  0  0  0  0
  154.4866  142.6765  159.2275 H   0  0  0  0  0  0  0  0  0  0  0  0
  152.1791  144.4146  161.2388 H   0  0  0  0  0  0  0  0  0  0  0  0
  150.2999  145.8934  160.3383 H   0  0  0  0  0  0  0  0  0  0  0  0
  150.5572  144.2001  156.5750 H   0  0  0  0  0  0  0  0  0  0  0  0
  152.4444  142.6377  157.3002 H   0  0  0  0  0  0  0  0  0  0  0  0
  151.0057  140.2871  155.6255 H   0  0  0  0  0  0  0  0  0  0  0  0
  152.7271  140.4891  155.3744 H   0  0  0  0  0  0  0  0  0  0  0  0
  151.2791  139.2018  153.5214 H   0  0  0  0  0  0  0  0  0  0  0  0
  152.8313  138.5134  153.9878 H   0  0  0  0  0  0  0  0  0  0  0  0
  151.5267  136.8677  157.3065 H   0  0  0  0  0  0  0  0  0  0  0  0
  150.2206  138.0165  157.0556 H   0  0  0  0  0  0  0  0  0  0  0  0
  149.6616  145.6699  158.1238 H   0  0  0  0  0  0  0  0  0  0  0  0
  1  2  1  0  0  0  0
  1 21  1  0  0  0  0
  2 20  1  0  0  0  0
  2  3  1  0  0  0  0
  2 17  1  0  0  0  0
  3  4  1  0  0  0  0
  3 22  1  0  0  0  0
  3 23  1  0  0  0  0
  4  5  1  0  0  0  0
  4 24  1  0  0  0  0
  5  6  1  0  0  0  0
  5 13  1  0  0  0  0
  5 25  1  0  0  0  0
  6  7  1  0  0  0  0
  6 26  1  0  0  0  0
  6 27  1  0  0  0  0
  7 12  1  0  0  0  0
  7  8  2  0  0  0  0
  8  9  1  0  0  0  0
  8 28  1  0  0  0  0
  9 10  2  0  0  0  0
  9 29  1  0  0  0  0
 10 11  1  0  0  0  0
 10 38  1  0  0  0  0
 11 12  2  0  0  0  0
 11 30  1  0  0  0  0
 12 31  1  0  0  0  0
 13 14  1  0  0  0  0
 13 15  1  0  0  0  0
 13 16  1  0  0  0  0
 17 18  1  0  0  0  0
 17 32  1  0  0  0  0
 17 33  1  0  0  0  0
 18 19  1  0  0  0  0
 18 34  1  0  0  0  0
 18 35  1  0  0  0  0
 19 20  1  0  0  0  0
 20 36  1  0  0  0  0
 20 37  1  0  0  0  0
M  CHG  1  10   1
M  END
> <s_m_source_file>
AV-unprocessed.smi

> <i_m_source_file_index>
2448

> <i_lp_mmshare_version>
43012

> <i_f3d_flags>
0

> <s_epik_input>
W0NIMl0xU1tDSDJdW0NIMl1bQ0BAXTEoW09IXSlbQ0gyXVtOSF1bQ0BASF0oQyhGKShGKUYpW0NIMl1jMltjSF1bY0hdbltjSF1bY0hdMg==

> <s_epik_cmdline>
J2VwaWtfcHl0aG9uJywgJy1waCcsICc3LjAnLCAnLXRuJywgJzgnLCAnLW1hJywgJzIwMCcsICctbWV0YWxfYmluZGluZycsICctaW1hZScsICc8aW5maWxlLm1hZT4nLCAnLW9tYWUnLCAnPG91dGZpbGUubWFlPic=

> <r_epik_Ionization_Penalty>
1.11129

> <r_epik_Ionization_Penalty_Charging>
1.08366

> <r_epik_Ionization_Penalty_Neutral>
0.0276276

> <r_epik_State_Penalty>
1.93785

> <r_epik_Charging_Adjusted_Penalty>
3.02151

> <i_epik_Tot_Q>
1

> <i_epik_Tot_abs_Q>
1

> <r_epik_Metal_State_Penalty>
5.97911

> <b_epik_Metal_Only>
0

> <s_lp_Force_Field>
OPLS_2005

> <r_lp_Energy>
39.4187

> <b_lp_Chiralities_Consistent>
1

> <s_lp_Variant>
AV-unprocessed.smi:2448-9

> <Gold.Version>
5.8.1

> <Gold.Id.Protein>
6NUR|6NUR_protein|mol2

> <Gold.PLP.Fitness>
50.2457

> <Gold.PLP.PLP>
-44.0279

> <Gold.PLP.part.hbond>
-3.7462

> <Gold.PLP.part.metal>
0.0000

> <Gold.PLP.part.buried>
-0.6904

> <Gold.PLP.part.nonpolar>
-39.2195

> <Gold.PLP.part.repulsive>
0.2005

> <Gold.PLP.ligand.clash>
0.0000

> <Gold.PLP.ligand.torsion>
1.5745

> <Gold.PLP.Chemscore.Hbond>
2.9120

> <Gold.PLP.Chemscore.CHOScore>
0.0000

> <Gold.PLP.Chemscore.Metal>
0.0000

> <Gold.Chemscore.Hbonds>
donor molecule, donor type, donor heavy atom, donor atom, acceptor molecule, acceptor atom, score
      L1  H    10    38       P1  8029  2.00
      P1  H  7997  8010       L1     1  0.88

> <Gold.PLP.Chemscore.Internal.Correction>
0.6309

> <Gold.Rescore>
     Score         DG    S(hbond)    S(metal)    S(lipo)     H(rot)  DE(clash)    DE(int)     intcor
     13.62     -15.54       0.68        0.00     119.54       2.42       0.42       1.50       ----

> <Gold.Chemscore.Fitness>
13.6228

> <Gold.Chemscore.DG>
-15.5442

> <Gold.Chemscore.ZeroCoef>
-5.4800

> <Gold.Chemscore.Hbond>
0.6841

> <Gold.Chemscore.Metal>
0.0000

> <Gold.Chemscore.Lipo>
119.5428

> <Gold.Chemscore.Internal_Hbond>
0.0000

> <Gold.Chemscore.DEClash>
0.4187

> <Gold.Chemscore.DEInternal>
1.5026

> <Gold.Chemscore.Rot>
2.4247

> <Gold.Chemscore.Internal.Correction>
   9.000000E+99

> <Gold.Chemscore.Hbonds>
donor molecule, donor type, donor heavy atom, donor atom, acceptor molecule, acceptor atom, score
      L1  H    10    38       P1  8029  0.47
      P1  H  7997  8010       L1     1  0.26

> <Gold.Chemscore.Hbond.Weighted>
-2.2849

> <Gold.Chemscore.Metal.Weighted>
-0.0000

> <Gold.Chemscore.Lipo.Weighted>
-13.9865

> <Gold.Chemscore.Internal_Hbond.Weighted>
0.0000

> <Gold.Chemscore.DEClash.Weighted>
0.4187

> <Gold.Chemscore.DEInternal.Weighted>
1.5026

> <Gold.Chemscore.Rot.Weighted>
6.2072

> <Gold.Chemscore.Internal.Correction.Weighted>
   9.000000E+99

> <Gold.Protein.RotatedTorsions>
[ 6907 6896 6895 6894 ] final  -60.57 input  -60.11 | X-H torsion
[ 7974 7965 7964 7962 ] final -120.26 input  175.53 | X-H torsion
[ 8008 7997 7996 7995 ] final   54.12 input   59.86 | X-H torsion
[ 10167 10162 10161 10158 ] final  152.79 input  -65.29 | X-H torsion
[ 10718 10713 10712 10709 ] final -144.91 input   66.30 | X-H torsion
[ 10763 10752 10751 10750 ] final -104.47 input  -60.55 | X-H torsion
[ 11005 11000 10999 10996 ] final -160.64 input  -57.11 | X-H torsion

> <Gold.Protein.ActiveResidues>
 VAL166  LYS551  ARG553  GLY616  TRP617  ASP618  TYR619  PRO620  LYS621  CYS622 
 ASP623  PHE694  ASN695  SER759  ASP760  ASP761  ALA762  ILE779  LEU786  VAL792 
 PHE793  MET794  SER795  GLU796  ALA797  LYS798  CYS799  TRP800  GLU811  SER814 

> <Gold.Protein.RotatedAtoms>
  150.7847  134.6820  159.6448 H   0  0  0  0  0  0  0  0  0  0  0  0  # atno 6907 bound_to 6896
  152.3940  134.6392  160.0105 H   0  0  0  0  0  0  0  0  0  0  0  0  # atno 6908 bound_to 6896
  151.6684  133.3278  159.3227 H   0  0  0  0  0  0  0  0  0  0  0  0  # atno 6909 bound_to 6896
  145.0533  140.8235  143.4196 H   0  0  0  0  0  0  0  0  0  0  0  0  # atno 7974 bound_to 7965
  155.4795  140.3468  155.4337 H   0  0  0  0  0  0  0  0  0  0  0  0  # atno 8008 bound_to 7997
  156.1048  140.1445  156.9447 H   0  0  0  0  0  0  0  0  0  0  0  0  # atno 8009 bound_to 7997
  154.4717  140.0898  156.7139 H   0  0  0  0  0  0  0  0  0  0  0  0  # atno 8010 bound_to 7997
  139.4831  144.5328  151.7694 H   0  0  0  0  0  0  0  0  0  0  0  0  # atno 10167 bound_to 10162
  156.3760  130.7812  151.1999 H   0  0  0  0  0  0  0  0  0  0  0  0  # atno 10718 bound_to 10713
  154.7880  135.4785  153.9989 H   0  0  0  0  0  0  0  0  0  0  0  0  # atno 10763 bound_to 10752
  153.1589  135.6805  153.8779 H   0  0  0  0  0  0  0  0  0  0  0  0  # atno 10764 bound_to 10752
  153.8399  135.3180  155.3403 H   0  0  0  0  0  0  0  0  0  0  0  0  # atno 10765 bound_to 10752
  140.6292  134.4669  157.5228 H   0  0  0  0  0  0  0  0  0  0  0  0  # atno 11005 bound_to 11000
  145.1499  139.2520  143.5446 LP  0  0  0  0  0  0  0  0  0  0  0  0  # atno 17320 bound_to 7965
  146.3519  140.1199  142.8600 LP  0  0  0  0  0  0  0  0  0  0  0  0  # atno 17321 bound_to 7965
  140.4857  144.1385  150.5940 LP  0  0  0  0  0  0  0  0  0  0  0  0  # atno 17342 bound_to 10162
  140.4228  143.2604  151.9694 LP  0  0  0  0  0  0  0  0  0  0  0  0  # atno 17343 bound_to 10162
  157.7488  131.0358  150.4381 LP  0  0  0  0  0  0  0  0  0  0  0  0  # atno 17370 bound_to 10713
  156.4616  130.4033  149.6572 LP  0  0  0  0  0  0  0  0  0  0  0  0  # atno 17371 bound_to 10713
  139.9122  134.8320  156.1487 LP  0  0  0  0  0  0  0  0  0  0  0  0  # atno 17394 bound_to 11000
  141.0687  133.6807  156.2097 LP  0  0  0  0  0  0  0  0  0  0  0  0  # atno 17395 bound_to 11000

$$$$
