#       Name:                AV-unprocessed.smi:1867
#       Creating user name   scv26
#       Creation time:       Fri Mar 27 09:28:44 2020


#       File generated by GOLD software.
#

@<TRIPOS>MOLECULE
AV-unprocessed.smi:1867
    56    59     1
SMALL
NO_CHARGES


@<TRIPOS>ATOM
      1 ****        -0.9907   2.6059  -1.1919 O.2            1 S1                 0.0000
      2 ****        -1.3249   1.4339  -1.0365 C.2            1 S1                 0.0000
      3 ****        -0.4673   0.3973  -0.9614 N.am           1 S1                 0.0000
      4 ****         0.9521   0.4206  -1.0081 C.ar           1 S1                 0.0000
      5 ****         1.7381   1.5478  -0.6605 C.ar           1 S1                 0.0000
      6 ****         3.1439   1.4603  -0.7259 C.ar           1 S1                 0.0000
      7 ****         3.7484   0.2478  -1.1317 C.ar           1 S1                 0.0000
      8 ****         5.1344   0.0562  -1.2218 N.3            1 S1                 0.0000
      9 ****         5.8592   1.0211  -2.0347 C.3            1 S1                 0.0000
     10 ****         7.3267   0.9153  -1.6043 C.3            1 S1                 0.0000
     11 ****         7.2978   0.1720  -0.2638 C.3            1 S1                 0.0000
     12 ****         5.8119   0.0177   0.0618 C.3            1 S1                 0.0000
     13 ****         2.9620  -0.8081  -1.4342 N.pl3          1 S1                 1.0000
     14 ****         1.6132  -0.7670  -1.3848 C.ar           1 S1                 0.0000
     15 ****        -2.6224   1.0911  -0.9361 N.am           1 S1                 0.0000
     16 ****        -3.8078   1.9537  -0.9760 C.3            1 S1                 0.0000
     17 ****        -4.9980   1.3561  -0.2002 C.3            1 S1                 0.0000
     18 ****        -6.2208   1.6388  -1.0788 C.3            1 S1                 0.0000
     19 ****        -5.6722   1.5638  -2.4374 N.4            1 S1                 1.0000
     20 ****        -6.5103   2.0259  -3.5627 C.3            1 S1                 0.0000
     21 ****        -5.7908   1.6765  -4.8829 C.3            1 S1                 0.0000
     22 ****        -4.3370   2.2001  -4.9126 C.3            1 S1                 0.0000
     23 ****        -3.5529   1.7883  -3.6479 C.3            1 S1                 0.0000
     24 ****        -4.3512   2.2154  -2.4025 C.3            1 S1                 0.0000
     25 ****        -0.8847  -0.5210  -0.9260 H              1 S1                 0.0000
     26 ****         1.2933   2.4738  -0.3301 H              1 S1                 0.0000
     27 ****         3.7441   2.3169  -0.4561 H              1 S1                 0.0000
     28 ****         5.7397   0.7990  -3.0955 H              1 S1                 0.0000
     29 ****         5.4942   2.0341  -1.8644 H              1 S1                 0.0000
     30 ****         7.9060   0.3502  -2.3356 H              1 S1                 0.0000
     31 ****         7.7806   1.9026  -1.5135 H              1 S1                 0.0000
     32 ****         7.7589  -0.8099  -0.3777 H              1 S1                 0.0000
     33 ****         7.8355   0.7024   0.5228 H              1 S1                 0.0000
     34 ****         5.4752   0.8418   0.6925 H              1 S1                 0.0000
     35 ****         5.6105  -0.9162   0.5878 H              1 S1                 0.0000
     36 ****         1.1071  -1.6829  -1.6544 H              1 S1                 0.0000
     37 ****        -2.8071   0.1068  -0.8051 H              1 S1                 0.0000
     38 ****        -3.5736   2.9146  -0.5144 H              1 S1                 0.0000
     39 ****        -4.8775   0.2767  -0.0920 H              1 S1                 0.0000
     40 ****        -5.1002   1.7751   0.8013 H              1 S1                 0.0000
     41 ****        -7.0272   0.9213  -0.9231 H              1 S1                 0.0000
     42 ****        -6.6069   2.6420  -0.8906 H              1 S1                 0.0000
     43 ****        -7.4834   1.5352  -3.5236 H              1 S1                 0.0000
     44 ****        -6.6854   3.1000  -3.4857 H              1 S1                 0.0000
     45 ****        -5.7791   0.5927  -5.0073 H              1 S1                 0.0000
     46 ****        -6.3494   2.0751  -5.7303 H              1 S1                 0.0000
     47 ****        -3.8257   1.8370  -5.8047 H              1 S1                 0.0000
     48 ****        -4.3506   3.2882  -4.9887 H              1 S1                 0.0000
     49 ****        -3.3887   0.7096  -3.6445 H              1 S1                 0.0000
     50 ****        -2.5706   2.2609  -3.6574 H              1 S1                 0.0000
     51 ****        -4.5181   3.2926  -2.4700 H              1 S1                 0.0000
     52 ****        -5.4938   0.5828  -2.5993 H              1 S1                 0.0000
     53 ****         3.4104  -1.6803  -1.7160 H              1 S1                 0.0000
     54 ****        -0.0226   2.8434  -1.2721 LP             1 S1                 0.0000
     55 ****        -1.6867   3.3224  -1.2382 LP             1 S1                 0.0000
     56 ****         5.1619  -0.8365  -1.6716 LP             1 S1                 0.0000
@<TRIPOS>BOND
    1    1    2 2     
    2    2    3 am    
    3    2   15 am    
    4    3    4 1     
    5    3   25 1     
    6    4   14 ar    
    7    4    5 ar    
    8    5    6 ar    
    9    5   26 1     
   10    6    7 ar    
   11    6   27 1     
   12    7    8 1     
   13    7   13 ar    
   14    8   12 1     
   15    8    9 1     
   16    9   10 1     
   17    9   28 1     
   18    9   29 1     
   19   10   11 1     
   20   10   30 1     
   21   10   31 1     
   22   11   12 1     
   23   11   32 1     
   24   11   33 1     
   25   12   34 1     
   26   12   35 1     
   27   13   14 ar    
   28   13   53 1     
   29   14   36 1     
   30   15   16 1     
   31   15   37 1     
   32   16   24 1     
   33   16   17 1     
   34   16   38 1     
   35   17   18 1     
   36   17   39 1     
   37   17   40 1     
   38   18   19 1     
   39   18   41 1     
   40   18   42 1     
   41   19   24 1     
   42   19   20 1     
   43   19   52 1     
   44   20   21 1     
   45   20   43 1     
   46   20   44 1     
   47   21   22 1     
   48   21   45 1     
   49   21   46 1     
   50   22   23 1     
   51   22   47 1     
   52   22   48 1     
   53   23   24 1     
   54   23   49 1     
   55   23   50 1     
   56   24   51 1     
   57    1   54 1     
   58    1   55 1     
   59    8   56 1     
@<TRIPOS>SUBSTRUCTURE
      1 S1             1
@<TRIPOS>SET
LONE_PAIRS      STATIC     ATOMS    <user>   **** ""
3 54 55 56
DONOR_HYDROGENS      STATIC     ATOMS    <user>   **** ""
4 25 53 37 52
ATOM$BLUE        STATIC     ATOMS    COLORGROUP SYSTEM
3 54 55 56
ATOM$RED        STATIC     ATOMS    COLORGROUP SYSTEM
4 25 53 37 52
