AV-unprocessed.smi:2320|AV-procd|sdf|9279|dock8
  -GOLD-   2272012503D 1   1.00000     0.00000
 Structure written by MMmdl.
 41 42  0  0  0  0  0  0  0  0  1 V2000
  152.3856  143.6864  161.5482 C   0  0  0  0  0  0  0  0  0  0  0  0
  152.3776  142.6886  160.4085 C   0  0  0  0  0  0  0  0  0  0  0  0
  153.0166  141.4405  160.5474 C   0  0  0  0  0  0  0  0  0  0  0  0
  153.0066  140.5200  159.4820 C   0  0  0  0  0  0  0  0  0  0  0  0
  152.3622  140.8280  158.2662 C   0  0  0  0  0  0  0  0  0  0  0  0
  152.4027  139.8692  157.2770 O   0  0  0  0  0  0  0  0  0  0  0  0
  151.8570  140.1897  156.0026 C   0  0  0  0  0  0  0  0  0  0  0  0
  151.1786  138.9509  155.3930 C   0  0  2  0  0  0  0  0  0  0  0  0
  150.7077  139.3033  154.1075 O   0  0  0  0  0  0  0  0  0  0  0  0
  150.0237  138.4054  156.2628 C   0  0  0  0  0  0  0  0  0  0  0  0
  149.4756  137.1442  155.7364 N   0  0  0  0  0  0  0  0  0  0  0  0
  148.2272  137.2266  155.0984 C   0  0  0  0  0  0  0  0  0  0  0  0
  147.6498  136.1834  154.5987 N   0  0  0  0  0  0  0  0  0  0  0  0
  148.2701  134.9337  154.6865 C   0  0  0  0  0  0  0  0  0  0  0  0
  147.5051  133.7768  154.0687 C   0  0  0  0  0  0  0  0  0  0  0  0
  149.4816  134.7866  155.2892 C   0  0  0  0  0  0  0  0  0  0  0  0
  150.2054  133.4517  155.4130 C   0  0  0  0  0  0  0  0  0  0  0  0
  150.1539  135.9664  155.8573 C   0  0  0  0  0  0  0  0  0  0  0  0
  151.2564  135.9085  156.4050 O   0  0  0  0  0  0  0  0  0  0  0  0
  151.7213  142.0857  158.1330 C   0  0  0  0  0  0  0  0  0  0  0  0
  151.7313  143.0075  159.1981 C   0  0  0  0  0  0  0  0  0  0  0  0
  152.7019  143.2193  162.4813 H   0  0  0  0  0  0  0  0  0  0  0  0
  151.3887  144.1016  161.6987 H   0  0  0  0  0  0  0  0  0  0  0  0
  153.0696  144.5056  161.3260 H   0  0  0  0  0  0  0  0  0  0  0  0
  153.5169  141.1840  161.4697 H   0  0  0  0  0  0  0  0  0  0  0  0
  153.4997  139.5661  159.5992 H   0  0  0  0  0  0  0  0  0  0  0  0
  151.1485  141.0172  156.0737 H   0  0  0  0  0  0  0  0  0  0  0  0
  152.6654  140.5026  155.3397 H   0  0  0  0  0  0  0  0  0  0  0  0
  151.9459  138.1875  155.2584 H   0  0  0  0  0  0  0  0  0  0  0  0
  150.6516  138.5202  153.5818 H   0  0  0  0  0  0  0  0  0  0  0  0
  150.3913  138.2228  157.2743 H   0  0  0  0  0  0  0  0  0  0  0  0
  149.2517  139.1670  156.3931 H   0  0  0  0  0  0  0  0  0  0  0  0
  147.7873  138.2244  155.0525 H   0  0  0  0  0  0  0  0  0  0  0  0
  147.2659  133.0295  154.8257 H   0  0  0  0  0  0  0  0  0  0  0  0
  148.0958  133.3032  153.2843 H   0  0  0  0  0  0  0  0  0  0  0  0
  146.5680  134.1131  153.6234 H   0  0  0  0  0  0  0  0  0  0  0  0
  151.1554  133.4890  154.8793 H   0  0  0  0  0  0  0  0  0  0  0  0
  149.6355  132.6153  155.0122 H   0  0  0  0  0  0  0  0  0  0  0  0
  150.4139  133.2316  156.4605 H   0  0  0  0  0  0  0  0  0  0  0  0
  151.2150  142.3689  157.2230 H   0  0  0  0  0  0  0  0  0  0  0  0
  151.2402  143.9626  159.0826 H   0  0  0  0  0  0  0  0  0  0  0  0
  1  2  1  0  0  0  0
  1 22  1  0  0  0  0
  1 23  1  0  0  0  0
  1 24  1  0  0  0  0
  2 21  1  0  0  0  0
  2  3  2  0  0  0  0
  3  4  1  0  0  0  0
  3 25  1  0  0  0  0
  4  5  2  0  0  0  0
  4 26  1  0  0  0  0
  5  6  1  0  0  0  0
  5 20  1  0  0  0  0
  6  7  1  0  0  0  0
  7  8  1  0  0  0  0
  7 27  1  0  0  0  0
  7 28  1  0  0  0  0
  8  9  1  0  0  0  0
  8 10  1  0  0  0  0
  8 29  1  0  0  0  0
  9 30  1  0  0  0  0
 10 11  1  0  0  0  0
 10 31  1  0  0  0  0
 10 32  1  0  0  0  0
 11 18  1  0  0  0  0
 11 12  1  0  0  0  0
 12 13  2  0  0  0  0
 12 33  1  0  0  0  0
 13 14  1  0  0  0  0
 14 15  1  0  0  0  0
 14 16  2  0  0  0  0
 15 34  1  0  0  0  0
 15 35  1  0  0  0  0
 15 36  1  0  0  0  0
 16 17  1  0  0  0  0
 16 18  1  0  0  0  0
 17 37  1  0  0  0  0
 17 38  1  0  0  0  0
 17 39  1  0  0  0  0
 18 19  2  0  0  0  0
 20 21  2  0  0  0  0
 20 40  1  0  0  0  0
 21 41  1  0  0  0  0
M  END
> <s_m_source_file>
AV-unprocessed.smi

> <i_m_source_file_index>
2320

> <i_lp_mmshare_version>
43012

> <i_f3d_flags>
0

> <s_epik_input>
W0NIM11jMVtjSF1bY0hdYyhbY0hdW2NIXTEpT1tDSDJdW0NASF0oW09IXSlbQ0gyXW4yW2NIXW5jKFtDSDNdKWMoW0NIM10pYzI9Tw==

> <s_epik_cmdline>
J2VwaWtfcHl0aG9uJywgJy1waCcsICc3LjAnLCAnLXRuJywgJzgnLCAnLW1hJywgJzIwMCcsICctbWV0YWxfYmluZGluZycsICctaW1hZScsICc8aW5maWxlLm1hZT4nLCAnLW9tYWUnLCAnPG91dGZpbGUubWFlPic=

> <r_lp_tautomer_probability>
1

> <r_epik_Ionization_Penalty>
3.74127e-05

> <r_epik_Ionization_Penalty_Charging>
8.43242e-08

> <r_epik_Ionization_Penalty_Neutral>
3.73284e-05

> <r_epik_State_Penalty>
-0

> <r_epik_Charging_Adjusted_Penalty>
8.43242e-08

> <i_epik_Tot_Q>
0

> <i_epik_Tot_abs_Q>
0

> <r_epik_Metal_State_Penalty>
-0

> <b_epik_Metal_Only>
0

> <s_lp_Force_Field>
OPLS_2005

> <r_lp_Energy>
24.611

> <b_lp_Chiralities_Consistent>
1

> <s_lp_Variant>
AV-unprocessed.smi:2320-1

> <Gold.Version>
5.8.1

> <Gold.Id.Protein>
6NUR|6NUR_protein|mol2

> <Gold.PLP.Fitness>
44.3370

> <Gold.PLP.PLP>
-36.1944

> <Gold.PLP.part.hbond>
-3.3033

> <Gold.PLP.part.metal>
0.0000

> <Gold.PLP.part.buried>
-4.0626

> <Gold.PLP.part.nonpolar>
-27.0094

> <Gold.PLP.part.repulsive>
0.6727

> <Gold.PLP.ligand.clash>
0.0000

> <Gold.PLP.ligand.torsion>
0.4617

> <Gold.PLP.Chemscore.Hbond>
3.0000

> <Gold.PLP.Chemscore.CHOScore>
0.0000

> <Gold.PLP.Chemscore.Metal>
0.0000

> <Gold.Chemscore.Hbonds>
donor molecule, donor type, donor heavy atom, donor atom, acceptor molecule, acceptor atom, score
      P1  H  7989  7998       L1     9  1.00
      P1  H  7997  8010       L1     6  0.65
      P1  H 10752 10765       L1    19  0.18

> <Gold.PLP.Chemscore.Internal.Correction>
0.0659

> <Gold.Rescore>
     Score         DG    S(hbond)    S(metal)    S(lipo)     H(rot)  DE(clash)    DE(int)     intcor
     17.49     -18.00       1.88        0.00     104.75       2.35       0.20       0.32       ----

> <Gold.Chemscore.Fitness>
17.4903

> <Gold.Chemscore.DG>
-18.0044

> <Gold.Chemscore.ZeroCoef>
-5.4800

> <Gold.Chemscore.Hbond>
1.8809

> <Gold.Chemscore.Metal>
0.0000

> <Gold.Chemscore.Lipo>
104.7486

> <Gold.Chemscore.Internal_Hbond>
0.0000

> <Gold.Chemscore.DEClash>
0.1970

> <Gold.Chemscore.DEInternal>
0.3171

> <Gold.Chemscore.Rot>
2.3490

> <Gold.Chemscore.Internal.Correction>
   9.000000E+99

> <Gold.Chemscore.Hbonds>
donor molecule, donor type, donor heavy atom, donor atom, acceptor molecule, acceptor atom, score
      P1  H  7989  7998       L1     9  0.73
      P1  H  7997  8010       L1     6  0.02
      P1  H 10752 10765       L1    19  0.18

> <Gold.Chemscore.Hbond.Weighted>
-6.2824

> <Gold.Chemscore.Metal.Weighted>
-0.0000

> <Gold.Chemscore.Lipo.Weighted>
-12.2556

> <Gold.Chemscore.Internal_Hbond.Weighted>
0.0000

> <Gold.Chemscore.DEClash.Weighted>
0.1970

> <Gold.Chemscore.DEInternal.Weighted>
0.3171

> <Gold.Chemscore.Rot.Weighted>
6.0136

> <Gold.Chemscore.Internal.Correction.Weighted>
   9.000000E+99

> <Gold.Protein.RotatedTorsions>
[ 6907 6896 6895 6894 ] final  153.90 input  -60.11 | X-H torsion
[ 7974 7965 7964 7962 ] final   74.97 input  175.53 | X-H torsion
[ 8008 7997 7996 7995 ] final   55.70 input   59.86 | X-H torsion
[ 10167 10162 10161 10158 ] final  119.07 input  -65.29 | X-H torsion
[ 10718 10713 10712 10709 ] final -123.70 input   66.30 | X-H torsion
[ 10763 10752 10751 10750 ] final -152.47 input  -60.55 | X-H torsion
[ 11005 11000 10999 10996 ] final  141.53 input  -57.11 | X-H torsion

> <Gold.Protein.ActiveResidues>
 VAL166  LYS551  ARG553  GLY616  TRP617  ASP618  TYR619  PRO620  LYS621  CYS622 
 ASP623  PHE694  ASN695  SER759  ASP760  ASP761  ALA762  ILE779  LEU786  VAL792 
 PHE793  MET794  SER795  GLU796  ALA797  LYS798  CYS799  TRP800  GLU811  SER814 

> <Gold.Protein.RotatedAtoms>
  152.0661  133.4085  159.4438 H   0  0  0  0  0  0  0  0  0  0  0  0  # atno 6907 bound_to 6896
  150.6864  134.3144  159.4769 H   0  0  0  0  0  0  0  0  0  0  0  0  # atno 6908 bound_to 6896
  152.0971  134.9367  160.0621 H   0  0  0  0  0  0  0  0  0  0  0  0  # atno 6909 bound_to 6896
  145.7215  139.2650  143.1593 H   0  0  0  0  0  0  0  0  0  0  0  0  # atno 7974 bound_to 7965
  155.5055  140.3475  155.4379 H   0  0  0  0  0  0  0  0  0  0  0  0  # atno 8008 bound_to 7997
  156.0885  140.1404  156.9650 H   0  0  0  0  0  0  0  0  0  0  0  0  # atno 8009 bound_to 7997
  154.4621  140.0931  156.6897 H   0  0  0  0  0  0  0  0  0  0  0  0  # atno 8010 bound_to 7997
  139.6070  144.7072  151.2931 H   0  0  0  0  0  0  0  0  0  0  0  0  # atno 10167 bound_to 10162
  156.1524  130.6544  150.9933 H   0  0  0  0  0  0  0  0  0  0  0  0  # atno 10718 bound_to 10713
  154.7992  135.3235  154.7592 H   0  0  0  0  0  0  0  0  0  0  0  0  # atno 10763 bound_to 10752
  153.8264  135.6883  153.4824 H   0  0  0  0  0  0  0  0  0  0  0  0  # atno 10764 bound_to 10752
  153.1699  135.4627  154.9831 H   0  0  0  0  0  0  0  0  0  0  0  0  # atno 10765 bound_to 10752
  140.0408  134.9306  157.0840 H   0  0  0  0  0  0  0  0  0  0  0  0  # atno 11005 bound_to 11000
  146.0621  140.7959  142.9729 LP  0  0  0  0  0  0  0  0  0  0  0  0  # atno 17320 bound_to 7965
  144.6915  140.3213  143.7232 LP  0  0  0  0  0  0  0  0  0  0  0  0  # atno 17321 bound_to 7965
  140.7292  143.6915  150.7918 LP  0  0  0  0  0  0  0  0  0  0  0  0  # atno 17342 bound_to 10162
  140.0503  143.5257  152.2677 LP  0  0  0  0  0  0  0  0  0  0  0  0  # atno 17343 bound_to 10162
  157.6668  131.0870  150.7709 LP  0  0  0  0  0  0  0  0  0  0  0  0  # atno 17370 bound_to 10713
  156.7776  130.4849  149.5407 LP  0  0  0  0  0  0  0  0  0  0  0  0  # atno 17371 bound_to 10713
  140.4072  134.2020  155.7163 LP  0  0  0  0  0  0  0  0  0  0  0  0  # atno 17394 bound_to 11000
  141.1882  133.8265  157.1004 LP  0  0  0  0  0  0  0  0  0  0  0  0  # atno 17395 bound_to 11000

$$$$
