AV-unprocessed.smi:171|AV-procd|sdf|1420|dock4
  -GOLD-   2262019183D 1   1.00000     0.00000
 Structure written by MMmdl.
 56 59  0  0  0  0  0  0  0  0  1 V2000
  151.4815  143.3371  158.4991 C   0  0  0  0  0  0  0  0  0  0  0  0
  150.7997  141.9914  158.2066 C   0  0  0  0  0  0  0  0  0  0  0  0
  151.5603  140.8485  158.8980 C   0  0  0  0  0  0  0  0  0  0  0  0
  150.6420  141.7815  156.6835 C   0  0  0  0  0  0  0  0  0  0  0  0
  149.8629  140.5000  156.2736 C   0  0  2  0  0  0  0  0  0  0  0  0
  150.0901  140.1604  154.7789 C   0  0  0  0  0  0  0  0  0  0  0  0
  151.1719  139.7073  154.4121 O   0  0  0  0  0  0  0  0  0  0  0  0
  149.0911  140.3625  153.9007 N   0  0  0  0  0  0  0  0  0  0  0  0
  147.7570  140.8702  154.2198 C   0  0  0  0  0  0  0  0  0  0  0  0
  147.6765  141.4948  155.6234 C   0  0  0  0  0  0  0  0  0  0  0  0
  148.4347  140.6892  156.5770 N   0  0  0  0  0  0  0  0  0  0  0  0
  147.7360  139.6619  157.1265 C   0  0  0  0  0  0  0  0  0  0  0  0
  146.3807  139.6214  157.0230 N   0  0  0  0  0  0  0  0  0  0  0  0
  145.6917  138.6192  157.5764 C   0  0  0  0  0  0  0  0  0  0  0  0
  146.1495  137.5737  158.2673 N   0  0  0  0  0  0  0  0  0  0  0  0
  147.5086  137.6096  158.3765 C   0  0  0  0  0  0  0  0  0  0  0  0
  148.3702  138.6075  157.8404 C   0  0  0  0  0  0  0  0  0  0  0  0
  149.6924  138.3042  158.1420 N   0  0  0  0  0  0  0  0  0  0  0  0
  149.6163  137.1925  158.8211 C   0  0  0  0  0  0  0  0  0  0  0  0
  148.3419  136.7088  159.0165 N   0  0  0  0  0  0  0  0  0  0  0  0
  147.9675  135.4992  159.7335 C   0  0  0  0  0  0  0  0  0  0  0  0
  147.2304  135.7762  161.0703 C   0  0  2  0  0  0  0  0  0  0  0  0
  146.0234  136.4586  160.7747 O   0  0  0  0  0  0  0  0  0  0  0  0
  148.0304  136.6450  162.0376 C   0  0  0  0  0  0  0  0  0  0  0  0
  147.5412  136.1828  163.4015 C   0  0  0  0  0  0  0  0  0  0  0  0
  147.4193  134.7835  163.2214 O   0  0  0  0  0  0  0  0  0  0  0  0
  146.8700  134.5318  161.9307 C   0  0  2  0  0  0  0  0  0  0  0  0
  147.4079  133.1750  161.4490 C   0  0  0  0  0  0  0  0  0  0  0  0
  152.4919  143.3666  158.0900 H   0  0  0  0  0  0  0  0  0  0  0  0
  151.5513  143.5182  159.5719 H   0  0  0  0  0  0  0  0  0  0  0  0
  150.9220  144.1664  158.0651 H   0  0  0  0  0  0  0  0  0  0  0  0
  149.8016  142.0389  158.6443 H   0  0  0  0  0  0  0  0  0  0  0  0
  152.5423  140.6956  158.4492 H   0  0  0  0  0  0  0  0  0  0  0  0
  151.0117  139.9094  158.8372 H   0  0  0  0  0  0  0  0  0  0  0  0
  151.7087  141.0604  159.9572 H   0  0  0  0  0  0  0  0  0  0  0  0
  150.1188  142.6564  156.2935 H   0  0  0  0  0  0  0  0  0  0  0  0
  151.6228  141.8136  156.2054 H   0  0  0  0  0  0  0  0  0  0  0  0
  150.2507  139.6681  156.8635 H   0  0  0  0  0  0  0  0  0  0  0  0
  149.2676  140.1319  152.9336 H   0  0  0  0  0  0  0  0  0  0  0  0
  147.4480  141.5909  153.4626 H   0  0  0  0  0  0  0  0  0  0  0  0
  147.0650  140.0298  154.1548 H   0  0  0  0  0  0  0  0  0  0  0  0
  148.1068  142.4963  155.6023 H   0  0  0  0  0  0  0  0  0  0  0  0
  146.6349  141.6239  155.9190 H   0  0  0  0  0  0  0  0  0  0  0  0
  144.6200  138.6622  157.4484 H   0  0  0  0  0  0  0  0  0  0  0  0
  150.4946  136.6925  159.2028 H   0  0  0  0  0  0  0  0  0  0  0  0
  147.3461  134.8917  159.0744 H   0  0  0  0  0  0  0  0  0  0  0  0
  148.8795  134.9287  159.9112 H   0  0  0  0  0  0  0  0  0  0  0  0
  145.3389  135.8183  160.6540 H   0  0  0  0  0  0  0  0  0  0  0  0
  149.0938  136.4176  161.9540 H   0  0  0  0  0  0  0  0  0  0  0  0
  147.9064  137.7168  161.8759 H   0  0  0  0  0  0  0  0  0  0  0  0
  148.2359  136.4266  164.2056 H   0  0  0  0  0  0  0  0  0  0  0  0
  146.5672  136.6129  163.6396 H   0  0  0  0  0  0  0  0  0  0  0  0
  145.7875  134.4497  162.0451 H   0  0  0  0  0  0  0  0  0  0  0  0
  147.0119  132.9149  160.4673 H   0  0  0  0  0  0  0  0  0  0  0  0
  147.1172  132.3809  162.1370 H   0  0  0  0  0  0  0  0  0  0  0  0
  148.4965  133.1726  161.3912 H   0  0  0  0  0  0  0  0  0  0  0  0
  1  2  1  0  0  0  0
  1 29  1  0  0  0  0
  1 30  1  0  0  0  0
  1 31  1  0  0  0  0
  2  3  1  0  0  0  0
  2  4  1  0  0  0  0
  2 32  1  0  0  0  0
  3 33  1  0  0  0  0
  3 34  1  0  0  0  0
  3 35  1  0  0  0  0
  4  5  1  0  0  0  0
  4 36  1  0  0  0  0
  4 37  1  0  0  0  0
  5 11  1  0  0  0  0
  5  6  1  0  0  0  0
  5 38  1  0  0  0  0
  6  7  2  0  0  0  0
  6  8  1  0  0  0  0
  8  9  1  0  0  0  0
  8 39  1  0  0  0  0
  9 10  1  0  0  0  0
  9 40  1  0  0  0  0
  9 41  1  0  0  0  0
 10 11  1  0  0  0  0
 10 42  1  0  0  0  0
 10 43  1  0  0  0  0
 11 12  1  0  0  0  0
 12 17  1  0  0  0  0
 12 13  2  0  0  0  0
 13 14  1  0  0  0  0
 14 15  2  0  0  0  0
 14 44  1  0  0  0  0
 15 16  1  0  0  0  0
 16 20  1  0  0  0  0
 16 17  2  0  0  0  0
 17 18  1  0  0  0  0
 18 19  2  0  0  0  0
 19 20  1  0  0  0  0
 19 45  1  0  0  0  0
 20 21  1  0  0  0  0
 21 22  1  0  0  0  0
 21 46  1  0  0  0  0
 21 47  1  0  0  0  0
 22 27  1  0  0  0  0
 22 23  1  0  0  0  0
 22 24  1  0  0  0  0
 23 48  1  0  0  0  0
 24 25  1  0  0  0  0
 24 49  1  0  0  0  0
 24 50  1  0  0  0  0
 25 26  1  0  0  0  0
 25 51  1  0  0  0  0
 25 52  1  0  0  0  0
 26 27  1  0  0  0  0
 27 28  1  0  0  0  0
 27 53  1  0  0  0  0
 28 54  1  0  0  0  0
 28 55  1  0  0  0  0
 28 56  1  0  0  0  0
M  END
> <s_m_source_file>
AV-unprocessed.smi

> <i_m_source_file_index>
171

> <i_lp_mmshare_version>
43012

> <i_f3d_flags>
0

> <s_epik_input>
W0NIM11bQ0hdKFtDSDNdKVtDSDJdW0NAQEhdMUMoPU8pW05IXVtDSDJdW0NIMl1OMWMobltjSF1uMiljKGMyMyluW2NIXW4zW0NIMl1bQ0BAXTQoW09IXSlbQ0gyXVtDSDJdT1tDQEhdNFtDSDNd

> <s_epik_cmdline>
J2VwaWtfcHl0aG9uJywgJy1waCcsICc3LjAnLCAnLXRuJywgJzgnLCAnLW1hJywgJzIwMCcsICctbWV0YWxfYmluZGluZycsICctaW1hZScsICc8aW5maWxlLm1hZT4nLCAnLW9tYWUnLCAnPG91dGZpbGUubWFlPic=

> <r_lp_tautomer_probability>
1

> <r_epik_Ionization_Penalty>
0.000670584

> <r_epik_Ionization_Penalty_Charging>
0

> <r_epik_Ionization_Penalty_Neutral>
0.000670584

> <r_epik_State_Penalty>
0.000304767

> <r_epik_Charging_Adjusted_Penalty>
0.000304767

> <i_epik_Tot_Q>
0

> <i_epik_Tot_abs_Q>
0

> <r_epik_Metal_State_Penalty>
-0

> <b_epik_Metal_Only>
0

> <s_lp_Force_Field>
OPLS_2005

> <r_lp_Energy>
45.5381

> <b_lp_Chiralities_Consistent>
1

> <s_lp_Variant>
AV-unprocessed.smi:171-7

> <Gold.Version>
5.8.1

> <Gold.Id.Protein>
6NUR|6NUR_protein|mol2

> <Gold.PLP.Fitness>
44.8159

> <Gold.PLP.PLP>
-39.6392

> <Gold.PLP.part.hbond>
-2.4300

> <Gold.PLP.part.metal>
0.0000

> <Gold.PLP.part.buried>
-4.1813

> <Gold.PLP.part.nonpolar>
-33.0888

> <Gold.PLP.part.repulsive>
0.3288

> <Gold.PLP.ligand.clash>
0.0000

> <Gold.PLP.ligand.torsion>
0.6870

> <Gold.PLP.Chemscore.Hbond>
2.0000

> <Gold.PLP.Chemscore.CHOScore>
0.0000

> <Gold.PLP.Chemscore.Metal>
0.0000

> <Gold.Chemscore.Hbonds>
donor molecule, donor type, donor heavy atom, donor atom, acceptor molecule, acceptor atom, score
      L1  H     8    39       P1  7957  1.00
      P1  H  7989  7998       L1     7  1.00

> <Gold.PLP.Chemscore.Internal.Correction>
0.5505

> <Gold.Rescore>
     Score         DG    S(hbond)    S(metal)    S(lipo)     H(rot)  DE(clash)    DE(int)     intcor
     12.72     -14.86       1.75        0.00      87.31       2.61       0.13       2.02       ----

> <Gold.Chemscore.Fitness>
12.7205

> <Gold.Chemscore.DG>
-14.8636

> <Gold.Chemscore.ZeroCoef>
-5.4800

> <Gold.Chemscore.Hbond>
1.7494

> <Gold.Chemscore.Metal>
0.0000

> <Gold.Chemscore.Lipo>
87.3124

> <Gold.Chemscore.Internal_Hbond>
0.0000

> <Gold.Chemscore.DEClash>
0.1276

> <Gold.Chemscore.DEInternal>
2.0154

> <Gold.Chemscore.Rot>
2.6074

> <Gold.Chemscore.Internal.Correction>
   9.000000E+99

> <Gold.Chemscore.Hbonds>
donor molecule, donor type, donor heavy atom, donor atom, acceptor molecule, acceptor atom, score
      L1  H     8    39       P1  7957  1.00
      P1  H  7989  7998       L1     7  0.24

> <Gold.Chemscore.Hbond.Weighted>
-5.8428

> <Gold.Chemscore.Metal.Weighted>
-0.0000

> <Gold.Chemscore.Lipo.Weighted>
-10.2156

> <Gold.Chemscore.Internal_Hbond.Weighted>
0.0000

> <Gold.Chemscore.DEClash.Weighted>
0.1276

> <Gold.Chemscore.DEInternal.Weighted>
2.0154

> <Gold.Chemscore.Rot.Weighted>
6.6748

> <Gold.Chemscore.Internal.Correction.Weighted>
   9.000000E+99

> <Gold.Protein.RotatedTorsions>
[ 6907 6896 6895 6894 ] final -143.22 input  -60.11 | X-H torsion
[ 7974 7965 7964 7962 ] final  -10.95 input  175.53 | X-H torsion
[ 8008 7997 7996 7995 ] final    9.45 input   59.86 | X-H torsion
[ 10167 10162 10161 10158 ] final  -76.24 input  -65.29 | X-H torsion
[ 10718 10713 10712 10709 ] final  -82.45 input   66.30 | X-H torsion
[ 10763 10752 10751 10750 ] final   52.66 input  -60.55 | X-H torsion
[ 11005 11000 10999 10996 ] final   39.12 input  -57.11 | X-H torsion

> <Gold.Protein.ActiveResidues>
 VAL166  LYS551  ARG553  GLY616  TRP617  ASP618  TYR619  PRO620  LYS621  CYS622 
 ASP623  PHE694  ASN695  SER759  ASP760  ASP761  ALA762  ILE779  LEU786  VAL792 
 PHE793  MET794  SER795  GLU796  ALA797  LYS798  CYS799  TRP800  GLU811  SER814 

> <Gold.Protein.RotatedAtoms>
  151.0975  133.5268  159.2611 H   0  0  0  0  0  0  0  0  0  0  0  0  # atno 6907 bound_to 6896
  151.2112  135.0481  159.8922 H   0  0  0  0  0  0  0  0  0  0  0  0  # atno 6908 bound_to 6896
  152.5440  134.0791  159.8281 H   0  0  0  0  0  0  0  0  0  0  0  0  # atno 6909 bound_to 6896
  146.2204  140.2839  142.8364 H   0  0  0  0  0  0  0  0  0  0  0  0  # atno 7974 bound_to 7965
  154.7802  140.2817  155.6069 H   0  0  0  0  0  0  0  0  0  0  0  0  # atno 8008 bound_to 7997
  156.2948  140.2624  156.2554 H   0  0  0  0  0  0  0  0  0  0  0  0  # atno 8009 bound_to 7997
  154.9793  140.0375  157.2260 H   0  0  0  0  0  0  0  0  0  0  0  0  # atno 8010 bound_to 7997
  140.4874  143.2388  151.7962 H   0  0  0  0  0  0  0  0  0  0  0  0  # atno 10167 bound_to 10162
  156.0033  130.4635  150.4107 H   0  0  0  0  0  0  0  0  0  0  0  0  # atno 10718 bound_to 10713
  152.9790  135.5805  154.4614 H   0  0  0  0  0  0  0  0  0  0  0  0  # atno 10763 bound_to 10752
  154.4190  135.2771  155.1990 H   0  0  0  0  0  0  0  0  0  0  0  0  # atno 10764 bound_to 10752
  154.3747  135.6160  153.5812 H   0  0  0  0  0  0  0  0  0  0  0  0  # atno 10765 bound_to 10752
  140.2059  134.3814  155.8073 H   0  0  0  0  0  0  0  0  0  0  0  0  # atno 11005 bound_to 11000
  144.9177  140.7831  143.5768 LP  0  0  0  0  0  0  0  0  0  0  0  0  # atno 17320 bound_to 7965
  145.2774  139.1931  143.4809 LP  0  0  0  0  0  0  0  0  0  0  0  0  # atno 17321 bound_to 7965
  139.4844  144.4694  151.9444 LP  0  0  0  0  0  0  0  0  0  0  0  0  # atno 17342 bound_to 10162
  140.3780  144.2772  150.5912 LP  0  0  0  0  0  0  0  0  0  0  0  0  # atno 17343 bound_to 10162
  157.2170  131.0473  151.2567 LP  0  0  0  0  0  0  0  0  0  0  0  0  # atno 17370 bound_to 10713
  157.3836  130.7244  149.6647 LP  0  0  0  0  0  0  0  0  0  0  0  0  # atno 17371 bound_to 10713
  141.2227  133.7118  156.8336 LP  0  0  0  0  0  0  0  0  0  0  0  0  # atno 17394 bound_to 11000
  140.2003  134.8902  157.3161 LP  0  0  0  0  0  0  0  0  0  0  0  0  # atno 17395 bound_to 11000

$$$$
