#       Name:                AV-unprocessed.smi:3301
#       Creating user name   scv26
#       Creation time:       Fri Mar 27 18:59:11 2020


#       File generated by GOLD software.
#

@<TRIPOS>MOLECULE
AV-unprocessed.smi:3301
    41    42     1
SMALL
NO_CHARGES


@<TRIPOS>ATOM
      1 ****        -2.0419  -1.8675  -1.5205 C.3            1 S1                 0.0000
      2 ****        -1.5352  -0.9904  -0.3632 C.3            1 S1                 0.0000
      3 ****        -2.0308  -1.4555   1.0204 C.3            1 S1                 0.0000
      4 ****        -3.4777  -1.4772   1.1218 N.pl3          1 S1                 0.0000
      5 ****        -4.3209  -0.3844   1.2728 C.2            1 S1                 0.0000
      6 ****        -5.6030  -0.8823   1.3298 C.2            1 S1                 0.0000
      7 ****        -5.5723  -2.2707   1.2195 N.2            1 S1                 0.0000
      8 ****        -4.2807  -2.5503   1.1023 C.2            1 S1                 0.0000
      9 ****        -0.0744  -0.9768  -0.3668 N.am           1 S1                 0.0000
     10 ****         0.7054   0.0967  -0.5680 C.2            1 S1                 0.0000
     11 ****         0.2645   1.2221  -0.8061 O.2            1 S1                 0.0000
     12 ****         2.2173  -0.1581  -0.5069 C.3            1 S1                 0.0000
     13 ****         2.9994   1.0570  -0.2746 N.am           1 S1                 0.0000
     14 ****         3.6682   1.7310  -1.3754 C.3            1 S1                 0.0000
     15 ****         4.5186   2.8265  -0.7165 C.3            1 S1                 0.0000
     16 ****         4.0244   2.9267   0.7307 C.3            1 S1                 0.0000
     17 ****         3.1654   1.6848   0.8963 C.2            1 S1                 0.0000
     18 ****         2.6983   1.3352   1.9793 O.2            1 S1                 0.0000
     19 ****        -3.1291  -1.8398  -1.5962 H              1 S1                 0.0000
     20 ****        -1.7429  -2.9081  -1.3905 H              1 S1                 0.0000
     21 ****        -1.6437  -1.5230  -2.4755 H              1 S1                 0.0000
     22 ****        -1.9162   0.0186  -0.5298 H              1 S1                 0.0000
     23 ****        -1.6516  -2.4537   1.2448 H              1 S1                 0.0000
     24 ****        -1.6482  -0.7941   1.7990 H              1 S1                 0.0000
     25 ****        -3.9487   0.6282   1.3251 H              1 S1                 0.0000
     26 ****        -6.5375  -0.3526   1.4425 H              1 S1                 0.0000
     27 ****        -3.9105  -3.5596   0.9964 H              1 S1                 0.0000
     28 ****         0.3837  -1.8587  -0.1879 H              1 S1                 0.0000
     29 ****         2.4345  -0.8813   0.2812 H              1 S1                 0.0000
     30 ****         2.5287  -0.6201  -1.4444 H              1 S1                 0.0000
     31 ****         4.2815   1.0390  -1.9538 H              1 S1                 0.0000
     32 ****         2.9190   2.1630  -2.0403 H              1 S1                 0.0000
     33 ****         5.5715   2.5417  -0.7294 H              1 S1                 0.0000
     34 ****         4.4301   3.7767  -1.2439 H              1 S1                 0.0000
     35 ****         4.8460   2.9424   1.4475 H              1 S1                 0.0000
     36 ****         3.4097   3.8146   0.8809 H              1 S1                 0.0000
     37 ****        -6.3433  -2.9075   1.2269 LP             1 S1                 0.0000
     38 ****        -0.7229   1.3716  -0.8578 LP             1 S1                 0.0000
     39 ****         0.8940   1.9861  -0.9477 LP             1 S1                 0.0000
     40 ****         2.1355   0.5107   2.0383 LP             1 S1                 0.0000
     41 ****         2.8814   1.8755   2.8006 LP             1 S1                 0.0000
@<TRIPOS>BOND
    1    1    2 1     
    2    1   19 1     
    3    1   20 1     
    4    1   21 1     
    5    2    3 1     
    6    2    9 1     
    7    2   22 1     
    8    3    4 1     
    9    3   23 1     
   10    3   24 1     
   11    4    8 1     
   12    4    5 1     
   13    5    6 2     
   14    5   25 1     
   15    6    7 1     
   16    6   26 1     
   17    7    8 2     
   18    8   27 1     
   19    9   10 am    
   20    9   28 1     
   21   10   11 2     
   22   10   12 1     
   23   12   13 1     
   24   12   29 1     
   25   12   30 1     
   26   13   17 am    
   27   13   14 1     
   28   14   15 1     
   29   14   31 1     
   30   14   32 1     
   31   15   16 1     
   32   15   33 1     
   33   15   34 1     
   34   16   17 1     
   35   16   35 1     
   36   16   36 1     
   37   17   18 2     
   38    7   37 1     
   39   11   38 1     
   40   11   39 1     
   41   18   40 1     
   42   18   41 1     
@<TRIPOS>SUBSTRUCTURE
      1 S1             1
@<TRIPOS>SET
LONE_PAIRS      STATIC     ATOMS    <user>   **** ""
5 37 38 39 40 41
DONOR_HYDROGENS      STATIC     ATOMS    <user>   **** ""
1 28
ATOM$BLUE        STATIC     ATOMS    COLORGROUP SYSTEM
5 37 38 39 40 41
ATOM$RED        STATIC     ATOMS    COLORGROUP SYSTEM
1 28
