AV-unprocessed.smi:688|AV-procd|sdf|3356|dock5
  -GOLD-   22720 0333D 1   1.00000     0.00000
 Structure written by MMmdl.
 35 36  0  0  0  0  0  0  0  0  2 V2000
  153.4081  135.7397  158.7459 O   0  0  0  0  0  0  0  0  0  0  0  0
  153.0989  136.7756  158.1584 C   0  0  0  0  0  0  0  0  0  0  0  0
  152.8870  136.8225  156.8104 N   0  5  0  0  0  0  0  0  0  0  0  0
  152.5360  137.9635  156.1405 C   0  0  0  0  0  0  0  0  0  0  0  0
  152.3579  137.9831  154.9222 O   0  0  0  0  0  0  0  0  0  0  0  0
  152.3789  139.1208  156.8495 N   0  0  0  0  0  0  0  0  0  0  0  0
  151.9985  140.3908  156.2148 C   0  0  0  0  0  0  0  0  0  0  0  0
  150.5236  140.3880  155.7554 C   0  0  2  0  0  0  0  0  0  0  0  0
  150.4755  139.8117  154.4646 O   0  0  0  0  0  0  0  0  0  0  0  0
  149.9564  141.8130  155.6383 C   0  0  0  0  0  0  0  0  0  0  0  0
  149.9677  142.4212  156.9196 O   0  0  0  0  0  0  0  0  0  0  0  0
  151.1015  143.2459  157.1330 C   0  0  0  0  0  0  0  0  0  0  0  0
  151.4971  143.2860  158.5966 C   0  0  0  0  0  0  0  0  0  0  0  0
  151.3145  144.4679  159.3455 C   0  0  0  0  0  0  0  0  0  0  0  0
  151.6937  144.5137  160.7013 C   0  0  0  0  0  0  0  0  0  0  0  0
  152.2615  143.3790  161.3128 C   0  0  0  0  0  0  0  0  0  0  0  0
  152.7246  143.4341  162.9739 Cl  0  0  0  0  0  0  0  0  0  0  0  0
  152.4530  142.1998  160.5661 C   0  0  0  0  0  0  0  0  0  0  0  0
  152.0747  142.1542  159.2100 C   0  0  0  0  0  0  0  0  0  0  0  0
  152.5968  139.1292  158.2372 C   0  0  0  0  0  0  0  0  0  0  0  0
  152.9470  138.0177  158.9132 C   0  0  0  0  0  0  0  0  0  0  0  0
  153.2110  138.0585  160.6202 Cl  0  0  0  0  0  0  0  0  0  0  0  0
  152.1645  141.1973  156.9311 H   0  0  0  0  0  0  0  0  0  0  0  0
  152.6627  140.6291  155.3822 H   0  0  0  0  0  0  0  0  0  0  0  0
  149.9088  139.8096  156.4465 H   0  0  0  0  0  0  0  0  0  0  0  0
  149.8239  139.1277  154.4665 H   0  0  0  0  0  0  0  0  0  0  0  0
  150.5879  142.4072  154.9761 H   0  0  0  0  0  0  0  0  0  0  0  0
  148.9527  141.8079  155.2091 H   0  0  0  0  0  0  0  0  0  0  0  0
  151.9381  142.8804  156.5350 H   0  0  0  0  0  0  0  0  0  0  0  0
  150.8898  144.2654  156.8073 H   0  0  0  0  0  0  0  0  0  0  0  0
  150.8814  145.3422  158.8821 H   0  0  0  0  0  0  0  0  0  0  0  0
  151.5486  145.4204  161.2702 H   0  0  0  0  0  0  0  0  0  0  0  0
  152.8907  141.3291  161.0318 H   0  0  0  0  0  0  0  0  0  0  0  0
  152.2271  141.2467  158.6443 H   0  0  0  0  0  0  0  0  0  0  0  0
  152.4673  140.0901  158.7136 H   0  0  0  0  0  0  0  0  0  0  0  0
  1  2  2  0  0  0  0
  2 21  1  0  0  0  0
  2  3  1  0  0  0  0
  3  4  1  0  0  0  0
  4  5  2  0  0  0  0
  4  6  1  0  0  0  0
  6  7  1  0  0  0  0
  6 20  1  0  0  0  0
  7  8  1  0  0  0  0
  7 23  1  0  0  0  0
  7 24  1  0  0  0  0
  8  9  1  0  0  0  0
  8 10  1  0  0  0  0
  8 25  1  0  0  0  0
  9 26  1  0  0  0  0
 10 11  1  0  0  0  0
 10 27  1  0  0  0  0
 10 28  1  0  0  0  0
 11 12  1  0  0  0  0
 12 13  1  0  0  0  0
 12 29  1  0  0  0  0
 12 30  1  0  0  0  0
 13 19  1  0  0  0  0
 13 14  2  0  0  0  0
 14 15  1  0  0  0  0
 14 31  1  0  0  0  0
 15 16  2  0  0  0  0
 15 32  1  0  0  0  0
 16 17  1  0  0  0  0
 16 18  1  0  0  0  0
 18 19  2  0  0  0  0
 18 33  1  0  0  0  0
 19 34  1  0  0  0  0
 20 21  2  0  0  0  0
 20 35  1  0  0  0  0
 21 22  1  0  0  0  0
M  CHG  1   3  -1
M  END
> <s_m_source_file>
AV-unprocessed.smi

> <i_m_source_file_index>
688

> <i_lp_mmshare_version>
43012

> <i_f3d_flags>
0

> <s_epik_input>
Tz1jMVtuSF1jKD1PKW4oW2NIXWMxQ2wpW0NIMl1bQ0BIXShbT0hdKVtDSDJdT1tDSDJdYzJbY0hdW2NIXWMoQ2wpW2NIXVtjSF0y

> <s_epik_cmdline>
J2VwaWtfcHl0aG9uJywgJy1waCcsICc3LjAnLCAnLXRuJywgJzgnLCAnLW1hJywgJzIwMCcsICctbWV0YWxfYmluZGluZycsICctaW1hZScsICc8aW5maWxlLm1hZT4nLCAnLW9tYWUnLCAnPG91dGZpbGUubWFlPic=

> <r_epik_Ionization_Penalty>
1.82111

> <r_epik_Ionization_Penalty_Charging>
5.03334e-08

> <r_epik_Ionization_Penalty_Neutral>
1.82111

> <r_epik_State_Penalty>
1.93633

> <r_epik_Charging_Adjusted_Penalty>
1.93633

> <i_epik_Tot_Q>
-1

> <i_epik_Tot_abs_Q>
1

> <r_epik_Metal_State_Penalty>
0.0147818

> <b_epik_Metal_Only>
0

> <s_lp_Force_Field>
OPLS_2005

> <r_lp_Energy>
25.7398

> <b_lp_Chiralities_Consistent>
1

> <s_lp_Variant>
AV-unprocessed.smi:688-3

> <Gold.Version>
5.8.1

> <Gold.Id.Protein>
6NUR|6NUR_protein|mol2

> <Gold.PLP.Fitness>
54.4746

> <Gold.PLP.PLP>
-45.1488

> <Gold.PLP.part.hbond>
-3.9622

> <Gold.PLP.part.metal>
0.0000

> <Gold.PLP.part.buried>
-4.6238

> <Gold.PLP.part.nonpolar>
-36.1323

> <Gold.PLP.part.repulsive>
0.9097

> <Gold.PLP.ligand.clash>
0.0000

> <Gold.PLP.ligand.torsion>
0.9294

> <Gold.PLP.Chemscore.Hbond>
3.6560

> <Gold.PLP.Chemscore.CHOScore>
0.0000

> <Gold.PLP.Chemscore.Metal>
0.0000

> <Gold.Chemscore.Hbonds>
donor molecule, donor type, donor heavy atom, donor atom, acceptor molecule, acceptor atom, score
      P1  H  6896  6907       L1     1  0.70
      P1  H  7989  7998       L1     9  1.00
      P1  H 10752 10765       L1     3  1.40

> <Gold.PLP.Chemscore.Internal.Correction>
0.2166

> <Gold.Rescore>
     Score         DG    S(hbond)    S(metal)    S(lipo)     H(rot)  DE(clash)    DE(int)     intcor
     18.90     -19.90       2.15        0.00     124.43       2.85       0.15       0.85       ----

> <Gold.Chemscore.Fitness>
18.8972

> <Gold.Chemscore.DG>
-19.8984

> <Gold.Chemscore.ZeroCoef>
-5.4800

> <Gold.Chemscore.Hbond>
2.1458

> <Gold.Chemscore.Metal>
0.0000

> <Gold.Chemscore.Lipo>
124.4272

> <Gold.Chemscore.Internal_Hbond>
0.0000

> <Gold.Chemscore.DEClash>
0.1514

> <Gold.Chemscore.DEInternal>
0.8498

> <Gold.Chemscore.Rot>
2.8542

> <Gold.Chemscore.Internal.Correction>
   9.000000E+99

> <Gold.Chemscore.Hbonds>
donor molecule, donor type, donor heavy atom, donor atom, acceptor molecule, acceptor atom, score
      P1  H  6896  6907       L1     1  0.70
      P1  H  7989  7998       L1     9  0.40
      P1  H 10752 10765       L1     3  0.36

> <Gold.Chemscore.Hbond.Weighted>
-7.1671

> <Gold.Chemscore.Metal.Weighted>
-0.0000

> <Gold.Chemscore.Lipo.Weighted>
-14.5580

> <Gold.Chemscore.Internal_Hbond.Weighted>
0.0000

> <Gold.Chemscore.DEClash.Weighted>
0.1514

> <Gold.Chemscore.DEInternal.Weighted>
0.8498

> <Gold.Chemscore.Rot.Weighted>
7.3067

> <Gold.Chemscore.Internal.Correction.Weighted>
   9.000000E+99

> <Gold.Protein.RotatedTorsions>
[ 6907 6896 6895 6894 ] final   60.79 input  -60.11 | X-H torsion
[ 7974 7965 7964 7962 ] final  -40.99 input  175.53 | X-H torsion
[ 8008 7997 7996 7995 ] final   24.70 input   59.86 | X-H torsion
[ 10167 10162 10161 10158 ] final   76.94 input  -65.29 | X-H torsion
[ 10718 10713 10712 10709 ] final -100.09 input   66.30 | X-H torsion
[ 10763 10752 10751 10750 ] final -123.11 input  -60.55 | X-H torsion
[ 11005 11000 10999 10996 ] final   69.78 input  -57.11 | X-H torsion

> <Gold.Protein.ActiveResidues>
 VAL166  LYS551  ARG553  GLY616  TRP617  ASP618  TYR619  PRO620  LYS621  CYS622 
 ASP623  PHE694  ASN695  SER759  ASP760  ASP761  ALA762  ILE779  LEU786  VAL792 
 PHE793  MET794  SER795  GLU796  ALA797  LYS798  CYS799  TRP800  GLU811  SER814 

> <Gold.Protein.RotatedAtoms>
  152.4033  134.6250  160.0060 H   0  0  0  0  0  0  0  0  0  0  0  0  # atno 6907 bound_to 6896
  151.6448  133.3318  159.3146 H   0  0  0  0  0  0  0  0  0  0  0  0  # atno 6908 bound_to 6896
  150.7931  134.7011  159.6595 H   0  0  0  0  0  0  0  0  0  0  0  0  # atno 6909 bound_to 6896
  146.0252  140.6800  142.9159 H   0  0  0  0  0  0  0  0  0  0  0  0  # atno 7974 bound_to 7965
  155.0003  140.3124  155.4870 H   0  0  0  0  0  0  0  0  0  0  0  0  # atno 8008 bound_to 7997
  156.2926  140.2233  156.5054 H   0  0  0  0  0  0  0  0  0  0  0  0  # atno 8009 bound_to 7997
  154.7624  140.0458  157.0972 H   0  0  0  0  0  0  0  0  0  0  0  0  # atno 8010 bound_to 7997
  139.9869  144.5786  150.7852 H   0  0  0  0  0  0  0  0  0  0  0  0  # atno 10167 bound_to 10162
  156.0153  130.5312  150.6767 H   0  0  0  0  0  0  0  0  0  0  0  0  # atno 10718 bound_to 10713
  154.8702  135.4109  154.2890 H   0  0  0  0  0  0  0  0  0  0  0  0  # atno 10763 bound_to 10752
  153.3769  135.7010  153.6600 H   0  0  0  0  0  0  0  0  0  0  0  0  # atno 10764 bound_to 10752
  153.5439  135.3642  155.2702 H   0  0  0  0  0  0  0  0  0  0  0  0  # atno 10765 bound_to 10752
  139.9634  134.7021  156.0596 H   0  0  0  0  0  0  0  0  0  0  0  0  # atno 11005 bound_to 11000
  144.7007  140.3638  143.7159 LP  0  0  0  0  0  0  0  0  0  0  0  0  # atno 17320 bound_to 7965
  145.7129  139.1689  143.2529 LP  0  0  0  0  0  0  0  0  0  0  0  0  # atno 17321 bound_to 7965
  140.7469  143.2898  151.3363 LP  0  0  0  0  0  0  0  0  0  0  0  0  # atno 17342 bound_to 10162
  139.6369  144.0614  152.2523 LP  0  0  0  0  0  0  0  0  0  0  0  0  # atno 17343 bound_to 10162
  157.4478  131.0869  151.0878 LP  0  0  0  0  0  0  0  0  0  0  0  0  # atno 17370 bound_to 10713
  157.1402  130.6140  149.5553 LP  0  0  0  0  0  0  0  0  0  0  0  0  # atno 17371 bound_to 10713
  141.1313  133.6586  156.3472 LP  0  0  0  0  0  0  0  0  0  0  0  0  # atno 17394 bound_to 11000
  140.5449  134.6084  157.5391 LP  0  0  0  0  0  0  0  0  0  0  0  0  # atno 17395 bound_to 11000

$$$$
