AV-unprocessed.smi:2184|AV-procd|sdf|8871|dock1
  -GOLD-   2272012 73D 1   1.00000     0.00000
 Structure written by MMmdl.
 47 48  0  0  0  0  0  0  0  0  1 V2000
  150.7464  132.4624  154.8726 C   0  0  0  0  0  0  0  0  0  0  0  0
  149.5163  133.5741  154.1367 S   0  0  0  0  0  0  0  0  0  0  0  0
  149.3980  134.8603  155.4161 C   0  0  2  0  0  0  0  0  0  0  0  0
  148.0795  135.6362  155.2697 C   0  0  0  0  0  0  0  0  0  0  0  0
  150.6058  135.8057  155.3930 C   0  0  0  0  0  0  0  0  0  0  0  0
  151.3922  135.8387  156.3400 O   0  0  0  0  0  0  0  0  0  0  0  0
  150.7361  136.5787  154.3052 N   0  0  0  0  0  0  0  0  0  0  0  0
  151.8073  137.5456  154.0995 C   0  0  0  0  0  0  0  0  0  0  0  0
  151.8155  138.6887  155.1043 C   0  0  0  0  0  0  0  0  0  0  0  0
  150.8550  139.7233  155.0904 C   0  0  0  0  0  0  0  0  0  0  0  0
  150.9395  140.7479  156.0520 C   0  0  0  0  0  0  0  0  0  0  0  0
  151.9847  140.7169  157.0046 C   0  0  0  0  0  0  0  0  0  0  0  0
  152.0841  141.7345  157.9768 N   0  0  0  0  0  0  0  0  0  0  0  0
  152.3690  141.3478  159.3554 C   0  0  0  0  0  0  0  0  0  0  0  0
  152.7946  142.5778  160.1767 C   0  0  2  0  0  0  0  0  0  0  0  0
  152.9784  142.2392  161.6597 C   0  0  0  0  0  0  0  0  0  0  0  0
  151.7941  143.5908  160.0744 O   0  0  0  0  0  0  0  0  0  0  0  0
  151.5039  144.0144  158.7401 C   0  0  1  0  0  0  0  0  0  0  0  0
  152.6469  144.8467  158.1319 C   0  0  0  0  0  0  0  0  0  0  0  0
  151.0983  142.8064  157.8731 C   0  0  0  0  0  0  0  0  0  0  0  0
  152.9133  139.7295  157.0076 N   0  0  0  0  0  0  0  0  0  0  0  0
  152.8266  138.7488  156.0845 C   0  0  0  0  0  0  0  0  0  0  0  0
  150.8843  131.5872  154.2379 H   0  0  0  0  0  0  0  0  0  0  0  0
  150.4186  132.1267  155.8564 H   0  0  0  0  0  0  0  0  0  0  0  0
  151.7087  132.9634  154.9765 H   0  0  0  0  0  0  0  0  0  0  0  0
  149.3723  134.3526  156.3817 H   0  0  0  0  0  0  0  0  0  0  0  0
  147.9949  136.4226  156.0209 H   0  0  0  0  0  0  0  0  0  0  0  0
  147.2236  134.9726  155.3945 H   0  0  0  0  0  0  0  0  0  0  0  0
  147.9935  136.1017  154.2870 H   0  0  0  0  0  0  0  0  0  0  0  0
  150.0442  136.4966  153.5748 H   0  0  0  0  0  0  0  0  0  0  0  0
  152.7648  137.0250  154.1494 H   0  0  0  0  0  0  0  0  0  0  0  0
  151.7257  137.9713  153.0981 H   0  0  0  0  0  0  0  0  0  0  0  0
  150.0629  139.7479  154.3567 H   0  0  0  0  0  0  0  0  0  0  0  0
  150.2162  141.5495  156.0390 H   0  0  0  0  0  0  0  0  0  0  0  0
  151.4789  140.8914  159.7908 H   0  0  0  0  0  0  0  0  0  0  0  0
  153.1649  140.6026  159.3823 H   0  0  0  0  0  0  0  0  0  0  0  0
  153.7434  142.9586  159.7985 H   0  0  0  0  0  0  0  0  0  0  0  0
  153.7399  141.4708  161.7954 H   0  0  0  0  0  0  0  0  0  0  0  0
  152.0504  141.8726  162.0991 H   0  0  0  0  0  0  0  0  0  0  0  0
  153.2902  143.1182  162.2241 H   0  0  0  0  0  0  0  0  0  0  0  0
  150.6391  144.6744  158.8132 H   0  0  0  0  0  0  0  0  0  0  0  0
  152.3473  145.2693  157.1726 H   0  0  0  0  0  0  0  0  0  0  0  0
  153.5434  144.2528  157.9559 H   0  0  0  0  0  0  0  0  0  0  0  0
  152.9159  145.6753  158.7872 H   0  0  0  0  0  0  0  0  0  0  0  0
  150.9519  143.1311  156.8437 H   0  0  0  0  0  0  0  0  0  0  0  0
  150.1384  142.4177  158.2157 H   0  0  0  0  0  0  0  0  0  0  0  0
  153.5909  137.9870  156.1308 H   0  0  0  0  0  0  0  0  0  0  0  0
  1  2  1  0  0  0  0
  1 23  1  0  0  0  0
  1 24  1  0  0  0  0
  1 25  1  0  0  0  0
  2  3  1  0  0  0  0
  3  4  1  0  0  0  0
  3  5  1  0  0  0  0
  3 26  1  0  0  0  0
  4 27  1  0  0  0  0
  4 28  1  0  0  0  0
  4 29  1  0  0  0  0
  5  6  2  0  0  0  0
  5  7  1  0  0  0  0
  7  8  1  0  0  0  0
  7 30  1  0  0  0  0
  8  9  1  0  0  0  0
  8 31  1  0  0  0  0
  8 32  1  0  0  0  0
  9 22  1  0  0  0  0
  9 10  2  0  0  0  0
 10 11  1  0  0  0  0
 10 33  1  0  0  0  0
 11 12  2  0  0  0  0
 11 34  1  0  0  0  0
 12 13  1  0  0  0  0
 12 21  1  0  0  0  0
 13 20  1  0  0  0  0
 13 14  1  0  0  0  0
 14 15  1  0  0  0  0
 14 35  1  0  0  0  0
 14 36  1  0  0  0  0
 15 16  1  0  0  0  0
 15 17  1  0  0  0  0
 15 37  1  0  0  0  0
 16 38  1  0  0  0  0
 16 39  1  0  0  0  0
 16 40  1  0  0  0  0
 17 18  1  0  0  0  0
 18 19  1  0  0  0  0
 18 20  1  0  0  0  0
 18 41  1  0  0  0  0
 19 42  1  0  0  0  0
 19 43  1  0  0  0  0
 19 44  1  0  0  0  0
 20 45  1  0  0  0  0
 20 46  1  0  0  0  0
 21 22  2  0  0  0  0
 22 47  1  0  0  0  0
M  END
> <s_m_source_file>
AV-unprocessed.smi

> <i_m_source_file_index>
2184

> <i_lp_mmshare_version>
43012

> <i_f3d_flags>
0

> <s_epik_input>
W0NIM11TW0NASF0oW0NIM10pQyg9TylbTkhdW0NIMl1jMVtjSF1bY0hdYyhuW2NIXTEpTjJbQ0gyXVtDQEBIXShbQ0gzXSlPW0NAQEhdKFtDSDNdKVtDSDJdMg==

> <s_epik_cmdline>
J2VwaWtfcHl0aG9uJywgJy1waCcsICc3LjAnLCAnLXRuJywgJzgnLCAnLW1hJywgJzIwMCcsICctbWV0YWxfYmluZGluZycsICctaW1hZScsICc8aW5maWxlLm1hZT4nLCAnLW9tYWUnLCAnPG91dGZpbGUubWFlPic=

> <r_lp_tautomer_probability>
1

> <r_epik_Ionization_Penalty>
0.00551702

> <r_epik_Ionization_Penalty_Charging>
0

> <r_epik_Ionization_Penalty_Neutral>
0.00551702

> <r_epik_State_Penalty>
0.00403758

> <r_epik_Charging_Adjusted_Penalty>
0.00403758

> <i_epik_Tot_Q>
0

> <i_epik_Tot_abs_Q>
0

> <r_epik_Metal_State_Penalty>
-0

> <b_epik_Metal_Only>
0

> <s_lp_Force_Field>
OPLS_2005

> <r_lp_Energy>
19.5459

> <b_lp_Chiralities_Consistent>
1

> <s_lp_Variant>
AV-unprocessed.smi:2184-3

> <Gold.Version>
5.8.1

> <Gold.Id.Protein>
6NUR|6NUR_protein|mol2

> <Gold.PLP.Fitness>
50.9887

> <Gold.PLP.PLP>
-45.6536

> <Gold.PLP.part.hbond>
-2.9002

> <Gold.PLP.part.metal>
0.0000

> <Gold.PLP.part.buried>
-3.0260

> <Gold.PLP.part.nonpolar>
-39.2896

> <Gold.PLP.part.repulsive>
0.1150

> <Gold.PLP.ligand.clash>
0.0000

> <Gold.PLP.ligand.torsion>
0.5441

> <Gold.PLP.Chemscore.Hbond>
2.0000

> <Gold.PLP.Chemscore.CHOScore>
0.0000

> <Gold.PLP.Chemscore.Metal>
0.0000

> <Gold.Chemscore.Hbonds>
donor molecule, donor type, donor heavy atom, donor atom, acceptor molecule, acceptor atom, score
      L1  H     7    30       P1  7948  0.80
      P1  H  7997  8008       L1    21  0.95
      P1  H 10752 10764       L1     6  0.29

> <Gold.PLP.Chemscore.Internal.Correction>
0.4233

> <Gold.Rescore>
     Score         DG    S(hbond)    S(metal)    S(lipo)     H(rot)  DE(clash)    DE(int)     intcor
     18.37     -19.89       1.43        0.00     117.22       1.59       0.06       1.46       ----

> <Gold.Chemscore.Fitness>
18.3744

> <Gold.Chemscore.DG>
-19.8927

> <Gold.Chemscore.ZeroCoef>
-5.4800

> <Gold.Chemscore.Hbond>
1.4313

> <Gold.Chemscore.Metal>
0.0000

> <Gold.Chemscore.Lipo>
117.2181

> <Gold.Chemscore.Internal_Hbond>
0.0000

> <Gold.Chemscore.DEClash>
0.0570

> <Gold.Chemscore.DEInternal>
1.4613

> <Gold.Chemscore.Rot>
1.5947

> <Gold.Chemscore.Internal.Correction>
   9.000000E+99

> <Gold.Chemscore.Hbonds>
donor molecule, donor type, donor heavy atom, donor atom, acceptor molecule, acceptor atom, score
      L1  H     7    30       P1  7948  0.11
      P1  H  7997  8008       L1    21  0.20
      P1  H 10752 10764       L1     6  0.01

> <Gold.Chemscore.Hbond.Weighted>
-4.7807

> <Gold.Chemscore.Metal.Weighted>
-0.0000

> <Gold.Chemscore.Lipo.Weighted>
-13.7145

> <Gold.Chemscore.Internal_Hbond.Weighted>
0.0000

> <Gold.Chemscore.DEClash.Weighted>
0.0570

> <Gold.Chemscore.DEInternal.Weighted>
1.4613

> <Gold.Chemscore.Rot.Weighted>
4.0824

> <Gold.Chemscore.Internal.Correction.Weighted>
   9.000000E+99

> <Gold.Protein.RotatedTorsions>
[ 6907 6896 6895 6894 ] final -106.82 input  -60.11 | X-H torsion
[ 7974 7965 7964 7962 ] final   45.35 input  175.53 | X-H torsion
[ 8008 7997 7996 7995 ] final  -76.62 input   59.86 | X-H torsion
[ 10167 10162 10161 10158 ] final -153.74 input  -65.29 | X-H torsion
[ 10718 10713 10712 10709 ] final  -53.79 input   66.30 | X-H torsion
[ 10763 10752 10751 10750 ] final  -35.72 input  -60.55 | X-H torsion
[ 11005 11000 10999 10996 ] final  -81.48 input  -57.11 | X-H torsion

> <Gold.Protein.ActiveResidues>
 VAL166  LYS551  ARG553  GLY616  TRP617  ASP618  TYR619  PRO620  LYS621  CYS622 
 ASP623  PHE694  ASN695  SER759  ASP760  ASP761  ALA762  ILE779  LEU786  VAL792 
 PHE793  MET794  SER795  GLU796  ALA797  LYS798  CYS799  TRP800  GLU811  SER814 

> <Gold.Protein.RotatedAtoms>
  150.7410  133.9919  159.3609 H   0  0  0  0  0  0  0  0  0  0  0  0  # atno 6907 bound_to 6896
  151.7867  135.0745  160.0391 H   0  0  0  0  0  0  0  0  0  0  0  0  # atno 6908 bound_to 6896
  152.3236  133.5844  159.5797 H   0  0  0  0  0  0  0  0  0  0  0  0  # atno 6909 bound_to 6896
  146.0488  139.4974  142.9731 H   0  0  0  0  0  0  0  0  0  0  0  0  # atno 7974 bound_to 7965
  154.5522  140.0724  156.8686 H   0  0  0  0  0  0  0  0  0  0  0  0  # atno 8008 bound_to 7997
  155.2971  140.3382  155.4231 H   0  0  0  0  0  0  0  0  0  0  0  0  # atno 8009 bound_to 7997
  156.1971  140.1707  156.7962 H   0  0  0  0  0  0  0  0  0  0  0  0  # atno 8010 bound_to 7997
  139.7071  143.9168  152.2453 H   0  0  0  0  0  0  0  0  0  0  0  0  # atno 10167 bound_to 10162
  156.1505  130.4151  149.9952 H   0  0  0  0  0  0  0  0  0  0  0  0  # atno 10718 bound_to 10713
  153.8679  135.6834  153.4777 H   0  0  0  0  0  0  0  0  0  0  0  0  # atno 10763 bound_to 10752
  153.1304  135.4700  154.9337 H   0  0  0  0  0  0  0  0  0  0  0  0  # atno 10764 bound_to 10752
  154.7728  135.3244  154.8105 H   0  0  0  0  0  0  0  0  0  0  0  0  # atno 10765 bound_to 10752
  141.1666  133.7198  156.8428 H   0  0  0  0  0  0  0  0  0  0  0  0  # atno 11005 bound_to 11000
  145.6760  141.0204  143.1632 LP  0  0  0  0  0  0  0  0  0  0  0  0  # atno 17320 bound_to 7965
  144.7112  139.8366  143.7414 LP  0  0  0  0  0  0  0  0  0  0  0  0  # atno 17321 bound_to 7965
  139.9027  144.6902  150.8648 LP  0  0  0  0  0  0  0  0  0  0  0  0  # atno 17342 bound_to 10162
  140.7724  143.3502  151.2030 LP  0  0  0  0  0  0  0  0  0  0  0  0  # atno 17343 bound_to 10162
  156.7811  130.9222  151.3646 LP  0  0  0  0  0  0  0  0  0  0  0  0  # atno 17370 bound_to 10713
  157.6653  130.9002  149.9918 LP  0  0  0  0  0  0  0  0  0  0  0  0  # atno 17371 bound_to 10713
  140.1971  134.8924  157.3127 LP  0  0  0  0  0  0  0  0  0  0  0  0  # atno 17394 bound_to 11000
  140.2227  134.4003  155.7558 LP  0  0  0  0  0  0  0  0  0  0  0  0  # atno 17395 bound_to 11000

$$$$
