AV-unprocessed.smi:768|AV-procd|sdf|3673|dock7
  -GOLD-   22720 1 83D 1   1.00000     0.00000
 Structure written by MMmdl.
 48 49  0  0  0  0  0  0  0  0  1 V2000
  142.7428  134.5308  152.5731 C   0  0  0  0  0  0  0  0  0  0  0  0
  143.8068  133.6889  151.8913 C   0  0  0  0  0  0  0  0  0  0  0  0
  143.4825  132.7489  150.9771 C   0  0  0  0  0  0  0  0  0  0  0  0
  144.4991  131.9560  150.3295 C   0  0  0  0  0  0  0  0  0  0  0  0
  145.7795  132.1749  150.6604 C   0  0  0  0  0  0  0  0  0  0  0  0
  146.1445  133.1464  151.6108 N   0  0  0  0  0  0  0  0  0  0  0  0
  147.5852  133.3012  151.8876 C   0  0  0  0  0  0  0  0  0  0  0  0
  147.9945  133.0468  153.3490 C   0  0  0  0  0  0  0  0  0  0  0  0
  147.7018  131.9724  153.8717 O   0  0  0  0  0  0  0  0  0  0  0  0
  148.6452  134.0249  154.0012 N   0  0  0  0  0  0  0  0  0  0  0  0
  149.0162  134.0172  155.4118 C   0  0  0  0  0  0  0  0  0  0  0  0
  148.0780  134.9239  156.2248 C   0  0  0  0  0  0  0  0  0  0  0  0
  148.5173  135.1061  157.6854 C   0  0  0  0  0  0  0  0  0  0  0  0
  147.7090  134.2842  158.5139 O   0  0  0  0  0  0  0  0  0  0  0  0
  147.9414  134.4467  159.9077 C   0  0  0  0  0  0  0  0  0  0  0  0
  146.9876  133.5574  160.7342 C   0  0  0  0  0  0  0  0  0  0  0  0
  147.1314  133.8254  162.2409 C   0  0  0  0  0  0  0  0  0  0  0  0
  146.9195  135.3119  162.5677 C   0  0  0  0  0  0  0  0  0  0  0  0
  147.8678  136.2005  161.7475 C   0  0  0  0  0  0  0  0  0  0  0  0
  147.7161  135.9320  160.2414 C   0  0  0  0  0  0  0  0  0  0  0  0
  145.2176  133.9269  152.2497 C   0  0  0  0  0  0  0  0  0  0  0  0
  145.5537  134.7812  153.0718 O   0  0  0  0  0  0  0  0  0  0  0  0
  141.7406  134.2340  152.2627 H   0  0  0  0  0  0  0  0  0  0  0  0
  142.8731  135.5834  152.3229 H   0  0  0  0  0  0  0  0  0  0  0  0
  142.8044  134.4239  153.6567 H   0  0  0  0  0  0  0  0  0  0  0  0
  142.4466  132.5833  150.7196 H   0  0  0  0  0  0  0  0  0  0  0  0
  144.2354  131.2087  149.5957 H   0  0  0  0  0  0  0  0  0  0  0  0
  146.6008  131.6297  150.2183 H   0  0  0  0  0  0  0  0  0  0  0  0
  148.1630  132.6350  151.2440 H   0  0  0  0  0  0  0  0  0  0  0  0
  147.9162  134.3050  151.6182 H   0  0  0  0  0  0  0  0  0  0  0  0
  148.8541  134.8687  153.4874 H   0  0  0  0  0  0  0  0  0  0  0  0
  149.0005  133.0087  155.8280 H   0  0  0  0  0  0  0  0  0  0  0  0
  150.0423  134.3747  155.4983 H   0  0  0  0  0  0  0  0  0  0  0  0
  148.0206  135.9009  155.7435 H   0  0  0  0  0  0  0  0  0  0  0  0
  147.0679  134.5133  156.2006 H   0  0  0  0  0  0  0  0  0  0  0  0
  149.5672  134.8372  157.7947 H   0  0  0  0  0  0  0  0  0  0  0  0
  148.4139  136.1515  157.9796 H   0  0  0  0  0  0  0  0  0  0  0  0
  148.9777  134.1962  160.1432 H   0  0  0  0  0  0  0  0  0  0  0  0
  145.9575  133.7451  160.4285 H   0  0  0  0  0  0  0  0  0  0  0  0
  147.1794  132.5021  160.5444 H   0  0  0  0  0  0  0  0  0  0  0  0
  146.4161  133.2171  162.7952 H   0  0  0  0  0  0  0  0  0  0  0  0
  148.1232  133.5158  162.5727 H   0  0  0  0  0  0  0  0  0  0  0  0
  145.8856  135.5888  162.3569 H   0  0  0  0  0  0  0  0  0  0  0  0
  147.0749  135.4846  163.6329 H   0  0  0  0  0  0  0  0  0  0  0  0
  147.6687  137.2515  161.9593 H   0  0  0  0  0  0  0  0  0  0  0  0
  148.8989  136.0137  162.0505 H   0  0  0  0  0  0  0  0  0  0  0  0
  148.4214  136.5489  159.6837 H   0  0  0  0  0  0  0  0  0  0  0  0
  146.7191  136.2341  159.9178 H   0  0  0  0  0  0  0  0  0  0  0  0
  1  2  1  0  0  0  0
  1 23  1  0  0  0  0
  1 24  1  0  0  0  0
  1 25  1  0  0  0  0
  2 21  1  0  0  0  0
  2  3  2  0  0  0  0
  3  4  1  0  0  0  0
  3 26  1  0  0  0  0
  4  5  2  0  0  0  0
  4 27  1  0  0  0  0
  5  6  1  0  0  0  0
  5 28  1  0  0  0  0
  6  7  1  0  0  0  0
  6 21  1  0  0  0  0
  7  8  1  0  0  0  0
  7 29  1  0  0  0  0
  7 30  1  0  0  0  0
  8  9  2  0  0  0  0
  8 10  1  0  0  0  0
 10 11  1  0  0  0  0
 10 31  1  0  0  0  0
 11 12  1  0  0  0  0
 11 32  1  0  0  0  0
 11 33  1  0  0  0  0
 12 13  1  0  0  0  0
 12 34  1  0  0  0  0
 12 35  1  0  0  0  0
 13 14  1  0  0  0  0
 13 36  1  0  0  0  0
 13 37  1  0  0  0  0
 14 15  1  0  0  0  0
 15 20  1  0  0  0  0
 15 16  1  0  0  0  0
 15 38  1  0  0  0  0
 16 17  1  0  0  0  0
 16 39  1  0  0  0  0
 16 40  1  0  0  0  0
 17 18  1  0  0  0  0
 17 41  1  0  0  0  0
 17 42  1  0  0  0  0
 18 19  1  0  0  0  0
 18 43  1  0  0  0  0
 18 44  1  0  0  0  0
 19 20  1  0  0  0  0
 19 45  1  0  0  0  0
 19 46  1  0  0  0  0
 20 47  1  0  0  0  0
 20 48  1  0  0  0  0
 21 22  2  0  0  0  0
M  END
> <s_m_source_file>
AV-unprocessed.smi

> <i_m_source_file_index>
768

> <i_lp_mmshare_version>
43012

> <i_f3d_flags>
0

> <s_epik_input>
W0NIM11jMVtjSF1bY0hdW2NIXW4oYzE9TylbQ0gyXUMoPU8pW05IXVtDSDJdW0NIMl1bQ0gyXU9bQ0hdMltDSDJdW0NIMl1bQ0gyXVtDSDJdW0NIMl0y

> <s_epik_cmdline>
J2VwaWtfcHl0aG9uJywgJy1waCcsICc3LjAnLCAnLXRuJywgJzgnLCAnLW1hJywgJzIwMCcsICctbWV0YWxfYmluZGluZycsICctaW1hZScsICc8aW5maWxlLm1hZT4nLCAnLW9tYWUnLCAnPG91dGZpbGUubWFlPic=

> <r_lp_tautomer_probability>
1

> <r_epik_Ionization_Penalty>
7.81262e-07

> <r_epik_Ionization_Penalty_Charging>
7.6198e-07

> <r_epik_Ionization_Penalty_Neutral>
1.92812e-08

> <r_epik_State_Penalty>
-0

> <r_epik_Charging_Adjusted_Penalty>
7.6198e-07

> <i_epik_Tot_Q>
0

> <i_epik_Tot_abs_Q>
0

> <r_epik_Metal_State_Penalty>
-0

> <b_epik_Metal_Only>
0

> <s_lp_Force_Field>
OPLS_2005

> <r_lp_Energy>
20.2971

> <b_lp_Chiralities_Consistent>
1

> <s_lp_Variant>
AV-unprocessed.smi:768-1

> <Gold.Version>
5.8.1

> <Gold.Id.Protein>
6NUR|6NUR_protein|mol2

> <Gold.PLP.Fitness>
46.1783

> <Gold.PLP.PLP>
-40.9930

> <Gold.PLP.part.hbond>
-1.0000

> <Gold.PLP.part.metal>
0.0000

> <Gold.PLP.part.buried>
-4.6825

> <Gold.PLP.part.nonpolar>
-34.5197

> <Gold.PLP.part.repulsive>
0.1453

> <Gold.PLP.ligand.clash>
0.0000

> <Gold.PLP.ligand.torsion>
0.4441

> <Gold.PLP.Chemscore.Hbond>
0.9913

> <Gold.PLP.Chemscore.CHOScore>
1.0000

> <Gold.PLP.Chemscore.Metal>
0.0000

> <Gold.Chemscore.Hbonds>
donor molecule, donor type, donor heavy atom, donor atom, acceptor molecule, acceptor atom, score
      L1  H    10    31       P1  7948  0.86
      L1  C     5    28       P1 10747  1.00

> <Gold.PLP.Chemscore.Internal.Correction>
0.0999

> <Gold.Rescore>
     Score         DG    S(hbond)    S(metal)    S(lipo)     H(rot)  DE(clash)    DE(int)     intcor
     14.23     -14.66       0.89        0.00      96.15       1.97       0.02       0.41       ----

> <Gold.Chemscore.Fitness>
14.2332

> <Gold.Chemscore.DG>
-14.6619

> <Gold.Chemscore.ZeroCoef>
-5.4800

> <Gold.Chemscore.Hbond>
0.8886

> <Gold.Chemscore.Metal>
0.0000

> <Gold.Chemscore.Lipo>
96.1536

> <Gold.Chemscore.Internal_Hbond>
0.0000

> <Gold.Chemscore.DEClash>
0.0174

> <Gold.Chemscore.DEInternal>
0.4114

> <Gold.Chemscore.Rot>
1.9671

> <Gold.Chemscore.Internal.Correction>
   9.000000E+99

> <Gold.Chemscore.Hbonds>
donor molecule, donor type, donor heavy atom, donor atom, acceptor molecule, acceptor atom, score
      L1  H    10    31       P1  7948  0.33

> <Gold.Chemscore.Hbond.Weighted>
-2.9678

> <Gold.Chemscore.Metal.Weighted>
-0.0000

> <Gold.Chemscore.Lipo.Weighted>
-11.2500

> <Gold.Chemscore.Internal_Hbond.Weighted>
0.0000

> <Gold.Chemscore.DEClash.Weighted>
0.0174

> <Gold.Chemscore.DEInternal.Weighted>
0.4114

> <Gold.Chemscore.Rot.Weighted>
5.0359

> <Gold.Chemscore.Internal.Correction.Weighted>
   9.000000E+99

> <Gold.Protein.RotatedTorsions>
[ 6907 6896 6895 6894 ] final -116.54 input  -60.11 | X-H torsion
[ 7974 7965 7964 7962 ] final   97.91 input  175.53 | X-H torsion
[ 8008 7997 7996 7995 ] final    5.38 input   59.86 | X-H torsion
[ 10167 10162 10161 10158 ] final   11.20 input  -65.29 | X-H torsion
[ 10718 10713 10712 10709 ] final  140.95 input   66.30 | X-H torsion
[ 10763 10752 10751 10750 ] final  -63.07 input  -60.55 | X-H torsion
[ 11005 11000 10999 10996 ] final -162.63 input  -57.11 | X-H torsion

> <Gold.Protein.ActiveResidues>
 VAL166  LYS551  ARG553  GLY616  TRP617  ASP618  TYR619  PRO620  LYS621  CYS622 
 ASP623  PHE694  ASN695  SER759  ASP760  ASP761  ALA762  ILE779  LEU786  VAL792 
 PHE793  MET794  SER795  GLU796  ALA797  LYS798  CYS799  TRP800  GLU811  SER814 

> <Gold.Protein.RotatedAtoms>
  150.8064  133.8502  159.3202 H   0  0  0  0  0  0  0  0  0  0  0  0  # atno 6907 bound_to 6896
  151.6299  135.1022  160.0129 H   0  0  0  0  0  0  0  0  0  0  0  0  # atno 6908 bound_to 6896
  152.4155  133.6991  159.6470 H   0  0  0  0  0  0  0  0  0  0  0  0  # atno 6909 bound_to 6896
  145.4192  139.2323  143.3205 H   0  0  0  0  0  0  0  0  0  0  0  0  # atno 7974 bound_to 7965
  154.7277  140.2724  155.6484 H   0  0  0  0  0  0  0  0  0  0  0  0  # atno 8008 bound_to 7997
  156.2841  140.2722  156.1893 H   0  0  0  0  0  0  0  0  0  0  0  0  # atno 8009 bound_to 7997
  155.0423  140.0371  157.2504 H   0  0  0  0  0  0  0  0  0  0  0  0  # atno 8010 bound_to 7997
  140.6146  143.8334  150.7104 H   0  0  0  0  0  0  0  0  0  0  0  0  # atno 10167 bound_to 10162
  157.3975  131.1012  151.0585 H   0  0  0  0  0  0  0  0  0  0  0  0  # atno 10718 bound_to 10713
  154.3095  135.6218  153.5459 H   0  0  0  0  0  0  0  0  0  0  0  0  # atno 10763 bound_to 10752
  152.9831  135.5698  154.5193 H   0  0  0  0  0  0  0  0  0  0  0  0  # atno 10764 bound_to 10752
  154.4840  135.2864  155.1525 H   0  0  0  0  0  0  0  0  0  0  0  0  # atno 10765 bound_to 10752
  140.6071  134.4887  157.5211 H   0  0  0  0  0  0  0  0  0  0  0  0  # atno 11005 bound_to 11000
  146.2665  140.4914  142.8832 LP  0  0  0  0  0  0  0  0  0  0  0  0  # atno 17320 bound_to 7965
  144.8257  140.6624  143.6324 LP  0  0  0  0  0  0  0  0  0  0  0  0  # atno 17321 bound_to 7965
  140.1911  143.4036  152.1862 LP  0  0  0  0  0  0  0  0  0  0  0  0  # atno 17342 bound_to 10162
  139.5388  144.7237  151.4801 LP  0  0  0  0  0  0  0  0  0  0  0  0  # atno 17343 bound_to 10162
  157.1596  130.6220  149.5606 LP  0  0  0  0  0  0  0  0  0  0  0  0  # atno 17370 bound_to 10713
  155.9814  130.4821  150.6827 LP  0  0  0  0  0  0  0  0  0  0  0  0  # atno 17371 bound_to 10713
  139.9208  134.8153  156.1219 LP  0  0  0  0  0  0  0  0  0  0  0  0  # atno 17394 bound_to 11000
  141.0833  133.6745  156.2382 LP  0  0  0  0  0  0  0  0  0  0  0  0  # atno 17395 bound_to 11000

$$$$
