AV-unprocessed.smi:3263|AV-procd|sdf|12492|dock1
  -GOLD-   2272018393D 1   1.00000     0.00000
 Structure written by MMmdl.
 42 44  0  0  0  0  0  0  0  0  2 V2000
  150.9255  138.6133  158.9926 O   0  0  0  0  0  0  0  0  0  0  0  0
  151.8946  139.3703  158.9344 C   0  0  0  0  0  0  0  0  0  0  0  0
  151.7803  140.7257  158.2286 C   0  0  0  0  0  0  0  0  0  0  0  0
  151.5464  141.9059  159.1985 C   0  0  2  0  0  0  0  0  0  0  0  0
  151.3766  143.2779  158.5014 C   0  0  0  0  0  0  0  0  0  0  0  0
  152.4481  144.1498  159.1803 C   0  0  1  0  0  0  0  0  0  0  0  0
  152.0479  144.4142  160.6437 C   0  0  0  0  0  0  0  0  0  0  0  0
  152.2872  143.0473  161.3126 C   0  0  0  0  0  0  0  0  0  0  0  0
  152.7493  142.1694  160.1338 C   0  0  2  0  0  0  0  0  0  0  0  0
  153.5942  143.1593  159.3369 C   0  0  0  0  0  0  0  0  0  0  0  0
  153.0884  139.0774  159.4724 N   0  0  0  0  0  0  0  0  0  0  0  0
  153.4080  137.8408  160.1752 C   0  0  0  0  0  0  0  0  0  0  0  0
  153.7466  138.1002  161.6527 C   0  0  0  0  0  0  0  0  0  0  0  0
  153.8740  136.8141  162.4455 C   0  0  0  0  0  0  0  0  0  0  0  0
  153.3992  136.6993  163.7701 C   0  0  0  0  0  0  0  0  0  0  0  0
  153.5420  135.4712  164.4492 C   0  0  0  0  0  0  0  0  0  0  0  0
  154.1553  134.3852  163.7906 C   0  0  0  0  0  0  0  0  0  0  0  0
  154.6110  134.5553  162.4673 C   0  0  0  0  0  0  0  0  0  0  0  0
  154.4558  135.7475  161.8503 N   0  3  0  0  0  0  0  0  0  0  0  0
  152.7048  140.8889  157.6736 H   0  0  0  0  0  0  0  0  0  0  0  0
  150.9820  140.6846  157.4861 H   0  0  0  0  0  0  0  0  0  0  0  0
  150.6652  141.6849  159.8031 H   0  0  0  0  0  0  0  0  0  0  0  0
  151.5766  143.2095  157.4312 H   0  0  0  0  0  0  0  0  0  0  0  0
  150.3716  143.6834  158.6235 H   0  0  0  0  0  0  0  0  0  0  0  0
  152.6929  145.0542  158.6227 H   0  0  0  0  0  0  0  0  0  0  0  0
  152.6859  145.1771  161.0916 H   0  0  0  0  0  0  0  0  0  0  0  0
  151.0129  144.7457  160.7338 H   0  0  0  0  0  0  0  0  0  0  0  0
  153.0717  143.1237  162.0664 H   0  0  0  0  0  0  0  0  0  0  0  0
  151.3935  142.6581  161.8015 H   0  0  0  0  0  0  0  0  0  0  0  0
  153.2724  141.2662  160.4494 H   0  0  0  0  0  0  0  0  0  0  0  0
  153.9574  142.7629  158.3874 H   0  0  0  0  0  0  0  0  0  0  0  0
  154.4385  143.5600  159.9009 H   0  0  0  0  0  0  0  0  0  0  0  0
  153.8302  139.7562  159.3781 H   0  0  0  0  0  0  0  0  0  0  0  0
  152.5766  137.1387  160.0911 H   0  0  0  0  0  0  0  0  0  0  0  0
  154.2571  137.3772  159.6723 H   0  0  0  0  0  0  0  0  0  0  0  0
  154.6800  138.6593  161.7314 H   0  0  0  0  0  0  0  0  0  0  0  0
  152.9773  138.7222  162.1121 H   0  0  0  0  0  0  0  0  0  0  0  0
  152.9291  137.5395  164.2606 H   0  0  0  0  0  0  0  0  0  0  0  0
  153.1843  135.3634  165.4627 H   0  0  0  0  0  0  0  0  0  0  0  0
  154.2729  133.4360  164.2928 H   0  0  0  0  0  0  0  0  0  0  0  0
  155.0903  133.7797  161.8879 H   0  0  0  0  0  0  0  0  0  0  0  0
  154.7917  135.8472  160.8922 H   0  0  0  0  0  0  0  0  0  0  0  0
  1  2  2  0  0  0  0
  2  3  1  0  0  0  0
  2 11  1  0  0  0  0
  3  4  1  0  0  0  0
  3 20  1  0  0  0  0
  3 21  1  0  0  0  0
  4  9  1  0  0  0  0
  4  5  1  0  0  0  0
  4 22  1  0  0  0  0
  5  6  1  0  0  0  0
  5 23  1  0  0  0  0
  5 24  1  0  0  0  0
  6 10  1  0  0  0  0
  6  7  1  0  0  0  0
  6 25  1  0  0  0  0
  7  8  1  0  0  0  0
  7 26  1  0  0  0  0
  7 27  1  0  0  0  0
  8  9  1  0  0  0  0
  8 28  1  0  0  0  0
  8 29  1  0  0  0  0
  9 10  1  0  0  0  0
  9 30  1  0  0  0  0
 10 31  1  0  0  0  0
 10 32  1  0  0  0  0
 11 12  1  0  0  0  0
 11 33  1  0  0  0  0
 12 13  1  0  0  0  0
 12 34  1  0  0  0  0
 12 35  1  0  0  0  0
 13 14  1  0  0  0  0
 13 36  1  0  0  0  0
 13 37  1  0  0  0  0
 14 19  1  0  0  0  0
 14 15  2  0  0  0  0
 15 16  1  0  0  0  0
 15 38  1  0  0  0  0
 16 17  2  0  0  0  0
 16 39  1  0  0  0  0
 17 18  1  0  0  0  0
 17 40  1  0  0  0  0
 18 19  2  0  0  0  0
 18 41  1  0  0  0  0
 19 42  1  0  0  0  0
M  CHG  1  19   1
M  END
> <s_m_source_file>
AV-unprocessed.smi

> <i_m_source_file_index>
3263

> <i_lp_mmshare_version>
43012

> <i_f3d_flags>
0

> <s_epik_input>
W0NIMl0xW0NIMl1bQ0BASF0oW0NIMl0yKVtDQEBIXShbQ0gyXVtDQEhdMTIpW0NIMl1DKD1PKVtOSF1bQ0gyXVtDSDJdYzNbY0hdW2NIXVtjSF1bY0hdbjM=

> <s_epik_cmdline>
J2VwaWtfcHl0aG9uJywgJy1waCcsICc3LjAnLCAnLXRuJywgJzgnLCAnLW1hJywgJzIwMCcsICctbWV0YWxfYmluZGluZycsICctaW1hZScsICc8aW5maWxlLm1hZT4nLCAnLW9tYWUnLCAnPG91dGZpbGUubWFlPic=

> <r_epik_Ionization_Penalty>
1.83579

> <r_epik_Ionization_Penalty_Charging>
1.83579

> <r_epik_Ionization_Penalty_Neutral>
2.47288e-08

> <r_epik_State_Penalty>
1.95213

> <r_epik_Charging_Adjusted_Penalty>
3.78793

> <i_epik_Tot_Q>
1

> <i_epik_Tot_abs_Q>
1

> <r_epik_Metal_State_Penalty>
1.97847

> <b_epik_Metal_Only>
0

> <s_lp_Force_Field>
OPLS_2005

> <r_lp_Energy>
51.8999

> <b_lp_Chiralities_Consistent>
1

> <s_lp_Variant>
AV-unprocessed.smi:3263-7

> <Gold.Version>
5.8.1

> <Gold.Id.Protein>
6NUR|6NUR_protein|mol2

> <Gold.PLP.Fitness>
43.3183

> <Gold.PLP.PLP>
-44.5682

> <Gold.PLP.part.hbond>
-0.0204

> <Gold.PLP.part.metal>
0.0000

> <Gold.PLP.part.buried>
-5.4515

> <Gold.PLP.part.nonpolar>
-38.1065

> <Gold.PLP.part.repulsive>
0.1359

> <Gold.PLP.ligand.clash>
0.0000

> <Gold.PLP.ligand.torsion>
0.6478

> <Gold.PLP.Chemscore.Hbond>
0.0000

> <Gold.PLP.Chemscore.CHOScore>
0.0000

> <Gold.PLP.Chemscore.Metal>
0.0000

> <Gold.PLP.Chemscore.Internal.Correction>
0.0458

> <Gold.Rescore>
     Score         DG    S(hbond)    S(metal)    S(lipo)     H(rot)  DE(clash)    DE(int)     intcor
     17.31     -18.23       0.00        0.00     143.19       1.56       0.26       0.66       ----

> <Gold.Chemscore.Fitness>
17.3064

> <Gold.Chemscore.DG>
-18.2294

> <Gold.Chemscore.ZeroCoef>
-5.4800

> <Gold.Chemscore.Hbond>
0.0000

> <Gold.Chemscore.Metal>
0.0000

> <Gold.Chemscore.Lipo>
143.1898

> <Gold.Chemscore.Internal_Hbond>
0.0000

> <Gold.Chemscore.DEClash>
0.2582

> <Gold.Chemscore.DEInternal>
0.6648

> <Gold.Chemscore.Rot>
1.5640

> <Gold.Chemscore.Internal.Correction>
   9.000000E+99

> <Gold.Chemscore.Hbond.Weighted>
-0.0000

> <Gold.Chemscore.Metal.Weighted>
-0.0000

> <Gold.Chemscore.Lipo.Weighted>
-16.7532

> <Gold.Chemscore.Internal_Hbond.Weighted>
0.0000

> <Gold.Chemscore.DEClash.Weighted>
0.2582

> <Gold.Chemscore.DEInternal.Weighted>
0.6648

> <Gold.Chemscore.Rot.Weighted>
4.0038

> <Gold.Chemscore.Internal.Correction.Weighted>
   9.000000E+99

> <Gold.Protein.RotatedTorsions>
[ 6907 6896 6895 6894 ] final  141.17 input  -60.11 | X-H torsion
[ 7974 7965 7964 7962 ] final -142.70 input  175.53 | X-H torsion
[ 8008 7997 7996 7995 ] final   -5.06 input   59.86 | X-H torsion
[ 10167 10162 10161 10158 ] final  -96.39 input  -65.29 | X-H torsion
[ 10718 10713 10712 10709 ] final  -53.17 input   66.30 | X-H torsion
[ 10763 10752 10751 10750 ] final   58.71 input  -60.55 | X-H torsion
[ 11005 11000 10999 10996 ] final  144.32 input  -57.11 | X-H torsion

> <Gold.Protein.ActiveResidues>
 VAL166  LYS551  ARG553  GLY616  TRP617  ASP618  TYR619  PRO620  LYS621  CYS622 
 ASP623  PHE694  ASN695  SER759  ASP760  ASP761  ALA762  ILE779  LEU786  VAL792 
 PHE793  MET794  SER795  GLU796  ALA797  LYS798  CYS799  TRP800  GLU811  SER814 

> <Gold.Protein.RotatedAtoms>
  152.2343  133.5083  159.5233 H   0  0  0  0  0  0  0  0  0  0  0  0  # atno 6907 bound_to 6896
  150.7046  134.1175  159.4031 H   0  0  0  0  0  0  0  0  0  0  0  0  # atno 6908 bound_to 6896
  151.9096  135.0344  160.0564 H   0  0  0  0  0  0  0  0  0  0  0  0  # atno 6909 bound_to 6896
  144.8424  140.5926  143.5443 H   0  0  0  0  0  0  0  0  0  0  0  0  # atno 7974 bound_to 7965
  154.6078  140.2468  155.7708 H   0  0  0  0  0  0  0  0  0  0  0  0  # atno 8008 bound_to 7997
  156.2352  140.2953  156.0244 H   0  0  0  0  0  0  0  0  0  0  0  0  # atno 8009 bound_to 7997
  155.2102  140.0397  157.2922 H   0  0  0  0  0  0  0  0  0  0  0  0  # atno 8010 bound_to 7997
  140.2943  143.3201  152.0313 H   0  0  0  0  0  0  0  0  0  0  0  0  # atno 10167 bound_to 10162
  156.1558  130.4150  149.9872 H   0  0  0  0  0  0  0  0  0  0  0  0  # atno 10718 bound_to 10713
  152.9877  135.5597  154.5596 H   0  0  0  0  0  0  0  0  0  0  0  0  # atno 10763 bound_to 10752
  154.5017  135.2797  155.1417 H   0  0  0  0  0  0  0  0  0  0  0  0  # atno 10764 bound_to 10752
  154.2845  135.6338  153.5413 H   0  0  0  0  0  0  0  0  0  0  0  0  # atno 10765 bound_to 10752
  140.0623  134.9198  157.1205 H   0  0  0  0  0  0  0  0  0  0  0  0  # atno 11005 bound_to 11000
  145.4666  139.1507  143.3837 LP  0  0  0  0  0  0  0  0  0  0  0  0  # atno 17320 bound_to 7965
  146.2714  140.4798  142.8813 LP  0  0  0  0  0  0  0  0  0  0  0  0  # atno 17321 bound_to 7965
  139.4930  144.6502  151.6692 LP  0  0  0  0  0  0  0  0  0  0  0  0  # atno 17342 bound_to 10162
  140.5705  144.0116  150.6214 LP  0  0  0  0  0  0  0  0  0  0  0  0  # atno 17343 bound_to 10162
  156.7716  130.9188  151.3644 LP  0  0  0  0  0  0  0  0  0  0  0  0  # atno 17370 bound_to 10713
  157.6693  130.9037  150.0004 LP  0  0  0  0  0  0  0  0  0  0  0  0  # atno 17371 bound_to 10713
  140.3752  134.2347  155.7175 LP  0  0  0  0  0  0  0  0  0  0  0  0  # atno 17394 bound_to 11000
  141.1978  133.8050  157.0610 LP  0  0  0  0  0  0  0  0  0  0  0  0  # atno 17395 bound_to 11000

$$$$
