AV-unprocessed.smi:3330|AV-procd|sdf|12813|dock5
  -GOLD-   2272019183D 1   1.00000     0.00000
 Structure written by MMmdl.
 37 38  0  0  0  0  0  0  0  0  2 V2000
  151.0846  139.1829  154.8458 C   0  0  0  0  0  0  0  0  0  0  0  0
  150.5943  140.3579  155.7153 C   0  0  2  0  0  0  0  0  0  0  0  0
  151.4636  140.4645  156.8842 N   0  0  0  0  0  0  0  0  0  0  0  0
  151.0983  141.5772  157.7471 C   0  0  0  0  0  0  0  0  0  0  0  0
  152.2518  141.8659  158.7192 C   0  0  0  0  0  0  0  0  0  0  0  0
  151.9496  143.0241  159.5649 N   0  0  0  0  0  0  0  0  0  0  0  0
  151.5154  144.2003  159.1017 C   0  0  0  0  0  0  0  0  0  0  0  0
  151.3073  144.5234  157.9318 O   0  0  0  0  0  0  0  0  0  0  0  0
  151.3022  145.1071  160.2915 C   0  0  0  0  0  0  0  0  0  0  0  0
  151.6661  144.2535  161.3998 N   0  5  0  0  0  0  0  0  0  0  0  0
  152.0320  143.0459  160.9091 C   0  0  0  0  0  0  0  0  0  0  0  0
  152.3943  142.0669  161.5611 O   0  0  0  0  0  0  0  0  0  0  0  0
  149.1295  140.1835  156.2016 C   0  0  2  0  0  0  0  0  0  0  0  0
  148.8641  138.8132  156.8550 C   0  0  0  0  0  0  0  0  0  0  0  0
  148.1811  140.4076  155.1145 N   0  0  0  0  0  0  0  0  0  0  0  0
  148.1017  141.4919  154.2645 C   0  0  0  0  0  0  0  0  0  0  0  0
  147.0790  141.2544  153.3915 C   0  0  0  0  0  0  0  0  0  0  0  0
  146.5883  139.9787  153.7859 C   0  0  0  0  0  0  0  0  0  0  0  0
  147.2477  139.4748  154.8160 N   0  0  0  0  0  0  0  0  0  0  0  0
  150.5194  139.1131  153.9168 H   0  0  0  0  0  0  0  0  0  0  0  0
  150.9840  138.2319  155.3698 H   0  0  0  0  0  0  0  0  0  0  0  0
  152.1306  139.2950  154.5616 H   0  0  0  0  0  0  0  0  0  0  0  0
  150.6545  141.2808  155.1363 H   0  0  0  0  0  0  0  0  0  0  0  0
  152.4295  140.5396  156.5992 H   0  0  0  0  0  0  0  0  0  0  0  0
  150.8812  142.4637  157.1513 H   0  0  0  0  0  0  0  0  0  0  0  0
  150.1951  141.3267  158.3056 H   0  0  0  0  0  0  0  0  0  0  0  0
  152.4437  140.9913  159.3435 H   0  0  0  0  0  0  0  0  0  0  0  0
  153.1754  142.0415  158.1648 H   0  0  0  0  0  0  0  0  0  0  0  0
  151.9350  145.9907  160.2030 H   0  0  0  0  0  0  0  0  0  0  0  0
  150.2634  145.4373  160.3246 H   0  0  0  0  0  0  0  0  0  0  0  0
  148.9280  140.9430  156.9589 H   0  0  0  0  0  0  0  0  0  0  0  0
  149.4241  138.6946  157.7821 H   0  0  0  0  0  0  0  0  0  0  0  0
  149.1381  137.9923  156.1915 H   0  0  0  0  0  0  0  0  0  0  0  0
  147.8089  138.6992  157.1058 H   0  0  0  0  0  0  0  0  0  0  0  0
  148.7757  142.3315  154.3483 H   0  0  0  0  0  0  0  0  0  0  0  0
  146.7377  141.8920  152.5896 H   0  0  0  0  0  0  0  0  0  0  0  0
  145.7784  139.4075  153.3566 H   0  0  0  0  0  0  0  0  0  0  0  0
  1  2  1  0  0  0  0
  1 20  1  0  0  0  0
  1 21  1  0  0  0  0
  1 22  1  0  0  0  0
  2  3  1  0  0  0  0
  2 13  1  0  0  0  0
  2 23  1  0  0  0  0
  3  4  1  0  0  0  0
  3 24  1  0  0  0  0
  4  5  1  0  0  0  0
  4 25  1  0  0  0  0
  4 26  1  0  0  0  0
  5  6  1  0  0  0  0
  5 27  1  0  0  0  0
  5 28  1  0  0  0  0
  6 11  1  0  0  0  0
  6  7  1  0  0  0  0
  7  8  2  0  0  0  0
  7  9  1  0  0  0  0
  9 10  1  0  0  0  0
  9 29  1  0  0  0  0
  9 30  1  0  0  0  0
 10 11  1  0  0  0  0
 11 12  2  0  0  0  0
 13 14  1  0  0  0  0
 13 15  1  0  0  0  0
 13 31  1  0  0  0  0
 14 32  1  0  0  0  0
 14 33  1  0  0  0  0
 14 34  1  0  0  0  0
 15 19  1  0  0  0  0
 15 16  1  0  0  0  0
 16 17  2  0  0  0  0
 16 35  1  0  0  0  0
 17 18  1  0  0  0  0
 17 36  1  0  0  0  0
 18 19  2  0  0  0  0
 18 37  1  0  0  0  0
M  CHG  1  10  -1
M  END
> <s_m_source_file>
AV-unprocessed.smi

> <i_m_source_file_index>
3330

> <i_lp_mmshare_version>
43012

> <i_f3d_flags>
0

> <s_epik_input>
bjFbY0hdW2NIXVtjSF1uMVtDQEBIXShbQ0gzXSlbQ0BIXShbQ0gzXSlbTkhdW0NIMl1bQ0gyXU4yQyg9TylbQ0gyXVtOSF1DMj1P

> <s_epik_cmdline>
J2VwaWtfcHl0aG9uJywgJy1waCcsICc3LjAnLCAnLXRuJywgJzgnLCAnLW1hJywgJzIwMCcsICctbWV0YWxfYmluZGluZycsICctaW1hZScsICc8aW5maWxlLm1hZT4nLCAnLW9tYWUnLCAnPG91dGZpbGUubWFlPic=

> <r_lp_tautomer_probability>
1

> <r_epik_Ionization_Penalty>
8.77477

> <r_epik_Ionization_Penalty_Charging>
6.28461

> <r_epik_Ionization_Penalty_Neutral>
2.49016

> <r_epik_State_Penalty>
8.73376

> <r_epik_Charging_Adjusted_Penalty>
15.0184

> <i_epik_Tot_Q>
-1

> <i_epik_Tot_abs_Q>
1

> <r_epik_Metal_State_Penalty>
4.73175

> <b_epik_Metal_Only>
1

> <s_lp_Force_Field>
OPLS_2005

> <r_lp_Energy>
21.1742

> <b_lp_Chiralities_Consistent>
1

> <s_lp_Variant>
AV-unprocessed.smi:3330-13

> <Gold.Version>
5.8.1

> <Gold.Id.Protein>
6NUR|6NUR_protein|mol2

> <Gold.PLP.Fitness>
43.1904

> <Gold.PLP.PLP>
-37.7823

> <Gold.PLP.part.hbond>
0.0000

> <Gold.PLP.part.metal>
0.0000

> <Gold.PLP.part.buried>
-5.4726

> <Gold.PLP.part.nonpolar>
-32.3467

> <Gold.PLP.part.repulsive>
0.3903

> <Gold.PLP.ligand.clash>
0.0000

> <Gold.PLP.ligand.torsion>
0.3393

> <Gold.PLP.Chemscore.Hbond>
0.0000

> <Gold.PLP.Chemscore.CHOScore>
1.9869

> <Gold.PLP.Chemscore.Metal>
0.0000

> <Gold.Chemscore.Hbonds>
donor molecule, donor type, donor heavy atom, donor atom, acceptor molecule, acceptor atom, score
      L1  C    16    35       P1  8028  0.56
      L1  C    18    37       P1 10175  0.86

> <Gold.PLP.Chemscore.Internal.Correction>
0.1261

> <Gold.Rescore>
     Score         DG    S(hbond)    S(metal)    S(lipo)     H(rot)  DE(clash)    DE(int)     intcor
      7.00      -7.25       0.00        0.00      70.20       2.52       0.03       0.22       ----

> <Gold.Chemscore.Fitness>
6.9975

> <Gold.Chemscore.DG>
-7.2519

> <Gold.Chemscore.ZeroCoef>
-5.4800

> <Gold.Chemscore.Hbond>
0.0000

> <Gold.Chemscore.Metal>
0.0000

> <Gold.Chemscore.Lipo>
70.1959

> <Gold.Chemscore.Internal_Hbond>
0.0000

> <Gold.Chemscore.DEClash>
0.0342

> <Gold.Chemscore.DEInternal>
0.2202

> <Gold.Chemscore.Rot>
2.5160

> <Gold.Chemscore.Internal.Correction>
   9.000000E+99

> <Gold.Chemscore.Hbond.Weighted>
-0.0000

> <Gold.Chemscore.Metal.Weighted>
-0.0000

> <Gold.Chemscore.Lipo.Weighted>
-8.2129

> <Gold.Chemscore.Internal_Hbond.Weighted>
0.0000

> <Gold.Chemscore.DEClash.Weighted>
0.0342

> <Gold.Chemscore.DEInternal.Weighted>
0.2202

> <Gold.Chemscore.Rot.Weighted>
6.4410

> <Gold.Chemscore.Internal.Correction.Weighted>
   9.000000E+99

> <Gold.Protein.RotatedTorsions>
[ 6907 6896 6895 6894 ] final  -14.21 input  -60.11 | X-H torsion
[ 7974 7965 7964 7962 ] final -124.43 input  175.53 | X-H torsion
[ 8008 7997 7996 7995 ] final   84.00 input   59.86 | X-H torsion
[ 10167 10162 10161 10158 ] final -126.54 input  -65.29 | X-H torsion
[ 10718 10713 10712 10709 ] final -155.06 input   66.30 | X-H torsion
[ 10763 10752 10751 10750 ] final    1.65 input  -60.55 | X-H torsion
[ 11005 11000 10999 10996 ] final  -34.62 input  -57.11 | X-H torsion

> <Gold.Protein.ActiveResidues>
 VAL166  LYS551  ARG553  GLY616  TRP617  ASP618  TYR619  PRO620  LYS621  CYS622 
 ASP623  PHE694  ASN695  SER759  ASP760  ASP761  ALA762  ILE779  LEU786  VAL792 
 PHE793  MET794  SER795  GLU796  ALA797  LYS798  CYS799  TRP800  GLU811  SER814 

> <Gold.Protein.RotatedAtoms>
  151.3429  135.0867  159.9376 H   0  0  0  0  0  0  0  0  0  0  0  0  # atno 6907 bound_to 6896
  152.5207  133.9429  159.7645 H   0  0  0  0  0  0  0  0  0  0  0  0  # atno 6908 bound_to 6896
  150.9789  133.6212  159.2755 H   0  0  0  0  0  0  0  0  0  0  0  0  # atno 6909 bound_to 6896
  145.0082  140.7882  143.4455 H   0  0  0  0  0  0  0  0  0  0  0  0  # atno 7974 bound_to 7965
  155.9313  140.3414  155.6251 H   0  0  0  0  0  0  0  0  0  0  0  0  # atno 8008 bound_to 7997
  155.7154  140.0777  157.2372 H   0  0  0  0  0  0  0  0  0  0  0  0  # atno 8009 bound_to 7997
  154.4085  140.1615  156.2330 H   0  0  0  0  0  0  0  0  0  0  0  0  # atno 8010 bound_to 7997
  139.9703  143.5852  152.2415 H   0  0  0  0  0  0  0  0  0  0  0  0  # atno 10167 bound_to 10162
  156.5078  130.8421  151.2634 H   0  0  0  0  0  0  0  0  0  0  0  0  # atno 10718 bound_to 10713
  153.3054  135.6959  153.7164 H   0  0  0  0  0  0  0  0  0  0  0  0  # atno 10763 bound_to 10752
  153.6062  135.3453  155.2963 H   0  0  0  0  0  0  0  0  0  0  0  0  # atno 10764 bound_to 10752
  154.8561  135.4352  154.2177 H   0  0  0  0  0  0  0  0  0  0  0  0  # atno 10765 bound_to 10752
  140.9731  133.7098  156.1557 H   0  0  0  0  0  0  0  0  0  0  0  0  # atno 11005 bound_to 11000
  145.2059  139.2228  143.5168 LP  0  0  0  0  0  0  0  0  0  0  0  0  # atno 17320 bound_to 7965
  146.3465  140.1887  142.8589 LP  0  0  0  0  0  0  0  0  0  0  0  0  # atno 17321 bound_to 7965
  139.6486  144.7659  151.2193 LP  0  0  0  0  0  0  0  0  0  0  0  0  # atno 17342 bound_to 10162
  140.7524  143.6198  150.8524 LP  0  0  0  0  0  0  0  0  0  0  0  0  # atno 17343 bound_to 10162
  157.7454  130.9960  150.2763 LP  0  0  0  0  0  0  0  0  0  0  0  0  # atno 17370 bound_to 10713
  156.3270  130.3794  149.7524 LP  0  0  0  0  0  0  0  0  0  0  0  0  # atno 17371 bound_to 10713
  140.7299  134.4265  157.5567 LP  0  0  0  0  0  0  0  0  0  0  0  0  # atno 17394 bound_to 11000
  139.8920  134.8766  156.2293 LP  0  0  0  0  0  0  0  0  0  0  0  0  # atno 17395 bound_to 11000

$$$$
