AV-unprocessed.smi:178|AV-procd|sdf|1448|dock9
  -GOLD-   2262019243D 1   1.00000     0.00000
 Structure written by MMmdl.
 50 52  0  0  0  0  0  0  0  0  1 V2000
  151.9198  145.1041  159.0691 C   0  0  0  0  0  0  0  0  0  0  0  0
  151.8807  144.1645  160.1313 O   0  0  0  0  0  0  0  0  0  0  0  0
  152.2542  142.8417  159.7627 C   0  0  0  0  0  0  0  0  0  0  0  0
  151.7090  142.4103  158.3822 C   0  0  0  0  0  0  0  0  0  0  0  0
  151.7681  140.9678  158.1398 N   0  0  0  0  0  0  0  0  0  0  0  0
  153.0197  140.3271  158.5377 C   0  0  0  0  0  0  0  0  0  0  0  0
  152.8145  138.9842  159.2568 C   0  0  0  0  0  0  0  0  0  0  0  0
  152.9951  137.8357  158.3569 C   0  0  0  0  0  0  0  0  0  0  0  0
  153.1373  136.9323  157.6483 N   0  0  0  0  0  0  0  0  0  0  0  0
  151.3656  140.6121  156.8991 C   0  0  0  0  0  0  0  0  0  0  0  0
  152.1933  139.8098  156.1854 N   0  0  0  0  0  0  0  0  0  0  0  0
  151.8345  139.3993  154.9653 C   0  0  0  0  0  0  0  0  0  0  0  0
  150.7154  139.6680  154.2889 N   0  0  0  0  0  0  0  0  0  0  0  0
  149.8848  140.4802  155.0043 C   0  0  0  0  0  0  0  0  0  0  0  0
  150.1328  141.0022  156.3040 C   0  0  0  0  0  0  0  0  0  0  0  0
  149.0660  141.7947  156.7097 N   0  0  0  0  0  0  0  0  0  0  0  0
  148.2305  141.7377  155.7088 C   0  0  0  0  0  0  0  0  0  0  0  0
  148.6375  140.9612  154.6471 N   0  0  0  0  0  0  0  0  0  0  0  0
  147.9027  140.7128  153.4162 C   0  0  0  0  0  0  0  0  0  0  0  0
  147.5708  139.2139  153.1923 C   0  0  2  0  0  0  0  0  0  0  0  0
  148.7955  138.5232  153.0062 O   0  0  0  0  0  0  0  0  0  0  0  0
  146.6977  138.9526  151.9689 C   0  0  0  0  0  0  0  0  0  0  0  0
  145.9898  137.6557  152.3296 C   0  0  0  0  0  0  0  0  0  0  0  0
  145.7024  137.8328  153.7057 O   0  0  0  0  0  0  0  0  0  0  0  0
  146.7972  138.4967  154.3345 C   0  0  2  0  0  0  0  0  0  0  0  0
  146.2135  139.3905  155.4399 C   0  0  0  0  0  0  0  0  0  0  0  0
  151.6515  146.0893  159.4503 H   0  0  0  0  0  0  0  0  0  0  0  0
  151.2145  144.8559  158.2767 H   0  0  0  0  0  0  0  0  0  0  0  0
  152.9198  145.1728  158.6394 H   0  0  0  0  0  0  0  0  0  0  0  0
  153.3418  142.7572  159.7778 H   0  0  0  0  0  0  0  0  0  0  0  0
  151.8892  142.1555  160.5277 H   0  0  0  0  0  0  0  0  0  0  0  0
  150.7002  142.7857  158.2141 H   0  0  0  0  0  0  0  0  0  0  0  0
  152.3282  142.8859  157.6209 H   0  0  0  0  0  0  0  0  0  0  0  0
  153.6581  140.1883  157.6643 H   0  0  0  0  0  0  0  0  0  0  0  0
  153.5560  141.0035  159.2040 H   0  0  0  0  0  0  0  0  0  0  0  0
  153.5244  138.8781  160.0773 H   0  0  0  0  0  0  0  0  0  0  0  0
  151.8124  138.9109  159.6798 H   0  0  0  0  0  0  0  0  0  0  0  0
  152.5434  138.7598  154.4605 H   0  0  0  0  0  0  0  0  0  0  0  0
  147.2827  142.2563  155.7205 H   0  0  0  0  0  0  0  0  0  0  0  0
  146.9881  141.3069  153.4391 H   0  0  0  0  0  0  0  0  0  0  0  0
  148.5019  141.1006  152.5923 H   0  0  0  0  0  0  0  0  0  0  0  0
  149.3145  139.0005  152.3769 H   0  0  0  0  0  0  0  0  0  0  0  0
  145.9515  139.7412  151.8652 H   0  0  0  0  0  0  0  0  0  0  0  0
  147.2536  138.8951  151.0319 H   0  0  0  0  0  0  0  0  0  0  0  0
  145.0834  137.4918  151.7465 H   0  0  0  0  0  0  0  0  0  0  0  0
  146.6483  136.7958  152.1973 H   0  0  0  0  0  0  0  0  0  0  0  0
  147.4256  137.7373  154.8035 H   0  0  0  0  0  0  0  0  0  0  0  0
  146.9975  139.9249  155.9766 H   0  0  0  0  0  0  0  0  0  0  0  0
  145.6694  138.7915  156.1706 H   0  0  0  0  0  0  0  0  0  0  0  0
  145.5148  140.1229  155.0346 H   0  0  0  0  0  0  0  0  0  0  0  0
  1  2  1  0  0  0  0
  1 27  1  0  0  0  0
  1 28  1  0  0  0  0
  1 29  1  0  0  0  0
  2  3  1  0  0  0  0
  3  4  1  0  0  0  0
  3 30  1  0  0  0  0
  3 31  1  0  0  0  0
  4  5  1  0  0  0  0
  4 32  1  0  0  0  0
  4 33  1  0  0  0  0
  5  6  1  0  0  0  0
  5 10  1  0  0  0  0
  6  7  1  0  0  0  0
  6 34  1  0  0  0  0
  6 35  1  0  0  0  0
  7  8  1  0  0  0  0
  7 36  1  0  0  0  0
  7 37  1  0  0  0  0
  8  9  3  0  0  0  0
 10 15  1  0  0  0  0
 10 11  2  0  0  0  0
 11 12  1  0  0  0  0
 12 13  2  0  0  0  0
 12 38  1  0  0  0  0
 13 14  1  0  0  0  0
 14 18  1  0  0  0  0
 14 15  2  0  0  0  0
 15 16  1  0  0  0  0
 16 17  2  0  0  0  0
 17 18  1  0  0  0  0
 17 39  1  0  0  0  0
 18 19  1  0  0  0  0
 19 20  1  0  0  0  0
 19 40  1  0  0  0  0
 19 41  1  0  0  0  0
 20 25  1  0  0  0  0
 20 21  1  0  0  0  0
 20 22  1  0  0  0  0
 21 42  1  0  0  0  0
 22 23  1  0  0  0  0
 22 43  1  0  0  0  0
 22 44  1  0  0  0  0
 23 24  1  0  0  0  0
 23 45  1  0  0  0  0
 23 46  1  0  0  0  0
 24 25  1  0  0  0  0
 25 26  1  0  0  0  0
 25 47  1  0  0  0  0
 26 48  1  0  0  0  0
 26 49  1  0  0  0  0
 26 50  1  0  0  0  0
M  END
> <s_m_source_file>
AV-unprocessed.smi

> <i_m_source_file_index>
178

> <i_lp_mmshare_version>
43012

> <i_f3d_flags>
0

> <s_epik_input>
W0NIM11PW0NIMl1bQ0gyXU4oW0NIMl1bQ0gyXUMjTiljKG5bY0hdbjEpYyhjMTIpbltjSF1uMltDSDJdW0NAQF0zKFtPSF0pW0NIMl1bQ0gyXU9bQ0BIXTNbQ0gzXQ==

> <s_epik_cmdline>
J2VwaWtfcHl0aG9uJywgJy1waCcsICc3LjAnLCAnLXRuJywgJzgnLCAnLW1hJywgJzIwMCcsICctbWV0YWxfYmluZGluZycsICctaW1hZScsICc8aW5maWxlLm1hZT4nLCAnLW9tYWUnLCAnPG91dGZpbGUubWFlPic=

> <r_lp_tautomer_probability>
1

> <r_epik_Ionization_Penalty>
0.000885317

> <r_epik_Ionization_Penalty_Charging>
0

> <r_epik_Ionization_Penalty_Neutral>
0.000885317

> <r_epik_State_Penalty>
0.00047273

> <r_epik_Charging_Adjusted_Penalty>
0.00047273

> <i_epik_Tot_Q>
0

> <i_epik_Tot_abs_Q>
0

> <r_epik_Metal_State_Penalty>
-0

> <b_epik_Metal_Only>
0

> <s_lp_Force_Field>
OPLS_2005

> <r_lp_Energy>
31.3349

> <b_lp_Chiralities_Consistent>
1

> <s_lp_Variant>
AV-unprocessed.smi:178-4

> <Gold.Version>
5.8.1

> <Gold.Id.Protein>
6NUR|6NUR_protein|mol2

> <Gold.PLP.Fitness>
44.6116

> <Gold.PLP.PLP>
-41.6609

> <Gold.PLP.part.hbond>
-3.1955

> <Gold.PLP.part.metal>
0.0000

> <Gold.PLP.part.buried>
-0.2965

> <Gold.PLP.part.nonpolar>
-39.6977

> <Gold.PLP.part.repulsive>
1.1868

> <Gold.PLP.ligand.clash>
0.0000

> <Gold.PLP.ligand.torsion>
1.0968

> <Gold.PLP.Chemscore.Hbond>
1.4120

> <Gold.PLP.Chemscore.CHOScore>
0.1704

> <Gold.PLP.Chemscore.Metal>
0.0000

> <Gold.Chemscore.Hbonds>
donor molecule, donor type, donor heavy atom, donor atom, acceptor molecule, acceptor atom, score
      L1  H    21    42       P1  7957  1.00
      P1  H  7989  7998       L1    13  0.29
      L1  C    17    39       P1  8028  0.01

> <Gold.PLP.Chemscore.Internal.Correction>
0.3972

> <Gold.Rescore>
     Score         DG    S(hbond)    S(metal)    S(lipo)     H(rot)  DE(clash)    DE(int)     intcor
      7.69     -11.38       1.70        0.00      82.68       3.69       0.51       3.19       ----

> <Gold.Chemscore.Fitness>
7.6872

> <Gold.Chemscore.DG>
-11.3849

> <Gold.Chemscore.ZeroCoef>
-5.4800

> <Gold.Chemscore.Hbond>
1.7017

> <Gold.Chemscore.Metal>
0.0000

> <Gold.Chemscore.Lipo>
82.6819

> <Gold.Chemscore.Internal_Hbond>
0.0000

> <Gold.Chemscore.DEClash>
0.5086

> <Gold.Chemscore.DEInternal>
3.1890

> <Gold.Chemscore.Rot>
3.6923

> <Gold.Chemscore.Internal.Correction>
   9.000000E+99

> <Gold.Chemscore.Hbonds>
donor molecule, donor type, donor heavy atom, donor atom, acceptor molecule, acceptor atom, score
      L1  H    21    42       P1  7957  0.91

> <Gold.Chemscore.Hbond.Weighted>
-5.6835

> <Gold.Chemscore.Metal.Weighted>
-0.0000

> <Gold.Chemscore.Lipo.Weighted>
-9.6738

> <Gold.Chemscore.Internal_Hbond.Weighted>
0.0000

> <Gold.Chemscore.DEClash.Weighted>
0.5086

> <Gold.Chemscore.DEInternal.Weighted>
3.1890

> <Gold.Chemscore.Rot.Weighted>
9.4524

> <Gold.Chemscore.Internal.Correction.Weighted>
   9.000000E+99

> <Gold.Protein.RotatedTorsions>
[ 6907 6896 6895 6894 ] final  164.56 input  -60.11 | X-H torsion
[ 7974 7965 7964 7962 ] final  176.56 input  175.53 | X-H torsion
[ 8008 7997 7996 7995 ] final    1.73 input   59.86 | X-H torsion
[ 10167 10162 10161 10158 ] final   84.27 input  -65.29 | X-H torsion
[ 10718 10713 10712 10709 ] final   41.11 input   66.30 | X-H torsion
[ 10763 10752 10751 10750 ] final   -9.94 input  -60.55 | X-H torsion
[ 11005 11000 10999 10996 ] final    4.13 input  -57.11 | X-H torsion

> <Gold.Protein.ActiveResidues>
 VAL166  LYS551  ARG553  GLY616  TRP617  ASP618  TYR619  PRO620  LYS621  CYS622 
 ASP623  PHE694  ASN695  SER759  ASP760  ASP761  ALA762  ILE779  LEU786  VAL792 
 PHE793  MET794  SER795  GLU796  ALA797  LYS798  CYS799  TRP800  GLU811  SER814 

> <Gold.Protein.RotatedAtoms>
  151.9079  133.3554  159.3853 H   0  0  0  0  0  0  0  0  0  0  0  0  # atno 6907 bound_to 6896
  150.7064  134.4761  159.5458 H   0  0  0  0  0  0  0  0  0  0  0  0  # atno 6908 bound_to 6896
  152.2362  134.8274  160.0517 H   0  0  0  0  0  0  0  0  0  0  0  0  # atno 6909 bound_to 6896
  144.7182  140.0115  143.6440 H   0  0  0  0  0  0  0  0  0  0  0  0  # atno 7974 bound_to 7965
  154.6831  140.2637  155.6888 H   0  0  0  0  0  0  0  0  0  0  0  0  # atno 8008 bound_to 7997
  156.2704  140.2806  156.1306 H   0  0  0  0  0  0  0  0  0  0  0  0  # atno 8009 bound_to 7997
  155.1002  140.0374  157.2685 H   0  0  0  0  0  0  0  0  0  0  0  0  # atno 8010 bound_to 7997
  139.9098  144.6279  150.8549 H   0  0  0  0  0  0  0  0  0  0  0  0  # atno 10167 bound_to 10162
  157.3898  130.7800  149.7260 H   0  0  0  0  0  0  0  0  0  0  0  0  # atno 10718 bound_to 10713
  153.4620  135.7016  153.6044 H   0  0  0  0  0  0  0  0  0  0  0  0  # atno 10763 bound_to 10752
  153.4335  135.3797  155.2185 H   0  0  0  0  0  0  0  0  0  0  0  0  # atno 10764 bound_to 10752
  154.8727  135.3956  154.4047 H   0  0  0  0  0  0  0  0  0  0  0  0  # atno 10765 bound_to 10752
  140.5853  133.9974  155.8065 H   0  0  0  0  0  0  0  0  0  0  0  0  # atno 11005 bound_to 11000
  146.0254  139.3288  143.0787 LP  0  0  0  0  0  0  0  0  0  0  0  0  # atno 17320 bound_to 7965
  145.8517  140.9525  143.0746 LP  0  0  0  0  0  0  0  0  0  0  0  0  # atno 17321 bound_to 7965
  140.7688  143.3374  151.2280 LP  0  0  0  0  0  0  0  0  0  0  0  0  # atno 17342 bound_to 10162
  139.6952  143.9625  152.2879 LP  0  0  0  0  0  0  0  0  0  0  0  0  # atno 17343 bound_to 10162
  155.9795  130.4039  150.3581 LP  0  0  0  0  0  0  0  0  0  0  0  0  # atno 17370 bound_to 10713
  157.1696  131.0365  151.2802 LP  0  0  0  0  0  0  0  0  0  0  0  0  # atno 17371 bound_to 10713
  141.0970  133.9828  157.3144 LP  0  0  0  0  0  0  0  0  0  0  0  0  # atno 17394 bound_to 11000
  139.9298  135.0200  156.8362 LP  0  0  0  0  0  0  0  0  0  0  0  0  # atno 17395 bound_to 11000

$$$$
