AV-unprocessed.smi:224|AV-procd|sdf|1718|dock6
  -GOLD-   2262020193D 1   1.00000     0.00000
 Structure written by MMmdl.
 56 59  0  0  0  0  0  0  0  0  2 V2000
  151.5928  142.4223  159.1000 C   0  0  0  0  0  0  0  0  0  0  0  0
  150.4594  142.9088  158.1847 C   0  0  1  0  0  0  0  0  0  0  0  0
  151.0379  143.4407  157.0118 O   0  0  0  0  0  0  0  0  0  0  0  0
  149.4864  141.7822  157.7782 C   0  0  0  0  0  0  0  0  0  0  0  0
  148.8569  142.0103  156.4453 N   0  3  1  0  0  0  0  0  0  0  0  0
  149.6291  141.3359  155.3621 C   0  0  0  0  0  0  0  0  0  0  0  0
  149.0201  141.5783  153.9717 C   0  0  0  0  0  0  0  0  0  0  0  0
  147.6049  141.2289  153.9513 N   0  0  0  0  0  0  0  0  0  0  0  0
  147.2300  139.9566  153.6500 C   0  0  0  0  0  0  0  0  0  0  0  0
  146.7706  139.6640  152.4040 N   0  0  0  0  0  0  0  0  0  0  0  0
  146.4032  138.4183  152.0911 C   0  0  0  0  0  0  0  0  0  0  0  0
  146.4070  137.3303  152.8620 N   0  0  0  0  0  0  0  0  0  0  0  0
  146.8521  137.6159  154.1186 C   0  0  0  0  0  0  0  0  0  0  0  0
  147.2829  138.8883  154.5913 C   0  0  0  0  0  0  0  0  0  0  0  0
  147.6570  138.7914  155.9266 N   0  0  0  0  0  0  0  0  0  0  0  0
  147.4647  137.5351  156.2233 C   0  0  0  0  0  0  0  0  0  0  0  0
  146.9738  136.7589  155.1984 N   0  0  0  0  0  0  0  0  0  0  0  0
  146.6563  135.3402  155.2584 C   0  0  0  0  0  0  0  0  0  0  0  0
  147.5447  134.4756  154.3337 C   0  0  1  0  0  0  0  0  0  0  0  0
  147.2962  134.8410  152.9867 O   0  0  0  0  0  0  0  0  0  0  0  0
  149.0409  134.6055  154.6020 C   0  0  0  0  0  0  0  0  0  0  0  0
  149.5727  133.2327  154.2158 C   0  0  0  0  0  0  0  0  0  0  0  0
  148.5672  132.3614  154.7051 O   0  0  0  0  0  0  0  0  0  0  0  0
  147.2945  132.9614  154.4819 C   0  0  0  0  0  0  0  0  0  0  0  0
  146.8254  141.9192  154.9706 C   0  0  0  0  0  0  0  0  0  0  0  0
  147.3939  141.6852  156.3892 C   0  0  2  0  0  0  0  0  0  0  0  0
  146.5529  142.5147  157.3819 C   0  0  0  0  0  0  0  0  0  0  0  0
  151.2025  142.0387  160.0429 H   0  0  0  0  0  0  0  0  0  0  0  0
  152.2799  143.2348  159.3393 H   0  0  0  0  0  0  0  0  0  0  0  0
  152.1707  141.6252  158.6308 H   0  0  0  0  0  0  0  0  0  0  0  0
  149.9297  143.7281  158.6686 H   0  0  0  0  0  0  0  0  0  0  0  0
  150.3483  143.7458  156.4416 H   0  0  0  0  0  0  0  0  0  0  0  0
  149.9990  140.8186  157.7696 H   0  0  0  0  0  0  0  0  0  0  0  0
  148.7411  141.7087  158.5659 H   0  0  0  0  0  0  0  0  0  0  0  0
  150.6592  141.6875  155.3474 H   0  0  0  0  0  0  0  0  0  0  0  0
  149.6714  140.2655  155.5677 H   0  0  0  0  0  0  0  0  0  0  0  0
  149.1124  142.6332  153.7110 H   0  0  0  0  0  0  0  0  0  0  0  0
  149.5702  141.0294  153.2059 H   0  0  0  0  0  0  0  0  0  0  0  0
  146.0557  138.2722  151.0790 H   0  0  0  0  0  0  0  0  0  0  0  0
  147.6666  137.1386  157.2081 H   0  0  0  0  0  0  0  0  0  0  0  0
  146.7575  135.0105  156.2931 H   0  0  0  0  0  0  0  0  0  0  0  0
  145.6044  135.2122  154.9994 H   0  0  0  0  0  0  0  0  0  0  0  0
  147.9101  135.5165  152.7421 H   0  0  0  0  0  0  0  0  0  0  0  0
  149.5185  135.4236  154.0611 H   0  0  0  0  0  0  0  0  0  0  0  0
  149.2218  134.7604  155.6660 H   0  0  0  0  0  0  0  0  0  0  0  0
  149.6538  133.1322  153.1324 H   0  0  0  0  0  0  0  0  0  0  0  0
  150.5450  133.0154  154.6584 H   0  0  0  0  0  0  0  0  0  0  0  0
  146.6449  132.7304  155.3268 H   0  0  0  0  0  0  0  0  0  0  0  0
  146.8346  132.5303  153.5910 H   0  0  0  0  0  0  0  0  0  0  0  0
  146.8388  142.9848  154.7377 H   0  0  0  0  0  0  0  0  0  0  0  0
  145.7784  141.6210  154.9434 H   0  0  0  0  0  0  0  0  0  0  0  0
  147.2750  140.6280  156.6334 H   0  0  0  0  0  0  0  0  0  0  0  0
  145.4874  142.3830  157.1899 H   0  0  0  0  0  0  0  0  0  0  0  0
  146.7705  143.5798  157.2942 H   0  0  0  0  0  0  0  0  0  0  0  0
  146.7059  142.2192  158.4185 H   0  0  0  0  0  0  0  0  0  0  0  0
  148.9193  143.0024  156.2676 H   0  0  0  0  0  0  0  0  0  0  0  0
  1  2  1  0  0  0  0
  1 28  1  0  0  0  0
  1 29  1  0  0  0  0
  1 30  1  0  0  0  0
  2  3  1  0  0  0  0
  2  4  1  0  0  0  0
  2 31  1  0  0  0  0
  3 32  1  0  0  0  0
  4  5  1  0  0  0  0
  4 33  1  0  0  0  0
  4 34  1  0  0  0  0
  5 26  1  0  0  0  0
  5  6  1  0  0  0  0
  5 56  1  0  0  0  0
  6  7  1  0  0  0  0
  6 35  1  0  0  0  0
  6 36  1  0  0  0  0
  7  8  1  0  0  0  0
  7 37  1  0  0  0  0
  7 38  1  0  0  0  0
  8  9  1  0  0  0  0
  8 25  1  0  0  0  0
  9 14  1  0  0  0  0
  9 10  2  0  0  0  0
 10 11  1  0  0  0  0
 11 12  2  0  0  0  0
 11 39  1  0  0  0  0
 12 13  1  0  0  0  0
 13 17  1  0  0  0  0
 13 14  2  0  0  0  0
 14 15  1  0  0  0  0
 15 16  2  0  0  0  0
 16 17  1  0  0  0  0
 16 40  1  0  0  0  0
 17 18  1  0  0  0  0
 18 19  1  0  0  0  0
 18 41  1  0  0  0  0
 18 42  1  0  0  0  0
 19 24  1  0  0  0  0
 19 20  1  0  0  0  0
 19 21  1  0  0  0  0
 20 43  1  0  0  0  0
 21 22  1  0  0  0  0
 21 44  1  0  0  0  0
 21 45  1  0  0  0  0
 22 23  1  0  0  0  0
 22 46  1  0  0  0  0
 22 47  1  0  0  0  0
 23 24  1  0  0  0  0
 24 48  1  0  0  0  0
 24 49  1  0  0  0  0
 25 26  1  0  0  0  0
 25 50  1  0  0  0  0
 25 51  1  0  0  0  0
 26 27  1  0  0  0  0
 26 52  1  0  0  0  0
 27 53  1  0  0  0  0
 27 54  1  0  0  0  0
 27 55  1  0  0  0  0
M  CHG  1   5   1
M  END
> <s_m_source_file>
AV-unprocessed.smi

> <i_m_source_file_index>
224

> <i_lp_mmshare_version>
43012

> <i_f3d_flags>
0

> <s_epik_input>
W0NIM11bQ0BIXShbT0hdKVtDSDJdTjFbQ0gyXVtDSDJdTihbQ0gyXVtDQEhdMVtDSDNdKWMobltjSF1uMiljKGMyMyluW2NIXW4zW0NIMl1bQ0BAXTQoW09IXSlbQ0gyXVtDSDJdT1tDSDJdNA==

> <s_epik_cmdline>
J2VwaWtfcHl0aG9uJywgJy1waCcsICc3LjAnLCAnLXRuJywgJzgnLCAnLW1hJywgJzIwMCcsICctbWV0YWxfYmluZGluZycsICctaW1hZScsICc8aW5maWxlLm1hZT4nLCAnLW9tYWUnLCAnPG91dGZpbGUubWFlPic=

> <r_lp_tautomer_probability>
1

> <r_epik_Ionization_Penalty>
0.00516958

> <r_epik_Ionization_Penalty_Charging>
0.00509693

> <r_epik_Ionization_Penalty_Neutral>
7.26542e-05

> <r_epik_State_Penalty>
-0

> <r_epik_Charging_Adjusted_Penalty>
0.00509693

> <i_epik_Tot_Q>
1

> <i_epik_Tot_abs_Q>
1

> <r_epik_Metal_State_Penalty>
-0

> <b_epik_Metal_Only>
0

> <s_lp_Force_Field>
OPLS_2005

> <r_lp_Energy>
49.0033

> <b_lp_Chiralities_Consistent>
1

> <s_lp_Variant>
AV-unprocessed.smi:224-12

> <Gold.Version>
5.8.1

> <Gold.Id.Protein>
6NUR|6NUR_protein|mol2

> <Gold.PLP.Fitness>
42.2355

> <Gold.PLP.PLP>
-29.1114

> <Gold.PLP.part.hbond>
-2.7324

> <Gold.PLP.part.metal>
0.0000

> <Gold.PLP.part.buried>
-3.7176

> <Gold.PLP.part.nonpolar>
-25.2111

> <Gold.PLP.part.repulsive>
1.9869

> <Gold.PLP.ligand.clash>
0.0000

> <Gold.PLP.ligand.torsion>
1.1915

> <Gold.PLP.Chemscore.Hbond>
4.0000

> <Gold.PLP.Chemscore.CHOScore>
1.0000

> <Gold.PLP.Chemscore.Metal>
0.0000

> <Gold.Chemscore.Hbonds>
donor molecule, donor type, donor heavy atom, donor atom, acceptor molecule, acceptor atom, score
      L1  H     3    32       P1  8028  1.00
      L1  H     5    56       P1  8028  2.00
      L1  H    20    43       P1  7948  0.99
      L1  C    11    39       P1 10171  0.99

> <Gold.PLP.Chemscore.Internal.Correction>
0.5071

> <Gold.Rescore>
     Score         DG    S(hbond)    S(metal)    S(lipo)     H(rot)  DE(clash)    DE(int)     intcor
      9.00     -14.03       2.97        0.00      61.71       3.36       1.14       3.89       ----

> <Gold.Chemscore.Fitness>
8.9959

> <Gold.Chemscore.DG>
-14.0260

> <Gold.Chemscore.ZeroCoef>
-5.4800

> <Gold.Chemscore.Hbond>
2.9733

> <Gold.Chemscore.Metal>
0.0000

> <Gold.Chemscore.Lipo>
61.7057

> <Gold.Chemscore.Internal_Hbond>
0.0000

> <Gold.Chemscore.DEClash>
1.1404

> <Gold.Chemscore.DEInternal>
3.8897

> <Gold.Chemscore.Rot>
3.3611

> <Gold.Chemscore.Internal.Correction>
   9.000000E+99

> <Gold.Chemscore.Hbonds>
donor molecule, donor type, donor heavy atom, donor atom, acceptor molecule, acceptor atom, score
      L1  H     3    32       P1  8028  1.00
      L1  H     5    56       P1  8028  1.00
      L1  H    20    43       P1  7948  0.91

> <Gold.Chemscore.Hbond.Weighted>
-9.9310

> <Gold.Chemscore.Metal.Weighted>
-0.0000

> <Gold.Chemscore.Lipo.Weighted>
-7.2196

> <Gold.Chemscore.Internal_Hbond.Weighted>
0.0000

> <Gold.Chemscore.DEClash.Weighted>
1.1404

> <Gold.Chemscore.DEInternal.Weighted>
3.8897

> <Gold.Chemscore.Rot.Weighted>
8.6045

> <Gold.Chemscore.Internal.Correction.Weighted>
   9.000000E+99

> <Gold.Protein.RotatedTorsions>
[ 6907 6896 6895 6894 ] final -154.74 input  -60.11 | X-H torsion
[ 7974 7965 7964 7962 ] final  159.94 input  175.53 | X-H torsion
[ 8008 7997 7996 7995 ] final -105.76 input   59.86 | X-H torsion
[ 10167 10162 10161 10158 ] final -150.53 input  -65.29 | X-H torsion
[ 10718 10713 10712 10709 ] final  -50.65 input   66.30 | X-H torsion
[ 10763 10752 10751 10750 ] final -178.33 input  -60.55 | X-H torsion
[ 11005 11000 10999 10996 ] final   12.56 input  -57.11 | X-H torsion

> <Gold.Protein.ActiveResidues>
 VAL166  LYS551  ARG553  GLY616  TRP617  ASP618  TYR619  PRO620  LYS621  CYS622 
 ASP623  PHE694  ASN695  SER759  ASP760  ASP761  ALA762  ILE779  LEU786  VAL792 
 PHE793  MET794  SER795  GLU796  ALA797  LYS798  CYS799  TRP800  GLU811  SER814 

> <Gold.Protein.RotatedAtoms>
  151.2620  133.4297  159.2616 H   0  0  0  0  0  0  0  0  0  0  0  0  # atno 6907 bound_to 6896
  151.0522  134.9681  159.8227 H   0  0  0  0  0  0  0  0  0  0  0  0  # atno 6908 bound_to 6896
  152.5384  134.2574  159.8975 H   0  0  0  0  0  0  0  0  0  0  0  0  # atno 6909 bound_to 6896
  144.7763  139.7687  143.6277 H   0  0  0  0  0  0  0  0  0  0  0  0  # atno 7974 bound_to 7965
  154.9045  140.0412  157.1912 H   0  0  0  0  0  0  0  0  0  0  0  0  # atno 8008 bound_to 7997
  154.8410  140.2914  155.5638 H   0  0  0  0  0  0  0  0  0  0  0  0  # atno 8009 bound_to 7997
  156.2992  140.2483  156.3352 H   0  0  0  0  0  0  0  0  0  0  0  0  # atno 8010 bound_to 7997
  139.7346  143.8756  152.2545 H   0  0  0  0  0  0  0  0  0  0  0  0  # atno 10167 bound_to 10162
  156.1782  130.4150  149.9546 H   0  0  0  0  0  0  0  0  0  0  0  0  # atno 10718 bound_to 10713
  154.5490  135.2811  155.1026 H   0  0  0  0  0  0  0  0  0  0  0  0  # atno 10763 bound_to 10752
  154.2479  135.6345  153.5234 H   0  0  0  0  0  0  0  0  0  0  0  0  # atno 10764 bound_to 10752
  152.9998  135.5576  154.6050 H   0  0  0  0  0  0  0  0  0  0  0  0  # atno 10765 bound_to 10752
  140.4906  134.0844  155.7770 H   0  0  0  0  0  0  0  0  0  0  0  0  # atno 11005 bound_to 11000
  146.1944  139.5203  142.9784 LP  0  0  0  0  0  0  0  0  0  0  0  0  # atno 17320 bound_to 7965
  145.6176  141.0328  143.1932 LP  0  0  0  0  0  0  0  0  0  0  0  0  # atno 17321 bound_to 7965
  139.8689  144.7079  150.9011 LP  0  0  0  0  0  0  0  0  0  0  0  0  # atno 17342 bound_to 10162
  140.7777  143.3755  151.1571 LP  0  0  0  0  0  0  0  0  0  0  0  0  # atno 17343 bound_to 10162
  156.7325  130.9049  151.3627 LP  0  0  0  0  0  0  0  0  0  0  0  0  # atno 17370 bound_to 10713
  157.6850  130.9176  150.0363 LP  0  0  0  0  0  0  0  0  0  0  0  0  # atno 17371 bound_to 10713
  141.1486  133.9010  157.2154 LP  0  0  0  0  0  0  0  0  0  0  0  0  # atno 17394 bound_to 11000
  139.9772  135.0110  156.9660 LP  0  0  0  0  0  0  0  0  0  0  0  0  # atno 17395 bound_to 11000

$$$$
