AV-unprocessed.smi:2100|AV-procd|sdf|8577|dock9
  -GOLD-   2272011303D 1   1.00000     0.00000
 Structure written by MMmdl.
 40 41  0  0  0  0  0  0  0  0  2 V2000
  151.1462  143.7666  157.7765 C   0  0  0  0  0  0  0  0  0  0  0  0
  151.3604  142.5917  158.7372 C   0  0  1  0  0  0  0  0  0  0  0  0
  151.8798  141.3381  158.0099 C   0  0  0  0  0  0  0  0  0  0  0  0
  152.2150  140.2707  158.9675 N   0  0  0  0  0  0  0  0  0  0  0  0
  152.4559  138.6635  158.3560 S   0  0  0  0  0  0  0  0  0  0  0  0
  153.0347  138.8145  157.0108 O   0  0  0  0  0  0  0  0  0  0  0  0
  153.2501  137.9507  159.3701 O   0  0  0  0  0  0  0  0  0  0  0  0
  150.8955  138.2244  158.3373 N   0  5  0  0  0  0  0  0  0  0  0  0
  150.3569  137.4844  159.4649 C   0  0  0  0  0  0  0  0  0  0  0  0
  148.9587  136.9355  159.1080 C   0  0  0  0  0  0  0  0  0  0  0  0
  148.1644  136.4157  160.3022 C   0  0  0  0  0  0  0  0  0  0  0  0
  147.7831  135.0562  160.3743 C   0  0  0  0  0  0  0  0  0  0  0  0
  147.0381  134.6219  161.4873 C   0  0  0  0  0  0  0  0  0  0  0  0
  146.6973  135.5571  162.4828 C   0  0  0  0  0  0  0  0  0  0  0  0
  147.1182  136.8917  162.3197 C   0  0  0  0  0  0  0  0  0  0  0  0
  147.8323  137.3194  161.2568 N   0  0  0  0  0  0  0  0  0  0  0  0
  153.0489  140.7214  160.0946 C   0  0  0  0  0  0  0  0  0  0  0  0
  152.4753  142.0015  160.7291 C   0  0  1  0  0  0  0  0  0  0  0  0
  153.4002  142.5727  161.8097 C   0  0  0  0  0  0  0  0  0  0  0  0
  152.2981  142.9935  159.7270 O   0  0  0  0  0  0  0  0  0  0  0  0
  150.4225  143.5125  157.0017 H   0  0  0  0  0  0  0  0  0  0  0  0
  152.0775  144.0496  157.2852 H   0  0  0  0  0  0  0  0  0  0  0  0
  150.7707  144.6411  158.3081 H   0  0  0  0  0  0  0  0  0  0  0  0
  150.4076  142.3642  159.2187 H   0  0  0  0  0  0  0  0  0  0  0  0
  151.1277  140.9804  157.3068 H   0  0  0  0  0  0  0  0  0  0  0  0
  152.7706  141.5804  157.4288 H   0  0  0  0  0  0  0  0  0  0  0  0
  151.0049  136.6513  159.7394 H   0  0  0  0  0  0  0  0  0  0  0  0
  150.2798  138.1104  160.3543 H   0  0  0  0  0  0  0  0  0  0  0  0
  148.3731  137.7127  158.6143 H   0  0  0  0  0  0  0  0  0  0  0  0
  149.0559  136.1269  158.3821 H   0  0  0  0  0  0  0  0  0  0  0  0
  148.0596  134.3616  159.5946 H   0  0  0  0  0  0  0  0  0  0  0  0
  146.7328  133.5897  161.5752 H   0  0  0  0  0  0  0  0  0  0  0  0
  146.1262  135.2594  163.3497 H   0  0  0  0  0  0  0  0  0  0  0  0
  146.8726  137.6362  163.0624 H   0  0  0  0  0  0  0  0  0  0  0  0
  153.1119  139.9335  160.8449 H   0  0  0  0  0  0  0  0  0  0  0  0
  154.0619  140.8999  159.7321 H   0  0  0  0  0  0  0  0  0  0  0  0
  151.5097  141.7792  161.1872 H   0  0  0  0  0  0  0  0  0  0  0  0
  153.5586  141.8513  162.6116 H   0  0  0  0  0  0  0  0  0  0  0  0
  152.9729  143.4729  162.2520 H   0  0  0  0  0  0  0  0  0  0  0  0
  154.3748  142.8346  161.3969 H   0  0  0  0  0  0  0  0  0  0  0  0
  1  2  1  0  0  0  0
  1 21  1  0  0  0  0
  1 22  1  0  0  0  0
  1 23  1  0  0  0  0
  2 20  1  0  0  0  0
  2  3  1  0  0  0  0
  2 24  1  0  0  0  0
  3  4  1  0  0  0  0
  3 25  1  0  0  0  0
  3 26  1  0  0  0  0
  4  5  1  0  0  0  0
  4 17  1  0  0  0  0
  5  6  2  0  0  0  0
  5  7  2  0  0  0  0
  5  8  1  0  0  0  0
  8  9  1  0  0  0  0
  9 10  1  0  0  0  0
  9 27  1  0  0  0  0
  9 28  1  0  0  0  0
 10 11  1  0  0  0  0
 10 29  1  0  0  0  0
 10 30  1  0  0  0  0
 11 16  1  0  0  0  0
 11 12  2  0  0  0  0
 12 13  1  0  0  0  0
 12 31  1  0  0  0  0
 13 14  2  0  0  0  0
 13 32  1  0  0  0  0
 14 15  1  0  0  0  0
 14 33  1  0  0  0  0
 15 16  2  0  0  0  0
 15 34  1  0  0  0  0
 17 18  1  0  0  0  0
 17 35  1  0  0  0  0
 17 36  1  0  0  0  0
 18 19  1  0  0  0  0
 18 20  1  0  0  0  0
 18 37  1  0  0  0  0
 19 38  1  0  0  0  0
 19 39  1  0  0  0  0
 19 40  1  0  0  0  0
M  CHG  1   8  -1
M  END
> <s_m_source_file>
AV-unprocessed.smi

> <i_m_source_file_index>
2100

> <i_lp_mmshare_version>
43012

> <i_f3d_flags>
0

> <s_epik_input>
W0NIM11bQ0BASF0xW0NIMl1OKFtDSDJdW0NASF0oTzEpW0NIM10pUyg9TykoPU8pW05IXVtDSDJdW0NIMl1jMltjSF1bY0hdW2NIXVtjSF1uMg==

> <s_epik_cmdline>
J2VwaWtfcHl0aG9uJywgJy1waCcsICc3LjAnLCAnLXRuJywgJzgnLCAnLW1hJywgJzIwMCcsICctbWV0YWxfYmluZGluZycsICctaW1hZScsICc8aW5maWxlLm1hZT4nLCAnLW9tYWUnLCAnPG91dGZpbGUubWFlPic=

> <r_epik_Ionization_Penalty>
1.27779

> <r_epik_Ionization_Penalty_Charging>
1.20871

> <r_epik_Ionization_Penalty_Neutral>
0.0690773

> <r_epik_State_Penalty>
1.64557

> <r_epik_Charging_Adjusted_Penalty>
2.85428

> <i_epik_Tot_Q>
-1

> <i_epik_Tot_abs_Q>
1

> <r_epik_Metal_State_Penalty>
0.643506

> <b_epik_Metal_Only>
0

> <s_lp_Force_Field>
OPLS_2005

> <r_lp_Energy>
4.91885

> <b_lp_Chiralities_Consistent>
1

> <s_lp_Variant>
AV-unprocessed.smi:2100-5

> <Gold.Version>
5.8.1

> <Gold.Id.Protein>
6NUR|6NUR_protein|mol2

> <Gold.PLP.Fitness>
47.6283

> <Gold.PLP.PLP>
-39.8296

> <Gold.PLP.part.hbond>
-3.0000

> <Gold.PLP.part.metal>
0.0000

> <Gold.PLP.part.buried>
-3.4300

> <Gold.PLP.part.nonpolar>
-32.1655

> <Gold.PLP.part.repulsive>
0.0000

> <Gold.PLP.ligand.clash>
0.0000

> <Gold.PLP.ligand.torsion>
1.6698

> <Gold.PLP.Chemscore.Hbond>
2.6820

> <Gold.PLP.Chemscore.CHOScore>
0.0000

> <Gold.PLP.Chemscore.Metal>
0.0000

> <Gold.Chemscore.Hbonds>
donor molecule, donor type, donor heavy atom, donor atom, acceptor molecule, acceptor atom, score
      P1  H  6931  6943       L1    16  0.93
      P1  H  6934  6947       L1    16  0.75
      P1  H  7997  8010       L1     6  1.00

> <Gold.PLP.Chemscore.Internal.Correction>
3.0925

> <Gold.Rescore>
     Score         DG    S(hbond)    S(metal)    S(lipo)     H(rot)  DE(clash)    DE(int)     intcor
     19.91     -21.77       2.24        0.00     103.91       1.30       0.19       1.66       ----

> <Gold.Chemscore.Fitness>
19.9065

> <Gold.Chemscore.DG>
-21.7654

> <Gold.Chemscore.ZeroCoef>
-5.4800

> <Gold.Chemscore.Hbond>
2.2354

> <Gold.Chemscore.Metal>
0.0000

> <Gold.Chemscore.Lipo>
103.9059

> <Gold.Chemscore.Internal_Hbond>
0.0000

> <Gold.Chemscore.DEClash>
0.1942

> <Gold.Chemscore.DEInternal>
1.6647

> <Gold.Chemscore.Rot>
1.3039

> <Gold.Chemscore.Internal.Correction>
   9.000000E+99

> <Gold.Chemscore.Hbonds>
donor molecule, donor type, donor heavy atom, donor atom, acceptor molecule, acceptor atom, score
      P1  H  6931  6943       L1    16  0.44
      P1  H  6934  6947       L1    16  0.33
      P1  H  7997  8010       L1     6  0.99

> <Gold.Chemscore.Hbond.Weighted>
-7.4663

> <Gold.Chemscore.Metal.Weighted>
-0.0000

> <Gold.Chemscore.Lipo.Weighted>
-12.1570

> <Gold.Chemscore.Internal_Hbond.Weighted>
0.0000

> <Gold.Chemscore.DEClash.Weighted>
0.1942

> <Gold.Chemscore.DEInternal.Weighted>
1.6647

> <Gold.Chemscore.Rot.Weighted>
3.3379

> <Gold.Chemscore.Internal.Correction.Weighted>
   9.000000E+99

> <Gold.Protein.RotatedTorsions>
[ 6907 6896 6895 6894 ] final -160.85 input  -60.11 | X-H torsion
[ 7974 7965 7964 7962 ] final -170.15 input  175.53 | X-H torsion
[ 8008 7997 7996 7995 ] final   61.98 input   59.86 | X-H torsion
[ 10167 10162 10161 10158 ] final -118.43 input  -65.29 | X-H torsion
[ 10718 10713 10712 10709 ] final -172.39 input   66.30 | X-H torsion
[ 10763 10752 10751 10750 ] final -155.60 input  -60.55 | X-H torsion
[ 11005 11000 10999 10996 ] final  -51.76 input  -57.11 | X-H torsion

> <Gold.Protein.ActiveResidues>
 VAL166  LYS551  ARG553  GLY616  TRP617  ASP618  TYR619  PRO620  LYS621  CYS622 
 ASP623  PHE694  ASN695  SER759  ASP760  ASP761  ALA762  ILE779  LEU786  VAL792 
 PHE793  MET794  SER795  GLU796  ALA797  LYS798  CYS799  TRP800  GLU811  SER814 

> <Gold.Protein.RotatedAtoms>
  151.3555  133.3909  159.2684 H   0  0  0  0  0  0  0  0  0  0  0  0  # atno 6907 bound_to 6896
  150.9767  134.9131  159.7831 H   0  0  0  0  0  0  0  0  0  0  0  0  # atno 6908 bound_to 6896
  152.5203  134.3518  159.9306 H   0  0  0  0  0  0  0  0  0  0  0  0  # atno 6909 bound_to 6896
  144.7174  140.2114  143.6327 H   0  0  0  0  0  0  0  0  0  0  0  0  # atno 7974 bound_to 7965
  155.6070  140.3494  155.4611 H   0  0  0  0  0  0  0  0  0  0  0  0  # atno 8008 bound_to 7997
  156.0184  140.1248  157.0407 H   0  0  0  0  0  0  0  0  0  0  0  0  # atno 8009 bound_to 7997
  154.4306  140.1067  156.5915 H   0  0  0  0  0  0  0  0  0  0  0  0  # atno 8010 bound_to 7997
  140.0576  143.4999  152.2049 H   0  0  0  0  0  0  0  0  0  0  0  0  # atno 10167 bound_to 10162
  156.7549  130.9392  151.3116 H   0  0  0  0  0  0  0  0  0  0  0  0  # atno 10718 bound_to 10713
  154.7775  135.3164  154.8061 H   0  0  0  0  0  0  0  0  0  0  0  0  # atno 10763 bound_to 10752
  153.8781  135.6837  153.4773 H   0  0  0  0  0  0  0  0  0  0  0  0  # atno 10764 bound_to 10752
  153.1402  135.4742  154.9420 H   0  0  0  0  0  0  0  0  0  0  0  0  # atno 10765 bound_to 10752
  141.0888  133.6637  156.3925 H   0  0  0  0  0  0  0  0  0  0  0  0  # atno 11005 bound_to 11000
  145.8587  139.2212  143.1729 LP  0  0  0  0  0  0  0  0  0  0  0  0  # atno 17320 bound_to 7965
  146.0193  140.8362  142.9931 LP  0  0  0  0  0  0  0  0  0  0  0  0  # atno 17321 bound_to 7965
  139.5914  144.7551  151.3392 LP  0  0  0  0  0  0  0  0  0  0  0  0  # atno 17342 bound_to 10162
  140.7187  143.7195  150.7706 LP  0  0  0  0  0  0  0  0  0  0  0  0  # atno 17343 bound_to 10162
  157.6761  130.9095  150.0153 LP  0  0  0  0  0  0  0  0  0  0  0  0  # atno 17370 bound_to 10713
  156.1377  130.3642  149.9631 LP  0  0  0  0  0  0  0  0  0  0  0  0  # atno 17371 bound_to 10713
  140.5299  134.6222  157.5346 LP  0  0  0  0  0  0  0  0  0  0  0  0  # atno 17394 bound_to 11000
  139.9711  134.7292  156.0040 LP  0  0  0  0  0  0  0  0  0  0  0  0  # atno 17395 bound_to 11000

$$$$
