AV-unprocessed.smi:2440|AV-procd|sdf|9618|dock7
  -GOLD-   2272013253D 1   1.00000     0.00000
 Structure written by MMmdl.
 53 55  0  0  0  0  0  0  0  0  3 V2000
  153.1022  141.5492  161.3854 C   0  0  0  0  0  0  0  0  0  0  0  0
  152.3052  142.7656  160.9467 C   0  0  0  0  0  0  0  0  0  0  0  0
  152.0925  143.8236  161.8575 C   0  0  0  0  0  0  0  0  0  0  0  0
  151.3841  144.9096  161.4826 N   0  3  0  0  0  0  0  0  0  0  0  0
  150.8481  145.0419  160.2515 C   0  0  0  0  0  0  0  0  0  0  0  0
  151.0238  144.0219  159.2957 C   0  0  0  0  0  0  0  0  0  0  0  0
  151.7741  142.8667  159.6350 C   0  0  0  0  0  0  0  0  0  0  0  0
  151.9754  141.7853  158.7310 N   0  0  0  0  0  0  0  0  0  0  0  0
  151.3987  141.5790  157.5345 C   0  0  0  0  0  0  0  0  0  0  0  0
  150.5905  142.3366  156.9980 O   0  0  0  0  0  0  0  0  0  0  0  0
  151.8329  140.4390  156.9769 N   0  0  0  0  0  0  0  0  0  0  0  0
  151.4194  139.9123  155.6783 C   0  0  2  0  0  0  0  0  0  0  0  0
  149.9167  139.5774  155.7034 C   0  0  0  0  0  0  0  0  0  0  0  0
  149.4865  138.8687  154.4045 C   0  0  0  0  0  0  0  0  0  0  0  0
  150.2747  137.6251  154.1662 N   0  3  2  0  0  0  0  0  0  0  0  0
  149.9690  136.4756  155.0874 C   0  0  0  0  0  0  0  0  0  0  0  0
  150.7087  135.1795  154.6577 C   0  0  0  0  0  0  0  0  0  0  0  0
  150.3632  133.9705  155.5413 C   0  0  0  0  0  0  0  0  0  0  0  0
  148.8538  133.7150  155.5733 C   0  0  0  0  0  0  0  0  0  0  0  0
  148.1156  134.9679  156.0526 C   0  0  0  0  0  0  0  0  0  0  0  0
  148.4457  136.1845  155.1735 C   0  0  0  0  0  0  0  0  0  0  0  0
  151.7180  137.9839  154.0477 C   0  0  0  0  0  0  0  0  0  0  0  0
  152.2492  138.6634  155.3255 C   0  0  0  0  0  0  0  0  0  0  0  0
  153.4332  141.6444  162.4200 H   0  0  0  0  0  0  0  0  0  0  0  0
  153.9867  141.4275  160.7593 H   0  0  0  0  0  0  0  0  0  0  0  0
  152.4963  140.6460  161.3077 H   0  0  0  0  0  0  0  0  0  0  0  0
  152.4639  143.8346  162.8721 H   0  0  0  0  0  0  0  0  0  0  0  0
  150.2928  145.9506  160.0702 H   0  0  0  0  0  0  0  0  0  0  0  0
  150.5683  144.1392  158.3242 H   0  0  0  0  0  0  0  0  0  0  0  0
  152.6921  141.1263  158.9981 H   0  0  0  0  0  0  0  0  0  0  0  0
  152.5045  139.8887  157.4926 H   0  0  0  0  0  0  0  0  0  0  0  0
  151.5798  140.6559  154.8954 H   0  0  0  0  0  0  0  0  0  0  0  0
  149.6812  138.9515  156.5649 H   0  0  0  0  0  0  0  0  0  0  0  0
  149.3381  140.4937  155.8285 H   0  0  0  0  0  0  0  0  0  0  0  0
  148.4136  138.6901  154.3897 H   0  0  0  0  0  0  0  0  0  0  0  0
  149.6579  139.5433  153.5643 H   0  0  0  0  0  0  0  0  0  0  0  0
  150.3095  136.7334  156.0903 H   0  0  0  0  0  0  0  0  0  0  0  0
  150.4717  134.9476  153.6185 H   0  0  0  0  0  0  0  0  0  0  0  0
  151.7885  135.3054  154.7121 H   0  0  0  0  0  0  0  0  0  0  0  0
  150.8801  133.0834  155.1742 H   0  0  0  0  0  0  0  0  0  0  0  0
  150.7273  134.1418  156.5552 H   0  0  0  0  0  0  0  0  0  0  0  0
  148.5032  133.4348  154.5790 H   0  0  0  0  0  0  0  0  0  0  0  0
  148.6303  132.8746  156.2312 H   0  0  0  0  0  0  0  0  0  0  0  0
  147.0401  134.7876  156.0470 H   0  0  0  0  0  0  0  0  0  0  0  0
  148.3871  135.1795  157.0877 H   0  0  0  0  0  0  0  0  0  0  0  0
  147.9083  137.0297  155.6004 H   0  0  0  0  0  0  0  0  0  0  0  0
  148.0428  136.0275  154.1721 H   0  0  0  0  0  0  0  0  0  0  0  0
  152.3364  137.1330  153.7719 H   0  0  0  0  0  0  0  0  0  0  0  0
  151.8248  138.6776  153.2123 H   0  0  0  0  0  0  0  0  0  0  0  0
  153.2933  138.9447  155.1820 H   0  0  0  0  0  0  0  0  0  0  0  0
  152.2397  137.9553  156.1548 H   0  0  0  0  0  0  0  0  0  0  0  0
  149.9982  137.3019  153.2498 H   0  0  0  0  0  0  0  0  0  0  0  0
  151.2435  145.6596  162.1600 H   0  0  0  0  0  0  0  0  0  0  0  0
  1  2  1  0  0  0  0
  1 24  1  0  0  0  0
  1 25  1  0  0  0  0
  1 26  1  0  0  0  0
  2  7  1  0  0  0  0
  2  3  2  0  0  0  0
  3  4  1  0  0  0  0
  3 27  1  0  0  0  0
  4  5  2  0  0  0  0
  4 53  1  0  0  0  0
  5  6  1  0  0  0  0
  5 28  1  0  0  0  0
  6  7  2  0  0  0  0
  6 29  1  0  0  0  0
  7  8  1  0  0  0  0
  8  9  1  0  0  0  0
  8 30  1  0  0  0  0
  9 10  2  0  0  0  0
  9 11  1  0  0  0  0
 11 12  1  0  0  0  0
 11 31  1  0  0  0  0
 12 23  1  0  0  0  0
 12 13  1  0  0  0  0
 12 32  1  0  0  0  0
 13 14  1  0  0  0  0
 13 33  1  0  0  0  0
 13 34  1  0  0  0  0
 14 15  1  0  0  0  0
 14 35  1  0  0  0  0
 14 36  1  0  0  0  0
 15 16  1  0  0  0  0
 15 22  1  0  0  0  0
 15 52  1  0  0  0  0
 16 21  1  0  0  0  0
 16 17  1  0  0  0  0
 16 37  1  0  0  0  0
 17 18  1  0  0  0  0
 17 38  1  0  0  0  0
 17 39  1  0  0  0  0
 18 19  1  0  0  0  0
 18 40  1  0  0  0  0
 18 41  1  0  0  0  0
 19 20  1  0  0  0  0
 19 42  1  0  0  0  0
 19 43  1  0  0  0  0
 20 21  1  0  0  0  0
 20 44  1  0  0  0  0
 20 45  1  0  0  0  0
 21 46  1  0  0  0  0
 21 47  1  0  0  0  0
 22 23  1  0  0  0  0
 22 48  1  0  0  0  0
 22 49  1  0  0  0  0
 23 50  1  0  0  0  0
 23 51  1  0  0  0  0
M  CHG  1   4   1
M  CHG  1  15   1
M  END
> <s_m_source_file>
AV-unprocessed.smi

> <i_m_source_file_index>
2440

> <i_lp_mmshare_version>
43012

> <i_f3d_flags>
0

> <s_epik_input>
W0NIM11jMVtjSF1uW2NIXVtjSF1jMVtOSF1DKD1PKVtOSF1bQ0hdMltDSDJdW0NIMl1OKFtDSDJdW0NIMl0yKVtDSF0zW0NIMl1bQ0gyXVtDSDJdW0NIMl1bQ0gyXTM=

> <s_epik_cmdline>
J2VwaWtfcHl0aG9uJywgJy1waCcsICc3LjAnLCAnLXRuJywgJzgnLCAnLW1hJywgJzIwMCcsICctbWV0YWxfYmluZGluZycsICctaW1hZScsICc8aW5maWxlLm1hZT4nLCAnLW9tYWUnLCAnPG91dGZpbGUubWFlPic=

> <r_epik_Ionization_Penalty>
0.799454

> <r_epik_Ionization_Penalty_Charging>
0.799436

> <r_epik_Ionization_Penalty_Neutral>
1.84398e-05

> <r_epik_State_Penalty>
0.81805

> <r_epik_Charging_Adjusted_Penalty>
1.61749

> <i_epik_Tot_Q>
2

> <i_epik_Tot_abs_Q>
2

> <r_epik_Metal_State_Penalty>
0.955144

> <b_epik_Metal_Only>
0

> <s_lp_Force_Field>
OPLS_2005

> <r_lp_Energy>
43.248

> <b_lp_Chiralities_Consistent>
1

> <s_lp_Variant>
AV-unprocessed.smi:2440-4

> <Gold.Version>
5.8.1

> <Gold.Id.Protein>
6NUR|6NUR_protein|mol2

> <Gold.PLP.Fitness>
51.4729

> <Gold.PLP.PLP>
-45.5954

> <Gold.PLP.part.hbond>
-2.0767

> <Gold.PLP.part.metal>
0.0000

> <Gold.PLP.part.buried>
-6.7577

> <Gold.PLP.part.nonpolar>
-36.7856

> <Gold.PLP.part.repulsive>
0.4923

> <Gold.PLP.ligand.clash>
0.0000

> <Gold.PLP.ligand.torsion>
0.0843

> <Gold.PLP.Chemscore.Hbond>
2.0000

> <Gold.PLP.Chemscore.CHOScore>
0.0000

> <Gold.PLP.Chemscore.Metal>
0.0000

> <Gold.Chemscore.Hbonds>
donor molecule, donor type, donor heavy atom, donor atom, acceptor molecule, acceptor atom, score
      L1  H    15    52       P1  7948  2.00

> <Gold.PLP.Chemscore.Internal.Correction>
0.0461

> <Gold.Rescore>
     Score         DG    S(hbond)    S(metal)    S(lipo)     H(rot)  DE(clash)    DE(int)     intcor
     16.48     -19.58       0.91        0.00     120.58       1.18       0.61       2.49       ----

> <Gold.Chemscore.Fitness>
16.4798

> <Gold.Chemscore.DG>
-19.5806

> <Gold.Chemscore.ZeroCoef>
-5.4800

> <Gold.Chemscore.Hbond>
0.9057

> <Gold.Chemscore.Metal>
0.0000

> <Gold.Chemscore.Lipo>
120.5819

> <Gold.Chemscore.Internal_Hbond>
0.0000

> <Gold.Chemscore.DEClash>
0.6107

> <Gold.Chemscore.DEInternal>
2.4901

> <Gold.Chemscore.Rot>
1.1846

> <Gold.Chemscore.Internal.Correction>
   9.000000E+99

> <Gold.Chemscore.Hbonds>
donor molecule, donor type, donor heavy atom, donor atom, acceptor molecule, acceptor atom, score
      L1  H    15    52       P1  7948  0.25

> <Gold.Chemscore.Hbond.Weighted>
-3.0250

> <Gold.Chemscore.Metal.Weighted>
-0.0000

> <Gold.Chemscore.Lipo.Weighted>
-14.1081

> <Gold.Chemscore.Internal_Hbond.Weighted>
0.0000

> <Gold.Chemscore.DEClash.Weighted>
0.6107

> <Gold.Chemscore.DEInternal.Weighted>
2.4901

> <Gold.Chemscore.Rot.Weighted>
3.0326

> <Gold.Chemscore.Internal.Correction.Weighted>
   9.000000E+99

> <Gold.Protein.RotatedTorsions>
[ 6907 6896 6895 6894 ] final  -85.01 input  -60.11 | X-H torsion
[ 7974 7965 7964 7962 ] final  106.80 input  175.53 | X-H torsion
[ 8008 7997 7996 7995 ] final   73.04 input   59.86 | X-H torsion
[ 10167 10162 10161 10158 ] final -169.51 input  -65.29 | X-H torsion
[ 10718 10713 10712 10709 ] final  -17.25 input   66.30 | X-H torsion
[ 10763 10752 10751 10750 ] final  -61.96 input  -60.55 | X-H torsion
[ 11005 11000 10999 10996 ] final  102.64 input  -57.11 | X-H torsion

> <Gold.Protein.ActiveResidues>
 VAL166  LYS551  ARG553  GLY616  TRP617  ASP618  TYR619  PRO620  LYS621  CYS622 
 ASP623  PHE694  ASN695  SER759  ASP760  ASP761  ALA762  ILE779  LEU786  VAL792 
 PHE793  MET794  SER795  GLU796  ALA797  LYS798  CYS799  TRP800  GLU811  SER814 

> <Gold.Protein.RotatedAtoms>
  150.6872  134.3270  159.4810 H   0  0  0  0  0  0  0  0  0  0  0  0  # atno 6907 bound_to 6896
  152.1139  134.9252  160.0575 H   0  0  0  0  0  0  0  0  0  0  0  0  # atno 6908 bound_to 6896
  152.0484  133.3973  159.4403 H   0  0  0  0  0  0  0  0  0  0  0  0  # atno 6909 bound_to 6896
  145.3020  139.2567  143.3809 H   0  0  0  0  0  0  0  0  0  0  0  0  # atno 7974 bound_to 7965
  155.7778  140.3482  155.5281 H   0  0  0  0  0  0  0  0  0  0  0  0  # atno 8008 bound_to 7997
  155.8759  140.0994  157.1539 H   0  0  0  0  0  0  0  0  0  0  0  0  # atno 8009 bound_to 7997
  154.4021  140.1331  156.4123 H   0  0  0  0  0  0  0  0  0  0  0  0  # atno 8010 bound_to 7997
  139.5918  144.1196  152.1643 H   0  0  0  0  0  0  0  0  0  0  0  0  # atno 10167 bound_to 10162
  156.5761  130.4762  149.6341 H   0  0  0  0  0  0  0  0  0  0  0  0  # atno 10718 bound_to 10713
  154.2926  135.6250  153.5391 H   0  0  0  0  0  0  0  0  0  0  0  0  # atno 10763 bound_to 10752
  152.9850  135.5659  154.5373 H   0  0  0  0  0  0  0  0  0  0  0  0  # atno 10764 bound_to 10752
  154.4987  135.2871  155.1414 H   0  0  0  0  0  0  0  0  0  0  0  0  # atno 10765 bound_to 10752
  139.8779  134.9232  156.5088 H   0  0  0  0  0  0  0  0  0  0  0  0  # atno 11005 bound_to 11000
  146.3149  140.3536  142.8658 LP  0  0  0  0  0  0  0  0  0  0  0  0  # atno 17320 bound_to 7965
  144.9086  140.7730  143.5822 LP  0  0  0  0  0  0  0  0  0  0  0  0  # atno 17321 bound_to 7965
  140.0772  144.5730  150.7148 LP  0  0  0  0  0  0  0  0  0  0  0  0  # atno 17342 bound_to 10162
  140.7179  143.2562  151.4373 LP  0  0  0  0  0  0  0  0  0  0  0  0  # atno 17343 bound_to 10162
  156.2672  130.6996  151.1782 LP  0  0  0  0  0  0  0  0  0  0  0  0  # atno 17370 bound_to 10713
  157.7337  131.0588  150.5563 LP  0  0  0  0  0  0  0  0  0  0  0  0  # atno 17371 bound_to 10713
  140.8535  133.8114  155.9192 LP  0  0  0  0  0  0  0  0  0  0  0  0  # atno 17394 bound_to 11000
  140.9120  134.2248  157.4979 LP  0  0  0  0  0  0  0  0  0  0  0  0  # atno 17395 bound_to 11000

$$$$
