AV-unprocessed.smi:1579|AV-procd|sdf|6357|dock2
  -GOLD-   22720 6583D 1   1.00000     0.00000
 Structure written by MMmdl.
 47 48  0  0  0  0  0  0  0  0  2 V2000
  152.0985  144.1919  160.7615 C   0  0  0  0  0  0  0  0  0  0  0  0
  152.4584  142.8115  160.2815 C   0  0  0  0  0  0  0  0  0  0  0  0
  151.9639  142.4445  159.1448 N   0  0  0  0  0  0  0  0  0  0  0  0
  152.2342  141.2002  158.6117 N   0  0  0  0  0  0  0  0  0  0  0  0
  151.5954  140.9566  157.3129 C   0  0  0  0  0  0  0  0  0  0  0  0
  150.3927  141.8953  157.0708 C   0  0  1  0  0  0  0  0  0  0  0  0
  150.8741  143.0893  156.4852 O   0  0  0  0  0  0  0  0  0  0  0  0
  149.3810  141.2732  156.0867 C   0  0  0  0  0  0  0  0  0  0  0  0
  148.1793  142.1234  155.8854 N   0  3  2  0  0  0  0  0  0  0  0  0
  147.3390  142.2538  157.1058 C   0  0  0  0  0  0  0  0  0  0  0  0
  146.1838  143.2460  156.8820 C   0  0  0  0  0  0  0  0  0  0  0  0
  145.3159  142.8663  155.6685 C   0  0  2  0  0  0  0  0  0  0  0  0
  144.4078  141.6543  155.9412 C   0  0  0  0  0  0  0  0  0  0  0  0
  146.2185  142.6696  154.4371 C   0  0  0  0  0  0  0  0  0  0  0  0
  147.3758  141.6922  154.7126 C   0  0  0  0  0  0  0  0  0  0  0  0
  153.0171  140.2538  159.2046 C   0  0  0  0  0  0  0  0  0  0  0  0
  153.2200  139.1502  158.6954 O   0  0  0  0  0  0  0  0  0  0  0  0
  153.5746  140.6756  160.4915 C   0  0  0  0  0  0  0  0  0  0  0  0
  154.4042  139.7155  161.1453 C   0  0  0  0  0  0  0  0  0  0  0  0
  155.0839  138.9310  161.6576 N   0  0  0  0  0  0  0  0  0  0  0  0
  153.3177  141.8959  161.0255 C   0  0  0  0  0  0  0  0  0  0  0  0
  153.8704  142.3819  162.3584 C   0  0  0  0  0  0  0  0  0  0  0  0
  152.9946  144.7870  160.9387 H   0  0  0  0  0  0  0  0  0  0  0  0
  151.5347  144.1422  161.6933 H   0  0  0  0  0  0  0  0  0  0  0  0
  151.4865  144.7289  160.0353 H   0  0  0  0  0  0  0  0  0  0  0  0
  152.3176  141.0376  156.4975 H   0  0  0  0  0  0  0  0  0  0  0  0
  151.2644  139.9166  157.2849 H   0  0  0  0  0  0  0  0  0  0  0  0
  149.9060  142.1326  158.0158 H   0  0  0  0  0  0  0  0  0  0  0  0
  150.1548  143.6985  156.4098 H   0  0  0  0  0  0  0  0  0  0  0  0
  149.8849  141.1084  155.1327 H   0  0  0  0  0  0  0  0  0  0  0  0
  149.0634  140.2886  156.4337 H   0  0  0  0  0  0  0  0  0  0  0  0
  146.9506  141.2750  157.3904 H   0  0  0  0  0  0  0  0  0  0  0  0
  147.9391  142.6028  157.9451 H   0  0  0  0  0  0  0  0  0  0  0  0
  145.5689  143.3146  157.7801 H   0  0  0  0  0  0  0  0  0  0  0  0
  146.6000  144.2422  156.7253 H   0  0  0  0  0  0  0  0  0  0  0  0
  144.6527  143.7073  155.4610 H   0  0  0  0  0  0  0  0  0  0  0  0
  144.9778  140.7520  156.1612 H   0  0  0  0  0  0  0  0  0  0  0  0
  143.7740  141.4406  155.0803 H   0  0  0  0  0  0  0  0  0  0  0  0
  143.7505  141.8429  156.7905 H   0  0  0  0  0  0  0  0  0  0  0  0
  145.6293  142.3232  153.5874 H   0  0  0  0  0  0  0  0  0  0  0  0
  146.6343  143.6342  154.1420 H   0  0  0  0  0  0  0  0  0  0  0  0
  148.0139  141.6447  153.8293 H   0  0  0  0  0  0  0  0  0  0  0  0
  146.9956  140.6833  154.8792 H   0  0  0  0  0  0  0  0  0  0  0  0
  154.4562  141.6165  162.8664 H   0  0  0  0  0  0  0  0  0  0  0  0
  153.0604  142.6701  163.0287 H   0  0  0  0  0  0  0  0  0  0  0  0
  154.5181  143.2464  162.2098 H   0  0  0  0  0  0  0  0  0  0  0  0
  148.5248  143.0465  155.6629 H   0  0  0  0  0  0  0  0  0  0  0  0
  1  2  1  0  0  0  0
  1 23  1  0  0  0  0
  1 24  1  0  0  0  0
  1 25  1  0  0  0  0
  2 21  1  0  0  0  0
  2  3  2  0  0  0  0
  3  4  1  0  0  0  0
  4  5  1  0  0  0  0
  4 16  1  0  0  0  0
  5  6  1  0  0  0  0
  5 26  1  0  0  0  0
  5 27  1  0  0  0  0
  6  7  1  0  0  0  0
  6  8  1  0  0  0  0
  6 28  1  0  0  0  0
  7 29  1  0  0  0  0
  8  9  1  0  0  0  0
  8 30  1  0  0  0  0
  8 31  1  0  0  0  0
  9 15  1  0  0  0  0
  9 10  1  0  0  0  0
  9 47  1  0  0  0  0
 10 11  1  0  0  0  0
 10 32  1  0  0  0  0
 10 33  1  0  0  0  0
 11 12  1  0  0  0  0
 11 34  1  0  0  0  0
 11 35  1  0  0  0  0
 12 13  1  0  0  0  0
 12 14  1  0  0  0  0
 12 36  1  0  0  0  0
 13 37  1  0  0  0  0
 13 38  1  0  0  0  0
 13 39  1  0  0  0  0
 14 15  1  0  0  0  0
 14 40  1  0  0  0  0
 14 41  1  0  0  0  0
 15 42  1  0  0  0  0
 15 43  1  0  0  0  0
 16 17  2  0  0  0  0
 16 18  1  0  0  0  0
 18 19  1  0  0  0  0
 18 21  2  0  0  0  0
 19 20  3  0  0  0  0
 21 22  1  0  0  0  0
 22 44  1  0  0  0  0
 22 45  1  0  0  0  0
 22 46  1  0  0  0  0
M  CHG  1   9   1
M  END
> <s_m_source_file>
AV-unprocessed.smi

> <i_m_source_file_index>
1579

> <i_lp_mmshare_version>
43012

> <i_f3d_flags>
0

> <s_epik_input>
TiNDYyhjMVtDSDNdKWMoPU8pbihuYzFbQ0gzXSlbQ0gyXVtDQEhdKFtPSF0pW0NIMl1OMltDSDJdW0NIMl1bQ0hdKFtDSDNdKVtDSDJdW0NIMl0y

> <s_epik_cmdline>
J2VwaWtfcHl0aG9uJywgJy1waCcsICc3LjAnLCAnLXRuJywgJzgnLCAnLW1hJywgJzIwMCcsICctbWV0YWxfYmluZGluZycsICctaW1hZScsICc8aW5maWxlLm1hZT4nLCAnLW9tYWUnLCAnPG91dGZpbGUubWFlPic=

> <r_epik_Ionization_Penalty>
0.00136816

> <r_epik_Ionization_Penalty_Charging>
0.00136813

> <r_epik_Ionization_Penalty_Neutral>
3.19884e-08

> <r_epik_State_Penalty>
0.000910892

> <r_epik_Charging_Adjusted_Penalty>
0.00227902

> <i_epik_Tot_Q>
1

> <i_epik_Tot_abs_Q>
1

> <r_epik_Metal_State_Penalty>
-0

> <b_epik_Metal_Only>
0

> <s_lp_Force_Field>
OPLS_2005

> <r_lp_Energy>
39.3397

> <b_lp_Chiralities_Consistent>
1

> <s_lp_Variant>
AV-unprocessed.smi:1579-4

> <Gold.Version>
5.8.1

> <Gold.Id.Protein>
6NUR|6NUR_protein|mol2

> <Gold.PLP.Fitness>
55.4919

> <Gold.PLP.PLP>
-44.7756

> <Gold.PLP.part.hbond>
-3.0000

> <Gold.PLP.part.metal>
0.0000

> <Gold.PLP.part.buried>
-7.0565

> <Gold.PLP.part.nonpolar>
-34.3562

> <Gold.PLP.part.repulsive>
0.0776

> <Gold.PLP.ligand.clash>
0.0000

> <Gold.PLP.ligand.torsion>
0.6588

> <Gold.PLP.Chemscore.Hbond>
4.0000

> <Gold.PLP.Chemscore.CHOScore>
0.0000

> <Gold.PLP.Chemscore.Metal>
0.0000

> <Gold.Chemscore.Hbonds>
donor molecule, donor type, donor heavy atom, donor atom, acceptor molecule, acceptor atom, score
      L1  H     7    29       P1  8028  1.00
      L1  H     9    47       P1  8028  2.00
      P1  H  7997  8009       L1    17  0.17

> <Gold.PLP.Chemscore.Internal.Correction>
0.0340

> <Gold.Rescore>
     Score         DG    S(hbond)    S(metal)    S(lipo)     H(rot)  DE(clash)    DE(int)     intcor
     17.05     -17.96       1.98        0.00      97.73       2.17       0.18       0.73       ----

> <Gold.Chemscore.Fitness>
17.0521

> <Gold.Chemscore.DG>
-17.9628

> <Gold.Chemscore.ZeroCoef>
-5.4800

> <Gold.Chemscore.Hbond>
1.9781

> <Gold.Chemscore.Metal>
0.0000

> <Gold.Chemscore.Lipo>
97.7341

> <Gold.Chemscore.Internal_Hbond>
0.0000

> <Gold.Chemscore.DEClash>
0.1768

> <Gold.Chemscore.DEInternal>
0.7339

> <Gold.Chemscore.Rot>
2.1715

> <Gold.Chemscore.Internal.Correction>
   9.000000E+99

> <Gold.Chemscore.Hbonds>
donor molecule, donor type, donor heavy atom, donor atom, acceptor molecule, acceptor atom, score
      L1  H     7    29       P1  8028  1.00
      L1  H     9    47       P1  8028  0.99
      P1  H  7997  8009       L1    17  0.01

> <Gold.Chemscore.Hbond.Weighted>
-6.6070

> <Gold.Chemscore.Metal.Weighted>
-0.0000

> <Gold.Chemscore.Lipo.Weighted>
-11.4349

> <Gold.Chemscore.Internal_Hbond.Weighted>
0.0000

> <Gold.Chemscore.DEClash.Weighted>
0.1768

> <Gold.Chemscore.DEInternal.Weighted>
0.7339

> <Gold.Chemscore.Rot.Weighted>
5.5591

> <Gold.Chemscore.Internal.Correction.Weighted>
   9.000000E+99

> <Gold.Protein.RotatedTorsions>
[ 6907 6896 6895 6894 ] final  -56.50 input  -60.11 | X-H torsion
[ 7974 7965 7964 7962 ] final    0.36 input  175.53 | X-H torsion
[ 8008 7997 7996 7995 ] final  141.46 input   59.86 | X-H torsion
[ 10167 10162 10161 10158 ] final  -15.17 input  -65.29 | X-H torsion
[ 10718 10713 10712 10709 ] final  -88.51 input   66.30 | X-H torsion
[ 10763 10752 10751 10750 ] final  146.30 input  -60.55 | X-H torsion
[ 11005 11000 10999 10996 ] final  151.54 input  -57.11 | X-H torsion

> <Gold.Protein.ActiveResidues>
 VAL166  LYS551  ARG553  GLY616  TRP617  ASP618  TYR619  PRO620  LYS621  CYS622 
 ASP623  PHE694  ASN695  SER759  ASP760  ASP761  ALA762  ILE779  LEU786  VAL792 
 PHE793  MET794  SER795  GLU796  ALA797  LYS798  CYS799  TRP800  GLU811  SER814 

> <Gold.Protein.RotatedAtoms>
  150.8162  134.7346  159.6732 H   0  0  0  0  0  0  0  0  0  0  0  0  # atno 6907 bound_to 6896
  152.4281  134.5827  159.9962 H   0  0  0  0  0  0  0  0  0  0  0  0  # atno 6908 bound_to 6896
  151.6023  133.3318  159.3086 H   0  0  0  0  0  0  0  0  0  0  0  0  # atno 6909 bound_to 6896
  146.2434  140.1150  142.8342 H   0  0  0  0  0  0  0  0  0  0  0  0  # atno 7974 bound_to 7965
  156.2965  140.2314  156.4568 H   0  0  0  0  0  0  0  0  0  0  0  0  # atno 8008 bound_to 7997
  154.8053  140.0446  157.1324 H   0  0  0  0  0  0  0  0  0  0  0  0  # atno 8009 bound_to 7997
  154.9486  140.3039  155.5089 H   0  0  0  0  0  0  0  0  0  0  0  0  # atno 8010 bound_to 7997
  140.7214  143.5246  150.9592 H   0  0  0  0  0  0  0  0  0  0  0  0  # atno 10167 bound_to 10162
  155.9983  130.4838  150.5030 H   0  0  0  0  0  0  0  0  0  0  0  0  # atno 10718 bound_to 10713
  154.0195  135.2907  155.3382 H   0  0  0  0  0  0  0  0  0  0  0  0  # atno 10763 bound_to 10752
  154.7054  135.5171  153.8591 H   0  0  0  0  0  0  0  0  0  0  0  0  # atno 10764 bound_to 10752
  153.0687  135.6640  154.0419 H   0  0  0  0  0  0  0  0  0  0  0  0  # atno 10765 bound_to 10752
  140.1228  134.8852  157.2096 H   0  0  0  0  0  0  0  0  0  0  0  0  # atno 11005 bound_to 11000
  145.0455  140.8978  143.5027 LP  0  0  0  0  0  0  0  0  0  0  0  0  # atno 17320 bound_to 7965
  145.1238  139.2676  143.5575 LP  0  0  0  0  0  0  0  0  0  0  0  0  # atno 17321 bound_to 7965
  139.8964  143.6889  152.3138 LP  0  0  0  0  0  0  0  0  0  0  0  0  # atno 17342 bound_to 10162
  139.7223  144.7600  151.0935 LP  0  0  0  0  0  0  0  0  0  0  0  0  # atno 17343 bound_to 10162
  157.3012  131.0645  151.2066 LP  0  0  0  0  0  0  0  0  0  0  0  0  # atno 17370 bound_to 10713
  157.3045  130.6859  149.6182 LP  0  0  0  0  0  0  0  0  0  0  0  0  # atno 17371 bound_to 10713
  140.2943  134.3205  155.7306 LP  0  0  0  0  0  0  0  0  0  0  0  0  # atno 17394 bound_to 11000
  141.2155  133.7553  156.9548 LP  0  0  0  0  0  0  0  0  0  0  0  0  # atno 17395 bound_to 11000

$$$$
