#       Name:                AV-unprocessed.smi:1697
#       Creating user name   scv26
#       Creation time:       Fri Mar 27 07:57:46 2020


#       File generated by GOLD software.
#

@<TRIPOS>MOLECULE
AV-unprocessed.smi:1697
    59    61     1
SMALL
NO_CHARGES


@<TRIPOS>ATOM
      1 ****        -2.4165   4.6791   3.8855 C.3            1 S1                 0.0000
      2 ****        -3.1420   3.8601   2.8091 C.3            1 S1                 0.0000
      3 ****        -2.2389   3.0757   2.0401 O.3            1 S1                 0.0000
      4 ****        -1.4358   3.8017   1.1148 C.3            1 S1                 0.0000
      5 ****        -1.6351   3.2024  -0.2855 C.3            1 S1                 0.0000
      6 ****        -1.0704   1.7742  -0.3807 C.3            1 S1                 0.0000
      7 ****         0.3621   1.7334   0.0113 N.4            1 S1                 1.0000
      8 ****         0.9671   0.3950  -0.2101 C.3            1 S1                 0.0000
      9 ****         2.4990   0.4547  -0.4040 C.3            1 S1                 0.0000
     10 ****         2.7741   1.1724  -1.5915 O.3            1 S1                 0.0000
     11 ****         3.1623  -0.9382  -0.4872 C.3            1 S1                 0.0000
     12 ****         2.6145  -1.7839  -1.5356 N.pl3          1 S1                 0.0000
     13 ****         2.9844  -1.8144  -2.8307 C.2            1 S1                 0.0000
     14 ****         2.3397  -2.6597  -3.6291 N.2            1 S1                 0.0000
     15 ****         1.4527  -3.2539  -2.7484 C.ar           1 S1                 0.0000
     16 ****         0.4707  -4.2447  -2.9656 C.ar           1 S1                 0.0000
     17 ****        -0.3396  -4.7071  -1.9045 C.ar           1 S1                 0.0000
     18 ****        -1.3886  -5.7685  -2.1853 C.3            1 S1                 0.0000
     19 ****        -0.1678  -4.1819  -0.5985 C.ar           1 S1                 0.0000
     20 ****        -1.0239  -4.6663   0.5584 C.3            1 S1                 0.0000
     21 ****         0.8092  -3.1921  -0.3638 C.ar           1 S1                 0.0000
     22 ****         1.6040  -2.7342  -1.4296 C.ar           1 S1                 0.0000
     23 ****         0.5619   2.2499   1.3913 C.3            1 S1                 0.0000
     24 ****         0.0415   3.6915   1.5252 C.3            1 S1                 0.0000
     25 ****        -3.1319   5.2186   4.5064 H              1 S1                 0.0000
     26 ****        -1.7430   5.4157   3.4477 H              1 S1                 0.0000
     27 ****        -1.8299   4.0333   4.5392 H              1 S1                 0.0000
     28 ****        -3.8398   3.1777   3.2947 H              1 S1                 0.0000
     29 ****        -3.7403   4.5031   2.1620 H              1 S1                 0.0000
     30 ****        -1.7228   4.8544   1.0852 H              1 S1                 0.0000
     31 ****        -2.6944   3.2042  -0.5450 H              1 S1                 0.0000
     32 ****        -1.1385   3.8347  -1.0228 H              1 S1                 0.0000
     33 ****        -1.6421   1.0967   0.2557 H              1 S1                 0.0000
     34 ****        -1.1838   1.4167  -1.4049 H              1 S1                 0.0000
     35 ****         0.7119  -0.2560   0.6273 H              1 S1                 0.0000
     36 ****         0.5205  -0.0594  -1.0957 H              1 S1                 0.0000
     37 ****         2.9664   0.9916   0.4204 H              1 S1                 0.0000
     38 ****         3.7116   1.2238  -1.7028 H              1 S1                 0.0000
     39 ****         4.2361  -0.8369  -0.6513 H              1 S1                 0.0000
     40 ****         3.0495  -1.4580   0.4649 H              1 S1                 0.0000
     41 ****         3.7663  -1.1730  -3.2108 H              1 S1                 0.0000
     42 ****         0.3428  -4.6471  -3.9600 H              1 S1                 0.0000
     43 ****        -1.1634  -6.6816  -1.6340 H              1 S1                 0.0000
     44 ****        -1.4284  -6.0184  -3.2458 H              1 S1                 0.0000
     45 ****        -2.3775  -5.4184  -1.8883 H              1 S1                 0.0000
     46 ****        -0.7059  -4.2221   1.5019 H              1 S1                 0.0000
     47 ****        -0.9546  -5.7494   0.6607 H              1 S1                 0.0000
     48 ****        -2.0684  -4.3998   0.3962 H              1 S1                 0.0000
     49 ****         0.9480  -2.7840   0.6262 H              1 S1                 0.0000
     50 ****         0.0511   1.5986   2.1022 H              1 S1                 0.0000
     51 ****         1.6180   2.2331   1.6571 H              1 S1                 0.0000
     52 ****         0.6411   4.3496   0.8949 H              1 S1                 0.0000
     53 ****         0.1766   4.0423   2.5485 H              1 S1                 0.0000
     54 ****         0.8425   2.3636  -0.6155 H              1 S1                 0.0000
     55 ****        -2.7734   2.4054   1.5254 LP             1 S1                 0.0000
     56 ****        -1.6276   2.5999   2.6725 LP             1 S1                 0.0000
     57 ****         2.3918   2.0940  -1.5243 LP             1 S1                 0.0000
     58 ****         2.3675   0.6991  -2.3730 LP             1 S1                 0.0000
     59 ****         2.4631  -2.8231  -4.6079 LP             1 S1                 0.0000
@<TRIPOS>BOND
    1    1    2 1     
    2    1   25 1     
    3    1   26 1     
    4    1   27 1     
    5    2    3 1     
    6    2   28 1     
    7    2   29 1     
    8    3    4 1     
    9    4   24 1     
   10    4    5 1     
   11    4   30 1     
   12    5    6 1     
   13    5   31 1     
   14    5   32 1     
   15    6    7 1     
   16    6   33 1     
   17    6   34 1     
   18    7    8 1     
   19    7   23 1     
   20    7   54 1     
   21    8    9 1     
   22    8   35 1     
   23    8   36 1     
   24    9   10 1     
   25    9   11 1     
   26    9   37 1     
   27   10   38 1     
   28   11   12 1     
   29   11   39 1     
   30   11   40 1     
   31   12   22 1     
   32   12   13 1     
   33   13   14 2     
   34   13   41 1     
   35   14   15 1     
   36   15   22 ar    
   37   15   16 ar    
   38   16   17 ar    
   39   16   42 1     
   40   17   18 1     
   41   17   19 ar    
   42   18   43 1     
   43   18   44 1     
   44   18   45 1     
   45   19   20 1     
   46   19   21 ar    
   47   20   46 1     
   48   20   47 1     
   49   20   48 1     
   50   21   22 ar    
   51   21   49 1     
   52   23   24 1     
   53   23   50 1     
   54   23   51 1     
   55   24   52 1     
   56   24   53 1     
   57    3   55 1     
   58    3   56 1     
   59   10   57 1     
   60   10   58 1     
   61   14   59 1     
@<TRIPOS>SUBSTRUCTURE
      1 S1             1
@<TRIPOS>SET
LONE_PAIRS      STATIC     ATOMS    <user>   **** ""
5 55 56 57 58 59
DONOR_HYDROGENS      STATIC     ATOMS    <user>   **** ""
2 54 38
ATOM$BLUE        STATIC     ATOMS    COLORGROUP SYSTEM
5 55 56 57 58 59
ATOM$RED        STATIC     ATOMS    COLORGROUP SYSTEM
2 54 38
