AV-unprocessed.smi:72|AV-procd|sdf|704|dock6
  -GOLD-   2262017 23D 1   1.00000     0.00000
 Structure written by MMmdl.
 30 31  0  0  0  0  0  0  0  0  2 V2000
  140.3858  136.4696  155.2507 N   0  0  0  0  0  0  0  0  0  0  0  0
  141.6275  136.2323  154.6990 C   0  0  0  0  0  0  0  0  0  0  0  0
  142.0669  137.0936  153.7105 N   0  3  0  0  0  0  0  0  0  0  0  0
  143.2503  137.0138  153.0875 C   0  0  0  0  0  0  0  0  0  0  0  0
  144.1003  136.0682  153.4418 N   0  0  0  0  0  0  0  0  0  0  0  0
  145.4521  135.9182  152.7785 C   0  0  1  0  0  0  0  0  0  0  0  0
  145.6170  134.5895  152.3996 O   0  0  0  0  0  0  0  0  0  0  0  0
  145.0976  134.4140  151.0880 C   0  0  2  0  0  0  0  0  0  0  0  0
  145.6366  133.1111  150.4798 C   0  0  0  0  0  0  0  0  0  0  0  0
  145.0358  132.8894  149.2218 O   0  0  0  0  0  0  0  0  0  0  0  0
  145.5896  135.6792  150.3808 C   0  0  1  0  0  0  0  0  0  0  0  0
  144.7129  136.0146  149.3243 O   0  0  0  0  0  0  0  0  0  0  0  0
  145.5419  136.7452  151.4760 C   0  0  2  0  0  0  0  0  0  0  0  0
  146.7115  137.5372  151.4450 O   0  0  0  0  0  0  0  0  0  0  0  0
  143.7068  135.0955  154.3984 C   0  0  0  0  0  0  0  0  0  0  0  0
  144.4526  134.1569  154.6745 O   0  0  0  0  0  0  0  0  0  0  0  0
  142.4502  135.2655  154.9971 N   0  0  0  0  0  0  0  0  0  0  0  0
  146.1738  136.1943  153.5496 H   0  0  0  0  0  0  0  0  0  0  0  0
  144.0058  134.4096  151.1147 H   0  0  0  0  0  0  0  0  0  0  0  0
  146.6056  135.5371  150.0076 H   0  0  0  0  0  0  0  0  0  0  0  0
  144.6674  137.3891  151.3707 H   0  0  0  0  0  0  0  0  0  0  0  0
  139.9810  135.8880  155.9709 H   0  0  0  0  0  0  0  0  0  0  0  0
  139.7850  137.2356  154.9816 H   0  0  0  0  0  0  0  0  0  0  0  0
  143.4676  137.7225  152.2993 H   0  0  0  0  0  0  0  0  0  0  0  0
  146.7127  133.1878  150.3211 H   0  0  0  0  0  0  0  0  0  0  0  0
  145.4650  132.2609  151.1406 H   0  0  0  0  0  0  0  0  0  0  0  0
  145.1675  133.6574  148.6864 H   0  0  0  0  0  0  0  0  0  0  0  0
  144.3930  136.8927  149.4677 H   0  0  0  0  0  0  0  0  0  0  0  0
  147.4068  137.0690  151.8816 H   0  0  0  0  0  0  0  0  0  0  0  0
  141.4419  137.8378  153.4350 H   0  0  0  0  0  0  0  0  0  0  0  0
  1  2  1  0  0  0  0
  1 22  1  0  0  0  0
  1 23  1  0  0  0  0
  2 17  2  0  0  0  0
  2  3  1  0  0  0  0
  3  4  2  0  0  0  0
  3 30  1  0  0  0  0
  4  5  1  0  0  0  0
  4 24  1  0  0  0  0
  5  6  1  0  0  0  0
  5 15  1  0  0  0  0
  6 18  1  0  0  0  0
  6 13  1  0  0  0  0
  6  7  1  0  0  0  0
  7  8  1  0  0  0  0
  8 19  1  0  0  0  0
  8  9  1  0  0  0  0
  8 11  1  0  0  0  0
  9 10  1  0  0  0  0
  9 25  1  0  0  0  0
  9 26  1  0  0  0  0
 10 27  1  0  0  0  0
 11 20  1  0  0  0  0
 11 12  1  0  0  0  0
 11 13  1  0  0  0  0
 12 28  1  0  0  0  0
 13 21  1  0  0  0  0
 13 14  1  0  0  0  0
 14 29  1  0  0  0  0
 15 16  2  0  0  0  0
 15 17  1  0  0  0  0
M  CHG  1   3   1
M  END
> <s_m_source_file>
AV-unprocessed.smi

> <i_m_source_file_index>
72

> <i_lp_mmshare_version>
43012

> <i_f3d_flags>
0

> <s_epik_input>
W05IMl1jMW5bY0hdbihjKD1PKW4xKVtDQEBIXTJPW0NASF0oW0NIMl1bT0hdKVtDQEBIXShbT0hdKVtDQEhdMltPSF0=

> <s_epik_cmdline>
J2VwaWtfcHl0aG9uJywgJy1waCcsICc3LjAnLCAnLXRuJywgJzgnLCAnLW1hJywgJzIwMCcsICctbWV0YWxfYmluZGluZycsICctaW1hZScsICc8aW5maWxlLm1hZT4nLCAnLW9tYWUnLCAnPG91dGZpbGUubWFlPic=

> <r_lp_tautomer_probability>
4.77166e-05

> <r_epik_Ionization_Penalty>
0.104979

> <r_epik_Ionization_Penalty_Charging>
0.0999619

> <r_epik_Ionization_Penalty_Neutral>
0.00501745

> <r_epik_State_Penalty>
2.51541

> <r_epik_Charging_Adjusted_Penalty>
2.61537

> <i_epik_Tot_Q>
1

> <i_epik_Tot_abs_Q>
1

> <r_epik_Metal_State_Penalty>
3.53763

> <b_epik_Metal_Only>
0

> <s_epik_Chemistry_Notes>
This compound contains an acetal/aminal-like group ( X-CH(R)-Y where X, Y are N, S, or O) that may be acid/base labile, releasing an aldehyde.

> <s_lp_Force_Field>
OPLS_2005

> <r_lp_Energy>
25.3677

> <b_lp_Chiralities_Consistent>
1

> <s_lp_Variant>
AV-unprocessed.smi:72-42

> <Gold.Version>
5.8.1

> <Gold.Id.Protein>
6NUR|6NUR_protein|mol2

> <Gold.PLP.Fitness>
36.0785

> <Gold.PLP.PLP>
-21.2243

> <Gold.PLP.part.hbond>
-5.3658

> <Gold.PLP.part.metal>
0.0000

> <Gold.PLP.part.buried>
-2.1200

> <Gold.PLP.part.nonpolar>
-14.6029

> <Gold.PLP.part.repulsive>
1.3025

> <Gold.PLP.ligand.clash>
0.0000

> <Gold.PLP.ligand.torsion>
0.3820

> <Gold.PLP.Chemscore.Hbond>
3.3341

> <Gold.PLP.Chemscore.CHOScore>
1.8562

> <Gold.PLP.Chemscore.Metal>
0.0000

> <Gold.Chemscore.Hbonds>
donor molecule, donor type, donor heavy atom, donor atom, acceptor molecule, acceptor atom, score
      L1  H    10    27       P1  7921  1.00
      L1  H    12    28       P1 10171  1.00
      L1  H    14    29       P1  7948  0.99
      P1  H  7954  7966       L1    14  0.17
      P1  H 11000 11005       L1    17  0.02
      L1  C     4    24       P1 10171  0.70
      L1  C     4    24       P1 10175  0.52

> <Gold.PLP.Chemscore.Internal.Correction>
0.0472

> <Gold.Rescore>
     Score         DG    S(hbond)    S(metal)    S(lipo)     H(rot)  DE(clash)    DE(int)     intcor
      5.82      -8.63       3.03        0.00      29.64       4.08       1.45       1.35       ----

> <Gold.Chemscore.Fitness>
5.8208

> <Gold.Chemscore.DG>
-8.6286

> <Gold.Chemscore.ZeroCoef>
-5.4800

> <Gold.Chemscore.Hbond>
3.0301

> <Gold.Chemscore.Metal>
0.0000

> <Gold.Chemscore.Lipo>
29.6443

> <Gold.Chemscore.Internal_Hbond>
0.0000

> <Gold.Chemscore.DEClash>
1.4548

> <Gold.Chemscore.DEInternal>
1.3530

> <Gold.Chemscore.Rot>
4.0783

> <Gold.Chemscore.Internal.Correction>
   9.000000E+99

> <Gold.Chemscore.Hbonds>
donor molecule, donor type, donor heavy atom, donor atom, acceptor molecule, acceptor atom, score
      L1  H    10    27       P1  7921  0.77
      L1  H    12    28       P1 10171  1.00
      L1  H    14    29       P1  7948  0.94

> <Gold.Chemscore.Hbond.Weighted>
-10.1206

> <Gold.Chemscore.Metal.Weighted>
-0.0000

> <Gold.Chemscore.Lipo.Weighted>
-3.4684

> <Gold.Chemscore.Internal_Hbond.Weighted>
0.0000

> <Gold.Chemscore.DEClash.Weighted>
1.4548

> <Gold.Chemscore.DEInternal.Weighted>
1.3530

> <Gold.Chemscore.Rot.Weighted>
10.4404

> <Gold.Chemscore.Internal.Correction.Weighted>
   9.000000E+99

> <Gold.Protein.RotatedTorsions>
[ 6907 6896 6895 6894 ] final  -93.55 input  -60.11 | X-H torsion
[ 7974 7965 7964 7962 ] final  -78.30 input  175.53 | X-H torsion
[ 8008 7997 7996 7995 ] final -135.60 input   59.86 | X-H torsion
[ 10167 10162 10161 10158 ] final -161.96 input  -65.29 | X-H torsion
[ 10718 10713 10712 10709 ] final   11.16 input   66.30 | X-H torsion
[ 10763 10752 10751 10750 ] final -159.69 input  -60.55 | X-H torsion
[ 11005 11000 10999 10996 ] final   13.93 input  -57.11 | X-H torsion

> <Gold.Protein.ActiveResidues>
 VAL166  LYS551  ARG553  GLY616  TRP617  ASP618  TYR619  PRO620  LYS621  CYS622 
 ASP623  PHE694  ASN695  SER759  ASP760  ASP761  ALA762  ILE779  LEU786  VAL792 
 PHE793  MET794  SER795  GLU796  ALA797  LYS798  CYS799  TRP800  GLU811  SER814 

> <Gold.Protein.RotatedAtoms>
  150.6925  134.1949  159.4299 H   0  0  0  0  0  0  0  0  0  0  0  0  # atno 6907 bound_to 6896
  151.9918  134.9972  160.0571 H   0  0  0  0  0  0  0  0  0  0  0  0  # atno 6908 bound_to 6896
  152.1660  133.4577  159.4922 H   0  0  0  0  0  0  0  0  0  0  0  0  # atno 6909 bound_to 6896
  145.5882  140.9435  143.1306 H   0  0  0  0  0  0  0  0  0  0  0  0  # atno 7974 bound_to 7965
  155.3814  140.0494  157.3043 H   0  0  0  0  0  0  0  0  0  0  0  0  # atno 8008 bound_to 7997
  154.5081  140.2181  155.9173 H   0  0  0  0  0  0  0  0  0  0  0  0  # atno 8009 bound_to 7997
  156.1549  140.3128  155.8715 H   0  0  0  0  0  0  0  0  0  0  0  0  # atno 8010 bound_to 7997
  139.6427  144.0230  152.2104 H   0  0  0  0  0  0  0  0  0  0  0  0  # atno 10167 bound_to 10162
  156.9915  130.6044  149.5686 H   0  0  0  0  0  0  0  0  0  0  0  0  # atno 10718 bound_to 10713
  154.7454  135.3079  154.8654 H   0  0  0  0  0  0  0  0  0  0  0  0  # atno 10763 bound_to 10752
  153.9457  135.6769  153.4748 H   0  0  0  0  0  0  0  0  0  0  0  0  # atno 10764 bound_to 10752
  153.1050  135.4893  154.8862 H   0  0  0  0  0  0  0  0  0  0  0  0  # atno 10765 bound_to 10752
  140.4752  134.0991  155.7740 H   0  0  0  0  0  0  0  0  0  0  0  0  # atno 11005 bound_to 11000
  144.7363  139.7577  143.7328 LP  0  0  0  0  0  0  0  0  0  0  0  0  # atno 17320 bound_to 7965
  146.1666  139.4800  142.9954 LP  0  0  0  0  0  0  0  0  0  0  0  0  # atno 17321 bound_to 7965
  139.9923  144.6352  150.7803 LP  0  0  0  0  0  0  0  0  0  0  0  0  # atno 17342 bound_to 10162
  140.7499  143.2946  151.3238 LP  0  0  0  0  0  0  0  0  0  0  0  0  # atno 17343 bound_to 10162
  156.0205  130.5300  150.8262 LP  0  0  0  0  0  0  0  0  0  0  0  0  # atno 17370 bound_to 10713
  157.5456  131.0942  150.9768 LP  0  0  0  0  0  0  0  0  0  0  0  0  # atno 17371 bound_to 10713
  141.1558  133.8885  157.1981 LP  0  0  0  0  0  0  0  0  0  0  0  0  # atno 17394 bound_to 11000
  139.9860  135.0081  156.9864 LP  0  0  0  0  0  0  0  0  0  0  0  0  # atno 17395 bound_to 11000

$$$$
