AV-unprocessed.smi:1808|AV-procd|sdf|7306|dock1
  -GOLD-   22720 8563D 1   1.00000     0.00000
 Structure written by MMmdl.
 28 29  0  0  0  0  0  0  0  0  1 V2000
  150.7459  140.4602  156.3901 O   0  0  0  0  0  0  0  0  0  0  0  0
  150.3556  141.5961  156.1183 C   0  0  0  0  0  0  0  0  0  0  0  0
  150.8144  142.6997  156.7251 N   0  0  0  0  0  0  0  0  0  0  0  0
  151.8189  142.7174  157.7825 C   0  0  0  0  0  0  0  0  0  0  0  0
  151.3736  143.5817  158.9742 C   0  0  1  0  0  0  0  0  0  0  0  0
  152.0057  143.1724  160.3063 C   0  0  0  0  0  0  0  0  0  0  0  0
  152.1207  144.4787  161.0812 C   0  0  0  0  0  0  0  0  0  0  0  0
  151.6759  145.5482  160.0826 C   0  0  0  0  0  0  0  0  0  0  0  0
  151.8108  144.9227  158.8165 O   0  0  0  0  0  0  0  0  0  0  0  0
  149.4298  141.8999  155.1919 N   0  0  0  0  0  0  0  0  0  0  0  0
  148.7114  141.0153  154.3454 C   0  0  0  0  0  0  0  0  0  0  0  0
  147.7696  141.4000  153.4760 N   0  0  0  0  0  0  0  0  0  0  0  0
  147.2304  140.3189  152.7742 C   0  0  0  0  0  0  0  0  0  0  0  0
  147.7765  139.1094  153.1253 C   0  0  0  0  0  0  0  0  0  0  0  0
  148.9987  139.2814  154.3566 S   0  0  0  0  0  0  0  0  0  0  0  0
  150.4365  143.5926  156.4438 H   0  0  0  0  0  0  0  0  0  0  0  0
  152.0255  141.6976  158.1118 H   0  0  0  0  0  0  0  0  0  0  0  0
  152.7498  143.1029  157.3661 H   0  0  0  0  0  0  0  0  0  0  0  0
  150.2861  143.5746  159.0718 H   0  0  0  0  0  0  0  0  0  0  0  0
  151.4087  142.4243  160.8286 H   0  0  0  0  0  0  0  0  0  0  0  0
  153.0006  142.7540  160.1487 H   0  0  0  0  0  0  0  0  0  0  0  0
  151.4980  144.4867  161.9763 H   0  0  0  0  0  0  0  0  0  0  0  0
  153.1539  144.6424  161.3898 H   0  0  0  0  0  0  0  0  0  0  0  0
  150.6294  145.8132  160.2422 H   0  0  0  0  0  0  0  0  0  0  0  0
  152.2722  146.4585  160.1457 H   0  0  0  0  0  0  0  0  0  0  0  0
  149.2145  142.8793  155.0779 H   0  0  0  0  0  0  0  0  0  0  0  0
  146.4590  140.5014  152.0408 H   0  0  0  0  0  0  0  0  0  0  0  0
  147.5351  138.1320  152.7349 H   0  0  0  0  0  0  0  0  0  0  0  0
  1  2  2  0  0  0  0
  2  3  1  0  0  0  0
  2 10  1  0  0  0  0
  3  4  1  0  0  0  0
  3 16  1  0  0  0  0
  4  5  1  0  0  0  0
  4 17  1  0  0  0  0
  4 18  1  0  0  0  0
  5  9  1  0  0  0  0
  5  6  1  0  0  0  0
  5 19  1  0  0  0  0
  6  7  1  0  0  0  0
  6 20  1  0  0  0  0
  6 21  1  0  0  0  0
  7  8  1  0  0  0  0
  7 22  1  0  0  0  0
  7 23  1  0  0  0  0
  8  9  1  0  0  0  0
  8 24  1  0  0  0  0
  8 25  1  0  0  0  0
 10 11  1  0  0  0  0
 10 26  1  0  0  0  0
 11 15  1  0  0  0  0
 11 12  2  0  0  0  0
 12 13  1  0  0  0  0
 13 14  2  0  0  0  0
 13 27  1  0  0  0  0
 14 15  1  0  0  0  0
 14 28  1  0  0  0  0
M  END
> <s_m_source_file>
AV-unprocessed.smi

> <i_m_source_file_index>
1808

> <i_lp_mmshare_version>
43012

> <i_f3d_flags>
0

> <s_epik_input>
czFbY0hdW2NIXW5jMVtOSF1DKD1PKVtOSF1bQ0gyXVtDQEBIXTJbQ0gyXVtDSDJdW0NIMl1PMg==

> <s_epik_cmdline>
J2VwaWtfcHl0aG9uJywgJy1waCcsICc3LjAnLCAnLXRuJywgJzgnLCAnLW1hJywgJzIwMCcsICctbWV0YWxfYmluZGluZycsICctaW1hZScsICc8aW5maWxlLm1hZT4nLCAnLW9tYWUnLCAnPG91dGZpbGUubWFlPic=

> <r_lp_tautomer_probability>
0.999

> <r_epik_Ionization_Penalty>
0.000333847

> <r_epik_Ionization_Penalty_Charging>
0

> <r_epik_Ionization_Penalty_Neutral>
0.000333847

> <r_epik_State_Penalty>
0.000177984

> <r_epik_Charging_Adjusted_Penalty>
0.000177984

> <i_epik_Tot_Q>
0

> <i_epik_Tot_abs_Q>
0

> <r_epik_Metal_State_Penalty>
0.00767616

> <b_epik_Metal_Only>
0

> <s_lp_Force_Field>
OPLS_2005

> <r_lp_Energy>
15.1674

> <b_lp_Chiralities_Consistent>
1

> <s_lp_Variant>
AV-unprocessed.smi:1808-2

> <Gold.Version>
5.8.1

> <Gold.Id.Protein>
6NUR|6NUR_protein|mol2

> <Gold.PLP.Fitness>
41.7972

> <Gold.PLP.PLP>
-30.6031

> <Gold.PLP.part.hbond>
-2.0000

> <Gold.PLP.part.metal>
0.0000

> <Gold.PLP.part.buried>
-4.2809

> <Gold.PLP.part.nonpolar>
-24.9269

> <Gold.PLP.part.repulsive>
0.5009

> <Gold.PLP.ligand.clash>
0.0000

> <Gold.PLP.ligand.torsion>
0.4060

> <Gold.PLP.Chemscore.Hbond>
2.0000

> <Gold.PLP.Chemscore.CHOScore>
2.0000

> <Gold.PLP.Chemscore.Metal>
0.0000

> <Gold.Chemscore.Hbonds>
donor molecule, donor type, donor heavy atom, donor atom, acceptor molecule, acceptor atom, score
      L1  H     3    16       P1  8028  0.93
      L1  H    10    26       P1  8028  1.00
      L1  C    13    27       P1 10175  0.31
      L1  C    14    28       P1  7948  1.00

> <Gold.PLP.Chemscore.Internal.Correction>
0.0063

> <Gold.Rescore>
     Score         DG    S(hbond)    S(metal)    S(lipo)     H(rot)  DE(clash)    DE(int)     intcor
     15.49     -17.42       1.93        0.00      75.86       1.32       0.24       1.69       ----

> <Gold.Chemscore.Fitness>
15.4922

> <Gold.Chemscore.DG>
-17.4218

> <Gold.Chemscore.ZeroCoef>
-5.4800

> <Gold.Chemscore.Hbond>
1.9269

> <Gold.Chemscore.Metal>
0.0000

> <Gold.Chemscore.Lipo>
75.8629

> <Gold.Chemscore.Internal_Hbond>
0.0000

> <Gold.Chemscore.DEClash>
0.2355

> <Gold.Chemscore.DEInternal>
1.6941

> <Gold.Chemscore.Rot>
1.3163

> <Gold.Chemscore.Internal.Correction>
   9.000000E+99

> <Gold.Chemscore.Hbonds>
donor molecule, donor type, donor heavy atom, donor atom, acceptor molecule, acceptor atom, score
      L1  H     3    16       P1  8028  0.84
      L1  H    10    26       P1  8028  0.98

> <Gold.Chemscore.Hbond.Weighted>
-6.4357

> <Gold.Chemscore.Metal.Weighted>
-0.0000

> <Gold.Chemscore.Lipo.Weighted>
-8.8760

> <Gold.Chemscore.Internal_Hbond.Weighted>
0.0000

> <Gold.Chemscore.DEClash.Weighted>
0.2355

> <Gold.Chemscore.DEInternal.Weighted>
1.6941

> <Gold.Chemscore.Rot.Weighted>
3.3698

> <Gold.Chemscore.Internal.Correction.Weighted>
   9.000000E+99

> <Gold.Protein.RotatedTorsions>
[ 6907 6896 6895 6894 ] final   80.77 input  -60.11 | X-H torsion
[ 7974 7965 7964 7962 ] final -103.66 input  175.53 | X-H torsion
[ 8008 7997 7996 7995 ] final -165.56 input   59.86 | X-H torsion
[ 10167 10162 10161 10158 ] final  -30.83 input  -65.29 | X-H torsion
[ 10718 10713 10712 10709 ] final  102.09 input   66.30 | X-H torsion
[ 10763 10752 10751 10750 ] final   56.05 input  -60.55 | X-H torsion
[ 11005 11000 10999 10996 ] final -118.55 input  -57.11 | X-H torsion

> <Gold.Protein.ActiveResidues>
 VAL166  LYS551  ARG553  GLY616  TRP617  ASP618  TYR619  PRO620  LYS621  CYS622 
 ASP623  PHE694  ASN695  SER759  ASP760  ASP761  ALA762  ILE779  LEU786  VAL792 
 PHE793  MET794  SER795  GLU796  ALA797  LYS798  CYS799  TRP800  GLU811  SER814 

> <Gold.Protein.RotatedAtoms>
  152.5246  134.3306  159.9181 H   0  0  0  0  0  0  0  0  0  0  0  0  # atno 6907 bound_to 6896
  151.3255  133.4016  159.2666 H   0  0  0  0  0  0  0  0  0  0  0  0  # atno 6908 bound_to 6896
  150.9924  134.9273  159.7964 H   0  0  0  0  0  0  0  0  0  0  0  0  # atno 6909 bound_to 6896
  145.2530  140.9244  143.3084 H   0  0  0  0  0  0  0  0  0  0  0  0  # atno 7974 bound_to 7965
  155.8515  140.0964  157.1672 H   0  0  0  0  0  0  0  0  0  0  0  0  # atno 8008 bound_to 7997
  154.3985  140.1382  156.3911 H   0  0  0  0  0  0  0  0  0  0  0  0  # atno 8009 bound_to 7997
  155.7956  140.3454  155.5376 H   0  0  0  0  0  0  0  0  0  0  0  0  # atno 8010 bound_to 7997
  140.7244  143.3818  151.1587 H   0  0  0  0  0  0  0  0  0  0  0  0  # atno 10167 bound_to 10162
  157.6812  131.0744  150.5352 H   0  0  0  0  0  0  0  0  0  0  0  0  # atno 10718 bound_to 10713
  152.9826  135.5689  154.5166 H   0  0  0  0  0  0  0  0  0  0  0  0  # atno 10763 bound_to 10752
  154.4661  135.2783  155.1679 H   0  0  0  0  0  0  0  0  0  0  0  0  # atno 10764 bound_to 10752
  154.3247  135.6262  153.5577 H   0  0  0  0  0  0  0  0  0  0  0  0  # atno 10765 bound_to 10752
  141.0278  134.0027  157.3188 H   0  0  0  0  0  0  0  0  0  0  0  0  # atno 11005 bound_to 11000
  144.9486  139.4108  143.6414 LP  0  0  0  0  0  0  0  0  0  0  0  0  # atno 17320 bound_to 7965
  146.3297  139.8482  142.8878 LP  0  0  0  0  0  0  0  0  0  0  0  0  # atno 17321 bound_to 7965
  139.7408  143.8927  152.3049 LP  0  0  0  0  0  0  0  0  0  0  0  0  # atno 17342 bound_to 10162
  139.8748  144.7049  150.8946 LP  0  0  0  0  0  0  0  0  0  0  0  0  # atno 17343 bound_to 10162
  156.5660  130.4268  149.6041 LP  0  0  0  0  0  0  0  0  0  0  0  0  # atno 17370 bound_to 10713
  156.2780  130.7055  151.1871 LP  0  0  0  0  0  0  0  0  0  0  0  0  # atno 17371 bound_to 10713
  139.9187  135.0199  156.7983 LP  0  0  0  0  0  0  0  0  0  0  0  0  # atno 17394 bound_to 11000
  140.6460  133.9774  155.7731 LP  0  0  0  0  0  0  0  0  0  0  0  0  # atno 17395 bound_to 11000

$$$$
