AV-unprocessed.smi:1254|AV-procd|sdf|5269|dock7
  -GOLD-   22720 4383D 1   1.00000     0.00000
 Structure written by MMmdl.
 46 47  0  0  0  0  0  0  0  0  2 V2000
  151.9961  140.9352  156.3115 C   0  0  0  0  0  0  0  0  0  0  0  0
  151.2979  139.9264  155.4650 C   0  0  0  0  0  0  0  0  0  0  0  0
  151.2000  138.5648  155.5314 C   0  0  0  0  0  0  0  0  0  0  0  0
  150.3915  138.2473  154.4075 C   0  0  0  0  0  0  0  0  0  0  0  0
  150.0522  136.9026  154.1102 N   0  0  0  0  0  0  0  0  0  0  0  0
  150.1885  135.8294  154.9076 C   0  0  0  0  0  0  0  0  0  0  0  0
  150.6583  135.8444  156.0455 O   0  0  0  0  0  0  0  0  0  0  0  0
  149.7492  134.7147  154.3060 N   0  0  0  0  0  0  0  0  0  0  0  0
  149.7459  133.3837  154.9064 C   0  0  0  0  0  0  0  0  0  0  0  0
  149.3061  132.2805  153.9233 C   0  0  2  0  0  0  0  0  0  0  0  0
  147.8268  132.3971  153.4975 C   0  0  0  0  0  0  0  0  0  0  0  0
  147.4509  131.2682  152.6108 N   0  3  2  0  0  0  0  0  0  0  0  0
  146.0529  131.3345  152.1129 C   0  0  0  0  0  0  0  0  0  0  0  0
  145.6560  132.7293  151.5807 C   0  0  0  0  0  0  0  0  0  0  0  0
  144.2034  132.7203  151.0815 C   0  0  0  0  0  0  0  0  0  0  0  0
  146.6022  133.2135  150.4690 C   0  0  0  0  0  0  0  0  0  0  0  0
  147.7541  129.9748  153.2673 C   0  0  0  0  0  0  0  0  0  0  0  0
  149.2263  129.9279  153.7063 C   0  0  0  0  0  0  0  0  0  0  0  0
  149.5008  131.0259  154.5670 O   0  0  0  0  0  0  0  0  0  0  0  0
  150.0250  139.3182  153.7200 N   0  0  0  0  0  0  0  0  0  0  0  0
  150.6055  140.3996  154.3932 O   0  0  0  0  0  0  0  0  0  0  0  0
  152.1124  140.5720  157.3328 H   0  0  0  0  0  0  0  0  0  0  0  0
  151.4353  141.8697  156.3476 H   0  0  0  0  0  0  0  0  0  0  0  0
  152.9880  141.1506  155.9140 H   0  0  0  0  0  0  0  0  0  0  0  0
  151.6398  137.9058  156.2652 H   0  0  0  0  0  0  0  0  0  0  0  0
  149.6519  136.7442  153.1975 H   0  0  0  0  0  0  0  0  0  0  0  0
  149.3736  134.7935  153.3722 H   0  0  0  0  0  0  0  0  0  0  0  0
  150.7390  133.1611  155.3003 H   0  0  0  0  0  0  0  0  0  0  0  0
  149.0732  133.4041  155.7643 H   0  0  0  0  0  0  0  0  0  0  0  0
  149.9431  132.3194  153.0378 H   0  0  0  0  0  0  0  0  0  0  0  0
  147.1807  132.4040  154.3769 H   0  0  0  0  0  0  0  0  0  0  0  0
  147.6726  133.3429  152.9804 H   0  0  0  0  0  0  0  0  0  0  0  0
  145.9277  130.6129  151.3039 H   0  0  0  0  0  0  0  0  0  0  0  0
  145.3750  131.0200  152.9079 H   0  0  0  0  0  0  0  0  0  0  0  0
  145.6991  133.4507  152.3961 H   0  0  0  0  0  0  0  0  0  0  0  0
  144.0738  132.0275  150.2492 H   0  0  0  0  0  0  0  0  0  0  0  0
  143.8977  133.7099  150.7405 H   0  0  0  0  0  0  0  0  0  0  0  0
  143.5160  132.4209  151.8736 H   0  0  0  0  0  0  0  0  0  0  0  0
  146.6059  132.5254  149.6229 H   0  0  0  0  0  0  0  0  0  0  0  0
  147.6276  133.3059  150.8281 H   0  0  0  0  0  0  0  0  0  0  0  0
  146.3012  134.1936  150.0976 H   0  0  0  0  0  0  0  0  0  0  0  0
  147.1006  129.8406  154.1308 H   0  0  0  0  0  0  0  0  0  0  0  0
  147.5520  129.1519  152.5806 H   0  0  0  0  0  0  0  0  0  0  0  0
  149.4291  128.9999  154.2413 H   0  0  0  0  0  0  0  0  0  0  0  0
  149.8926  129.9495  152.8425 H   0  0  0  0  0  0  0  0  0  0  0  0
  148.0482  131.3192  151.7977 H   0  0  0  0  0  0  0  0  0  0  0  0
  1  2  1  0  0  0  0
  1 22  1  0  0  0  0
  1 23  1  0  0  0  0
  1 24  1  0  0  0  0
  2 21  1  0  0  0  0
  2  3  2  0  0  0  0
  3  4  1  0  0  0  0
  3 25  1  0  0  0  0
  4  5  1  0  0  0  0
  4 20  2  0  0  0  0
  5  6  1  0  0  0  0
  5 26  1  0  0  0  0
  6  7  2  0  0  0  0
  6  8  1  0  0  0  0
  8  9  1  0  0  0  0
  8 27  1  0  0  0  0
  9 10  1  0  0  0  0
  9 28  1  0  0  0  0
  9 29  1  0  0  0  0
 10 19  1  0  0  0  0
 10 11  1  0  0  0  0
 10 30  1  0  0  0  0
 11 12  1  0  0  0  0
 11 31  1  0  0  0  0
 11 32  1  0  0  0  0
 12 13  1  0  0  0  0
 12 17  1  0  0  0  0
 12 46  1  0  0  0  0
 13 14  1  0  0  0  0
 13 33  1  0  0  0  0
 13 34  1  0  0  0  0
 14 15  1  0  0  0  0
 14 16  1  0  0  0  0
 14 35  1  0  0  0  0
 15 36  1  0  0  0  0
 15 37  1  0  0  0  0
 15 38  1  0  0  0  0
 16 39  1  0  0  0  0
 16 40  1  0  0  0  0
 16 41  1  0  0  0  0
 17 18  1  0  0  0  0
 17 42  1  0  0  0  0
 17 43  1  0  0  0  0
 18 19  1  0  0  0  0
 18 44  1  0  0  0  0
 18 45  1  0  0  0  0
 20 21  1  0  0  0  0
M  CHG  1  12   1
M  END
> <s_m_source_file>
AV-unprocessed.smi

> <i_m_source_file_index>
1254

> <i_lp_mmshare_version>
43012

> <i_f3d_flags>
0

> <s_epik_input>
W0NIM11jMVtjSF1jKG5vMSlbTkhdQyg9TylbTkhdW0NIMl1bQ0BASF0yW0NIMl1OKFtDSDJdW0NIMl1PMilbQ0gyXVtDSF0oW0NIM10pW0NIM10=

> <s_epik_cmdline>
J2VwaWtfcHl0aG9uJywgJy1waCcsICc3LjAnLCAnLXRuJywgJzgnLCAnLW1hJywgJzIwMCcsICctbWV0YWxfYmluZGluZycsICctaW1hZScsICc8aW5maWxlLm1hZT4nLCAnLW9tYWUnLCAnPG91dGZpbGUubWFlPic=

> <r_epik_Ionization_Penalty>
0.0986825

> <r_epik_Ionization_Penalty_Charging>
0.0986478

> <r_epik_Ionization_Penalty_Neutral>
3.46838e-05

> <r_epik_State_Penalty>
0.0887259

> <r_epik_Charging_Adjusted_Penalty>
0.187374

> <i_epik_Tot_Q>
1

> <i_epik_Tot_abs_Q>
1

> <r_epik_Metal_State_Penalty>
0.103424

> <b_epik_Metal_Only>
0

> <s_lp_Force_Field>
OPLS_2005

> <r_lp_Energy>
15.3676

> <b_lp_Chiralities_Consistent>
1

> <s_lp_Variant>
AV-unprocessed.smi:1254-1

> <Gold.Version>
5.8.1

> <Gold.Id.Protein>
6NUR|6NUR_protein|mol2

> <Gold.PLP.Fitness>
45.0021

> <Gold.PLP.PLP>
-34.6833

> <Gold.PLP.part.hbond>
-4.5428

> <Gold.PLP.part.metal>
0.0000

> <Gold.PLP.part.buried>
-7.0041

> <Gold.PLP.part.nonpolar>
-25.3176

> <Gold.PLP.part.repulsive>
2.5781

> <Gold.PLP.ligand.clash>
0.0000

> <Gold.PLP.ligand.torsion>
0.1428

> <Gold.PLP.Chemscore.Hbond>
3.5286

> <Gold.PLP.Chemscore.CHOScore>
0.0000

> <Gold.PLP.Chemscore.Metal>
0.0000

> <Gold.Chemscore.Hbonds>
donor molecule, donor type, donor heavy atom, donor atom, acceptor molecule, acceptor atom, score
      L1  H     5    26       P1  7948  1.00
      L1  H     8    27       P1  7948  0.37
      L1  H    12    46       P1 10747  1.00
      P1  H  7989  7998       L1    21  0.76

> <Gold.PLP.Chemscore.Internal.Correction>
0.0186

> <Gold.Rescore>
     Score         DG    S(hbond)    S(metal)    S(lipo)     H(rot)  DE(clash)    DE(int)     intcor
     15.45     -16.92       2.15        0.00      74.30       1.73       0.05       1.43       ----

> <Gold.Chemscore.Fitness>
15.4462

> <Gold.Chemscore.DG>
-16.9250

> <Gold.Chemscore.ZeroCoef>
-5.4800

> <Gold.Chemscore.Hbond>
2.1492

> <Gold.Chemscore.Metal>
0.0000

> <Gold.Chemscore.Lipo>
74.2998

> <Gold.Chemscore.Internal_Hbond>
0.0000

> <Gold.Chemscore.DEClash>
0.0497

> <Gold.Chemscore.DEInternal>
1.4290

> <Gold.Chemscore.Rot>
1.7291

> <Gold.Chemscore.Internal.Correction>
   9.000000E+99

> <Gold.Chemscore.Hbonds>
donor molecule, donor type, donor heavy atom, donor atom, acceptor molecule, acceptor atom, score
      L1  H     5    26       P1  7948  0.43
      L1  H     8    27       P1  7948  0.02
      L1  H    12    46       P1 10747  1.00
      P1  H  7989  7998       L1    21  0.17

> <Gold.Chemscore.Hbond.Weighted>
-7.1784

> <Gold.Chemscore.Metal.Weighted>
-0.0000

> <Gold.Chemscore.Lipo.Weighted>
-8.6931

> <Gold.Chemscore.Internal_Hbond.Weighted>
0.0000

> <Gold.Chemscore.DEClash.Weighted>
0.0497

> <Gold.Chemscore.DEInternal.Weighted>
1.4290

> <Gold.Chemscore.Rot.Weighted>
4.4265

> <Gold.Chemscore.Internal.Correction.Weighted>
   9.000000E+99

> <Gold.Protein.RotatedTorsions>
[ 6907 6896 6895 6894 ] final  -21.71 input  -60.11 | X-H torsion
[ 7974 7965 7964 7962 ] final -118.73 input  175.53 | X-H torsion
[ 8008 7997 7996 7995 ] final  114.05 input   59.86 | X-H torsion
[ 10167 10162 10161 10158 ] final  167.51 input  -65.29 | X-H torsion
[ 10718 10713 10712 10709 ] final  118.17 input   66.30 | X-H torsion
[ 10763 10752 10751 10750 ] final  -45.99 input  -60.55 | X-H torsion
[ 11005 11000 10999 10996 ] final  173.99 input  -57.11 | X-H torsion

> <Gold.Protein.ActiveResidues>
 VAL166  LYS551  ARG553  GLY616  TRP617  ASP618  TYR619  PRO620  LYS621  CYS622 
 ASP623  PHE694  ASN695  SER759  ASP760  ASP761  ALA762  ILE779  LEU786  VAL792 
 PHE793  MET794  SER795  GLU796  ALA797  LYS798  CYS799  TRP800  GLU811  SER814 

> <Gold.Protein.RotatedAtoms>
  151.2293  135.0548  159.8980 H   0  0  0  0  0  0  0  0  0  0  0  0  # atno 6907 bound_to 6896
  152.5406  134.0554  159.8139 H   0  0  0  0  0  0  0  0  0  0  0  0  # atno 6908 bound_to 6896
  151.0732  133.5401  159.2657 H   0  0  0  0  0  0  0  0  0  0  0  0  # atno 6909 bound_to 6896
  145.0705  140.8355  143.4098 H   0  0  0  0  0  0  0  0  0  0  0  0  # atno 7974 bound_to 7965
  156.2297  140.2967  156.0156 H   0  0  0  0  0  0  0  0  0  0  0  0  # atno 8008 bound_to 7997
  155.2260  140.0417  157.2972 H   0  0  0  0  0  0  0  0  0  0  0  0  # atno 8009 bound_to 7997
  154.5974  140.2418  155.7846 H   0  0  0  0  0  0  0  0  0  0  0  0  # atno 8010 bound_to 7997
  139.4947  144.3913  151.9513 H   0  0  0  0  0  0  0  0  0  0  0  0  # atno 10167 bound_to 10162
  157.6048  131.1045  150.7718 H   0  0  0  0  0  0  0  0  0  0  0  0  # atno 10718 bound_to 10713
  154.0376  135.6648  153.4787 H   0  0  0  0  0  0  0  0  0  0  0  0  # atno 10763 bound_to 10752
  153.0515  135.5082  154.7873 H   0  0  0  0  0  0  0  0  0  0  0  0  # atno 10764 bound_to 10752
  154.6839  135.3049  154.9541 H   0  0  0  0  0  0  0  0  0  0  0  0  # atno 10765 bound_to 10752
  140.3465  134.7232  157.4238 H   0  0  0  0  0  0  0  0  0  0  0  0  # atno 11005 bound_to 11000
  145.1299  139.2639  143.5545 LP  0  0  0  0  0  0  0  0  0  0  0  0  # atno 17320 bound_to 7965
  146.3528  140.0946  142.8611 LP  0  0  0  0  0  0  0  0  0  0  0  0  # atno 17321 bound_to 7965
  140.3351  144.3270  150.5979 LP  0  0  0  0  0  0  0  0  0  0  0  0  # atno 17342 bound_to 10162
  140.5613  143.2192  151.7761 LP  0  0  0  0  0  0  0  0  0  0  0  0  # atno 17343 bound_to 10162
  156.8109  130.4952  149.5356 LP  0  0  0  0  0  0  0  0  0  0  0  0  # atno 17370 bound_to 10713
  156.1131  130.6055  151.0079 LP  0  0  0  0  0  0  0  0  0  0  0  0  # atno 17371 bound_to 10713
  140.0738  134.5825  155.8613 LP  0  0  0  0  0  0  0  0  0  0  0  0  # atno 17394 bound_to 11000
  141.2024  133.6625  156.6005 LP  0  0  0  0  0  0  0  0  0  0  0  0  # atno 17395 bound_to 11000

$$$$
