#       Name:                AV-unprocessed.smi:2991
#       Creating user name   scv26
#       Creation time:       Fri Mar 27 16:32:20 2020


#       File generated by GOLD software.
#

@<TRIPOS>MOLECULE
AV-unprocessed.smi:2991
    42    43     1
SMALL
NO_CHARGES


@<TRIPOS>ATOM
      1 ****        -5.7708   3.0264  -1.3490 C.3            1 S1                 0.0000
      2 ****        -4.9260   1.7861  -1.1261 C.ar           1 S1                 0.0000
      3 ****        -5.5973   0.6138  -1.1257 N.ar           1 S1                 0.0000
      4 ****        -4.8927  -0.5206  -0.9382 C.ar           1 S1                 0.0000
      5 ****        -3.4993  -0.5434  -0.7374 C.ar           1 S1                 0.0000
      6 ****        -2.7942   0.6841  -0.7225 C.ar           1 S1                 0.0000
      7 ****        -1.3846   0.7779  -0.5511 N.am           1 S1                 0.0000
      8 ****        -0.5426  -0.0988   0.0217 C.2            1 S1                 0.0000
      9 ****        -0.8651  -1.1727   0.5297 O.2            1 S1                 0.0000
     10 ****         0.7189   0.3542  -0.0131 N.am           1 S1                 0.0000
     11 ****         1.8897  -0.3244   0.5446 C.3            1 S1                 0.0000
     12 ****         2.4282  -1.3667  -0.4612 C.3            1 S1                 0.0000
     13 ****         3.2675  -2.4813   0.1830 C.3            1 S1                 0.0000
     14 ****         4.5602  -2.0049   0.8619 C.3            1 S1                 0.0000
     15 ****         4.3203  -1.1007   2.0832 C.3            1 S1                 0.0000
     16 ****         4.0045   0.2725   1.7103 N.am           1 S1                 0.0000
     17 ****         2.9394   0.7002   1.0153 C.2            1 S1                 0.0000
     18 ****         2.8064   1.8949   0.7504 O.2            1 S1                 0.0000
     19 ****        -3.5271   1.8757  -0.9347 C.ar           1 S1                 0.0000
     20 ****        -2.7306   3.4139  -0.9547 Cl             1 S1                 0.0000
     21 ****        -5.6897   3.6983  -0.4944 H              1 S1                 0.0000
     22 ****        -6.8243   2.7765  -1.4817 H              1 S1                 0.0000
     23 ****        -5.4366   3.5579  -2.2403 H              1 S1                 0.0000
     24 ****        -5.4566  -1.4416  -0.9556 H              1 S1                 0.0000
     25 ****        -3.0045  -1.4941  -0.6141 H              1 S1                 0.0000
     26 ****        -0.9756   1.6521  -0.8476 H              1 S1                 0.0000
     27 ****         0.8882   1.2534  -0.4404 H              1 S1                 0.0000
     28 ****         1.5536  -0.8497   1.4407 H              1 S1                 0.0000
     29 ****         1.5925  -1.8470  -0.9722 H              1 S1                 0.0000
     30 ****         3.0033  -0.8699  -1.2439 H              1 S1                 0.0000
     31 ****         2.6562  -3.0259   0.9038 H              1 S1                 0.0000
     32 ****         3.5292  -3.2050  -0.5894 H              1 S1                 0.0000
     33 ****         5.1096  -2.8869   1.1928 H              1 S1                 0.0000
     34 ****         5.2068  -1.5047   0.1398 H              1 S1                 0.0000
     35 ****         3.5427  -1.5083   2.7306 H              1 S1                 0.0000
     36 ****         5.2295  -1.0653   2.6837 H              1 S1                 0.0000
     37 ****         4.6702   0.9741   2.0008 H              1 S1                 0.0000
     38 ****        -6.5878   0.5880  -1.2605 LP             1 S1                 0.0000
     39 ****        -1.8247  -1.4539   0.5376 LP             1 S1                 0.0000
     40 ****        -0.1675  -1.7639   0.9345 LP             1 S1                 0.0000
     41 ****         2.0133   2.2056   0.2266 LP             1 S1                 0.0000
     42 ****         3.4915   2.5547   1.0590 LP             1 S1                 0.0000
@<TRIPOS>BOND
    1    1    2 1     
    2    1   21 1     
    3    1   22 1     
    4    1   23 1     
    5    2   19 ar    
    6    2    3 ar    
    7    3    4 ar    
    8    4    5 ar    
    9    4   24 1     
   10    5    6 ar    
   11    5   25 1     
   12    6    7 1     
   13    6   19 ar    
   14    7    8 am    
   15    7   26 1     
   16    8    9 2     
   17    8   10 am    
   18   10   11 1     
   19   10   27 1     
   20   11   17 1     
   21   11   12 1     
   22   11   28 1     
   23   12   13 1     
   24   12   29 1     
   25   12   30 1     
   26   13   14 1     
   27   13   31 1     
   28   13   32 1     
   29   14   15 1     
   30   14   33 1     
   31   14   34 1     
   32   15   16 1     
   33   15   35 1     
   34   15   36 1     
   35   16   17 am    
   36   16   37 1     
   37   17   18 2     
   38   19   20 1     
   39    3   38 1     
   40    9   39 1     
   41    9   40 1     
   42   18   41 1     
   43   18   42 1     
@<TRIPOS>SUBSTRUCTURE
      1 S1             1
@<TRIPOS>SET
LONE_PAIRS      STATIC     ATOMS    <user>   **** ""
5 38 39 40 41 42
DONOR_HYDROGENS      STATIC     ATOMS    <user>   **** ""
3 26 27 37
ATOM$BLUE        STATIC     ATOMS    COLORGROUP SYSTEM
5 38 39 40 41 42
ATOM$RED        STATIC     ATOMS    COLORGROUP SYSTEM
3 26 27 37
