AV-unprocessed.smi:3074|AV-procd|sdf|11721|dock3
  -GOLD-   2272017123D 1   1.00000     0.00000
 Structure written by MMmdl.
 19 20  0  0  0  0  0  0  0  0  2 V2000
  153.7605  141.4829  160.7252 C   0  0  0  0  0  0  0  0  0  0  0  0
  153.3463  142.2687  159.6735 C   0  0  0  0  0  0  0  0  0  0  0  0
  152.6505  143.3351  160.2279 N   0  0  0  0  0  0  0  0  0  0  0  0
  151.9885  144.3814  159.5087 C   0  0  0  0  0  0  0  0  0  0  0  0
  150.4744  144.3578  159.3057 C   0  0  0  0  0  0  0  0  0  0  0  0
  150.6989  144.9895  158.0115 N   0  3  0  0  0  0  0  0  0  0  0  0
  152.0534  144.4513  157.9836 C   0  0  0  0  0  0  0  0  0  0  0  0
  152.6386  143.1102  161.5489 C   0  0  0  0  0  0  0  0  0  0  0  0
  153.3021  142.0246  161.9240 N   0  0  0  0  0  0  0  0  0  0  0  0
  154.3350  140.5682  160.7105 H   0  0  0  0  0  0  0  0  0  0  0  0
  153.4912  142.1606  158.6086 H   0  0  0  0  0  0  0  0  0  0  0  0
  152.3104  145.3231  159.9592 H   0  0  0  0  0  0  0  0  0  0  0  0
  150.0613  143.3521  159.2054 H   0  0  0  0  0  0  0  0  0  0  0  0
  149.9053  144.9685  160.0073 H   0  0  0  0  0  0  0  0  0  0  0  0
  150.1019  144.6414  157.2746 H   0  0  0  0  0  0  0  0  0  0  0  0
  152.7979  145.1407  157.5846 H   0  0  0  0  0  0  0  0  0  0  0  0
  152.0966  143.4727  157.5012 H   0  0  0  0  0  0  0  0  0  0  0  0
  152.1348  143.7570  162.2527 H   0  0  0  0  0  0  0  0  0  0  0  0
  150.7025  145.9967  158.0882 H   0  0  0  0  0  0  0  0  0  0  0  0
  1  9  1  0  0  0  0
  1  2  2  0  0  0  0
  1 10  1  0  0  0  0
  2  3  1  0  0  0  0
  2 11  1  0  0  0  0
  3  4  1  0  0  0  0
  3  8  1  0  0  0  0
  4  7  1  0  0  0  0
  4  5  1  0  0  0  0
  4 12  1  0  0  0  0
  5  6  1  0  0  0  0
  5 13  1  0  0  0  0
  5 14  1  0  0  0  0
  6  7  1  0  0  0  0
  6 15  1  0  0  0  0
  6 19  1  0  0  0  0
  7 16  1  0  0  0  0
  7 17  1  0  0  0  0
  8  9  2  0  0  0  0
  8 18  1  0  0  0  0
M  CHG  1   6   1
M  END
> <s_m_source_file>
AV-unprocessed.smi

> <i_m_source_file_index>
3074

> <i_lp_mmshare_version>
43012

> <i_f3d_flags>
0

> <s_epik_input>
W2NIXTFuW2NIXVtjSF1uMVtDSF0yW0NIMl1bTkhdW0NIMl0y

> <s_epik_cmdline>
J2VwaWtfcHl0aG9uJywgJy1waCcsICc3LjAnLCAnLXRuJywgJzgnLCAnLW1hJywgJzIwMCcsICctbWV0YWxfYmluZGluZycsICctaW1hZScsICc8aW5maWxlLm1hZT4nLCAnLW9tYWUnLCAnPG91dGZpbGUubWFlPic=

> <r_lp_tautomer_probability>
1

> <r_epik_Ionization_Penalty>
0.0670812

> <r_epik_Ionization_Penalty_Charging>
0.0670812

> <r_epik_Ionization_Penalty_Neutral>
0

> <r_epik_State_Penalty>
0.102677

> <r_epik_Charging_Adjusted_Penalty>
0.169758

> <i_epik_Tot_Q>
1

> <i_epik_Tot_abs_Q>
1

> <r_epik_Metal_State_Penalty>
0.000102988

> <b_epik_Metal_Only>
0

> <s_lp_Force_Field>
OPLS_2005

> <r_lp_Energy>
18.1517

> <b_lp_Chiralities_Consistent>
1

> <s_lp_Variant>
AV-unprocessed.smi:3074-1

> <Gold.Version>
5.8.1

> <Gold.Id.Protein>
6NUR|6NUR_protein|mol2

> <Gold.PLP.Fitness>
36.1856

> <Gold.PLP.PLP>
-30.3452

> <Gold.PLP.part.hbond>
-2.0000

> <Gold.PLP.part.metal>
0.0000

> <Gold.PLP.part.buried>
-3.1444

> <Gold.PLP.part.nonpolar>
-25.0066

> <Gold.PLP.part.repulsive>
0.2019

> <Gold.PLP.ligand.clash>
0.0000

> <Gold.PLP.ligand.torsion>
0.2204

> <Gold.PLP.Chemscore.Hbond>
2.0000

> <Gold.PLP.Chemscore.CHOScore>
0.0000

> <Gold.PLP.Chemscore.Metal>
0.0000

> <Gold.Chemscore.Hbonds>
donor molecule, donor type, donor heavy atom, donor atom, acceptor molecule, acceptor atom, score
      L1  H     6    15       P1  8028  2.00

> <Gold.PLP.Chemscore.Internal.Correction>
0.2811

> <Gold.Rescore>
     Score         DG    S(hbond)    S(metal)    S(lipo)     H(rot)  DE(clash)    DE(int)     intcor
     12.01     -12.21       0.79        0.00      56.90       1.00       0.04       0.16       ----

> <Gold.Chemscore.Fitness>
12.0057

> <Gold.Chemscore.DG>
-12.2083

> <Gold.Chemscore.ZeroCoef>
-5.4800

> <Gold.Chemscore.Hbond>
0.7878

> <Gold.Chemscore.Metal>
0.0000

> <Gold.Chemscore.Lipo>
56.8970

> <Gold.Chemscore.Internal_Hbond>
0.0000

> <Gold.Chemscore.DEClash>
0.0416

> <Gold.Chemscore.DEInternal>
0.1610

> <Gold.Chemscore.Rot>
1.0000

> <Gold.Chemscore.Internal.Correction>
   9.000000E+99

> <Gold.Chemscore.Hbonds>
donor molecule, donor type, donor heavy atom, donor atom, acceptor molecule, acceptor atom, score
      L1  H     6    15       P1  8028  0.29

> <Gold.Chemscore.Hbond.Weighted>
-2.6313

> <Gold.Chemscore.Metal.Weighted>
-0.0000

> <Gold.Chemscore.Lipo.Weighted>
-6.6570

> <Gold.Chemscore.Internal_Hbond.Weighted>
0.0000

> <Gold.Chemscore.DEClash.Weighted>
0.0416

> <Gold.Chemscore.DEInternal.Weighted>
0.1610

> <Gold.Chemscore.Rot.Weighted>
2.5600

> <Gold.Chemscore.Internal.Correction.Weighted>
   9.000000E+99

> <Gold.Protein.RotatedTorsions>
[ 6907 6896 6895 6894 ] final -159.04 input  -60.11 | X-H torsion
[ 7974 7965 7964 7962 ] final  -93.43 input  175.53 | X-H torsion
[ 8008 7997 7996 7995 ] final -164.92 input   59.86 | X-H torsion
[ 10167 10162 10161 10158 ] final  108.51 input  -65.29 | X-H torsion
[ 10718 10713 10712 10709 ] final   79.90 input   66.30 | X-H torsion
[ 10763 10752 10751 10750 ] final   56.62 input  -60.55 | X-H torsion
[ 11005 11000 10999 10996 ] final   41.08 input  -57.11 | X-H torsion

> <Gold.Protein.ActiveResidues>
 VAL166  LYS551  ARG553  GLY616  TRP617  ASP618  TYR619  PRO620  LYS621  CYS622 
 ASP623  PHE694  ASN695  SER759  ASP760  ASP761  ALA762  ILE779  LEU786  VAL792 
 PHE793  MET794  SER795  GLU796  ALA797  LYS798  CYS799  TRP800  GLU811  SER814 

> <Gold.Protein.RotatedAtoms>
  151.3275  133.4014  159.2659 H   0  0  0  0  0  0  0  0  0  0  0  0  # atno 6907 bound_to 6896
  150.9983  134.9302  159.7950 H   0  0  0  0  0  0  0  0  0  0  0  0  # atno 6908 bound_to 6896
  152.5268  134.3240  159.9211 H   0  0  0  0  0  0  0  0  0  0  0  0  # atno 6909 bound_to 6896
  145.3866  140.9523  143.2364 H   0  0  0  0  0  0  0  0  0  0  0  0  # atno 7974 bound_to 7965
  155.8425  140.0950  157.1725 H   0  0  0  0  0  0  0  0  0  0  0  0  # atno 8008 bound_to 7997
  154.3982  140.1398  156.3807 H   0  0  0  0  0  0  0  0  0  0  0  0  # atno 8009 bound_to 7997
  155.8049  140.3451  155.5426 H   0  0  0  0  0  0  0  0  0  0  0  0  # atno 8010 bound_to 7997
  139.6840  144.7115  151.1464 H   0  0  0  0  0  0  0  0  0  0  0  0  # atno 10167 bound_to 10162
  157.6790  130.9935  150.2001 H   0  0  0  0  0  0  0  0  0  0  0  0  # atno 10718 bound_to 10713
  152.9835  135.5670  154.5258 H   0  0  0  0  0  0  0  0  0  0  0  0  # atno 10763 bound_to 10752
  154.4738  135.2786  155.1624 H   0  0  0  0  0  0  0  0  0  0  0  0  # atno 10764 bound_to 10752
  154.3161  135.6278  153.5540 H   0  0  0  0  0  0  0  0  0  0  0  0  # atno 10765 bound_to 10752
  140.1869  134.4035  155.8168 H   0  0  0  0  0  0  0  0  0  0  0  0  # atno 11005 bound_to 11000
  144.8470  139.5382  143.6874 LP  0  0  0  0  0  0  0  0  0  0  0  0  # atno 17320 bound_to 7965
  146.2817  139.6895  142.9224 LP  0  0  0  0  0  0  0  0  0  0  0  0  # atno 17321 bound_to 7965
  140.7662  143.5656  150.9051 LP  0  0  0  0  0  0  0  0  0  0  0  0  # atno 17342 bound_to 10162
  139.9330  143.6471  152.3072 LP  0  0  0  0  0  0  0  0  0  0  0  0  # atno 17343 bound_to 10162
  156.2694  130.3720  149.8048 LP  0  0  0  0  0  0  0  0  0  0  0  0  # atno 17370 bound_to 10713
  156.5769  130.8449  151.3372 LP  0  0  0  0  0  0  0  0  0  0  0  0  # atno 17371 bound_to 10713
  141.2225  133.7027  156.8028 LP  0  0  0  0  0  0  0  0  0  0  0  0  # atno 17394 bound_to 11000
  140.2204  134.8761  157.3370 LP  0  0  0  0  0  0  0  0  0  0  0  0  # atno 17395 bound_to 11000

$$$$
