AV-unprocessed.smi:546|AV-procd|sdf|2886|dock7
  -GOLD-   2262023383D 1   1.00000     0.00000
 Structure written by MMmdl.
 51 53  0  0  0  0  0  0  0  0  2 V2000
  148.6368  141.2591  154.5921 C   0  0  0  0  0  0  0  0  0  0  0  0
  147.3104  141.2374  155.3552 C   0  0  0  0  0  0  0  0  0  0  0  0
  147.1028  139.9416  155.8912 O   0  0  0  0  0  0  0  0  0  0  0  0
  147.9668  139.6579  156.9808 C   0  0  0  0  0  0  0  0  0  0  0  0
  148.0332  138.1415  157.2097 C   0  0  0  0  0  0  0  0  0  0  0  0
  149.1468  137.7701  158.0820 N   0  0  0  0  0  0  0  0  0  0  0  0
  149.1236  137.0707  159.2513 C   0  0  0  0  0  0  0  0  0  0  0  0
  147.9529  136.5306  159.7891 N   0  0  0  0  0  0  0  0  0  0  0  0
  147.8732  135.1765  160.3341 C   0  0  0  0  0  0  0  0  0  0  0  0
  147.1865  135.1575  161.7131 C   0  0  2  0  0  0  0  0  0  0  0  0
  147.1552  133.7439  162.3079 C   0  0  0  0  0  0  0  0  0  0  0  0
  145.7768  135.7624  161.6080 C   0  0  0  0  0  0  0  0  0  0  0  0
  145.8384  137.1508  160.9497 C   0  0  2  0  0  0  0  0  0  0  0  0
  144.4382  137.7479  160.7583 C   0  0  0  0  0  0  0  0  0  0  0  0
  146.5995  137.0578  159.6116 C   0  0  0  0  0  0  0  0  0  0  0  0
  150.3068  136.9728  159.8613 N   0  0  0  0  0  0  0  0  0  0  0  0
  151.1625  137.6359  158.9968 C   0  0  0  0  0  0  0  0  0  0  0  0
  150.4908  138.1263  157.9215 C   0  0  0  0  0  0  0  0  0  0  0  0
  151.1322  138.9067  156.8391 C   0  0  0  0  0  0  0  0  0  0  0  0
  150.4783  139.3348  155.8900 O   0  0  0  0  0  0  0  0  0  0  0  0
  152.4771  139.0705  157.0462 N   0  5  0  0  0  0  0  0  0  0  0  0
  153.1962  138.5903  158.1196 C   0  0  0  0  0  0  0  0  0  0  0  0
  154.4064  138.7898  158.2328 O   0  0  0  0  0  0  0  0  0  0  0  0
  152.5609  137.8708  159.0973 N   0  0  0  0  0  0  0  0  0  0  0  0
  153.2984  137.3479  160.2509 C   0  0  0  0  0  0  0  0  0  0  0  0
  148.8102  142.2358  154.1402 H   0  0  0  0  0  0  0  0  0  0  0  0
  148.6422  140.5150  153.7951 H   0  0  0  0  0  0  0  0  0  0  0  0
  149.4742  141.0473  155.2572 H   0  0  0  0  0  0  0  0  0  0  0  0
  147.3309  141.9788  156.1554 H   0  0  0  0  0  0  0  0  0  0  0  0
  146.4916  141.4988  154.6831 H   0  0  0  0  0  0  0  0  0  0  0  0
  148.9651  140.0438  156.7707 H   0  0  0  0  0  0  0  0  0  0  0  0
  147.6094  140.1569  157.8828 H   0  0  0  0  0  0  0  0  0  0  0  0
  147.0903  137.8015  157.6224 H   0  0  0  0  0  0  0  0  0  0  0  0
  148.1304  137.6132  156.2626 H   0  0  0  0  0  0  0  0  0  0  0  0
  147.3399  134.5350  159.6313 H   0  0  0  0  0  0  0  0  0  0  0  0
  148.8799  134.7663  160.4256 H   0  0  0  0  0  0  0  0  0  0  0  0
  147.7713  135.7848  162.3854 H   0  0  0  0  0  0  0  0  0  0  0  0
  146.5959  133.0576  161.6712 H   0  0  0  0  0  0  0  0  0  0  0  0
  146.6876  133.7430  163.2929 H   0  0  0  0  0  0  0  0  0  0  0  0
  148.1640  133.3458  162.4223 H   0  0  0  0  0  0  0  0  0  0  0  0
  145.1369  135.1033  161.0194 H   0  0  0  0  0  0  0  0  0  0  0  0
  145.3248  135.8361  162.5978 H   0  0  0  0  0  0  0  0  0  0  0  0
  146.3910  137.8137  161.6168 H   0  0  0  0  0  0  0  0  0  0  0  0
  143.8291  137.1278  160.0999 H   0  0  0  0  0  0  0  0  0  0  0  0
  144.4948  138.7446  160.3198 H   0  0  0  0  0  0  0  0  0  0  0  0
  143.9159  137.8361  161.7114 H   0  0  0  0  0  0  0  0  0  0  0  0
  146.6367  138.0280  159.1171 H   0  0  0  0  0  0  0  0  0  0  0  0
  146.0600  136.4036  158.9252 H   0  0  0  0  0  0  0  0  0  0  0  0
  153.6800  138.1684  160.8596 H   0  0  0  0  0  0  0  0  0  0  0  0
  154.1446  136.7413  159.9260 H   0  0  0  0  0  0  0  0  0  0  0  0
  152.6823  136.7205  160.8944 H   0  0  0  0  0  0  0  0  0  0  0  0
  1  2  1  0  0  0  0
  1 26  1  0  0  0  0
  1 27  1  0  0  0  0
  1 28  1  0  0  0  0
  2  3  1  0  0  0  0
  2 29  1  0  0  0  0
  2 30  1  0  0  0  0
  3  4  1  0  0  0  0
  4  5  1  0  0  0  0
  4 31  1  0  0  0  0
  4 32  1  0  0  0  0
  5  6  1  0  0  0  0
  5 33  1  0  0  0  0
  5 34  1  0  0  0  0
  6 18  1  0  0  0  0
  6  7  1  0  0  0  0
  7  8  1  0  0  0  0
  7 16  2  0  0  0  0
  8 15  1  0  0  0  0
  8  9  1  0  0  0  0
  9 10  1  0  0  0  0
  9 35  1  0  0  0  0
  9 36  1  0  0  0  0
 10 11  1  0  0  0  0
 10 12  1  0  0  0  0
 10 37  1  0  0  0  0
 11 38  1  0  0  0  0
 11 39  1  0  0  0  0
 11 40  1  0  0  0  0
 12 13  1  0  0  0  0
 12 41  1  0  0  0  0
 12 42  1  0  0  0  0
 13 14  1  0  0  0  0
 13 15  1  0  0  0  0
 13 43  1  0  0  0  0
 14 44  1  0  0  0  0
 14 45  1  0  0  0  0
 14 46  1  0  0  0  0
 15 47  1  0  0  0  0
 15 48  1  0  0  0  0
 16 17  1  0  0  0  0
 17 24  1  0  0  0  0
 17 18  2  0  0  0  0
 18 19  1  0  0  0  0
 19 20  2  0  0  0  0
 19 21  1  0  0  0  0
 21 22  1  0  0  0  0
 22 23  2  0  0  0  0
 22 24  1  0  0  0  0
 24 25  1  0  0  0  0
 25 49  1  0  0  0  0
 25 50  1  0  0  0  0
 25 51  1  0  0  0  0
M  CHG  1  21  -1
M  END
> <s_m_source_file>
AV-unprocessed.smi

> <i_m_source_file_index>
546

> <i_lp_mmshare_version>
43012

> <i_f3d_flags>
0

> <s_epik_input>
W0NIM11uMWMoPU8pW25IXWMoPU8pYyhjMTIpbihbQ0gyXVtDSDJdT1tDSDJdW0NIM10pYyhuMilOM1tDSDJdW0NAQEhdKFtDSDNdKVtDSDJdW0NAQEhdKFtDSDNdKVtDSDJdMw==

> <s_epik_cmdline>
J2VwaWtfcHl0aG9uJywgJy1waCcsICc3LjAnLCAnLXRuJywgJzgnLCAnLW1hJywgJzIwMCcsICctbWV0YWxfYmluZGluZycsICctaW1hZScsICc8aW5maWxlLm1hZT4nLCAnLW9tYWUnLCAnPG91dGZpbGUubWFlPic=

> <r_lp_tautomer_probability>
1

> <r_epik_Ionization_Penalty>
5.12825

> <r_epik_Ionization_Penalty_Charging>
0.0743105

> <r_epik_Ionization_Penalty_Neutral>
5.05394

> <r_epik_State_Penalty>
5.04406

> <r_epik_Charging_Adjusted_Penalty>
5.11837

> <i_epik_Tot_Q>
-1

> <i_epik_Tot_abs_Q>
1

> <r_epik_Metal_State_Penalty>
1.15122

> <b_epik_Metal_Only>
1

> <s_lp_Force_Field>
OPLS_2005

> <r_lp_Energy>
39.602

> <b_lp_Chiralities_Consistent>
1

> <s_lp_Variant>
AV-unprocessed.smi:546-4

> <Gold.Version>
5.8.1

> <Gold.Id.Protein>
6NUR|6NUR_protein|mol2

> <Gold.PLP.Fitness>
40.8009

> <Gold.PLP.PLP>
-32.1954

> <Gold.PLP.part.hbond>
-3.7380

> <Gold.PLP.part.metal>
0.0000

> <Gold.PLP.part.buried>
-3.3337

> <Gold.PLP.part.nonpolar>
-25.5909

> <Gold.PLP.part.repulsive>
0.0033

> <Gold.PLP.ligand.clash>
0.0047

> <Gold.PLP.ligand.torsion>
0.7742

> <Gold.PLP.Chemscore.Hbond>
3.2715

> <Gold.PLP.Chemscore.CHOScore>
0.0000

> <Gold.PLP.Chemscore.Metal>
0.0000

> <Gold.Chemscore.Hbonds>
donor molecule, donor type, donor heavy atom, donor atom, acceptor molecule, acceptor atom, score
      P1  H  6896  6907       L1    16  0.93
      P1  H  7997  8008       L1    23  0.06
      P1  H  7997  8009       L1    21  0.38

> <Gold.PLP.Chemscore.Internal.Correction>
0.3441

> <Gold.Rescore>
     Score         DG    S(hbond)    S(metal)    S(lipo)     H(rot)  DE(clash)    DE(int)     intcor
     10.63     -13.75       1.73        0.00      54.60       1.52       0.00       3.12       ----

> <Gold.Chemscore.Fitness>
10.6269

> <Gold.Chemscore.DG>
-13.7541

> <Gold.Chemscore.ZeroCoef>
-5.4800

> <Gold.Chemscore.Hbond>
1.7300

> <Gold.Chemscore.Metal>
0.0000

> <Gold.Chemscore.Lipo>
54.6042

> <Gold.Chemscore.Internal_Hbond>
0.0000

> <Gold.Chemscore.DEClash>
0.0038

> <Gold.Chemscore.DEInternal>
3.1235

> <Gold.Chemscore.Rot>
1.5206

> <Gold.Chemscore.Internal.Correction>
   9.000000E+99

> <Gold.Chemscore.Hbonds>
donor molecule, donor type, donor heavy atom, donor atom, acceptor molecule, acceptor atom, score
      P1  H  6896  6907       L1    16  0.21
      P1  H  7997  8008       L1    23  0.08

> <Gold.Chemscore.Hbond.Weighted>
-5.7781

> <Gold.Chemscore.Metal.Weighted>
-0.0000

> <Gold.Chemscore.Lipo.Weighted>
-6.3887

> <Gold.Chemscore.Internal_Hbond.Weighted>
0.0000

> <Gold.Chemscore.DEClash.Weighted>
0.0038

> <Gold.Chemscore.DEInternal.Weighted>
3.1235

> <Gold.Chemscore.Rot.Weighted>
3.8926

> <Gold.Chemscore.Internal.Correction.Weighted>
   9.000000E+99

> <Gold.Protein.RotatedTorsions>
[ 6907 6896 6895 6894 ] final  -22.39 input  -60.11 | X-H torsion
[ 7974 7965 7964 7962 ] final  145.42 input  175.53 | X-H torsion
[ 8008 7997 7996 7995 ] final -166.52 input   59.86 | X-H torsion
[ 10167 10162 10161 10158 ] final    2.16 input  -65.29 | X-H torsion
[ 10718 10713 10712 10709 ] final  -77.76 input   66.30 | X-H torsion
[ 10763 10752 10751 10750 ] final  -15.16 input  -60.55 | X-H torsion
[ 11005 11000 10999 10996 ] final  -15.60 input  -57.11 | X-H torsion

> <Gold.Protein.ActiveResidues>
 VAL166  LYS551  ARG553  GLY616  TRP617  ASP618  TYR619  PRO620  LYS621  CYS622 
 ASP623  PHE694  ASN695  SER759  ASP760  ASP761  ALA762  ILE779  LEU786  VAL792 
 PHE793  MET794  SER795  GLU796  ALA797  LYS798  CYS799  TRP800  GLU811  SER814 

> <Gold.Protein.RotatedAtoms>
  151.2192  135.0512  159.8942 H   0  0  0  0  0  0  0  0  0  0  0  0  # atno 6907 bound_to 6896
  152.5417  134.0659  159.8183 H   0  0  0  0  0  0  0  0  0  0  0  0  # atno 6908 bound_to 6896
  151.0823  133.5332  159.2651 H   0  0  0  0  0  0  0  0  0  0  0  0  # atno 6909 bound_to 6896
  144.8754  139.5781  143.5867 H   0  0  0  0  0  0  0  0  0  0  0  0  # atno 7974 bound_to 7965
  155.8649  140.0984  157.1588 H   0  0  0  0  0  0  0  0  0  0  0  0  # atno 8008 bound_to 7997
  154.3993  140.1358  156.4069 H   0  0  0  0  0  0  0  0  0  0  0  0  # atno 8009 bound_to 7997
  155.7815  140.3458  155.5302 H   0  0  0  0  0  0  0  0  0  0  0  0  # atno 8010 bound_to 7997
  140.6648  143.7208  150.7807 H   0  0  0  0  0  0  0  0  0  0  0  0  # atno 10167 bound_to 10162
  156.0136  130.4500  150.3394 H   0  0  0  0  0  0  0  0  0  0  0  0  # atno 10718 bound_to 10713
  153.5391  135.7013  153.5645 H   0  0  0  0  0  0  0  0  0  0  0  0  # atno 10763 bound_to 10752
  153.3619  135.3967  155.1724 H   0  0  0  0  0  0  0  0  0  0  0  0  # atno 10764 bound_to 10752
  154.8676  135.3791  154.4894 H   0  0  0  0  0  0  0  0  0  0  0  0  # atno 10765 bound_to 10752
  140.7982  133.8234  155.9445 H   0  0  0  0  0  0  0  0  0  0  0  0  # atno 11005 bound_to 11000
  146.2959  139.7276  142.9127 LP  0  0  0  0  0  0  0  0  0  0  0  0  # atno 17320 bound_to 7965
  145.4053  141.0390  143.3048 LP  0  0  0  0  0  0  0  0  0  0  0  0  # atno 17321 bound_to 7965
  140.0883  143.4902  152.2492 LP  0  0  0  0  0  0  0  0  0  0  0  0  # atno 17342 bound_to 10162
  139.5893  144.7544  151.3440 LP  0  0  0  0  0  0  0  0  0  0  0  0  # atno 17343 bound_to 10162
  157.1489  131.0316  151.2894 LP  0  0  0  0  0  0  0  0  0  0  0  0  # atno 17370 bound_to 10713
  157.4408  130.7543  149.7068 LP  0  0  0  0  0  0  0  0  0  0  0  0  # atno 17371 bound_to 10713
  140.9321  134.2009  157.4857 LP  0  0  0  0  0  0  0  0  0  0  0  0  # atno 17394 bound_to 11000
  139.8724  134.9837  156.5208 LP  0  0  0  0  0  0  0  0  0  0  0  0  # atno 17395 bound_to 11000

$$$$
