#       Name:                AV-unprocessed.smi:218
#       Creating user name   scv26
#       Creation time:       Thu Mar 26 20:07:15 2020


#       File generated by GOLD software.
#

@<TRIPOS>MOLECULE
AV-unprocessed.smi:218
    68    71     1
SMALL
NO_CHARGES


@<TRIPOS>ATOM
      1 ****        -3.0966   4.4755  -4.8120 C.3            1 S1                 0.0000
      2 ****        -3.3693   3.8893  -3.4217 C.3            1 S1                 0.0000
      3 ****        -2.6490   4.6952  -2.3271 C.3            1 S1                 0.0000
      4 ****        -2.8958   2.5409  -3.4390 O.3            1 S1                 0.0000
      5 ****        -3.3735   1.6247  -2.5214 C.ar           1 S1                 0.0000
      6 ****        -2.8679   0.3091  -2.5660 C.ar           1 S1                 0.0000
      7 ****        -3.3573  -0.6420  -1.6468 C.ar           1 S1                 0.0000
      8 ****        -2.8595  -2.0768  -1.6688 C.3            1 S1                 0.0000
      9 ****        -1.4083  -2.2266  -1.6555 N.pl3          1 S1                 0.0000
     10 ****        -0.6917  -1.9454  -0.5447 C.ar           1 S1                 0.0000
     11 ****        -1.3003  -1.5487   0.6035 N.ar           1 S1                 0.0000
     12 ****        -0.5701  -1.2916   1.6924 C.ar           1 S1                 0.0000
     13 ****         0.7526  -1.3753   1.8482 N.ar           1 S1                 0.0000
     14 ****         1.3699  -1.7758   0.6993 C.ar           1 S1                 0.0000
     15 ****         0.7215  -2.0754  -0.5315 C.ar           1 S1                 0.0000
     16 ****         1.6634  -2.4509  -1.4804 N.2            1 S1                 0.0000
     17 ****         2.8003  -2.3824  -0.8412 C.2            1 S1                 0.0000
     18 ****         2.7159  -1.9859   0.4751 N.pl3          1 S1                 0.0000
     19 ****         3.8366  -1.8234   1.4500 C.3            1 S1                 0.0000
     20 ****         3.4306  -2.3510   2.6723 O.3            1 S1                 0.0000
     21 ****         4.0083  -1.5846   3.7186 C.3            1 S1                 0.0000
     22 ****         3.2592  -1.8087   5.0437 C.3            1 S1                 0.0000
     23 ****         3.7068  -2.9990   5.6559 O.3            1 S1                 0.0000
     24 ****         3.9724  -0.1505   3.1668 C.3            1 S1                 0.0000
     25 ****         2.7301   0.4778   3.4224 O.3            1 S1                 0.0000
     26 ****         4.1762  -0.3376   1.6647 C.3            1 S1                 0.0000
     27 ****         5.5263  -0.0739   1.3380 O.3            1 S1                 0.0000
     28 ****        -4.3347  -0.2381  -0.7158 C.ar           1 S1                 0.0000
     29 ****        -4.7752   1.0990  -0.7442 C.ar           1 S1                 0.0000
     30 ****        -4.3142   2.0128  -1.6245 N.ar           1 S1                 0.0000
     31 ****         4.6602  -2.4082   1.0372 H              1 S1                 0.0000
     32 ****         5.0543  -1.8806   3.8233 H              1 S1                 0.0000
     33 ****         4.7481   0.4675   3.6218 H              1 S1                 0.0000
     34 ****         3.5292   0.3104   1.0704 H              1 S1                 0.0000
     35 ****        -3.4403   5.5082  -4.8775 H              1 S1                 0.0000
     36 ****        -3.6143   3.9051  -5.5835 H              1 S1                 0.0000
     37 ****        -2.0316   4.4616  -5.0459 H              1 S1                 0.0000
     38 ****        -4.4482   3.9263  -3.2634 H              1 S1                 0.0000
     39 ****        -2.9781   5.7346  -2.3287 H              1 S1                 0.0000
     40 ****        -1.5693   4.6869  -2.4799 H              1 S1                 0.0000
     41 ****        -2.8442   4.2933  -1.3334 H              1 S1                 0.0000
     42 ****        -2.1218   0.0362  -3.2977 H              1 S1                 0.0000
     43 ****        -3.2895  -2.6333  -0.8348 H              1 S1                 0.0000
     44 ****        -3.2371  -2.5499  -2.5752 H              1 S1                 0.0000
     45 ****        -0.9861  -2.5209  -2.5244 H              1 S1                 0.0000
     46 ****        -1.1250  -0.9773   2.5641 H              1 S1                 0.0000
     47 ****         3.7401  -2.6230  -1.3165 H              1 S1                 0.0000
     48 ****         3.4648  -0.9907   5.7348 H              1 S1                 0.0000
     49 ****         2.1799  -1.8451   4.8907 H              1 S1                 0.0000
     50 ****         3.5102  -3.7224   5.0799 H              1 S1                 0.0000
     51 ****         2.6094   0.5394   4.3574 H              1 S1                 0.0000
     52 ****         5.6419  -0.2080   0.4098 H              1 S1                 0.0000
     53 ****        -4.7378  -0.9332   0.0059 H              1 S1                 0.0000
     54 ****        -5.5220   1.4431  -0.0439 H              1 S1                 0.0000
     55 ****        -1.9044   2.5824  -3.3149 LP             1 S1                 0.0000
     56 ****        -3.1032   2.1746  -4.3461 LP             1 S1                 0.0000
     57 ****        -2.2949  -1.4492   0.6335 LP             1 S1                 0.0000
     58 ****         1.2320  -1.1699   2.7014 LP             1 S1                 0.0000
     59 ****         1.5073  -2.7131  -2.4327 LP             1 S1                 0.0000
     60 ****         3.7339  -3.3011   2.7452 LP             1 S1                 0.0000
     61 ****         2.4336  -2.3133   2.7396 LP             1 S1                 0.0000
     62 ****         3.2382  -3.1262   6.5301 LP             1 S1                 0.0000
     63 ****         4.6935  -2.9489   5.8108 LP             1 S1                 0.0000
     64 ****         1.9905  -0.0634   3.0223 LP             1 S1                 0.0000
     65 ****         2.7273   1.3939   3.0214 LP             1 S1                 0.0000
     66 ****         6.1237  -0.6949   1.8455 LP             1 S1                 0.0000
     67 ****         5.7517   0.8716   1.5729 LP             1 S1                 0.0000
     68 ****        -4.6575   2.9520  -1.6156 LP             1 S1                 0.0000
@<TRIPOS>BOND
    1    1    2 1     
    2    1   35 1     
    3    1   36 1     
    4    1   37 1     
    5    2    3 1     
    6    2    4 1     
    7    2   38 1     
    8    3   39 1     
    9    3   40 1     
   10    3   41 1     
   11    4    5 1     
   12    5   30 ar    
   13    5    6 ar    
   14    6    7 ar    
   15    6   42 1     
   16    7    8 1     
   17    7   28 ar    
   18    8    9 1     
   19    8   43 1     
   20    8   44 1     
   21    9   10 1     
   22    9   45 1     
   23   10   15 ar    
   24   10   11 ar    
   25   11   12 ar    
   26   12   13 ar    
   27   12   46 1     
   28   13   14 ar    
   29   14   18 1     
   30   14   15 ar    
   31   15   16 1     
   32   16   17 2     
   33   17   18 1     
   34   17   47 1     
   35   18   19 1     
   36   19   31 1     
   37   19   26 1     
   38   19   20 1     
   39   20   21 1     
   40   21   32 1     
   41   21   22 1     
   42   21   24 1     
   43   22   23 1     
   44   22   48 1     
   45   22   49 1     
   46   23   50 1     
   47   24   33 1     
   48   24   25 1     
   49   24   26 1     
   50   25   51 1     
   51   26   34 1     
   52   26   27 1     
   53   27   52 1     
   54   28   29 ar    
   55   28   53 1     
   56   29   30 ar    
   57   29   54 1     
   58    4   55 1     
   59    4   56 1     
   60   11   57 1     
   61   13   58 1     
   62   16   59 1     
   63   20   60 1     
   64   20   61 1     
   65   23   62 1     
   66   23   63 1     
   67   25   64 1     
   68   25   65 1     
   69   27   66 1     
   70   27   67 1     
   71   30   68 1     
@<TRIPOS>SUBSTRUCTURE
      1 S1             1
@<TRIPOS>SET
LONE_PAIRS      STATIC     ATOMS    <user>   **** ""
14 55 56 57 58 59 60 61 62 63 64 65 66 67 68
DONOR_HYDROGENS      STATIC     ATOMS    <user>   **** ""
4 45 50 51 52
ATOM$BLUE        STATIC     ATOMS    COLORGROUP SYSTEM
14 55 56 57 58 59 60 61 62 63 64 65 66 67 68
ATOM$RED        STATIC     ATOMS    COLORGROUP SYSTEM
4 45 50 51 52
