AV-unprocessed.smi:2427|AV-procd|sdf|9579|dock4
  -GOLD-   2272013213D 1   1.00000     0.00000
 Structure written by MMmdl.
 35 36  0  0  0  0  0  0  0  0  3 V2000
  150.4519  140.4689  154.9712 O   0  0  0  0  0  0  0  0  0  0  0  0
  149.7520  141.4368  155.2735 C   0  0  0  0  0  0  0  0  0  0  0  0
  148.3729  141.6501  154.6324 C   0  0  0  0  0  0  0  0  0  0  0  0
  147.5046  140.4623  154.6961 N   0  0  0  0  0  0  0  0  0  0  0  0
  147.2593  139.7858  153.4848 C   0  0  0  0  0  0  0  0  0  0  0  0
  146.4758  138.6916  153.4217 C   0  0  0  0  0  0  0  0  0  0  0  0
  146.2307  138.0128  152.1682 N   0  3  0  0  0  0  0  0  0  0  0  0
  146.7518  138.4534  151.1486 O   0  0  0  0  0  0  0  0  0  0  0  0
  145.5103  137.0189  152.1598 O   0  5  0  0  0  0  0  0  0  0  0  0
  145.8799  138.2172  154.6557 C   0  0  0  0  0  0  0  0  0  0  0  0
  146.1065  138.8627  155.8168 C   0  0  0  0  0  0  0  0  0  0  0  0
  146.9571  140.0555  155.8823 C   0  0  0  0  0  0  0  0  0  0  0  0
  147.1644  140.6523  156.9391 O   0  0  0  0  0  0  0  0  0  0  0  0
  150.1237  142.3563  156.1766 N   0  0  0  0  0  0  0  0  0  0  0  0
  151.3815  142.3493  156.9146 C   0  0  0  0  0  0  0  0  0  0  0  0
  151.2997  143.2072  158.1885 C   0  0  1  0  0  0  0  0  0  0  0  0
  152.5933  143.2319  159.0017 C   0  0  0  0  0  0  0  0  0  0  0  0
  152.5432  144.5712  159.7233 C   0  0  0  0  0  0  0  0  0  0  0  0
  151.3929  145.3207  159.0455 C   0  0  0  0  0  0  0  0  0  0  0  0
  151.1169  144.5771  157.8677 O   0  0  0  0  0  0  0  0  0  0  0  0
  147.8933  142.4961  155.1269 H   0  0  0  0  0  0  0  0  0  0  0  0
  148.5079  141.9670  153.5966 H   0  0  0  0  0  0  0  0  0  0  0  0
  147.7428  140.2222  152.6224 H   0  0  0  0  0  0  0  0  0  0  0  0
  145.2463  137.3424  154.6575 H   0  0  0  0  0  0  0  0  0  0  0  0
  145.6507  138.4933  156.7237 H   0  0  0  0  0  0  0  0  0  0  0  0
  149.4864  143.1146  156.3727 H   0  0  0  0  0  0  0  0  0  0  0  0
  151.6538  141.3231  157.1673 H   0  0  0  0  0  0  0  0  0  0  0  0
  152.1666  142.7251  156.2578 H   0  0  0  0  0  0  0  0  0  0  0  0
  150.4758  142.8785  158.8250 H   0  0  0  0  0  0  0  0  0  0  0  0
  152.6722  142.3850  159.6840 H   0  0  0  0  0  0  0  0  0  0  0  0
  153.4593  143.2094  158.3386 H   0  0  0  0  0  0  0  0  0  0  0  0
  152.3532  144.4507  160.7904 H   0  0  0  0  0  0  0  0  0  0  0  0
  153.4880  145.1038  159.6088 H   0  0  0  0  0  0  0  0  0  0  0  0
  150.5076  145.3221  159.6834 H   0  0  0  0  0  0  0  0  0  0  0  0
  151.6450  146.3551  158.8110 H   0  0  0  0  0  0  0  0  0  0  0  0
  1  2  2  0  0  0  0
  2  3  1  0  0  0  0
  2 14  1  0  0  0  0
  3  4  1  0  0  0  0
  3 21  1  0  0  0  0
  3 22  1  0  0  0  0
  4 12  1  0  0  0  0
  4  5  1  0  0  0  0
  5  6  2  0  0  0  0
  5 23  1  0  0  0  0
  6  7  1  0  0  0  0
  6 10  1  0  0  0  0
  7  8  2  0  0  0  0
  7  9  1  0  0  0  0
 10 11  2  0  0  0  0
 10 24  1  0  0  0  0
 11 12  1  0  0  0  0
 11 25  1  0  0  0  0
 12 13  2  0  0  0  0
 14 15  1  0  0  0  0
 14 26  1  0  0  0  0
 15 16  1  0  0  0  0
 15 27  1  0  0  0  0
 15 28  1  0  0  0  0
 16 20  1  0  0  0  0
 16 17  1  0  0  0  0
 16 29  1  0  0  0  0
 17 18  1  0  0  0  0
 17 30  1  0  0  0  0
 17 31  1  0  0  0  0
 18 19  1  0  0  0  0
 18 32  1  0  0  0  0
 18 33  1  0  0  0  0
 19 20  1  0  0  0  0
 19 34  1  0  0  0  0
 19 35  1  0  0  0  0
M  CHG  1   7   1
M  CHG  1   9  -1
M  END
> <s_m_source_file>
AV-unprocessed.smi

> <i_m_source_file_index>
2427

> <i_lp_mmshare_version>
43012

> <i_f3d_flags>
0

> <s_epik_input>
TzFbQ0gyXVtDSDJdW0NIMl1bQ0BIXTFbQ0gyXVtOSF1DKD1PKVtDSDJdbjJbY0hdYyhbTitdKD1PKVtPLV0pW2NIXVtjSF1jMj1P

> <s_epik_cmdline>
J2VwaWtfcHl0aG9uJywgJy1waCcsICc3LjAnLCAnLXRuJywgJzgnLCAnLW1hJywgJzIwMCcsICctbWV0YWxfYmluZGluZycsICctaW1hZScsICc8aW5maWxlLm1hZT4nLCAnLW9tYWUnLCAnPG91dGZpbGUubWFlPic=

> <r_lp_tautomer_probability>
1

> <r_epik_Ionization_Penalty>
2.69366e-08

> <r_epik_Ionization_Penalty_Charging>
7.76344e-11

> <r_epik_Ionization_Penalty_Neutral>
2.6859e-08

> <r_epik_State_Penalty>
-0

> <r_epik_Charging_Adjusted_Penalty>
7.76344e-11

> <i_epik_Tot_Q>
0

> <i_epik_Tot_abs_Q>
2

> <r_epik_Metal_State_Penalty>
-0

> <b_epik_Metal_Only>
0

> <s_lp_Force_Field>
OPLS_2005

> <r_lp_Energy>
28.9532

> <b_lp_Chiralities_Consistent>
1

> <s_lp_Variant>
AV-unprocessed.smi:2427-2

> <Gold.Version>
5.8.1

> <Gold.Id.Protein>
6NUR|6NUR_protein|mol2

> <Gold.PLP.Fitness>
44.9663

> <Gold.PLP.PLP>
-34.2308

> <Gold.PLP.part.hbond>
-3.0000

> <Gold.PLP.part.metal>
0.0000

> <Gold.PLP.part.buried>
-7.3292

> <Gold.PLP.part.nonpolar>
-25.7919

> <Gold.PLP.part.repulsive>
1.1127

> <Gold.PLP.ligand.clash>
0.0000

> <Gold.PLP.ligand.torsion>
0.3394

> <Gold.PLP.Chemscore.Hbond>
2.7840

> <Gold.PLP.Chemscore.CHOScore>
1.0000

> <Gold.PLP.Chemscore.Metal>
0.0000

> <Gold.Chemscore.Hbonds>
donor molecule, donor type, donor heavy atom, donor atom, acceptor molecule, acceptor atom, score
      L1  H    14    26       P1  8028  0.83
      P1  H  7954  7966       L1     8  1.00
      P1  H  7989  7998       L1     1  1.00
      L1  C     5    23       P1  7957  1.00

> <Gold.PLP.Chemscore.Internal.Correction>
0.0622

> <Gold.Rescore>
     Score         DG    S(hbond)    S(metal)    S(lipo)     H(rot)  DE(clash)    DE(int)     intcor
     17.07     -18.06       2.53        0.00      76.96       1.90       0.67       0.32       ----

> <Gold.Chemscore.Fitness>
17.0659

> <Gold.Chemscore.DG>
-18.0552

> <Gold.Chemscore.ZeroCoef>
-5.4800

> <Gold.Chemscore.Hbond>
2.5289

> <Gold.Chemscore.Metal>
0.0000

> <Gold.Chemscore.Lipo>
76.9561

> <Gold.Chemscore.Internal_Hbond>
0.0000

> <Gold.Chemscore.DEClash>
0.6675

> <Gold.Chemscore.DEInternal>
0.3219

> <Gold.Chemscore.Rot>
1.9044

> <Gold.Chemscore.Internal.Correction>
   9.000000E+99

> <Gold.Chemscore.Hbonds>
donor molecule, donor type, donor heavy atom, donor atom, acceptor molecule, acceptor atom, score
      L1  H    14    26       P1  8028  0.81
      P1  H  7954  7966       L1     8  0.96
      P1  H  7989  7998       L1     1  0.74

> <Gold.Chemscore.Hbond.Weighted>
-8.4467

> <Gold.Chemscore.Metal.Weighted>
-0.0000

> <Gold.Chemscore.Lipo.Weighted>
-9.0039

> <Gold.Chemscore.Internal_Hbond.Weighted>
0.0000

> <Gold.Chemscore.DEClash.Weighted>
0.6675

> <Gold.Chemscore.DEInternal.Weighted>
0.3219

> <Gold.Chemscore.Rot.Weighted>
4.8753

> <Gold.Chemscore.Internal.Correction.Weighted>
   9.000000E+99

> <Gold.Protein.RotatedTorsions>
[ 6907 6896 6895 6894 ] final  -37.81 input  -60.11 | X-H torsion
[ 7974 7965 7964 7962 ] final   10.36 input  175.53 | X-H torsion
[ 8008 7997 7996 7995 ] final  176.22 input   59.86 | X-H torsion
[ 10167 10162 10161 10158 ] final   89.15 input  -65.29 | X-H torsion
[ 10718 10713 10712 10709 ] final  -57.16 input   66.30 | X-H torsion
[ 10763 10752 10751 10750 ] final  -28.79 input  -60.55 | X-H torsion
[ 11005 11000 10999 10996 ] final  158.76 input  -57.11 | X-H torsion

> <Gold.Protein.ActiveResidues>
 VAL166  LYS551  ARG553  GLY616  TRP617  ASP618  TYR619  PRO620  LYS621  CYS622 
 ASP623  PHE694  ASN695  SER759  ASP760  ASP761  ALA762  ILE779  LEU786  VAL792 
 PHE793  MET794  SER795  GLU796  ALA797  LYS798  CYS799  TRP800  GLU811  SER814 

> <Gold.Protein.RotatedAtoms>
  151.0101  134.9390  159.8001 H   0  0  0  0  0  0  0  0  0  0  0  0  # atno 6907 bound_to 6896
  152.5300  134.3040  159.9099 H   0  0  0  0  0  0  0  0  0  0  0  0  # atno 6908 bound_to 6896
  151.3046  133.4065  159.2676 H   0  0  0  0  0  0  0  0  0  0  0  0  # atno 6909 bound_to 6896
  146.2389  139.9645  142.8454 H   0  0  0  0  0  0  0  0  0  0  0  0  # atno 7974 bound_to 7965
  156.0787  140.1389  156.9739 H   0  0  0  0  0  0  0  0  0  0  0  0  # atno 8008 bound_to 7997
  154.4573  140.0956  156.6842 H   0  0  0  0  0  0  0  0  0  0  0  0  # atno 8009 bound_to 7997
  155.5110  140.3453  155.4390 H   0  0  0  0  0  0  0  0  0  0  0  0  # atno 8010 bound_to 7997
  139.8601  144.6548  150.9068 H   0  0  0  0  0  0  0  0  0  0  0  0  # atno 10167 bound_to 10162
  156.1232  130.4164  150.0403 H   0  0  0  0  0  0  0  0  0  0  0  0  # atno 10718 bound_to 10713
  153.7542  135.6924  153.4939 H   0  0  0  0  0  0  0  0  0  0  0  0  # atno 10763 bound_to 10752
  153.1983  135.4446  155.0233 H   0  0  0  0  0  0  0  0  0  0  0  0  # atno 10764 bound_to 10752
  154.8176  135.3406  154.7060 H   0  0  0  0  0  0  0  0  0  0  0  0  # atno 10765 bound_to 10752
  140.1896  134.8416  157.2897 H   0  0  0  0  0  0  0  0  0  0  0  0  # atno 11005 bound_to 11000
  145.1739  140.9734  143.4305 LP  0  0  0  0  0  0  0  0  0  0  0  0  # atno 17320 bound_to 7965
  145.0003  139.3604  143.6171 LP  0  0  0  0  0  0  0  0  0  0  0  0  # atno 17321 bound_to 7965
  140.7776  143.3752  151.1577 LP  0  0  0  0  0  0  0  0  0  0  0  0  # atno 17342 bound_to 10162
  139.7382  143.8966  152.3041 LP  0  0  0  0  0  0  0  0  0  0  0  0  # atno 17343 bound_to 10162
  156.8336  130.9401  151.3636 LP  0  0  0  0  0  0  0  0  0  0  0  0  # atno 17370 bound_to 10713
  157.6415  130.8809  149.9457 LP  0  0  0  0  0  0  0  0  0  0  0  0  # atno 17371 bound_to 10713
  140.2174  134.4064  155.7582 LP  0  0  0  0  0  0  0  0  0  0  0  0  # atno 17394 bound_to 11000
  141.2226  133.7149  156.8436 LP  0  0  0  0  0  0  0  0  0  0  0  0  # atno 17395 bound_to 11000

$$$$
