AV-unprocessed.smi:2528|AV-procd|sdf|9958|dock8
  -GOLD-   2272013593D 1   1.00000     0.00000
 Structure written by MMmdl.
 43 45  0  0  0  0  0  0  0  0  1 V2000
  144.4897  136.7060  152.7396 O   0  0  0  0  0  0  0  0  0  0  0  0
  145.7003  136.5494  152.5770 C   0  0  0  0  0  0  0  0  0  0  0  0
  146.6203  137.4344  152.9864 N   0  0  0  0  0  0  0  0  0  0  0  0
  146.3284  138.6819  153.6841 C   0  0  0  0  0  0  0  0  0  0  0  0
  147.1191  139.8670  153.0884 C   0  0  2  0  0  0  0  0  0  0  0  0
  148.6457  139.6968  153.2074 C   0  0  0  0  0  0  0  0  0  0  0  0
  149.1304  139.8749  154.5710 N   0  0  0  0  0  0  0  0  0  0  0  0
  150.5843  139.7321  154.6339 C   0  0  0  0  0  0  0  0  0  0  0  0
  151.1287  139.8824  156.0629 C   0  0  0  0  0  0  0  0  0  0  0  0
  150.7040  141.2342  156.6532 C   0  0  0  0  0  0  0  0  0  0  0  0
  149.1812  141.4013  156.5399 C   0  0  0  0  0  0  0  0  0  0  0  0
  148.7053  141.1785  155.0887 C   0  0  2  0  0  0  0  0  0  0  0  0
  147.1748  141.3372  154.9952 C   0  0  0  0  0  0  0  0  0  0  0  0
  146.7305  141.1185  153.6589 O   0  0  0  0  0  0  0  0  0  0  0  0
  146.2754  135.4898  151.9815 N   0  0  0  0  0  0  0  0  0  0  0  0
  145.6429  134.3535  151.4097 C   0  0  0  0  0  0  0  0  0  0  0  0
  146.5222  133.3767  150.8894 C   0  0  0  0  0  0  0  0  0  0  0  0
  145.9935  132.2118  150.2999 C   0  0  0  0  0  0  0  0  0  0  0  0
  144.5973  132.0537  150.2445 C   0  0  0  0  0  0  0  0  0  0  0  0
  143.7928  133.0733  150.7852 C   0  0  0  0  0  0  0  0  0  0  0  0
  144.2973  134.1902  151.3508 N   0  0  0  0  0  0  0  0  0  0  0  0
  147.5931  137.2264  152.8162 H   0  0  0  0  0  0  0  0  0  0  0  0
  145.2550  138.8608  153.6318 H   0  0  0  0  0  0  0  0  0  0  0  0
  146.5604  138.5734  154.7450 H   0  0  0  0  0  0  0  0  0  0  0  0
  146.8797  139.9237  152.0259 H   0  0  0  0  0  0  0  0  0  0  0  0
  148.9345  138.7134  152.8343 H   0  0  0  0  0  0  0  0  0  0  0  0
  149.1294  140.4252  152.5545 H   0  0  0  0  0  0  0  0  0  0  0  0
  150.8731  138.7552  154.2445 H   0  0  0  0  0  0  0  0  0  0  0  0
  151.0573  140.4733  153.9878 H   0  0  0  0  0  0  0  0  0  0  0  0
  150.7497  139.0719  156.6867 H   0  0  0  0  0  0  0  0  0  0  0  0
  152.2156  139.7961  156.0630 H   0  0  0  0  0  0  0  0  0  0  0  0
  151.0183  141.3105  157.6944 H   0  0  0  0  0  0  0  0  0  0  0  0
  151.2020  142.0414  156.1147 H   0  0  0  0  0  0  0  0  0  0  0  0
  148.6884  140.6889  157.2033 H   0  0  0  0  0  0  0  0  0  0  0  0
  148.8937  142.3953  156.8836 H   0  0  0  0  0  0  0  0  0  0  0  0
  149.1537  141.9575  154.4695 H   0  0  0  0  0  0  0  0  0  0  0  0
  146.6684  140.6525  155.6759 H   0  0  0  0  0  0  0  0  0  0  0  0
  146.8811  142.3439  155.2934 H   0  0  0  0  0  0  0  0  0  0  0  0
  147.2832  135.4978  151.9300 H   0  0  0  0  0  0  0  0  0  0  0  0
  147.5926  133.5144  150.9402 H   0  0  0  0  0  0  0  0  0  0  0  0
  146.6487  131.4535  149.8972 H   0  0  0  0  0  0  0  0  0  0  0  0
  144.1542  131.1749  149.7995 H   0  0  0  0  0  0  0  0  0  0  0  0
  142.7162  132.9911  150.7630 H   0  0  0  0  0  0  0  0  0  0  0  0
  1  2  2  0  0  0  0
  2  3  1  0  0  0  0
  2 15  1  0  0  0  0
  3  4  1  0  0  0  0
  3 22  1  0  0  0  0
  4  5  1  0  0  0  0
  4 23  1  0  0  0  0
  4 24  1  0  0  0  0
  5 14  1  0  0  0  0
  5  6  1  0  0  0  0
  5 25  1  0  0  0  0
  6  7  1  0  0  0  0
  6 26  1  0  0  0  0
  6 27  1  0  0  0  0
  7 12  1  0  0  0  0
  7  8  1  0  0  0  0
  8  9  1  0  0  0  0
  8 28  1  0  0  0  0
  8 29  1  0  0  0  0
  9 10  1  0  0  0  0
  9 30  1  0  0  0  0
  9 31  1  0  0  0  0
 10 11  1  0  0  0  0
 10 32  1  0  0  0  0
 10 33  1  0  0  0  0
 11 12  1  0  0  0  0
 11 34  1  0  0  0  0
 11 35  1  0  0  0  0
 12 13  1  0  0  0  0
 12 36  1  0  0  0  0
 13 14  1  0  0  0  0
 13 37  1  0  0  0  0
 13 38  1  0  0  0  0
 15 16  1  0  0  0  0
 15 39  1  0  0  0  0
 16 21  1  0  0  0  0
 16 17  2  0  0  0  0
 17 18  1  0  0  0  0
 17 40  1  0  0  0  0
 18 19  2  0  0  0  0
 18 41  1  0  0  0  0
 19 20  1  0  0  0  0
 19 42  1  0  0  0  0
 20 21  2  0  0  0  0
 20 43  1  0  0  0  0
M  END
> <s_m_source_file>
AV-unprocessed.smi

> <i_m_source_file_index>
2528

> <i_lp_mmshare_version>
43012

> <i_f3d_flags>
0

> <s_epik_input>
bjFbY0hdW2NIXVtjSF1bY0hdYzFbTkhdQyg9TylbTkhdW0NIMl1bQ0BIXShbQ0gyXTIpT1tDSDJdW0NAQEhdKE4yMylbQ0gyXVtDSDJdW0NIMl1bQ0gyXTM=

> <s_epik_cmdline>
J2VwaWtfcHl0aG9uJywgJy1waCcsICc3LjAnLCAnLXRuJywgJzgnLCAnLW1hJywgJzIwMCcsICctbWV0YWxfYmluZGluZycsICctaW1hZScsICc8aW5maWxlLm1hZT4nLCAnLW9tYWUnLCAnPG91dGZpbGUubWFlPic=

> <r_epik_Ionization_Penalty>
1.14192

> <r_epik_Ionization_Penalty_Charging>
0

> <r_epik_Ionization_Penalty_Neutral>
1.14192

> <r_epik_State_Penalty>
1.20248

> <r_epik_Charging_Adjusted_Penalty>
1.20248

> <i_epik_Tot_Q>
0

> <i_epik_Tot_abs_Q>
0

> <r_epik_Metal_State_Penalty>
1.20248

> <b_epik_Metal_Only>
0

> <s_lp_Force_Field>
OPLS_2005

> <r_lp_Energy>
38.2617

> <b_lp_Chiralities_Consistent>
1

> <s_lp_Variant>
AV-unprocessed.smi:2528-11

> <Gold.Version>
5.8.1

> <Gold.Id.Protein>
6NUR|6NUR_protein|mol2

> <Gold.PLP.Fitness>
40.1675

> <Gold.PLP.PLP>
-31.3532

> <Gold.PLP.part.hbond>
-2.0000

> <Gold.PLP.part.metal>
0.0000

> <Gold.PLP.part.buried>
1.1819

> <Gold.PLP.part.nonpolar>
-32.0627

> <Gold.PLP.part.repulsive>
0.6688

> <Gold.PLP.ligand.clash>
0.0000

> <Gold.PLP.ligand.torsion>
0.0961

> <Gold.PLP.Chemscore.Hbond>
2.0000

> <Gold.PLP.Chemscore.CHOScore>
1.0000

> <Gold.PLP.Chemscore.Metal>
0.0000

> <Gold.Chemscore.Hbonds>
donor molecule, donor type, donor heavy atom, donor atom, acceptor molecule, acceptor atom, score
      L1  H     3    22       P1  7948  0.99
      L1  H    15    39       P1  7948  1.00
      L1  C    20    43       P1 10186  0.99

> <Gold.PLP.Chemscore.Internal.Correction>
0.0064

> <Gold.Rescore>
     Score         DG    S(hbond)    S(metal)    S(lipo)     H(rot)  DE(clash)    DE(int)     intcor
     15.97     -19.09       1.95        0.00      88.53       1.27       1.73       1.39       ----

> <Gold.Chemscore.Fitness>
15.9708

> <Gold.Chemscore.DG>
-19.0890

> <Gold.Chemscore.ZeroCoef>
-5.4800

> <Gold.Chemscore.Hbond>
1.9463

> <Gold.Chemscore.Metal>
0.0000

> <Gold.Chemscore.Lipo>
88.5337

> <Gold.Chemscore.Internal_Hbond>
0.0000

> <Gold.Chemscore.DEClash>
1.7275

> <Gold.Chemscore.DEInternal>
1.3907

> <Gold.Chemscore.Rot>
1.2696

> <Gold.Chemscore.Internal.Correction>
   9.000000E+99

> <Gold.Chemscore.Hbonds>
donor molecule, donor type, donor heavy atom, donor atom, acceptor molecule, acceptor atom, score
      L1  H     3    22       P1  7948  0.94
      L1  H    15    39       P1  7948  0.99

> <Gold.Chemscore.Hbond.Weighted>
-6.5007

> <Gold.Chemscore.Metal.Weighted>
-0.0000

> <Gold.Chemscore.Lipo.Weighted>
-10.3584

> <Gold.Chemscore.Internal_Hbond.Weighted>
0.0000

> <Gold.Chemscore.DEClash.Weighted>
1.7275

> <Gold.Chemscore.DEInternal.Weighted>
1.3907

> <Gold.Chemscore.Rot.Weighted>
3.2502

> <Gold.Chemscore.Internal.Correction.Weighted>
   9.000000E+99

> <Gold.Protein.RotatedTorsions>
[ 6907 6896 6895 6894 ] final -144.92 input  -60.11 | X-H torsion
[ 7974 7965 7964 7962 ] final  -98.06 input  175.53 | X-H torsion
[ 8008 7997 7996 7995 ] final   33.11 input   59.86 | X-H torsion
[ 10167 10162 10161 10158 ] final -149.59 input  -65.29 | X-H torsion
[ 10718 10713 10712 10709 ] final -157.71 input   66.30 | X-H torsion
[ 10763 10752 10751 10750 ] final  163.80 input  -60.55 | X-H torsion
[ 11005 11000 10999 10996 ] final  -23.66 input  -57.11 | X-H torsion

> <Gold.Protein.ActiveResidues>
 VAL166  LYS551  ARG553  GLY616  TRP617  ASP618  TYR619  PRO620  LYS621  CYS622 
 ASP623  PHE694  ASN695  SER759  ASP760  ASP761  ALA762  ILE779  LEU786  VAL792 
 PHE793  MET794  SER795  GLU796  ALA797  LYS798  CYS799  TRP800  GLU811  SER814 

> <Gold.Protein.RotatedAtoms>
  151.1207  133.5106  159.2601 H   0  0  0  0  0  0  0  0  0  0  0  0  # atno 6907 bound_to 6896
  151.1865  135.0383  159.8824 H   0  0  0  0  0  0  0  0  0  0  0  0  # atno 6908 bound_to 6896
  152.5455  134.1053  159.8388 H   0  0  0  0  0  0  0  0  0  0  0  0  # atno 6909 bound_to 6896
  145.3256  140.9431  143.2691 H   0  0  0  0  0  0  0  0  0  0  0  0  # atno 7974 bound_to 7965
  155.1333  140.3259  155.4469 H   0  0  0  0  0  0  0  0  0  0  0  0  # atno 8008 bound_to 7997
  156.2627  140.2006  156.6401 H   0  0  0  0  0  0  0  0  0  0  0  0  # atno 8009 bound_to 7997
  154.6596  140.0549  157.0034 H   0  0  0  0  0  0  0  0  0  0  0  0  # atno 8010 bound_to 7997
  139.7428  143.8635  152.2567 H   0  0  0  0  0  0  0  0  0  0  0  0  # atno 10167 bound_to 10162
  156.5441  130.8576  151.2758 H   0  0  0  0  0  0  0  0  0  0  0  0  # atno 10718 bound_to 10713
  154.2993  135.2759  155.2618 H   0  0  0  0  0  0  0  0  0  0  0  0  # atno 10763 bound_to 10752
  154.5063  135.5794  153.6573 H   0  0  0  0  0  0  0  0  0  0  0  0  # atno 10764 bound_to 10752
  152.9903  135.6170  154.3162 H   0  0  0  0  0  0  0  0  0  0  0  0  # atno 10765 bound_to 10752
  140.8772  133.7679  156.0258 H   0  0  0  0  0  0  0  0  0  0  0  0  # atno 11005 bound_to 11000
  144.8905  139.4781  143.6680 LP  0  0  0  0  0  0  0  0  0  0  0  0  # atno 17320 bound_to 7965
  146.3066  139.7600  142.9052 LP  0  0  0  0  0  0  0  0  0  0  0  0  # atno 17321 bound_to 7965
  139.8591  144.7126  150.9121 LP  0  0  0  0  0  0  0  0  0  0  0  0  # atno 17342 bound_to 10162
  140.7788  143.3833  151.1438 LP  0  0  0  0  0  0  0  0  0  0  0  0  # atno 17343 bound_to 10162
  157.7400  130.9842  150.2348 LP  0  0  0  0  0  0  0  0  0  0  0  0  # atno 17370 bound_to 10713
  156.2945  130.3750  149.7810 LP  0  0  0  0  0  0  0  0  0  0  0  0  # atno 17371 bound_to 10713
  140.8503  134.2961  157.5278 LP  0  0  0  0  0  0  0  0  0  0  0  0  # atno 17394 bound_to 11000
  139.8716  134.9464  156.3938 LP  0  0  0  0  0  0  0  0  0  0  0  0  # atno 17395 bound_to 11000

$$$$
