AV-unprocessed.smi:2598|AV-procd|sdf|10178|dock6
  -GOLD-   2272014193D 1   1.00000     0.00000
 Structure written by MMmdl.
 27 28  0  0  0  0  0  0  0  0  1 V2000
  152.3894  140.0867  157.4999 O   0  0  0  0  0  0  0  0  0  0  0  0
  151.5177  140.7019  156.8886 C   0  0  0  0  0  0  0  0  0  0  0  0
  150.7673  140.0941  155.9462 N   0  0  0  0  0  0  0  0  0  0  0  0
  150.7585  138.8085  155.4978 C   0  0  0  0  0  0  0  0  0  0  0  0
  151.8583  138.0121  155.3218 C   0  0  0  0  0  0  0  0  0  0  0  0
  151.5654  136.7131  154.8770 N   0  0  0  0  0  0  0  0  0  0  0  0
  150.2963  136.4766  154.7212 N   0  0  0  0  0  0  0  0  0  0  0  0
  149.3803  137.8206  155.1161 S   0  0  0  0  0  0  0  0  0  0  0  0
  151.2690  142.0067  157.0915 N   0  0  0  0  0  0  0  0  0  0  0  0
  151.9535  142.8676  158.0512 C   0  0  0  0  0  0  0  0  0  0  0  0
  151.7271  142.3545  159.4884 C   0  0  0  0  0  0  0  0  0  0  0  0
  152.4764  143.1922  160.5347 C   0  0  0  0  0  0  0  0  0  0  0  0
  151.8945  144.9099  160.5445 S   0  0  0  0  0  0  0  0  0  0  0  0
  152.1887  145.3021  158.7986 C   0  0  0  0  0  0  0  0  0  0  0  0
  151.4585  144.3156  157.8758 C   0  0  0  0  0  0  0  0  0  0  0  0
  150.1484  140.7133  155.4427 H   0  0  0  0  0  0  0  0  0  0  0  0
  152.8910  138.2835  155.4846 H   0  0  0  0  0  0  0  0  0  0  0  0
  150.5421  142.4368  156.5383 H   0  0  0  0  0  0  0  0  0  0  0  0
  153.0234  142.8480  157.8338 H   0  0  0  0  0  0  0  0  0  0  0  0
  150.6608  142.3470  159.7189 H   0  0  0  0  0  0  0  0  0  0  0  0
  152.0624  141.3196  159.5658 H   0  0  0  0  0  0  0  0  0  0  0  0
  152.3324  142.7698  161.5292 H   0  0  0  0  0  0  0  0  0  0  0  0
  153.5481  143.1803  160.3345 H   0  0  0  0  0  0  0  0  0  0  0  0
  151.8475  146.3196  158.6078 H   0  0  0  0  0  0  0  0  0  0  0  0
  153.2616  145.2829  158.6046 H   0  0  0  0  0  0  0  0  0  0  0  0
  151.6068  144.6270  156.8410 H   0  0  0  0  0  0  0  0  0  0  0  0
  150.3845  144.3693  158.0595 H   0  0  0  0  0  0  0  0  0  0  0  0
  1  2  2  0  0  0  0
  2  3  1  0  0  0  0
  2  9  1  0  0  0  0
  3  4  1  0  0  0  0
  3 16  1  0  0  0  0
  4  8  1  0  0  0  0
  4  5  2  0  0  0  0
  5  6  1  0  0  0  0
  5 17  1  0  0  0  0
  6  7  2  0  0  0  0
  7  8  1  0  0  0  0
  9 10  1  0  0  0  0
  9 18  1  0  0  0  0
 10 15  1  0  0  0  0
 10 11  1  0  0  0  0
 10 19  1  0  0  0  0
 11 12  1  0  0  0  0
 11 20  1  0  0  0  0
 11 21  1  0  0  0  0
 12 13  1  0  0  0  0
 12 22  1  0  0  0  0
 12 23  1  0  0  0  0
 13 14  1  0  0  0  0
 14 15  1  0  0  0  0
 14 24  1  0  0  0  0
 14 25  1  0  0  0  0
 15 26  1  0  0  0  0
 15 27  1  0  0  0  0
M  END
> <s_m_source_file>
AV-unprocessed.smi

> <i_m_source_file_index>
2598

> <i_lp_mmshare_version>
43012

> <i_f3d_flags>
0

> <s_epik_input>
czFubltjSF1jMVtOSF1DKD1PKVtOSF1bQ0hdMltDSDJdW0NIMl1TW0NIMl1bQ0gyXTI=

> <s_epik_cmdline>
J2VwaWtfcHl0aG9uJywgJy1waCcsICc3LjAnLCAnLXRuJywgJzgnLCAnLW1hJywgJzIwMCcsICctbWV0YWxfYmluZGluZycsICctaW1hZScsICc8aW5maWxlLm1hZT4nLCAnLW9tYWUnLCAnPG91dGZpbGUubWFlPic=

> <r_lp_tautomer_probability>
1

> <r_epik_Ionization_Penalty>
2.3088e-05

> <r_epik_Ionization_Penalty_Charging>
0

> <r_epik_Ionization_Penalty_Neutral>
2.3088e-05

> <r_epik_State_Penalty>
-0

> <r_epik_Charging_Adjusted_Penalty>
0

> <i_epik_Tot_Q>
0

> <i_epik_Tot_abs_Q>
0

> <r_epik_Metal_State_Penalty>
-0

> <b_epik_Metal_Only>
0

> <s_lp_Force_Field>
OPLS_2005

> <r_lp_Energy>
8.93438

> <b_lp_Chiralities_Consistent>
1

> <s_lp_Variant>
AV-unprocessed.smi:2598-1

> <Gold.Version>
5.8.1

> <Gold.Id.Protein>
6NUR|6NUR_protein|mol2

> <Gold.PLP.Fitness>
36.3085

> <Gold.PLP.PLP>
-30.9435

> <Gold.PLP.part.hbond>
-2.0000

> <Gold.PLP.part.metal>
0.0000

> <Gold.PLP.part.buried>
-4.3983

> <Gold.PLP.part.nonpolar>
-25.4174

> <Gold.PLP.part.repulsive>
2.0126

> <Gold.PLP.ligand.clash>
0.0000

> <Gold.PLP.ligand.torsion>
0.3211

> <Gold.PLP.Chemscore.Hbond>
2.0000

> <Gold.PLP.Chemscore.CHOScore>
0.0000

> <Gold.PLP.Chemscore.Metal>
0.0000

> <Gold.Chemscore.Hbonds>
donor molecule, donor type, donor heavy atom, donor atom, acceptor molecule, acceptor atom, score
      P1  H  7997  8009       L1     1  0.68
      P1  H 10752 10763       L1     6  1.00

> <Gold.PLP.Chemscore.Internal.Correction>
0.0072

> <Gold.Rescore>
     Score         DG    S(hbond)    S(metal)    S(lipo)     H(rot)  DE(clash)    DE(int)     intcor
     19.05     -19.50       1.94        0.00      86.27       1.00       0.00       0.44       ----

> <Gold.Chemscore.Fitness>
19.0496

> <Gold.Chemscore.DG>
-19.4954

> <Gold.Chemscore.ZeroCoef>
-5.4800

> <Gold.Chemscore.Hbond>
1.9406

> <Gold.Chemscore.Metal>
0.0000

> <Gold.Chemscore.Lipo>
86.2722

> <Gold.Chemscore.Internal_Hbond>
0.0000

> <Gold.Chemscore.DEClash>
0.0009

> <Gold.Chemscore.DEInternal>
0.4449

> <Gold.Chemscore.Rot>
1.0000

> <Gold.Chemscore.Internal.Correction>
   9.000000E+99

> <Gold.Chemscore.Hbonds>
donor molecule, donor type, donor heavy atom, donor atom, acceptor molecule, acceptor atom, score
      P1  H  7997  8009       L1     1  0.66
      P1  H 10752 10763       L1     6  0.96

> <Gold.Chemscore.Hbond.Weighted>
-6.4815

> <Gold.Chemscore.Metal.Weighted>
-0.0000

> <Gold.Chemscore.Lipo.Weighted>
-10.0939

> <Gold.Chemscore.Internal_Hbond.Weighted>
0.0000

> <Gold.Chemscore.DEClash.Weighted>
0.0009

> <Gold.Chemscore.DEInternal.Weighted>
0.4449

> <Gold.Chemscore.Rot.Weighted>
2.5600

> <Gold.Chemscore.Internal.Correction.Weighted>
   9.000000E+99

> <Gold.Protein.RotatedTorsions>
[ 6907 6896 6895 6894 ] final   51.06 input  -60.11 | X-H torsion
[ 7974 7965 7964 7962 ] final  153.94 input  175.53 | X-H torsion
[ 8008 7997 7996 7995 ] final  171.19 input   59.86 | X-H torsion
[ 10167 10162 10161 10158 ] final  126.42 input  -65.29 | X-H torsion
[ 10718 10713 10712 10709 ] final  -64.57 input   66.30 | X-H torsion
[ 10763 10752 10751 10750 ] final   51.67 input  -60.55 | X-H torsion
[ 11005 11000 10999 10996 ] final  111.38 input  -57.11 | X-H torsion

> <Gold.Protein.ActiveResidues>
 VAL166  LYS551  ARG553  GLY616  TRP617  ASP618  TYR619  PRO620  LYS621  CYS622 
 ASP623  PHE694  ASN695  SER759  ASP760  ASP761  ALA762  ILE779  LEU786  VAL792 
 PHE793  MET794  SER795  GLU796  ALA797  LYS798  CYS799  TRP800  GLU811  SER814 

> <Gold.Protein.RotatedAtoms>
  152.3086  134.7525  160.0341 H   0  0  0  0  0  0  0  0  0  0  0  0  # atno 6907 bound_to 6896
  151.8014  133.3365  159.3536 H   0  0  0  0  0  0  0  0  0  0  0  0  # atno 6908 bound_to 6896
  150.7308  134.5680  159.5920 H   0  0  0  0  0  0  0  0  0  0  0  0  # atno 6909 bound_to 6896
  144.8121  139.6867  143.6137 H   0  0  0  0  0  0  0  0  0  0  0  0  # atno 7974 bound_to 7965
  156.1294  140.1518  156.9087 H   0  0  0  0  0  0  0  0  0  0  0  0  # atno 8008 bound_to 7997
  154.4897  140.0855  156.7607 H   0  0  0  0  0  0  0  0  0  0  0  0  # atno 8009 bound_to 7997
  155.4283  140.3426  155.4280 H   0  0  0  0  0  0  0  0  0  0  0  0  # atno 8010 bound_to 7997
  139.5632  144.6895  151.3984 H   0  0  0  0  0  0  0  0  0  0  0  0  # atno 10167 bound_to 10162
  156.0721  130.4235  150.1439 H   0  0  0  0  0  0  0  0  0  0  0  0  # atno 10718 bound_to 10713
  152.9786  135.5838  154.4453 H   0  0  0  0  0  0  0  0  0  0  0  0  # atno 10763 bound_to 10752
  154.4049  135.2769  155.2075 H   0  0  0  0  0  0  0  0  0  0  0  0  # atno 10764 bound_to 10752
  154.3891  135.6129  153.5887 H   0  0  0  0  0  0  0  0  0  0  0  0  # atno 10765 bound_to 10752
  139.8902  134.9506  156.6423 H   0  0  0  0  0  0  0  0  0  0  0  0  # atno 11005 bound_to 11000
  146.2421  139.6022  142.9484 LP  0  0  0  0  0  0  0  0  0  0  0  0  # atno 17320 bound_to 7965
  145.5299  141.0427  143.2389 LP  0  0  0  0  0  0  0  0  0  0  0  0  # atno 17321 bound_to 7965
  140.6914  143.7853  150.7260 LP  0  0  0  0  0  0  0  0  0  0  0  0  # atno 17342 bound_to 10162
  140.1336  143.4503  152.2238 LP  0  0  0  0  0  0  0  0  0  0  0  0  # atno 17343 bound_to 10162
  156.9487  130.9768  151.3502 LP  0  0  0  0  0  0  0  0  0  0  0  0  # atno 17370 bound_to 10713
  157.5798  130.8368  149.8506 LP  0  0  0  0  0  0  0  0  0  0  0  0  # atno 17371 bound_to 10713
  140.7584  133.8838  155.8399 LP  0  0  0  0  0  0  0  0  0  0  0  0  # atno 17394 bound_to 11000
  140.9942  134.1237  157.4379 LP  0  0  0  0  0  0  0  0  0  0  0  0  # atno 17395 bound_to 11000

$$$$
