AV-unprocessed.smi:1076|AV-procd|sdf|4699|dock4
  -GOLD-   22720 3223D 1   1.00000     0.00000
 Structure written by MMmdl.
 44 45  0  0  0  0  0  0  0  0  1 V2000
  152.0883  145.2102  159.2687 C   0  0  0  0  0  0  0  0  0  0  0  0
  152.3729  143.8069  159.7195 C   0  0  0  0  0  0  0  0  0  0  0  0
  152.4883  143.3209  161.0530 C   0  0  0  0  0  0  0  0  0  0  0  0
  152.7325  142.0217  161.1088 N   0  0  0  0  0  0  0  0  0  0  0  0
  152.7789  141.6328  159.8170 N   0  0  0  0  0  0  0  0  0  0  0  0
  152.9974  140.2342  159.4890 C   0  0  0  0  0  0  0  0  0  0  0  0
  152.0326  139.7399  158.3927 C   0  0  2  0  0  0  0  0  0  0  0  0
  151.8884  138.2097  158.4110 C   0  0  0  0  0  0  0  0  0  0  0  0
  152.5421  140.1732  157.0968 N   0  0  0  0  0  0  0  0  0  0  0  0
  151.5546  140.0481  156.0326 C   0  0  0  0  0  0  0  0  0  0  0  0
  150.4698  141.1381  156.1591 C   0  0  0  0  0  0  0  0  0  0  0  0
  149.3582  141.0807  155.0899 C   0  0  0  0  0  0  0  0  0  0  0  0
  149.6708  141.1068  153.8981 O   0  0  0  0  0  0  0  0  0  0  0  0
  148.0655  141.0046  155.4887 N   0  0  0  0  0  0  0  0  0  0  0  0
  146.9422  140.9315  154.5492 C   0  0  0  0  0  0  0  0  0  0  0  0
  146.1048  142.2153  154.6885 C   0  0  0  0  0  0  0  0  0  0  0  0
  145.6566  142.3487  156.0347 O   0  0  0  0  0  0  0  0  0  0  0  0
  146.7257  142.3984  156.9761 C   0  0  0  0  0  0  0  0  0  0  0  0
  147.5777  141.1204  156.8673 C   0  0  0  0  0  0  0  0  0  0  0  0
  152.5732  142.6911  158.9575 C   0  0  0  0  0  0  0  0  0  0  0  0
  151.6374  145.8065  160.0623 H   0  0  0  0  0  0  0  0  0  0  0  0
  151.3996  145.2291  158.4236 H   0  0  0  0  0  0  0  0  0  0  0  0
  152.9976  145.7235  158.9565 H   0  0  0  0  0  0  0  0  0  0  0  0
  152.3978  143.8707  161.9781 H   0  0  0  0  0  0  0  0  0  0  0  0
  154.0361  140.1047  159.1808 H   0  0  0  0  0  0  0  0  0  0  0  0
  152.8671  139.6462  160.3989 H   0  0  0  0  0  0  0  0  0  0  0  0
  151.0571  140.1941  158.5736 H   0  0  0  0  0  0  0  0  0  0  0  0
  151.5319  137.8661  159.3823 H   0  0  0  0  0  0  0  0  0  0  0  0
  152.8418  137.7172  158.2161 H   0  0  0  0  0  0  0  0  0  0  0  0
  151.1738  137.8631  157.6643 H   0  0  0  0  0  0  0  0  0  0  0  0
  153.3928  139.6821  156.8625 H   0  0  0  0  0  0  0  0  0  0  0  0
  152.0498  140.1259  155.0648 H   0  0  0  0  0  0  0  0  0  0  0  0
  151.0857  139.0638  156.0725 H   0  0  0  0  0  0  0  0  0  0  0  0
  150.0208  141.0577  157.1498 H   0  0  0  0  0  0  0  0  0  0  0  0
  150.9443  142.1184  156.1025 H   0  0  0  0  0  0  0  0  0  0  0  0
  147.2590  140.8071  153.5127 H   0  0  0  0  0  0  0  0  0  0  0  0
  146.3323  140.0577  154.7834 H   0  0  0  0  0  0  0  0  0  0  0  0
  146.6858  143.0927  154.3994 H   0  0  0  0  0  0  0  0  0  0  0  0
  145.2373  142.1746  154.0298 H   0  0  0  0  0  0  0  0  0  0  0  0
  147.3349  143.2870  156.8019 H   0  0  0  0  0  0  0  0  0  0  0  0
  146.3083  142.4887  157.9789 H   0  0  0  0  0  0  0  0  0  0  0  0
  146.9734  140.2448  157.1083 H   0  0  0  0  0  0  0  0  0  0  0  0
  148.3668  141.1544  157.6160 H   0  0  0  0  0  0  0  0  0  0  0  0
  152.5703  142.5602  157.8854 H   0  0  0  0  0  0  0  0  0  0  0  0
  1  2  1  0  0  0  0
  1 21  1  0  0  0  0
  1 22  1  0  0  0  0
  1 23  1  0  0  0  0
  2 20  2  0  0  0  0
  2  3  1  0  0  0  0
  3  4  2  0  0  0  0
  3 24  1  0  0  0  0
  4  5  1  0  0  0  0
  5  6  1  0  0  0  0
  5 20  1  0  0  0  0
  6  7  1  0  0  0  0
  6 25  1  0  0  0  0
  6 26  1  0  0  0  0
  7  8  1  0  0  0  0
  7  9  1  0  0  0  0
  7 27  1  0  0  0  0
  8 28  1  0  0  0  0
  8 29  1  0  0  0  0
  8 30  1  0  0  0  0
  9 10  1  0  0  0  0
  9 31  1  0  0  0  0
 10 11  1  0  0  0  0
 10 32  1  0  0  0  0
 10 33  1  0  0  0  0
 11 12  1  0  0  0  0
 11 34  1  0  0  0  0
 11 35  1  0  0  0  0
 12 13  2  0  0  0  0
 12 14  1  0  0  0  0
 14 19  1  0  0  0  0
 14 15  1  0  0  0  0
 15 16  1  0  0  0  0
 15 36  1  0  0  0  0
 15 37  1  0  0  0  0
 16 17  1  0  0  0  0
 16 38  1  0  0  0  0
 16 39  1  0  0  0  0
 17 18  1  0  0  0  0
 18 19  1  0  0  0  0
 18 40  1  0  0  0  0
 18 41  1  0  0  0  0
 19 42  1  0  0  0  0
 19 43  1  0  0  0  0
 20 44  1  0  0  0  0
M  END
> <s_m_source_file>
AV-unprocessed.smi

> <i_m_source_file_index>
1076

> <i_lp_mmshare_version>
43012

> <i_f3d_flags>
0

> <s_epik_input>
W0NIM11jMVtjSF1ubihbY0hdMSlbQ0gyXVtDQEhdKFtDSDNdKVtOSF1bQ0gyXVtDSDJdQyg9TylOMltDSDJdW0NIMl1PW0NIMl1bQ0gyXTI=

> <s_epik_cmdline>
J2VwaWtfcHl0aG9uJywgJy1waCcsICc3LjAnLCAnLXRuJywgJzgnLCAnLW1hJywgJzIwMCcsICctbWV0YWxfYmluZGluZycsICctaW1hZScsICc8aW5maWxlLm1hZT4nLCAnLW9tYWUnLCAnPG91dGZpbGUubWFlPic=

> <r_lp_tautomer_probability>
1

> <r_epik_Ionization_Penalty>
2.55707

> <r_epik_Ionization_Penalty_Charging>
0

> <r_epik_Ionization_Penalty_Neutral>
2.55707

> <r_epik_State_Penalty>
2.726

> <r_epik_Charging_Adjusted_Penalty>
2.726

> <i_epik_Tot_Q>
0

> <i_epik_Tot_abs_Q>
0

> <r_epik_Metal_State_Penalty>
2.72594

> <b_epik_Metal_Only>
0

> <s_lp_Force_Field>
OPLS_2005

> <r_lp_Energy>
21.3245

> <b_lp_Chiralities_Consistent>
1

> <s_lp_Variant>
AV-unprocessed.smi:1076-3

> <Gold.Version>
5.8.1

> <Gold.Id.Protein>
6NUR|6NUR_protein|mol2

> <Gold.PLP.Fitness>
45.1941

> <Gold.PLP.PLP>
-42.4908

> <Gold.PLP.part.hbond>
-3.0000

> <Gold.PLP.part.metal>
0.0000

> <Gold.PLP.part.buried>
-4.2126

> <Gold.PLP.part.nonpolar>
-35.3897

> <Gold.PLP.part.repulsive>
1.9496

> <Gold.PLP.ligand.clash>
0.0000

> <Gold.PLP.ligand.torsion>
0.5567

> <Gold.PLP.Chemscore.Hbond>
1.2320

> <Gold.PLP.Chemscore.CHOScore>
0.0000

> <Gold.PLP.Chemscore.Metal>
0.0000

> <Gold.Chemscore.Hbonds>
donor molecule, donor type, donor heavy atom, donor atom, acceptor molecule, acceptor atom, score
      P1  H  7989  7998       L1    13  0.37
      P1  H  8011  8017       L1    13  0.84

> <Gold.PLP.Chemscore.Internal.Correction>
0.1206

> <Gold.Rescore>
     Score         DG    S(hbond)    S(metal)    S(lipo)     H(rot)  DE(clash)    DE(int)     intcor
     14.24     -15.35       1.12        0.00      94.17       1.91       0.49       0.62       ----

> <Gold.Chemscore.Fitness>
14.2436

> <Gold.Chemscore.DG>
-15.3465

> <Gold.Chemscore.ZeroCoef>
-5.4800

> <Gold.Chemscore.Hbond>
1.1192

> <Gold.Chemscore.Metal>
0.0000

> <Gold.Chemscore.Lipo>
94.1660

> <Gold.Chemscore.Internal_Hbond>
0.0000

> <Gold.Chemscore.DEClash>
0.4866

> <Gold.Chemscore.DEInternal>
0.6163

> <Gold.Chemscore.Rot>
1.9098

> <Gold.Chemscore.Internal.Correction>
   9.000000E+99

> <Gold.Chemscore.Hbonds>
donor molecule, donor type, donor heavy atom, donor atom, acceptor molecule, acceptor atom, score
      P1  H  7989  7998       L1    13  0.33
      P1  H  8011  8017       L1    13  0.77

> <Gold.Chemscore.Hbond.Weighted>
-3.7381

> <Gold.Chemscore.Metal.Weighted>
-0.0000

> <Gold.Chemscore.Lipo.Weighted>
-11.0174

> <Gold.Chemscore.Internal_Hbond.Weighted>
0.0000

> <Gold.Chemscore.DEClash.Weighted>
0.4866

> <Gold.Chemscore.DEInternal.Weighted>
0.6163

> <Gold.Chemscore.Rot.Weighted>
4.8891

> <Gold.Chemscore.Internal.Correction.Weighted>
   9.000000E+99

> <Gold.Protein.RotatedTorsions>
[ 6907 6896 6895 6894 ] final  -26.66 input  -60.11 | X-H torsion
[ 7974 7965 7964 7962 ] final  116.90 input  175.53 | X-H torsion
[ 8008 7997 7996 7995 ] final  157.16 input   59.86 | X-H torsion
[ 10167 10162 10161 10158 ] final  156.00 input  -65.29 | X-H torsion
[ 10718 10713 10712 10709 ] final  -31.33 input   66.30 | X-H torsion
[ 10763 10752 10751 10750 ] final  164.91 input  -60.55 | X-H torsion
[ 11005 11000 10999 10996 ] final   12.17 input  -57.11 | X-H torsion

> <Gold.Protein.ActiveResidues>
 VAL166  LYS551  ARG553  GLY616  TRP617  ASP618  TYR619  PRO620  LYS621  CYS622 
 ASP623  PHE694  ASN695  SER759  ASP760  ASP761  ALA762  ILE779  LEU786  VAL792 
 PHE793  MET794  SER795  GLU796  ALA797  LYS798  CYS799  TRP800  GLU811  SER814 

> <Gold.Protein.RotatedAtoms>
  151.1578  135.0259  159.8696 H   0  0  0  0  0  0  0  0  0  0  0  0  # atno 6907 bound_to 6896
  152.5452  134.1314  159.8451 H   0  0  0  0  0  0  0  0  0  0  0  0  # atno 6908 bound_to 6896
  151.1406  133.4928  159.2629 H   0  0  0  0  0  0  0  0  0  0  0  0  # atno 6909 bound_to 6896
  145.1739  139.3086  143.4453 H   0  0  0  0  0  0  0  0  0  0  0  0  # atno 7974 bound_to 7965
  156.2380  140.1893  156.7066 H   0  0  0  0  0  0  0  0  0  0  0  0  # atno 8008 bound_to 7997
  154.6143  140.0617  156.9561 H   0  0  0  0  0  0  0  0  0  0  0  0  # atno 8009 bound_to 7997
  155.1965  140.3288  155.4352 H   0  0  0  0  0  0  0  0  0  0  0  0  # atno 8010 bound_to 7997
  139.4821  144.5048  151.8114 H   0  0  0  0  0  0  0  0  0  0  0  0  # atno 10167 bound_to 10162
  156.3887  130.4369  149.7412 H   0  0  0  0  0  0  0  0  0  0  0  0  # atno 10718 bound_to 10713
  154.3161  135.2756  155.2542 H   0  0  0  0  0  0  0  0  0  0  0  0  # atno 10763 bound_to 10752
  154.4916  135.5832  153.6467 H   0  0  0  0  0  0  0  0  0  0  0  0  # atno 10764 bound_to 10752
  152.9882  135.6136  154.3342 H   0  0  0  0  0  0  0  0  0  0  0  0  # atno 10765 bound_to 10752
  140.4950  134.0802  155.7780 H   0  0  0  0  0  0  0  0  0  0  0  0  # atno 11005 bound_to 11000
  146.3464  140.1894  142.8589 LP  0  0  0  0  0  0  0  0  0  0  0  0  # atno 17320 bound_to 7965
  145.0205  140.8789  143.5170 LP  0  0  0  0  0  0  0  0  0  0  0  0  # atno 17321 bound_to 7965
  140.4545  144.1809  150.5900 LP  0  0  0  0  0  0  0  0  0  0  0  0  # atno 17342 bound_to 10162
  140.4550  143.2471  151.9297 LP  0  0  0  0  0  0  0  0  0  0  0  0  # atno 17343 bound_to 10162
  156.4474  130.7890  151.2911 LP  0  0  0  0  0  0  0  0  0  0  0  0  # atno 17370 bound_to 10713
  157.7497  131.0106  150.3312 LP  0  0  0  0  0  0  0  0  0  0  0  0  # atno 17371 bound_to 10713
  141.1465  133.9046  157.2204 LP  0  0  0  0  0  0  0  0  0  0  0  0  # atno 17394 bound_to 11000
  139.9746  135.0117  156.9600 LP  0  0  0  0  0  0  0  0  0  0  0  0  # atno 17395 bound_to 11000

$$$$
