AV-unprocessed.smi:787|AV-procd|sdf|3726|dock2
  -GOLD-   22720 1153D 1   1.00000     0.00000
 Structure written by MMmdl.
 47 49  0  0  0  0  0  0  0  0  2 V2000
  144.9718  138.5469  158.9967 C   0  0  0  0  0  0  0  0  0  0  0  0
  146.2018  138.5269  158.2213 N   0  0  0  0  0  0  0  0  0  0  0  0
  147.3216  137.8144  158.6742 C   0  0  0  0  0  0  0  0  0  0  0  0
  147.2532  137.1025  159.8223 N   0  0  0  0  0  0  0  0  0  0  0  0
  148.3480  136.4346  160.2108 C   0  0  0  0  0  0  0  0  0  0  0  0
  149.5488  136.3598  159.6153 N   0  0  0  0  0  0  0  0  0  0  0  0
  149.6271  137.0639  158.4780 C   0  0  0  0  0  0  0  0  0  0  0  0
  150.7385  137.1699  157.6591 N   0  0  0  0  0  0  0  0  0  0  0  0
  150.2895  137.9670  156.6926 C   0  0  0  0  0  0  0  0  0  0  0  0
  149.0165  138.3997  156.7863 N   0  0  0  0  0  0  0  0  0  0  0  0
  148.3220  139.2749  155.8598 C   0  0  0  0  0  0  0  0  0  0  0  0
  149.2781  139.9112  154.8289 C   0  0  1  0  0  0  0  0  0  0  0  0
  149.0417  139.3369  153.5597 O   0  0  0  0  0  0  0  0  0  0  0  0
  149.0928  141.4353  154.7129 C   0  0  0  0  0  0  0  0  0  0  0  0
  149.6051  142.1460  155.9145 N   0  3  1  0  0  0  0  0  0  0  0  0
  148.7200  141.9918  157.0920 C   0  0  0  0  0  0  0  0  0  0  0  0
  151.0186  141.8300  156.2352 C   0  0  0  0  0  0  0  0  0  0  0  0
  151.5044  142.6077  157.4463 C   0  0  0  0  0  0  0  0  0  0  0  0
  151.8271  141.9246  158.6380 C   0  0  0  0  0  0  0  0  0  0  0  0
  152.2633  142.6416  159.7690 C   0  0  0  0  0  0  0  0  0  0  0  0
  152.3826  144.0434  159.7116 C   0  0  0  0  0  0  0  0  0  0  0  0
  152.0656  144.7285  158.5228 C   0  0  0  0  0  0  0  0  0  0  0  0
  151.6283  144.0125  157.3917 C   0  0  0  0  0  0  0  0  0  0  0  0
  148.5340  137.8188  157.9566 C   0  0  0  0  0  0  0  0  0  0  0  0
  144.2204  139.1506  158.4878 H   0  0  0  0  0  0  0  0  0  0  0  0
  145.1445  138.9771  159.9839 H   0  0  0  0  0  0  0  0  0  0  0  0
  144.5744  137.5387  159.1183 H   0  0  0  0  0  0  0  0  0  0  0  0
  146.2448  139.0324  157.3500 H   0  0  0  0  0  0  0  0  0  0  0  0
  148.2507  135.8787  161.1315 H   0  0  0  0  0  0  0  0  0  0  0  0
  150.9264  138.2578  155.8697 H   0  0  0  0  0  0  0  0  0  0  0  0
  147.5379  138.7070  155.3561 H   0  0  0  0  0  0  0  0  0  0  0  0
  147.8130  140.0425  156.4430 H   0  0  0  0  0  0  0  0  0  0  0  0
  150.3114  139.6854  155.0909 H   0  0  0  0  0  0  0  0  0  0  0  0
  149.4581  139.8737  152.9022 H   0  0  0  0  0  0  0  0  0  0  0  0
  149.5986  141.8210  153.8259 H   0  0  0  0  0  0  0  0  0  0  0  0
  148.0329  141.6391  154.5603 H   0  0  0  0  0  0  0  0  0  0  0  0
  148.7095  140.9581  157.4401 H   0  0  0  0  0  0  0  0  0  0  0  0
  147.6959  142.2829  156.8598 H   0  0  0  0  0  0  0  0  0  0  0  0
  149.0589  142.6248  157.9128 H   0  0  0  0  0  0  0  0  0  0  0  0
  151.1188  140.7681  156.4658 H   0  0  0  0  0  0  0  0  0  0  0  0
  151.6527  142.0227  155.3681 H   0  0  0  0  0  0  0  0  0  0  0  0
  151.7362  140.8494  158.6901 H   0  0  0  0  0  0  0  0  0  0  0  0
  152.5070  142.1165  160.6810 H   0  0  0  0  0  0  0  0  0  0  0  0
  152.7187  144.5934  160.5786 H   0  0  0  0  0  0  0  0  0  0  0  0
  152.1583  145.8038  158.4789 H   0  0  0  0  0  0  0  0  0  0  0  0
  151.3858  144.5468  156.4845 H   0  0  0  0  0  0  0  0  0  0  0  0
  149.6011  143.1289  155.6833 H   0  0  0  0  0  0  0  0  0  0  0  0
  1  2  1  0  0  0  0
  1 25  1  0  0  0  0
  1 26  1  0  0  0  0
  1 27  1  0  0  0  0
  2  3  1  0  0  0  0
  2 28  1  0  0  0  0
  3 24  1  0  0  0  0
  3  4  2  0  0  0  0
  4  5  1  0  0  0  0
  5  6  2  0  0  0  0
  5 29  1  0  0  0  0
  6  7  1  0  0  0  0
  7 24  2  0  0  0  0
  7  8  1  0  0  0  0
  8  9  2  0  0  0  0
  9 10  1  0  0  0  0
  9 30  1  0  0  0  0
 10 11  1  0  0  0  0
 10 24  1  0  0  0  0
 11 12  1  0  0  0  0
 11 31  1  0  0  0  0
 11 32  1  0  0  0  0
 12 13  1  0  0  0  0
 12 14  1  0  0  0  0
 12 33  1  0  0  0  0
 13 34  1  0  0  0  0
 14 15  1  0  0  0  0
 14 35  1  0  0  0  0
 14 36  1  0  0  0  0
 15 16  1  0  0  0  0
 15 17  1  0  0  0  0
 15 47  1  0  0  0  0
 16 37  1  0  0  0  0
 16 38  1  0  0  0  0
 16 39  1  0  0  0  0
 17 18  1  0  0  0  0
 17 40  1  0  0  0  0
 17 41  1  0  0  0  0
 18 23  1  0  0  0  0
 18 19  2  0  0  0  0
 19 20  1  0  0  0  0
 19 42  1  0  0  0  0
 20 21  2  0  0  0  0
 20 43  1  0  0  0  0
 21 22  1  0  0  0  0
 21 44  1  0  0  0  0
 22 23  2  0  0  0  0
 22 45  1  0  0  0  0
 23 46  1  0  0  0  0
M  CHG  1  15   1
M  END
> <s_m_source_file>
AV-unprocessed.smi

> <i_m_source_file_index>
787

> <i_lp_mmshare_version>
43012

> <i_f3d_flags>
0

> <s_epik_input>
bjFbY0hdbmMoW05IXVtDSDNdKWMoYzEyKW4oW2NIXW4yKVtDSDJdW0NASF0oW09IXSlbQ0gyXU4oW0NIM10pW0NIMl1jM1tjSF1bY0hdW2NIXVtjSF1bY0hdMw==

> <s_epik_cmdline>
J2VwaWtfcHl0aG9uJywgJy1waCcsICc3LjAnLCAnLXRuJywgJzgnLCAnLW1hJywgJzIwMCcsICctbWV0YWxfYmluZGluZycsICctaW1hZScsICc8aW5maWxlLm1hZT4nLCAnLW9tYWUnLCAnPG91dGZpbGUubWFlPic=

> <r_lp_tautomer_probability>
0.999987

> <r_epik_Ionization_Penalty>
0.0526284

> <r_epik_Ionization_Penalty_Charging>
0.0475377

> <r_epik_Ionization_Penalty_Neutral>
0.00509065

> <r_epik_State_Penalty>
0.0404888

> <r_epik_Charging_Adjusted_Penalty>
0.0880265

> <i_epik_Tot_Q>
1

> <i_epik_Tot_abs_Q>
1

> <r_epik_Metal_State_Penalty>
0.040507

> <b_epik_Metal_Only>
0

> <s_lp_Force_Field>
OPLS_2005

> <r_lp_Energy>
14.3877

> <b_lp_Chiralities_Consistent>
1

> <s_lp_Variant>
AV-unprocessed.smi:787-2

> <Gold.Version>
5.8.1

> <Gold.Id.Protein>
6NUR|6NUR_protein|mol2

> <Gold.PLP.Fitness>
48.8793

> <Gold.PLP.PLP>
-38.3354

> <Gold.PLP.part.hbond>
-3.6843

> <Gold.PLP.part.metal>
0.0000

> <Gold.PLP.part.buried>
-4.5314

> <Gold.PLP.part.nonpolar>
-30.1172

> <Gold.PLP.part.repulsive>
0.2063

> <Gold.PLP.ligand.clash>
0.0000

> <Gold.PLP.ligand.torsion>
0.9796

> <Gold.PLP.Chemscore.Hbond>
4.0595

> <Gold.PLP.Chemscore.CHOScore>
0.0000

> <Gold.PLP.Chemscore.Metal>
0.0000

> <Gold.Chemscore.Hbonds>
donor molecule, donor type, donor heavy atom, donor atom, acceptor molecule, acceptor atom, score
      L1  H    13    34       P1  7957  0.83
      L1  H    15    47       P1  8028  2.00
      P1  H  6896  6907       L1     6  1.00
      P1  H  6934  6947       L1     4  0.19

> <Gold.PLP.Chemscore.Internal.Correction>
0.3245

> <Gold.Rescore>
     Score         DG    S(hbond)    S(metal)    S(lipo)     H(rot)  DE(clash)    DE(int)     intcor
     16.61     -18.43       2.92        0.00      97.11       3.19       0.11       1.71       ----

> <Gold.Chemscore.Fitness>
16.6062

> <Gold.Chemscore.DG>
-18.4332

> <Gold.Chemscore.ZeroCoef>
-5.4800

> <Gold.Chemscore.Hbond>
2.9235

> <Gold.Chemscore.Metal>
0.0000

> <Gold.Chemscore.Lipo>
97.1145

> <Gold.Chemscore.Internal_Hbond>
0.0000

> <Gold.Chemscore.DEClash>
0.1150

> <Gold.Chemscore.DEInternal>
1.7121

> <Gold.Chemscore.Rot>
3.1928

> <Gold.Chemscore.Internal.Correction>
   9.000000E+99

> <Gold.Chemscore.Hbonds>
donor molecule, donor type, donor heavy atom, donor atom, acceptor molecule, acceptor atom, score
      L1  H    13    34       P1  7957  0.81
      L1  H    15    47       P1  8028  0.98
      P1  H  6896  6907       L1     6  0.82

> <Gold.Chemscore.Hbond.Weighted>
-9.7644

> <Gold.Chemscore.Metal.Weighted>
-0.0000

> <Gold.Chemscore.Lipo.Weighted>
-11.3624

> <Gold.Chemscore.Internal_Hbond.Weighted>
0.0000

> <Gold.Chemscore.DEClash.Weighted>
0.1150

> <Gold.Chemscore.DEInternal.Weighted>
1.7121

> <Gold.Chemscore.Rot.Weighted>
8.1736

> <Gold.Chemscore.Internal.Correction.Weighted>
   9.000000E+99

> <Gold.Protein.RotatedTorsions>
[ 6907 6896 6895 6894 ] final  -60.73 input  -60.11 | X-H torsion
[ 7974 7965 7964 7962 ] final -170.90 input  175.53 | X-H torsion
[ 8008 7997 7996 7995 ] final   78.02 input   59.86 | X-H torsion
[ 10167 10162 10161 10158 ] final -147.03 input  -65.29 | X-H torsion
[ 10718 10713 10712 10709 ] final  -71.02 input   66.30 | X-H torsion
[ 10763 10752 10751 10750 ] final   -2.26 input  -60.55 | X-H torsion
[ 11005 11000 10999 10996 ] final -133.91 input  -57.11 | X-H torsion

> <Gold.Protein.ActiveResidues>
 VAL166  LYS551  ARG553  GLY616  TRP617  ASP618  TYR619  PRO620  LYS621  CYS622 
 ASP623  PHE694  ASN695  SER759  ASP760  ASP761  ALA762  ILE779  LEU786  VAL792 
 PHE793  MET794  SER795  GLU796  ALA797  LYS798  CYS799  TRP800  GLU811  SER814 

> <Gold.Protein.RotatedAtoms>
  150.7835  134.6798  159.6437 H   0  0  0  0  0  0  0  0  0  0  0  0  # atno 6907 bound_to 6896
  152.3925  134.6415  160.0111 H   0  0  0  0  0  0  0  0  0  0  0  0  # atno 6908 bound_to 6896
  151.6711  133.3277  159.3233 H   0  0  0  0  0  0  0  0  0  0  0  0  # atno 6909 bound_to 6896
  144.7164  140.2003  143.6339 H   0  0  0  0  0  0  0  0  0  0  0  0  # atno 7974 bound_to 7965
  155.8499  140.3458  155.5686 H   0  0  0  0  0  0  0  0  0  0  0  0  # atno 8008 bound_to 7997
  155.8049  140.0890  157.1956 H   0  0  0  0  0  0  0  0  0  0  0  0  # atno 8009 bound_to 7997
  154.4007  140.1458  156.3306 H   0  0  0  0  0  0  0  0  0  0  0  0  # atno 8010 bound_to 7997
  139.7659  143.8308  152.2616 H   0  0  0  0  0  0  0  0  0  0  0  0  # atno 10167 bound_to 10162
  156.0381  130.4343  150.2382 H   0  0  0  0  0  0  0  0  0  0  0  0  # atno 10718 bound_to 10713
  153.3557  135.6988  153.6753 H   0  0  0  0  0  0  0  0  0  0  0  0  # atno 10763 bound_to 10752
  153.5462  135.3563  155.2740 H   0  0  0  0  0  0  0  0  0  0  0  0  # atno 10764 bound_to 10752
  154.8660  135.4215  154.2802 H   0  0  0  0  0  0  0  0  0  0  0  0  # atno 10765 bound_to 10752
  140.9038  134.1657  157.4441 H   0  0  0  0  0  0  0  0  0  0  0  0  # atno 11005 bound_to 11000
  145.8686  139.2260  143.1674 LP  0  0  0  0  0  0  0  0  0  0  0  0  # atno 17320 bound_to 7965
  146.0106  140.8438  142.9973 LP  0  0  0  0  0  0  0  0  0  0  0  0  # atno 17321 bound_to 7965
  139.8328  144.7246  150.9428 LP  0  0  0  0  0  0  0  0  0  0  0  0  # atno 17342 bound_to 10162
  140.7811  143.4054  151.1080 LP  0  0  0  0  0  0  0  0  0  0  0  0  # atno 17343 bound_to 10162
  157.0480  131.0054  151.3263 LP  0  0  0  0  0  0  0  0  0  0  0  0  # atno 17370 bound_to 10713
  157.5161  130.7969  149.7758 LP  0  0  0  0  0  0  0  0  0  0  0  0  # atno 17371 bound_to 10713
  139.8746  134.9908  156.5522 LP  0  0  0  0  0  0  0  0  0  0  0  0  # atno 17394 bound_to 11000
  140.8197  133.8363  155.8884 LP  0  0  0  0  0  0  0  0  0  0  0  0  # atno 17395 bound_to 11000

$$$$
