#       Name:                AV-unprocessed.smi:2067
#       Creating user name   scv26
#       Creation time:       Fri Mar 27 11:11:58 2020


#       File generated by GOLD software.
#

@<TRIPOS>MOLECULE
AV-unprocessed.smi:2067
    54    55     1
SMALL
NO_CHARGES


@<TRIPOS>ATOM
      1 ****        -1.5366  -3.0858  -6.2851 C.3            1 S1                 0.0000
      2 ****        -0.5300  -2.0512  -6.8090 C.3            1 S1                 0.0000
      3 ****         0.9261  -2.5398  -6.6767 C.3            1 S1                 0.0000
      4 ****         1.9144  -1.5144  -7.2562 C.3            1 S1                 0.0000
      5 ****         1.7321  -0.1317  -6.6105 C.3            1 S1                 0.0000
      6 ****         0.2769   0.3546  -6.7269 C.3            1 S1                 0.0000
      7 ****        -0.7139  -0.6718  -6.1393 C.3            1 S1                 0.0000
      8 ****        -0.4806  -0.8023  -4.7414 O.3            1 S1                 0.0000
      9 ****        -1.2247   0.0977  -3.9349 C.3            1 S1                 0.0000
     10 ****        -0.6455   0.0787  -2.5178 C.3            1 S1                 0.0000
     11 ****        -0.8408  -1.2125  -1.8767 N.pl3          1 S1                 0.0000
     12 ****         0.1602  -2.0260  -1.3542 C.2            1 S1                 0.0000
     13 ****        -0.1259  -3.2287  -0.7791 C.2            1 S1                 0.0000
     14 ****        -1.4467  -3.7715  -0.7087 C.1            1 S1                 0.0000
     15 ****        -2.5086  -4.2300  -0.6517 N.1            1 S1                 0.0000
     16 ****         0.9128  -4.0893  -0.2145 C.2            1 S1                 0.0000
     17 ****         0.6801  -5.1846   0.3013 O.2            1 S1                 0.0000
     18 ****         2.2217  -3.5684  -0.3094 N.am           1 S1                 0.0000
     19 ****         3.3287  -4.3372   0.2242 C.3            1 S1                 0.0000
     20 ****         2.5451  -2.3391  -0.9150 C.2            1 S1                 0.0000
     21 ****         3.7158  -1.9500  -0.9814 O.2            1 S1                 0.0000
     22 ****         1.4795  -1.5741  -1.4466 N.am           1 S1                 0.0000
     23 ****         1.8851  -0.3281  -2.0622 C.3            1 S1                 0.0000
     24 ****        -1.3939  -3.2750  -5.2225 H              1 S1                 0.0000
     25 ****        -1.4311  -4.0363  -6.8088 H              1 S1                 0.0000
     26 ****        -2.5618  -2.7431  -6.4264 H              1 S1                 0.0000
     27 ****        -0.7355  -1.9263  -7.8733 H              1 S1                 0.0000
     28 ****         1.1628  -2.7251  -5.6278 H              1 S1                 0.0000
     29 ****         1.0479  -3.4935  -7.1912 H              1 S1                 0.0000
     30 ****         2.9377  -1.8609  -7.1099 H              1 S1                 0.0000
     31 ****         1.7667  -1.4348  -8.3339 H              1 S1                 0.0000
     32 ****         2.0200  -0.1793  -5.5595 H              1 S1                 0.0000
     33 ****         2.4028   0.5882  -7.0803 H              1 S1                 0.0000
     34 ****         0.1692   1.3204  -6.2337 H              1 S1                 0.0000
     35 ****         0.0378   0.5240  -7.7775 H              1 S1                 0.0000
     36 ****        -1.7375  -0.3366  -6.3186 H              1 S1                 0.0000
     37 ****        -1.1565   1.1113  -4.3305 H              1 S1                 0.0000
     38 ****        -2.2794  -0.1815  -3.9324 H              1 S1                 0.0000
     39 ****         0.4146   0.3268  -2.5665 H              1 S1                 0.0000
     40 ****        -1.1278   0.8425  -1.9077 H              1 S1                 0.0000
     41 ****        -1.6246  -1.7171  -2.2655 H              1 S1                 0.0000
     42 ****         3.8967  -3.6828   0.8878 H              1 S1                 0.0000
     43 ****         3.9308  -4.6624  -0.6258 H              1 S1                 0.0000
     44 ****         2.9787  -5.1975   0.7937 H              1 S1                 0.0000
     45 ****         2.3497   0.2824  -1.2859 H              1 S1                 0.0000
     46 ****         1.0263   0.1914  -2.4809 H              1 S1                 0.0000
     47 ****         2.5891  -0.5690  -2.8611 H              1 S1                 0.0000
     48 ****         0.4920  -0.6440  -4.5708 LP             1 S1                 0.0000
     49 ****        -0.7189  -1.7350  -4.4705 LP             1 S1                 0.0000
     50 ****        -3.4255  -4.6259  -0.6025 LP             1 S1                 0.0000
     51 ****        -0.2588  -5.5255   0.3488 LP             1 S1                 0.0000
     52 ****         1.4303  -5.7321   0.6722 LP             1 S1                 0.0000
     53 ****         4.4514  -2.5108  -0.6015 LP             1 S1                 0.0000
     54 ****         3.9278  -1.0741  -1.4150 LP             1 S1                 0.0000
@<TRIPOS>BOND
    1    1    2 1     
    2    1   24 1     
    3    1   25 1     
    4    1   26 1     
    5    2    7 1     
    6    2    3 1     
    7    2   27 1     
    8    3    4 1     
    9    3   28 1     
   10    3   29 1     
   11    4    5 1     
   12    4   30 1     
   13    4   31 1     
   14    5    6 1     
   15    5   32 1     
   16    5   33 1     
   17    6    7 1     
   18    6   34 1     
   19    6   35 1     
   20    7    8 1     
   21    7   36 1     
   22    8    9 1     
   23    9   10 1     
   24    9   37 1     
   25    9   38 1     
   26   10   11 1     
   27   10   39 1     
   28   10   40 1     
   29   11   12 1     
   30   11   41 1     
   31   12   22 1     
   32   12   13 2     
   33   13   14 1     
   34   13   16 1     
   35   14   15 3     
   36   16   17 2     
   37   16   18 am    
   38   18   19 1     
   39   18   20 am    
   40   19   42 1     
   41   19   43 1     
   42   19   44 1     
   43   20   21 2     
   44   20   22 am    
   45   22   23 1     
   46   23   45 1     
   47   23   46 1     
   48   23   47 1     
   49    8   48 1     
   50    8   49 1     
   51   15   50 1     
   52   17   51 1     
   53   17   52 1     
   54   21   53 1     
   55   21   54 1     
@<TRIPOS>SUBSTRUCTURE
      1 S1             1
@<TRIPOS>SET
LONE_PAIRS      STATIC     ATOMS    <user>   **** ""
7 48 49 50 51 52 53 54
DONOR_HYDROGENS      STATIC     ATOMS    <user>   **** ""
1 41
ATOM$BLUE        STATIC     ATOMS    COLORGROUP SYSTEM
7 48 49 50 51 52 53 54
ATOM$RED        STATIC     ATOMS    COLORGROUP SYSTEM
1 41
