AV-unprocessed.smi:265|AV-procd|sdf|2030|dock3
  -GOLD-   2262021233D 1   1.00000     0.00000
 Structure written by MMmdl.
 52 56  0  0  0  0  0  0  0  0  1 V2000
  151.9548  139.7354  157.4248 C   0  0  0  0  0  0  0  0  0  0  0  0
  152.0417  139.7988  155.8920 C   0  0  1  0  0  0  0  0  0  0  0  0
  153.2919  139.2321  155.5069 O   0  0  0  0  0  0  0  0  0  0  0  0
  153.1510  138.6293  154.2330 C   0  0  0  0  0  0  0  0  0  0  0  0
  151.7799  137.9790  154.3298 C   0  0  0  0  0  0  0  0  0  0  0  0
  150.9606  139.0151  155.0949 C   0  0  2  0  0  0  0  0  0  0  0  0
  150.3965  139.9058  154.1471 O   0  0  0  0  0  0  0  0  0  0  0  0
  149.8029  138.3992  155.9243 C   0  0  0  0  0  0  0  0  0  0  0  0
  148.9574  137.4971  155.1573 N   0  0  0  0  0  0  0  0  0  0  0  0
  149.0219  136.1221  155.1392 C   0  0  0  0  0  0  0  0  0  0  0  0
  148.1521  135.5346  154.3644 N   0  0  0  0  0  0  0  0  0  0  0  0
  147.4208  136.5827  153.8170 C   0  0  0  0  0  0  0  0  0  0  0  0
  146.3311  136.6608  152.9038 C   0  0  0  0  0  0  0  0  0  0  0  0
  145.7394  135.5616  152.3703 N   0  0  0  0  0  0  0  0  0  0  0  0
  146.2327  134.2471  152.7968 C   0  0  0  0  0  0  0  0  0  0  0  0
  145.2619  133.1223  152.3877 C   0  0  0  0  0  0  0  0  0  0  0  0
  144.9678  133.2051  150.8843 C   0  0  1  0  0  0  0  0  0  0  0  0
  143.9980  132.2519  150.4766 O   0  0  0  0  0  0  0  0  0  0  0  0
  143.8184  132.1979  149.0570 C   0  0  0  0  0  0  0  0  0  0  0  0
  143.6648  133.5957  148.4198 C   0  0  0  0  0  0  0  0  0  0  0  0
  143.2607  133.7009  147.2642 O   0  0  0  0  0  0  0  0  0  0  0  0
  144.0236  134.6666  149.1467 N   0  0  0  0  0  0  0  0  0  0  0  0
  144.3904  134.5900  150.5542 C   0  0  2  0  0  0  0  0  0  0  0  0
  145.3941  135.6827  150.9516 C   0  0  0  0  0  0  0  0  0  0  0  0
  145.8812  137.9011  152.5735 N   0  0  0  0  0  0  0  0  0  0  0  0
  146.4444  138.9888  153.1079 C   0  0  0  0  0  0  0  0  0  0  0  0
  147.4526  139.0641  153.9783 N   0  0  0  0  0  0  0  0  0  0  0  0
  147.9186  137.8246  154.3034 C   0  0  0  0  0  0  0  0  0  0  0  0
  145.8964  133.0338  150.3352 H   0  0  0  0  0  0  0  0  0  0  0  0
  143.4721  134.7389  151.1252 H   0  0  0  0  0  0  0  0  0  0  0  0
  151.0235  140.1686  157.7900 H   0  0  0  0  0  0  0  0  0  0  0  0
  152.7729  140.2954  157.8782 H   0  0  0  0  0  0  0  0  0  0  0  0
  152.0222  138.7098  157.7877 H   0  0  0  0  0  0  0  0  0  0  0  0
  152.0492  140.8486  155.5925 H   0  0  0  0  0  0  0  0  0  0  0  0
  153.1716  139.3947  153.4556 H   0  0  0  0  0  0  0  0  0  0  0  0
  153.9469  137.9112  154.0359 H   0  0  0  0  0  0  0  0  0  0  0  0
  151.3601  137.7111  153.3590 H   0  0  0  0  0  0  0  0  0  0  0  0
  151.8689  137.0639  154.9171 H   0  0  0  0  0  0  0  0  0  0  0  0
  150.0602  140.6597  154.6070 H   0  0  0  0  0  0  0  0  0  0  0  0
  150.1976  137.8358  156.7702 H   0  0  0  0  0  0  0  0  0  0  0  0
  149.1724  139.1842  156.3433 H   0  0  0  0  0  0  0  0  0  0  0  0
  149.7431  135.5644  155.7187 H   0  0  0  0  0  0  0  0  0  0  0  0
  147.2121  134.0698  152.3500 H   0  0  0  0  0  0  0  0  0  0  0  0
  146.3655  134.2323  153.8794 H   0  0  0  0  0  0  0  0  0  0  0  0
  145.6874  132.1502  152.6372 H   0  0  0  0  0  0  0  0  0  0  0  0
  144.3336  133.2130  152.9534 H   0  0  0  0  0  0  0  0  0  0  0  0
  144.6781  131.7014  148.6055 H   0  0  0  0  0  0  0  0  0  0  0  0
  142.9408  131.5914  148.8321 H   0  0  0  0  0  0  0  0  0  0  0  0
  143.9594  135.5825  148.7268 H   0  0  0  0  0  0  0  0  0  0  0  0
  144.9715  136.6605  150.7243 H   0  0  0  0  0  0  0  0  0  0  0  0
  146.3052  135.5908  150.3588 H   0  0  0  0  0  0  0  0  0  0  0  0
  146.0271  139.9344  152.7946 H   0  0  0  0  0  0  0  0  0  0  0  0
  1  2  1  0  0  0  0
  1 31  1  0  0  0  0
  1 32  1  0  0  0  0
  1 33  1  0  0  0  0
  2  6  1  0  0  0  0
  2  3  1  0  0  0  0
  2 34  1  0  0  0  0
  3  4  1  0  0  0  0
  4  5  1  0  0  0  0
  4 35  1  0  0  0  0
  4 36  1  0  0  0  0
  5  6  1  0  0  0  0
  5 37  1  0  0  0  0
  5 38  1  0  0  0  0
  6  7  1  0  0  0  0
  6  8  1  0  0  0  0
  7 39  1  0  0  0  0
  8  9  1  0  0  0  0
  8 40  1  0  0  0  0
  8 41  1  0  0  0  0
  9 28  1  0  0  0  0
  9 10  1  0  0  0  0
 10 11  2  0  0  0  0
 10 42  1  0  0  0  0
 11 12  1  0  0  0  0
 12 28  2  0  0  0  0
 12 13  1  0  0  0  0
 13 14  1  0  0  0  0
 13 25  2  0  0  0  0
 14 24  1  0  0  0  0
 14 15  1  0  0  0  0
 15 16  1  0  0  0  0
 15 43  1  0  0  0  0
 15 44  1  0  0  0  0
 16 17  1  0  0  0  0
 16 45  1  0  0  0  0
 16 46  1  0  0  0  0
 17 29  1  0  0  0  0
 17 23  1  0  0  0  0
 17 18  1  0  0  0  0
 18 19  1  0  0  0  0
 19 20  1  0  0  0  0
 19 47  1  0  0  0  0
 19 48  1  0  0  0  0
 20 21  2  0  0  0  0
 20 22  1  0  0  0  0
 22 23  1  0  0  0  0
 22 49  1  0  0  0  0
 23 30  1  0  0  0  0
 23 24  1  0  0  0  0
 24 50  1  0  0  0  0
 24 51  1  0  0  0  0
 25 26  1  0  0  0  0
 26 27  2  0  0  0  0
 26 52  1  0  0  0  0
 27 28  1  0  0  0  0
M  END
> <s_m_source_file>
AV-unprocessed.smi

> <i_m_source_file_index>
265

> <i_lp_mmshare_version>
43012

> <i_f3d_flags>
0

> <s_epik_input>
W0NIMl0xW0NIMl1PW0NAQEhdKFtDSDNdKVtDQEBdMShbT0hdKVtDSDJdbihbY0hdbjIpYyhjMjMpbltjSF1uYzNOKFtDSDJdW0NIMl00KVtDSDJdW0NAQEhdKFtDQEhdNDUpW05IXUMoPU8pW0NIMl1PNQ==

> <s_epik_cmdline>
J2VwaWtfcHl0aG9uJywgJy1waCcsICc3LjAnLCAnLXRuJywgJzgnLCAnLW1hJywgJzIwMCcsICctbWV0YWxfYmluZGluZycsICctaW1hZScsICc8aW5maWxlLm1hZT4nLCAnLW9tYWUnLCAnPG91dGZpbGUubWFlPic=

> <r_lp_tautomer_probability>
1

> <r_epik_Ionization_Penalty>
0.00221504

> <r_epik_Ionization_Penalty_Charging>
0

> <r_epik_Ionization_Penalty_Neutral>
0.00221504

> <r_epik_State_Penalty>
-0

> <r_epik_Charging_Adjusted_Penalty>
0

> <i_epik_Tot_Q>
0

> <i_epik_Tot_abs_Q>
0

> <r_epik_Metal_State_Penalty>
-0

> <b_epik_Metal_Only>
0

> <s_lp_Force_Field>
OPLS_2005

> <r_lp_Energy>
44.2788

> <b_lp_Chiralities_Consistent>
1

> <s_lp_Variant>
AV-unprocessed.smi:265-16

> <Gold.Version>
5.8.1

> <Gold.Id.Protein>
6NUR|6NUR_protein|mol2

> <Gold.PLP.Fitness>
41.6219

> <Gold.PLP.PLP>
-28.4440

> <Gold.PLP.part.hbond>
-5.5185

> <Gold.PLP.part.metal>
0.0000

> <Gold.PLP.part.buried>
1.6312

> <Gold.PLP.part.nonpolar>
-33.0760

> <Gold.PLP.part.repulsive>
8.3267

> <Gold.PLP.ligand.clash>
0.0000

> <Gold.PLP.ligand.torsion>
0.6378

> <Gold.PLP.Chemscore.Hbond>
3.7713

> <Gold.PLP.Chemscore.CHOScore>
0.9065

> <Gold.PLP.Chemscore.Metal>
0.0000

> <Gold.Chemscore.Hbonds>
donor molecule, donor type, donor heavy atom, donor atom, acceptor molecule, acceptor atom, score
      P1  H  7918  7932       L1    21  0.37
      P1  H  7989  7998       L1     7  0.50
      P1  H  7997  8010       L1     3  1.00
      P1  H 10192 10197       L1    21  1.00
      L1  C    26    52       P1 10175  0.96

> <Gold.PLP.Chemscore.Internal.Correction>
0.4203

> <Gold.Rescore>
     Score         DG    S(hbond)    S(metal)    S(lipo)     H(rot)  DE(clash)    DE(int)     intcor
      9.68     -17.49       2.75        0.00      73.18       2.25       5.65       2.17       ----

> <Gold.Chemscore.Fitness>
9.6766

> <Gold.Chemscore.DG>
-17.4939

> <Gold.Chemscore.ZeroCoef>
-5.4800

> <Gold.Chemscore.Hbond>
2.7543

> <Gold.Chemscore.Metal>
0.0000

> <Gold.Chemscore.Lipo>
73.1834

> <Gold.Chemscore.Internal_Hbond>
0.0000

> <Gold.Chemscore.DEClash>
5.6454

> <Gold.Chemscore.DEInternal>
2.1719

> <Gold.Chemscore.Rot>
2.2453

> <Gold.Chemscore.Internal.Correction>
   9.000000E+99

> <Gold.Chemscore.Hbonds>
donor molecule, donor type, donor heavy atom, donor atom, acceptor molecule, acceptor atom, score
      P1  H  7918  7932       L1    21  0.13
      P1  H  7989  7998       L1     7  0.02
      P1  H  7997  8010       L1     3  0.61
      P1  H 10192 10197       L1    21  0.78

> <Gold.Chemscore.Hbond.Weighted>
-9.1994

> <Gold.Chemscore.Metal.Weighted>
-0.0000

> <Gold.Chemscore.Lipo.Weighted>
-8.5625

> <Gold.Chemscore.Internal_Hbond.Weighted>
0.0000

> <Gold.Chemscore.DEClash.Weighted>
5.6454

> <Gold.Chemscore.DEInternal.Weighted>
2.1719

> <Gold.Chemscore.Rot.Weighted>
5.7479

> <Gold.Chemscore.Internal.Correction.Weighted>
   9.000000E+99

> <Gold.Protein.RotatedTorsions>
[ 6907 6896 6895 6894 ] final  -47.94 input  -60.11 | X-H torsion
[ 7974 7965 7964 7962 ] final -133.37 input  175.53 | X-H torsion
[ 8008 7997 7996 7995 ] final   94.59 input   59.86 | X-H torsion
[ 10167 10162 10161 10158 ] final  120.76 input  -65.29 | X-H torsion
[ 10718 10713 10712 10709 ] final   12.90 input   66.30 | X-H torsion
[ 10763 10752 10751 10750 ] final  -72.68 input  -60.55 | X-H torsion
[ 11005 11000 10999 10996 ] final  133.80 input  -57.11 | X-H torsion

> <Gold.Protein.ActiveResidues>
 VAL166  LYS551  ARG553  GLY616  TRP617  ASP618  TYR619  PRO620  LYS621  CYS622 
 ASP623  PHE694  ASN695  SER759  ASP760  ASP761  ALA762  ILE779  LEU786  VAL792 
 PHE793  MET794  SER795  GLU796  ALA797  LYS798  CYS799  TRP800  GLU811  SER814 

> <Gold.Protein.RotatedAtoms>
  150.8956  134.8364  159.7323 H   0  0  0  0  0  0  0  0  0  0  0  0  # atno 6907 bound_to 6896
  152.4863  134.4581  159.9606 H   0  0  0  0  0  0  0  0  0  0  0  0  # atno 6908 bound_to 6896
  151.4638  133.3547  159.2848 H   0  0  0  0  0  0  0  0  0  0  0  0  # atno 6909 bound_to 6896
  144.9200  140.7002  143.4971 H   0  0  0  0  0  0  0  0  0  0  0  0  # atno 7974 bound_to 7965
  156.0596  140.3298  155.7446 H   0  0  0  0  0  0  0  0  0  0  0  0  # atno 8008 bound_to 7997
  155.5475  140.0607  157.2874 H   0  0  0  0  0  0  0  0  0  0  0  0  # atno 8009 bound_to 7997
  154.4475  140.1900  156.0641 H   0  0  0  0  0  0  0  0  0  0  0  0  # atno 8010 bound_to 7997
  139.5962  144.7042  151.3171 H   0  0  0  0  0  0  0  0  0  0  0  0  # atno 10167 bound_to 10162
  157.0169  130.6139  149.5715 H   0  0  0  0  0  0  0  0  0  0  0  0  # atno 10718 bound_to 10713
  154.4490  135.5922  153.6179 H   0  0  0  0  0  0  0  0  0  0  0  0  # atno 10763 bound_to 10752
  152.9812  135.6016  154.3628 H   0  0  0  0  0  0  0  0  0  0  0  0  # atno 10764 bound_to 10752
  154.3487  135.2841  155.2362 H   0  0  0  0  0  0  0  0  0  0  0  0  # atno 10765 bound_to 10752
  139.9874  134.9527  156.9776 H   0  0  0  0  0  0  0  0  0  0  0  0  # atno 11005 bound_to 11000
  145.3313  139.1759  143.4535 LP  0  0  0  0  0  0  0  0  0  0  0  0  # atno 17320 bound_to 7965
  146.3200  140.3342  142.8643 LP  0  0  0  0  0  0  0  0  0  0  0  0  # atno 17321 bound_to 7965
  140.7213  143.7127  150.7757 LP  0  0  0  0  0  0  0  0  0  0  0  0  # atno 17342 bound_to 10162
  140.0693  143.5077  152.2588 LP  0  0  0  0  0  0  0  0  0  0  0  0  # atno 17343 bound_to 10162
  156.0116  130.5208  150.8006 LP  0  0  0  0  0  0  0  0  0  0  0  0  # atno 17370 bound_to 10713
  157.5279  131.0935  150.9994 LP  0  0  0  0  0  0  0  0  0  0  0  0  # atno 17371 bound_to 10713
  140.4975  134.1131  155.7244 LP  0  0  0  0  0  0  0  0  0  0  0  0  # atno 17394 bound_to 11000
  141.1537  133.8922  157.2033 LP  0  0  0  0  0  0  0  0  0  0  0  0  # atno 17395 bound_to 11000

$$$$
