AV-unprocessed.smi:2362|AV-procd|sdf|9413|dock6
  -GOLD-   2272013 53D 1   1.00000     0.00000
 Structure written by MMmdl.
 45 46  0  0  0  0  0  0  0  0  2 V2000
  150.6904  145.0899  159.8925 C   0  0  0  0  0  0  0  0  0  0  0  0
  151.7202  144.0275  160.2157 C   0  0  0  0  0  0  0  0  0  0  0  0
  152.3654  143.3014  159.1967 C   0  0  0  0  0  0  0  0  0  0  0  0
  153.3134  142.3240  159.5561 C   0  0  0  0  0  0  0  0  0  0  0  0
  153.5945  142.0965  160.9220 C   0  0  0  0  0  0  0  0  0  0  0  0
  154.5620  141.0881  161.1780 N   0  0  0  0  0  0  0  0  0  0  0  0
  154.8981  140.0455  160.3984 C   0  0  0  0  0  0  0  0  0  0  0  0
  154.3773  139.7672  159.3181 O   0  0  0  0  0  0  0  0  0  0  0  0
  155.8980  139.3322  160.9394 N   0  0  0  0  0  0  0  0  0  0  0  0
  156.4944  138.1226  160.3694 C   0  0  2  0  0  0  0  0  0  0  0  0
  156.7082  138.3315  158.8642 C   0  0  0  0  0  0  0  0  0  0  0  0
  155.6201  136.8760  160.6418 C   0  0  0  0  0  0  0  0  0  0  0  0
  155.5333  136.5235  162.0824 N   0  3  0  0  0  0  0  0  0  0  0  0
  154.5938  137.3955  162.8333 C   0  0  0  0  0  0  0  0  0  0  0  0
  154.6570  137.1039  164.3425 C   0  0  0  0  0  0  0  0  0  0  0  0
  154.3812  135.6222  164.6305 C   0  0  0  0  0  0  0  0  0  0  0  0
  155.3363  134.7424  163.8132 C   0  0  0  0  0  0  0  0  0  0  0  0
  155.2503  135.0826  162.3163 C   0  0  0  0  0  0  0  0  0  0  0  0
  152.9660  142.7999  161.8967 N   0  0  0  0  0  0  0  0  0  0  0  0
  152.0579  143.7368  161.5516 C   0  0  0  0  0  0  0  0  0  0  0  0
  150.5790  145.2202  158.8155 H   0  0  0  0  0  0  0  0  0  0  0  0
  150.9861  146.0470  160.3227 H   0  0  0  0  0  0  0  0  0  0  0  0
  149.7203  144.8124  160.3052 H   0  0  0  0  0  0  0  0  0  0  0  0
  152.1408  143.4863  158.1564 H   0  0  0  0  0  0  0  0  0  0  0  0
  153.8172  141.7579  158.7860 H   0  0  0  0  0  0  0  0  0  0  0  0
  155.0632  141.1806  162.0492 H   0  0  0  0  0  0  0  0  0  0  0  0
  156.2631  139.6365  161.8305 H   0  0  0  0  0  0  0  0  0  0  0  0
  157.4822  137.9727  160.8071 H   0  0  0  0  0  0  0  0  0  0  0  0
  157.1964  137.4662  158.4147 H   0  0  0  0  0  0  0  0  0  0  0  0
  157.3403  139.1995  158.6728 H   0  0  0  0  0  0  0  0  0  0  0  0
  155.7623  138.4861  158.3439 H   0  0  0  0  0  0  0  0  0  0  0  0
  154.6181  137.0799  160.2607 H   0  0  0  0  0  0  0  0  0  0  0  0
  155.9867  136.0164  160.0784 H   0  0  0  0  0  0  0  0  0  0  0  0
  154.8460  138.4430  162.6640 H   0  0  0  0  0  0  0  0  0  0  0  0
  153.5794  137.2473  162.4601 H   0  0  0  0  0  0  0  0  0  0  0  0
  155.6424  137.3732  164.7255 H   0  0  0  0  0  0  0  0  0  0  0  0
  153.9374  137.7271  164.8741 H   0  0  0  0  0  0  0  0  0  0  0  0
  154.4961  135.4163  165.6951 H   0  0  0  0  0  0  0  0  0  0  0  0
  153.3484  135.3826  164.3745 H   0  0  0  0  0  0  0  0  0  0  0  0
  156.3597  134.8870  164.1627 H   0  0  0  0  0  0  0  0  0  0  0  0
  155.1011  133.6895  163.9713 H   0  0  0  0  0  0  0  0  0  0  0  0
  154.2593  134.8366  161.9315 H   0  0  0  0  0  0  0  0  0  0  0  0
  155.9619  134.4636  161.7708 H   0  0  0  0  0  0  0  0  0  0  0  0
  151.5875  144.2680  162.3662 H   0  0  0  0  0  0  0  0  0  0  0  0
  156.4492  136.7036  162.4690 H   0  0  0  0  0  0  0  0  0  0  0  0
  1  2  1  0  0  0  0
  1 21  1  0  0  0  0
  1 22  1  0  0  0  0
  1 23  1  0  0  0  0
  2 20  1  0  0  0  0
  2  3  2  0  0  0  0
  3  4  1  0  0  0  0
  3 24  1  0  0  0  0
  4  5  2  0  0  0  0
  4 25  1  0  0  0  0
  5  6  1  0  0  0  0
  5 19  1  0  0  0  0
  6  7  1  0  0  0  0
  6 26  1  0  0  0  0
  7  8  2  0  0  0  0
  7  9  1  0  0  0  0
  9 10  1  0  0  0  0
  9 27  1  0  0  0  0
 10 11  1  0  0  0  0
 10 12  1  0  0  0  0
 10 28  1  0  0  0  0
 11 29  1  0  0  0  0
 11 30  1  0  0  0  0
 11 31  1  0  0  0  0
 12 13  1  0  0  0  0
 12 32  1  0  0  0  0
 12 33  1  0  0  0  0
 13 18  1  0  0  0  0
 13 14  1  0  0  0  0
 13 45  1  0  0  0  0
 14 15  1  0  0  0  0
 14 34  1  0  0  0  0
 14 35  1  0  0  0  0
 15 16  1  0  0  0  0
 15 36  1  0  0  0  0
 15 37  1  0  0  0  0
 16 17  1  0  0  0  0
 16 38  1  0  0  0  0
 16 39  1  0  0  0  0
 17 18  1  0  0  0  0
 17 40  1  0  0  0  0
 17 41  1  0  0  0  0
 18 42  1  0  0  0  0
 18 43  1  0  0  0  0
 19 20  2  0  0  0  0
 20 44  1  0  0  0  0
M  CHG  1  13   1
M  END
> <s_m_source_file>
AV-unprocessed.smi

> <i_m_source_file_index>
2362

> <i_lp_mmshare_version>
43012

> <i_f3d_flags>
0

> <s_epik_input>
W0NIM11jMVtjSF1bY0hdYyhuW2NIXTEpW05IXUMoPU8pW05IXVtDQEhdKFtDSDNdKVtDSDJdTjJbQ0gyXVtDSDJdW0NIMl1bQ0gyXVtDSDJdMg==

> <s_epik_cmdline>
J2VwaWtfcHl0aG9uJywgJy1waCcsICc3LjAnLCAnLXRuJywgJzgnLCAnLW1hJywgJzIwMCcsICctbWV0YWxfYmluZGluZycsICctaW1hZScsICc8aW5maWxlLm1hZT4nLCAnLW9tYWUnLCAnPG91dGZpbGUubWFlPic=

> <r_epik_Ionization_Penalty>
0.00215987

> <r_epik_Ionization_Penalty_Charging>
0.00211816

> <r_epik_Ionization_Penalty_Neutral>
4.17101e-05

> <r_epik_State_Penalty>
0.00145254

> <r_epik_Charging_Adjusted_Penalty>
0.0035707

> <i_epik_Tot_Q>
1

> <i_epik_Tot_abs_Q>
1

> <r_epik_Metal_State_Penalty>
-0

> <b_epik_Metal_Only>
0

> <s_lp_Force_Field>
OPLS_2005

> <r_lp_Energy>
24.6446

> <b_lp_Chiralities_Consistent>
1

> <s_lp_Variant>
AV-unprocessed.smi:2362-1

> <Gold.Version>
5.8.1

> <Gold.Id.Protein>
6NUR|6NUR_protein|mol2

> <Gold.PLP.Fitness>
44.7238

> <Gold.PLP.PLP>
-42.9168

> <Gold.PLP.part.hbond>
-1.8682

> <Gold.PLP.part.metal>
0.0000

> <Gold.PLP.part.buried>
-5.5846

> <Gold.PLP.part.nonpolar>
-35.0488

> <Gold.PLP.part.repulsive>
0.1043

> <Gold.PLP.ligand.clash>
0.0000

> <Gold.PLP.ligand.torsion>
0.6221

> <Gold.PLP.Chemscore.Hbond>
1.0000

> <Gold.PLP.Chemscore.CHOScore>
0.0000

> <Gold.PLP.Chemscore.Metal>
0.0000

> <Gold.Chemscore.Hbonds>
donor molecule, donor type, donor heavy atom, donor atom, acceptor molecule, acceptor atom, score
      P1  H  7997  8008       L1     8  0.71

> <Gold.PLP.Chemscore.Internal.Correction>
0.0511

> <Gold.Rescore>
     Score         DG    S(hbond)    S(metal)    S(lipo)     H(rot)  DE(clash)    DE(int)     intcor
     13.59     -17.27       0.98        0.00     104.28       1.44       0.09       3.59       ----

> <Gold.Chemscore.Fitness>
13.5859

> <Gold.Chemscore.DG>
-17.2667

> <Gold.Chemscore.ZeroCoef>
-5.4800

> <Gold.Chemscore.Hbond>
0.9801

> <Gold.Chemscore.Metal>
0.0000

> <Gold.Chemscore.Lipo>
104.2780

> <Gold.Chemscore.Internal_Hbond>
0.0000

> <Gold.Chemscore.DEClash>
0.0934

> <Gold.Chemscore.DEInternal>
3.5874

> <Gold.Chemscore.Rot>
1.4404

> <Gold.Chemscore.Internal.Correction>
   9.000000E+99

> <Gold.Chemscore.Hbonds>
donor molecule, donor type, donor heavy atom, donor atom, acceptor molecule, acceptor atom, score
      P1  H  7997  8008       L1     8  0.69

> <Gold.Chemscore.Hbond.Weighted>
-3.2737

> <Gold.Chemscore.Metal.Weighted>
-0.0000

> <Gold.Chemscore.Lipo.Weighted>
-12.2005

> <Gold.Chemscore.Internal_Hbond.Weighted>
0.0000

> <Gold.Chemscore.DEClash.Weighted>
0.0934

> <Gold.Chemscore.DEInternal.Weighted>
3.5874

> <Gold.Chemscore.Rot.Weighted>
3.6875

> <Gold.Chemscore.Internal.Correction.Weighted>
   9.000000E+99

> <Gold.Protein.RotatedTorsions>
[ 6907 6896 6895 6894 ] final  172.09 input  -60.11 | X-H torsion
[ 7974 7965 7964 7962 ] final  -56.34 input  175.53 | X-H torsion
[ 8008 7997 7996 7995 ] final -126.67 input   59.86 | X-H torsion
[ 10167 10162 10161 10158 ] final  121.73 input  -65.29 | X-H torsion
[ 10718 10713 10712 10709 ] final  -81.59 input   66.30 | X-H torsion
[ 10763 10752 10751 10750 ] final  -10.81 input  -60.55 | X-H torsion
[ 11005 11000 10999 10996 ] final  -97.61 input  -57.11 | X-H torsion

> <Gold.Protein.ActiveResidues>
 VAL166  LYS551  ARG553  GLY616  TRP617  ASP618  TYR619  PRO620  LYS621  CYS622 
 ASP623  PHE694  ASN695  SER759  ASP760  ASP761  ALA762  ILE779  LEU786  VAL792 
 PHE793  MET794  SER795  GLU796  ALA797  LYS798  CYS799  TRP800  GLU811  SER814 

> <Gold.Protein.RotatedAtoms>
  151.7898  133.3358  159.3495 H   0  0  0  0  0  0  0  0  0  0  0  0  # atno 6907 bound_to 6896
  150.7396  134.5853  159.5969 H   0  0  0  0  0  0  0  0  0  0  0  0  # atno 6908 bound_to 6896
  152.3218  134.7372  160.0363 H   0  0  0  0  0  0  0  0  0  0  0  0  # atno 6909 bound_to 6896
  145.8638  140.8266  142.9923 H   0  0  0  0  0  0  0  0  0  0  0  0  # atno 7974 bound_to 7965
  155.2336  140.0426  157.2965 H   0  0  0  0  0  0  0  0  0  0  0  0  # atno 8008 bound_to 7997
  154.5873  140.2417  155.7940 H   0  0  0  0  0  0  0  0  0  0  0  0  # atno 8009 bound_to 7997
  156.2235  140.2962  156.0017 H   0  0  0  0  0  0  0  0  0  0  0  0  # atno 8010 bound_to 7997
  139.5901  144.7022  151.3311 H   0  0  0  0  0  0  0  0  0  0  0  0  # atno 10167 bound_to 10162
  156.0047  130.4608  150.3976 H   0  0  0  0  0  0  0  0  0  0  0  0  # atno 10718 bound_to 10713
  153.4745  135.7017  153.5974 H   0  0  0  0  0  0  0  0  0  0  0  0  # atno 10763 bound_to 10752
  153.4213  135.3824  155.2113 H   0  0  0  0  0  0  0  0  0  0  0  0  # atno 10764 bound_to 10752
  154.8724  135.3928  154.4187 H   0  0  0  0  0  0  0  0  0  0  0  0  # atno 10765 bound_to 10752
  141.1373  133.8184  157.0729 H   0  0  0  0  0  0  0  0  0  0  0  0  # atno 11005 bound_to 11000
  144.6726  140.1135  143.7454 LP  0  0  0  0  0  0  0  0  0  0  0  0  # atno 17320 bound_to 7965
  145.9217  139.2550  143.1377 LP  0  0  0  0  0  0  0  0  0  0  0  0  # atno 17321 bound_to 7965
  140.7166  143.7250  150.7667 LP  0  0  0  0  0  0  0  0  0  0  0  0  # atno 17342 bound_to 10162
  140.0804  143.4974  152.2533 LP  0  0  0  0  0  0  0  0  0  0  0  0  # atno 17343 bound_to 10162
  157.2047  131.0446  151.2631 LP  0  0  0  0  0  0  0  0  0  0  0  0  # atno 17370 bound_to 10713
  157.3943  130.7299  149.6720 LP  0  0  0  0  0  0  0  0  0  0  0  0  # atno 17371 bound_to 10713
  140.0500  134.9810  157.1118 LP  0  0  0  0  0  0  0  0  0  0  0  0  # atno 17394 bound_to 11000
  140.4005  134.2088  155.7163 LP  0  0  0  0  0  0  0  0  0  0  0  0  # atno 17395 bound_to 11000

$$$$
