AV-unprocessed.smi:907|AV-procd|sdf|4107|dock2
  -GOLD-   22720 2 03D 1   1.00000     0.00000
 Structure written by MMmdl.
 53 56  0  0  0  0  0  0  0  0  2 V2000
  149.8437  140.2434  154.0847 O   0  0  0  0  0  0  0  0  0  0  0  0
  148.8602  140.6699  154.6908 C   0  0  0  0  0  0  0  0  0  0  0  0
  148.9508  141.1780  155.9303 N   0  0  0  0  0  0  0  0  0  0  0  0
  150.1882  141.3003  156.6888 C   0  0  0  0  0  0  0  0  0  0  0  0
  149.9012  141.7953  158.1134 C   0  0  0  0  0  0  0  0  0  0  0  0
  150.7465  142.9987  158.4865 C   0  0  0  0  0  0  0  0  0  0  0  0
  151.6404  143.5677  157.5543 C   0  0  0  0  0  0  0  0  0  0  0  0
  152.3980  144.6874  157.9486 C   0  0  0  0  0  0  0  0  0  0  0  0
  152.2324  145.1935  159.2520 C   0  0  0  0  0  0  0  0  0  0  0  0
  151.3125  144.5541  160.1072 C   0  0  0  0  0  0  0  0  0  0  0  0
  150.5819  143.4792  159.7396 N   0  0  0  0  0  0  0  0  0  0  0  0
  147.6028  140.6346  154.1819 N   0  0  0  0  0  0  0  0  0  0  0  0
  147.2264  140.2827  152.8079 C   0  0  0  0  0  0  0  0  0  0  0  0
  146.5935  138.8782  152.7996 C   0  0  0  0  0  0  0  0  0  0  0  0
  145.4434  138.7685  153.7463 N   0  3  0  0  0  0  0  0  0  0  0  0
  144.8387  137.4026  153.8256 C   0  0  1  0  0  0  0  0  0  0  0  0
  143.7846  137.3006  154.9606 C   0  0  0  0  0  0  0  0  0  0  0  0
  142.5337  136.7598  154.2487 C   0  0  2  0  0  0  0  0  0  0  0  0
  142.7679  135.2979  153.8338 C   0  0  0  0  0  0  0  0  0  0  0  0
  143.7661  135.4384  152.6719 C   0  0  0  0  0  0  0  0  0  0  0  0
  143.9969  136.9609  152.5941 C   0  0  1  0  0  0  0  0  0  0  0  0
  142.6046  137.4921  152.9155 C   0  0  0  0  0  0  0  0  0  0  0  0
  145.7793  139.3009  155.1012 C   0  0  0  0  0  0  0  0  0  0  0  0
  146.4145  140.7002  155.0330 C   0  0  0  0  0  0  0  0  0  0  0  0
  148.1046  141.4958  156.3796 H   0  0  0  0  0  0  0  0  0  0  0  0
  150.6846  140.3291  156.7213 H   0  0  0  0  0  0  0  0  0  0  0  0
  150.8628  141.9924  156.1818 H   0  0  0  0  0  0  0  0  0  0  0  0
  148.8473  142.0604  158.2121 H   0  0  0  0  0  0  0  0  0  0  0  0
  150.0839  140.9943  158.8310 H   0  0  0  0  0  0  0  0  0  0  0  0
  151.7433  143.1585  156.5600 H   0  0  0  0  0  0  0  0  0  0  0  0
  153.0932  145.1495  157.2632 H   0  0  0  0  0  0  0  0  0  0  0  0
  152.7961  146.0509  159.5885 H   0  0  0  0  0  0  0  0  0  0  0  0
  151.1591  144.9157  161.1131 H   0  0  0  0  0  0  0  0  0  0  0  0
  146.5063  141.0150  152.4395 H   0  0  0  0  0  0  0  0  0  0  0  0
  148.0542  140.3154  152.0993 H   0  0  0  0  0  0  0  0  0  0  0  0
  146.2720  138.6809  151.7792 H   0  0  0  0  0  0  0  0  0  0  0  0
  147.3457  138.1300  153.0552 H   0  0  0  0  0  0  0  0  0  0  0  0
  145.6478  136.6880  153.9869 H   0  0  0  0  0  0  0  0  0  0  0  0
  144.1121  136.6528  155.7744 H   0  0  0  0  0  0  0  0  0  0  0  0
  143.5504  138.2758  155.3893 H   0  0  0  0  0  0  0  0  0  0  0  0
  141.6114  136.9129  154.8099 H   0  0  0  0  0  0  0  0  0  0  0  0
  143.1610  134.6935  154.6523 H   0  0  0  0  0  0  0  0  0  0  0  0
  141.8416  134.8357  153.4899 H   0  0  0  0  0  0  0  0  0  0  0  0
  144.6885  134.8829  152.8444 H   0  0  0  0  0  0  0  0  0  0  0  0
  143.3253  135.0669  151.7458 H   0  0  0  0  0  0  0  0  0  0  0  0
  144.3811  137.2446  151.6171 H   0  0  0  0  0  0  0  0  0  0  0  0
  141.8427  137.1687  152.2039 H   0  0  0  0  0  0  0  0  0  0  0  0
  142.5663  138.5785  153.0125 H   0  0  0  0  0  0  0  0  0  0  0  0
  144.8902  139.3505  155.7288 H   0  0  0  0  0  0  0  0  0  0  0  0
  146.4695  138.6149  155.5954 H   0  0  0  0  0  0  0  0  0  0  0  0
  146.6368  141.0588  156.0392 H   0  0  0  0  0  0  0  0  0  0  0  0
  145.7052  141.4165  154.6158 H   0  0  0  0  0  0  0  0  0  0  0  0
  144.7264  139.3757  153.3751 H   0  0  0  0  0  0  0  0  0  0  0  0
  1  2  2  0  0  0  0
  2  3  1  0  0  0  0
  2 12  1  0  0  0  0
  3  4  1  0  0  0  0
  3 25  1  0  0  0  0
  4  5  1  0  0  0  0
  4 26  1  0  0  0  0
  4 27  1  0  0  0  0
  5  6  1  0  0  0  0
  5 28  1  0  0  0  0
  5 29  1  0  0  0  0
  6 11  1  0  0  0  0
  6  7  2  0  0  0  0
  7  8  1  0  0  0  0
  7 30  1  0  0  0  0
  8  9  2  0  0  0  0
  8 31  1  0  0  0  0
  9 10  1  0  0  0  0
  9 32  1  0  0  0  0
 10 11  2  0  0  0  0
 10 33  1  0  0  0  0
 12 24  1  0  0  0  0
 12 13  1  0  0  0  0
 13 14  1  0  0  0  0
 13 34  1  0  0  0  0
 13 35  1  0  0  0  0
 14 15  1  0  0  0  0
 14 36  1  0  0  0  0
 14 37  1  0  0  0  0
 15 16  1  0  0  0  0
 15 23  1  0  0  0  0
 15 53  1  0  0  0  0
 16 21  1  0  0  0  0
 16 17  1  0  0  0  0
 16 38  1  0  0  0  0
 17 18  1  0  0  0  0
 17 39  1  0  0  0  0
 17 40  1  0  0  0  0
 18 22  1  0  0  0  0
 18 19  1  0  0  0  0
 18 41  1  0  0  0  0
 19 20  1  0  0  0  0
 19 42  1  0  0  0  0
 19 43  1  0  0  0  0
 20 21  1  0  0  0  0
 20 44  1  0  0  0  0
 20 45  1  0  0  0  0
 21 22  1  0  0  0  0
 21 46  1  0  0  0  0
 22 47  1  0  0  0  0
 22 48  1  0  0  0  0
 23 24  1  0  0  0  0
 23 49  1  0  0  0  0
 23 50  1  0  0  0  0
 24 51  1  0  0  0  0
 24 52  1  0  0  0  0
M  CHG  1  15   1
M  END
> <s_m_source_file>
AV-unprocessed.smi

> <i_m_source_file_index>
907

> <i_lp_mmshare_version>
43012

> <i_f3d_flags>
0

> <s_epik_input>
W0NIMl0xW0NIMl1bQ0BASF0oW0NIMl0yKVtDQEBIXShbQ0gyXVtDQEhdMTIpTihbQ0gyXVtDSDJdMylbQ0gyXVtDSDJdTjNDKD1PKVtOSF1bQ0gyXVtDSDJdYzRbY0hdW2NIXVtjSF1bY0hdbjQ=

> <s_epik_cmdline>
J2VwaWtfcHl0aG9uJywgJy1waCcsICc3LjAnLCAnLXRuJywgJzgnLCAnLW1hJywgJzIwMCcsICctbWV0YWxfYmluZGluZycsICctaW1hZScsICc8aW5maWxlLm1hZT4nLCAnLW9tYWUnLCAnPG91dGZpbGUubWFlPic=

> <r_epik_Ionization_Penalty>
0.0419258

> <r_epik_Ionization_Penalty_Charging>
0.00262064

> <r_epik_Ionization_Penalty_Neutral>
0.0393052

> <r_epik_State_Penalty>
0.0329887

> <r_epik_Charging_Adjusted_Penalty>
0.0356093

> <i_epik_Tot_Q>
1

> <i_epik_Tot_abs_Q>
1

> <r_epik_Metal_State_Penalty>
0.0309172

> <b_epik_Metal_Only>
0

> <s_lp_Force_Field>
OPLS_2005

> <r_lp_Energy>
96.5641

> <b_lp_Chiralities_Consistent>
1

> <s_lp_Variant>
AV-unprocessed.smi:907-2

> <Gold.Version>
5.8.1

> <Gold.Id.Protein>
6NUR|6NUR_protein|mol2

> <Gold.PLP.Fitness>
49.9263

> <Gold.PLP.PLP>
-43.3254

> <Gold.PLP.part.hbond>
-2.8177

> <Gold.PLP.part.metal>
0.0000

> <Gold.PLP.part.buried>
-5.0437

> <Gold.PLP.part.nonpolar>
-36.1434

> <Gold.PLP.part.repulsive>
1.1376

> <Gold.PLP.ligand.clash>
0.6355

> <Gold.PLP.ligand.torsion>
0.7106

> <Gold.PLP.Chemscore.Hbond>
2.8480

> <Gold.PLP.Chemscore.CHOScore>
0.0000

> <Gold.PLP.Chemscore.Metal>
0.0000

> <Gold.Chemscore.Hbonds>
donor molecule, donor type, donor heavy atom, donor atom, acceptor molecule, acceptor atom, score
      L1  H    15    53       P1 10175  2.00
      P1  H  7989  7998       L1     1  0.82

> <Gold.PLP.Chemscore.Internal.Correction>
0.1137

> <Gold.Rescore>
     Score         DG    S(hbond)    S(metal)    S(lipo)     H(rot)  DE(clash)    DE(int)     intcor
     19.75     -20.51       1.83        0.00     106.19       1.37       0.06       0.70       ----

> <Gold.Chemscore.Fitness>
19.7493

> <Gold.Chemscore.DG>
-20.5069

> <Gold.Chemscore.ZeroCoef>
-5.4800

> <Gold.Chemscore.Hbond>
1.8317

> <Gold.Chemscore.Metal>
0.0000

> <Gold.Chemscore.Lipo>
106.1891

> <Gold.Chemscore.Internal_Hbond>
0.0000

> <Gold.Chemscore.DEClash>
0.0599

> <Gold.Chemscore.DEInternal>
0.6977

> <Gold.Chemscore.Rot>
1.3731

> <Gold.Chemscore.Internal.Correction>
   9.000000E+99

> <Gold.Chemscore.Hbonds>
donor molecule, donor type, donor heavy atom, donor atom, acceptor molecule, acceptor atom, score
      L1  H    15    53       P1 10175  1.00
      P1  H  7989  7998       L1     1  0.80

> <Gold.Chemscore.Hbond.Weighted>
-6.1179

> <Gold.Chemscore.Metal.Weighted>
-0.0000

> <Gold.Chemscore.Lipo.Weighted>
-12.4241

> <Gold.Chemscore.Internal_Hbond.Weighted>
0.0000

> <Gold.Chemscore.DEClash.Weighted>
0.0599

> <Gold.Chemscore.DEInternal.Weighted>
0.6977

> <Gold.Chemscore.Rot.Weighted>
3.5152

> <Gold.Chemscore.Internal.Correction.Weighted>
   9.000000E+99

> <Gold.Protein.RotatedTorsions>
[ 6907 6896 6895 6894 ] final -105.05 input  -60.11 | X-H torsion
[ 7974 7965 7964 7962 ] final -170.06 input  175.53 | X-H torsion
[ 8008 7997 7996 7995 ] final   76.42 input   59.86 | X-H torsion
[ 10167 10162 10161 10158 ] final   19.22 input  -65.29 | X-H torsion
[ 10718 10713 10712 10709 ] final  -97.41 input   66.30 | X-H torsion
[ 10763 10752 10751 10750 ] final   36.62 input  -60.55 | X-H torsion
[ 11005 11000 10999 10996 ] final  179.32 input  -57.11 | X-H torsion

> <Gold.Protein.ActiveResidues>
 VAL166  LYS551  ARG553  GLY616  TRP617  ASP618  TYR619  PRO620  LYS621  CYS622 
 ASP623  PHE694  ASN695  SER759  ASP760  ASP761  ALA762  ILE779  LEU786  VAL792 
 PHE793  MET794  SER795  GLU796  ALA797  LYS798  CYS799  TRP800  GLU811  SER814 

> <Gold.Protein.RotatedAtoms>
  150.7317  134.0186  159.3693 H   0  0  0  0  0  0  0  0  0  0  0  0  # atno 6907 bound_to 6896
  151.8149  135.0667  160.0427 H   0  0  0  0  0  0  0  0  0  0  0  0  # atno 6908 bound_to 6896
  152.3046  133.5653  159.5677 H   0  0  0  0  0  0  0  0  0  0  0  0  # atno 6909 bound_to 6896
  144.7175  140.2128  143.6325 H   0  0  0  0  0  0  0  0  0  0  0  0  # atno 7974 bound_to 7965
  155.8270  140.3467  155.5549 H   0  0  0  0  0  0  0  0  0  0  0  0  # atno 8008 bound_to 7997
  155.8282  140.0923  157.1828 H   0  0  0  0  0  0  0  0  0  0  0  0  # atno 8009 bound_to 7997
  154.4004  140.1417  156.3569 H   0  0  0  0  0  0  0  0  0  0  0  0  # atno 8010 bound_to 7997
  140.5595  143.9363  150.6632 H   0  0  0  0  0  0  0  0  0  0  0  0  # atno 10167 bound_to 10162
  156.0083  130.5193  150.6370 H   0  0  0  0  0  0  0  0  0  0  0  0  # atno 10718 bound_to 10713
  153.0070  135.6301  154.2014 H   0  0  0  0  0  0  0  0  0  0  0  0  # atno 10763 bound_to 10752
  154.1757  135.2816  155.3069 H   0  0  0  0  0  0  0  0  0  0  0  0  # atno 10764 bound_to 10752
  154.5873  135.5628  153.7304 H   0  0  0  0  0  0  0  0  0  0  0  0  # atno 10765 bound_to 10752
  140.4049  134.6744  157.4582 H   0  0  0  0  0  0  0  0  0  0  0  0  # atno 11005 bound_to 11000
  145.8575  139.2206  143.1736 LP  0  0  0  0  0  0  0  0  0  0  0  0  # atno 17320 bound_to 7965
  146.0204  140.8353  142.9926 LP  0  0  0  0  0  0  0  0  0  0  0  0  # atno 17321 bound_to 7965
  140.2810  143.3389  152.1151 LP  0  0  0  0  0  0  0  0  0  0  0  0  # atno 17342 bound_to 10162
  139.5063  144.6812  151.6005 LP  0  0  0  0  0  0  0  0  0  0  0  0  # atno 17343 bound_to 10162
  157.4157  131.0830  151.1178 LP  0  0  0  0  0  0  0  0  0  0  0  0  # atno 17370 bound_to 10713
  157.1796  130.6303  149.5667 LP  0  0  0  0  0  0  0  0  0  0  0  0  # atno 17371 bound_to 10713
  140.0310  134.6407  155.9107 LP  0  0  0  0  0  0  0  0  0  0  0  0  # atno 17394 bound_to 11000
  141.1843  133.6552  156.5151 LP  0  0  0  0  0  0  0  0  0  0  0  0  # atno 17395 bound_to 11000

$$$$
