AV-unprocessed.smi:2199|AV-procd|sdf|8923|dock4
  -GOLD-   2272012143D 1   1.00000     0.00000
 Structure written by MMmdl.
 26 27  0  0  0  0  0  0  0  0  1 V2000
  152.2060  141.8769  158.3147 O   0  0  0  0  0  0  0  0  0  0  0  0
  151.2613  142.2986  157.6478 C   0  0  0  0  0  0  0  0  0  0  0  0
  150.3841  141.3214  156.8571 C   0  0  0  0  0  0  0  0  0  0  0  0
  150.9659  139.9727  156.8184 N   0  0  0  0  0  0  0  0  0  0  0  0
  151.2472  139.2990  157.9988 C   0  0  0  0  0  0  0  0  0  0  0  0
  151.7761  138.0531  158.0392 C   0  0  0  0  0  0  0  0  0  0  0  0
  152.0826  137.3403  156.8039 C   0  0  0  0  0  0  0  0  0  0  0  0
  152.5616  136.2105  156.7374 O   0  0  0  0  0  0  0  0  0  0  0  0
  151.7851  138.0502  155.6378 N   0  0  0  0  0  0  0  0  0  0  0  0
  151.2408  139.3344  155.5887 C   0  0  0  0  0  0  0  0  0  0  0  0
  151.0174  139.8688  154.5034 O   0  0  0  0  0  0  0  0  0  0  0  0
  150.9371  143.5974  157.5593 N   0  0  0  0  0  0  0  0  0  0  0  0
  151.6232  144.6686  158.2056 C   0  0  0  0  0  0  0  0  0  0  0  0
  152.1795  144.4120  159.5892 C   0  0  0  0  0  0  0  0  0  0  0  0
  150.9700  145.2898  159.4212 C   0  0  0  0  0  0  0  0  0  0  0  0
  151.9795  137.5965  154.7569 H   0  0  0  0  0  0  0  0  0  0  0  0
  149.3835  141.2930  157.2927 H   0  0  0  0  0  0  0  0  0  0  0  0
  150.2412  141.7082  155.8466 H   0  0  0  0  0  0  0  0  0  0  0  0
  151.0330  139.7866  158.9395 H   0  0  0  0  0  0  0  0  0  0  0  0
  151.9728  137.5806  158.9909 H   0  0  0  0  0  0  0  0  0  0  0  0
  150.1443  143.8471  156.9862 H   0  0  0  0  0  0  0  0  0  0  0  0
  152.2017  145.3442  157.5770 H   0  0  0  0  0  0  0  0  0  0  0  0
  152.0270  143.4266  160.0257 H   0  0  0  0  0  0  0  0  0  0  0  0
  153.1197  144.8949  159.8476 H   0  0  0  0  0  0  0  0  0  0  0  0
  151.1012  146.3600  159.5685 H   0  0  0  0  0  0  0  0  0  0  0  0
  150.0103  144.8904  159.7440 H   0  0  0  0  0  0  0  0  0  0  0  0
  1  2  2  0  0  0  0
  2  3  1  0  0  0  0
  2 12  1  0  0  0  0
  3  4  1  0  0  0  0
  3 17  1  0  0  0  0
  3 18  1  0  0  0  0
  4 10  1  0  0  0  0
  4  5  1  0  0  0  0
  5  6  2  0  0  0  0
  5 19  1  0  0  0  0
  6  7  1  0  0  0  0
  6 20  1  0  0  0  0
  7  8  2  0  0  0  0
  7  9  1  0  0  0  0
  9 16  1  0  0  0  0
  9 10  1  0  0  0  0
 10 11  2  0  0  0  0
 12 13  1  0  0  0  0
 12 21  1  0  0  0  0
 13 15  1  0  0  0  0
 13 14  1  0  0  0  0
 13 22  1  0  0  0  0
 14 15  1  0  0  0  0
 14 23  1  0  0  0  0
 14 24  1  0  0  0  0
 15 25  1  0  0  0  0
 15 26  1  0  0  0  0
M  END
> <s_m_source_file>
AV-unprocessed.smi

> <i_m_source_file_index>
2199

> <i_lp_mmshare_version>
43012

> <i_f3d_flags>
0

> <s_epik_input>
W0NIMl0xW0NIMl1bQ0hdMVtOSF1DKD1PKVtDSDJdbjJbY0hdW2NIXWMoPU8pW25IXWMyPU8=

> <s_epik_cmdline>
J2VwaWtfcHl0aG9uJywgJy1waCcsICc3LjAnLCAnLXRuJywgJzgnLCAnLW1hJywgJzIwMCcsICctbWV0YWxfYmluZGluZycsICctaW1hZScsICc8aW5maWxlLm1hZT4nLCAnLW9tYWUnLCAnPG91dGZpbGUubWFlPic=

> <r_lp_tautomer_probability>
0.999537

> <r_epik_Ionization_Penalty>
0.00328918

> <r_epik_Ionization_Penalty_Charging>
0.00328916

> <r_epik_Ionization_Penalty_Neutral>
2.06703e-08

> <r_epik_State_Penalty>
0.00232387

> <r_epik_Charging_Adjusted_Penalty>
0.00561303

> <i_epik_Tot_Q>
0

> <i_epik_Tot_abs_Q>
0

> <r_epik_Metal_State_Penalty>
0.365273

> <b_epik_Metal_Only>
0

> <s_lp_Force_Field>
OPLS_2005

> <r_lp_Energy>
17.907

> <b_lp_Chiralities_Consistent>
1

> <s_lp_Variant>
AV-unprocessed.smi:2199-1

> <Gold.Version>
5.8.1

> <Gold.Id.Protein>
6NUR|6NUR_protein|mol2

> <Gold.PLP.Fitness>
36.5424

> <Gold.PLP.PLP>
-28.2631

> <Gold.PLP.part.hbond>
-3.0000

> <Gold.PLP.part.metal>
0.0000

> <Gold.PLP.part.buried>
-5.3492

> <Gold.PLP.part.nonpolar>
-20.5794

> <Gold.PLP.part.repulsive>
0.2231

> <Gold.PLP.ligand.clash>
0.0000

> <Gold.PLP.ligand.torsion>
0.3777

> <Gold.PLP.Chemscore.Hbond>
3.0000

> <Gold.PLP.Chemscore.CHOScore>
0.0000

> <Gold.PLP.Chemscore.Metal>
0.0000

> <Gold.Chemscore.Hbonds>
donor molecule, donor type, donor heavy atom, donor atom, acceptor molecule, acceptor atom, score
      L1  H    12    21       P1  8028  1.00
      P1  H  7989  7998       L1    11  1.00
      P1  H 10752 10763       L1     8  1.00

> <Gold.PLP.Chemscore.Internal.Correction>
0.0346

> <Gold.Rescore>
     Score         DG    S(hbond)    S(metal)    S(lipo)     H(rot)  DE(clash)    DE(int)     intcor
     14.19     -16.90       2.96        0.00      51.98       1.78       0.04       2.67       ----

> <Gold.Chemscore.Fitness>
14.1917

> <Gold.Chemscore.DG>
-16.8952

> <Gold.Chemscore.ZeroCoef>
-5.4800

> <Gold.Chemscore.Hbond>
2.9630

> <Gold.Chemscore.Metal>
0.0000

> <Gold.Chemscore.Lipo>
51.9821

> <Gold.Chemscore.Internal_Hbond>
0.0000

> <Gold.Chemscore.DEClash>
0.0370

> <Gold.Chemscore.DEInternal>
2.6665

> <Gold.Chemscore.Rot>
1.7825

> <Gold.Chemscore.Internal.Correction>
   9.000000E+99

> <Gold.Chemscore.Hbonds>
donor molecule, donor type, donor heavy atom, donor atom, acceptor molecule, acceptor atom, score
      L1  H    12    21       P1  8028  0.94
      P1  H  7989  7998       L1    11  0.94
      P1  H 10752 10763       L1     8  0.99

> <Gold.Chemscore.Hbond.Weighted>
-9.8965

> <Gold.Chemscore.Metal.Weighted>
-0.0000

> <Gold.Chemscore.Lipo.Weighted>
-6.0819

> <Gold.Chemscore.Internal_Hbond.Weighted>
0.0000

> <Gold.Chemscore.DEClash.Weighted>
0.0370

> <Gold.Chemscore.DEInternal.Weighted>
2.6665

> <Gold.Chemscore.Rot.Weighted>
4.5632

> <Gold.Chemscore.Internal.Correction.Weighted>
   9.000000E+99

> <Gold.Protein.RotatedTorsions>
[ 6907 6896 6895 6894 ] final    3.00 input  -60.11 | X-H torsion
[ 7974 7965 7964 7962 ] final  123.23 input  175.53 | X-H torsion
[ 8008 7997 7996 7995 ] final  -97.02 input   59.86 | X-H torsion
[ 10167 10162 10161 10158 ] final -136.38 input  -65.29 | X-H torsion
[ 10718 10713 10712 10709 ] final  -68.57 input   66.30 | X-H torsion
[ 10763 10752 10751 10750 ] final  118.58 input  -60.55 | X-H torsion
[ 11005 11000 10999 10996 ] final  -93.35 input  -57.11 | X-H torsion

> <Gold.Protein.ActiveResidues>
 VAL166  LYS551  ARG553  GLY616  TRP617  ASP618  TYR619  PRO620  LYS621  CYS622 
 ASP623  PHE694  ASN695  SER759  ASP760  ASP761  ALA762  ILE779  LEU786  VAL792 
 PHE793  MET794  SER795  GLU796  ALA797  LYS798  CYS799  TRP800  GLU811  SER814 

> <Gold.Protein.RotatedAtoms>
  151.6180  135.1034  160.0095 H   0  0  0  0  0  0  0  0  0  0  0  0  # atno 6907 bound_to 6896
  152.4173  133.7055  159.6459 H   0  0  0  0  0  0  0  0  0  0  0  0  # atno 6908 bound_to 6896
  150.8061  133.8434  159.3226 H   0  0  0  0  0  0  0  0  0  0  0  0  # atno 6909 bound_to 6896
  145.0983  139.3537  143.4825 H   0  0  0  0  0  0  0  0  0  0  0  0  # atno 7974 bound_to 7965
  154.7821  140.0466  157.1135 H   0  0  0  0  0  0  0  0  0  0  0  0  # atno 8008 bound_to 7997
  154.9692  140.3087  155.4976 H   0  0  0  0  0  0  0  0  0  0  0  0  # atno 8009 bound_to 7997
  156.2938  140.2256  156.4783 H   0  0  0  0  0  0  0  0  0  0  0  0  # atno 8010 bound_to 7997
  139.8684  143.6989  152.2642 H   0  0  0  0  0  0  0  0  0  0  0  0  # atno 10167 bound_to 10162
  156.0499  130.4297  150.2020 H   0  0  0  0  0  0  0  0  0  0  0  0  # atno 10718 bound_to 10713
  153.5698  135.3504  155.2833 H   0  0  0  0  0  0  0  0  0  0  0  0  # atno 10763 bound_to 10752
  154.8683  135.4156  154.2738 H   0  0  0  0  0  0  0  0  0  0  0  0  # atno 10764 bound_to 10752
  153.3501  135.7054  153.6865 H   0  0  0  0  0  0  0  0  0  0  0  0  # atno 10765 bound_to 10752
  141.1499  133.7882  157.0147 H   0  0  0  0  0  0  0  0  0  0  0  0  # atno 11005 bound_to 11000
  146.3530  140.0849  142.8615 LP  0  0  0  0  0  0  0  0  0  0  0  0  # atno 17320 bound_to 7965
  145.0985  140.9330  143.4727 LP  0  0  0  0  0  0  0  0  0  0  0  0  # atno 17321 bound_to 7965
  139.7307  144.7583  151.0806 LP  0  0  0  0  0  0  0  0  0  0  0  0  # atno 17342 bound_to 10162
  140.7764  143.5091  150.9674 LP  0  0  0  0  0  0  0  0  0  0  0  0  # atno 17343 bound_to 10162
  157.0105  130.9949  151.3367 LP  0  0  0  0  0  0  0  0  0  0  0  0  # atno 17370 bound_to 10713
  157.5413  130.8122  149.8033 LP  0  0  0  0  0  0  0  0  0  0  0  0  # atno 17371 bound_to 10713
  140.0854  134.9623  157.1692 LP  0  0  0  0  0  0  0  0  0  0  0  0  # atno 17394 bound_to 11000
  140.3518  134.2590  155.7197 LP  0  0  0  0  0  0  0  0  0  0  0  0  # atno 17395 bound_to 11000

$$$$
