AV-unprocessed.smi:35|AV-procd|sdf|272|dock10
  -GOLD-   2262016 43D 1   1.00000     0.00000
 Structure written by MMmdl.
 28 29  0  0  0  0  0  0  0  0  2 V2000
  152.9256  138.8161  156.9242 O   0  0  0  0  0  0  0  0  0  0  0  0
  152.0030  139.5009  156.4864 C   0  0  0  0  0  0  0  0  0  0  0  0
  151.4273  140.5119  157.1983 N   0  5  0  0  0  0  0  0  0  0  0  0
  150.3889  141.2559  156.7159 C   0  0  0  0  0  0  0  0  0  0  0  0
  149.9056  142.2044  157.3337 O   0  0  0  0  0  0  0  0  0  0  0  0
  149.8413  140.9366  155.4402 N   0  0  0  0  0  0  0  0  0  0  0  0
  148.6966  141.7740  154.8888 C   0  0  1  0  0  0  0  0  0  0  0  0
  148.5059  141.4681  153.5336 O   0  0  0  0  0  0  0  0  0  0  0  0
  147.3383  140.6726  153.3297 C   0  0  1  0  0  0  0  0  0  0  0  0
  147.6678  139.1651  153.4356 C   0  0  0  0  0  0  0  0  0  0  0  0
  147.9257  138.6351  152.1529 O   0  0  0  0  0  0  0  0  0  0  0  0
  146.4116  141.2126  154.4242 C   0  0  1  0  0  0  0  0  0  0  0  0
  145.3773  140.3145  154.7761 O   0  0  0  0  0  0  0  0  0  0  0  0
  147.3514  141.4771  155.5927 C   0  0  2  0  0  0  0  0  0  0  0  0
  146.8828  142.5910  156.3257 O   0  0  0  0  0  0  0  0  0  0  0  0
  150.4558  139.9607  154.6693 C   0  0  0  0  0  0  0  0  0  0  0  0
  151.4921  139.2414  155.1445 C   0  0  0  0  0  0  0  0  0  0  0  0
  152.2489  137.8666  153.9348 Br  0  0  0  0  0  0  0  0  0  0  0  0
  149.0387  142.8057  154.9885 H   0  0  0  0  0  0  0  0  0  0  0  0
  146.9126  140.8804  152.3471 H   0  0  0  0  0  0  0  0  0  0  0  0
  148.4986  138.9634  154.1098 H   0  0  0  0  0  0  0  0  0  0  0  0
  146.8124  138.6138  153.8253 H   0  0  0  0  0  0  0  0  0  0  0  0
  148.4531  137.8572  152.2511 H   0  0  0  0  0  0  0  0  0  0  0  0
  145.9704  142.1481  154.0748 H   0  0  0  0  0  0  0  0  0  0  0  0
  144.7415  140.3077  154.0767 H   0  0  0  0  0  0  0  0  0  0  0  0
  147.4432  140.5941  156.2279 H   0  0  0  0  0  0  0  0  0  0  0  0
  147.6178  143.1654  156.4841 H   0  0  0  0  0  0  0  0  0  0  0  0
  150.1135  139.7555  153.6669 H   0  0  0  0  0  0  0  0  0  0  0  0
  1  2  2  0  0  0  0
  2 17  1  0  0  0  0
  2  3  1  0  0  0  0
  3  4  1  0  0  0  0
  4  5  2  0  0  0  0
  4  6  1  0  0  0  0
  6  7  1  0  0  0  0
  6 16  1  0  0  0  0
  7 14  1  0  0  0  0
  7  8  1  0  0  0  0
  7 19  1  0  0  0  0
  8  9  1  0  0  0  0
  9 10  1  0  0  0  0
  9 12  1  0  0  0  0
  9 20  1  0  0  0  0
 10 11  1  0  0  0  0
 10 21  1  0  0  0  0
 10 22  1  0  0  0  0
 11 23  1  0  0  0  0
 12 13  1  0  0  0  0
 12 14  1  0  0  0  0
 12 24  1  0  0  0  0
 13 25  1  0  0  0  0
 14 15  1  0  0  0  0
 14 26  1  0  0  0  0
 15 27  1  0  0  0  0
 16 17  2  0  0  0  0
 16 28  1  0  0  0  0
 17 18  1  0  0  0  0
M  CHG  1   3  -1
M  END
> <s_m_source_file>
AV-unprocessed.smi

> <i_m_source_file_index>
35

> <i_lp_mmshare_version>
43012

> <i_f3d_flags>
0

> <s_epik_input>
Tz1jMVtuSF1jKD1PKW4oW2NIXWMxQnIpW0NAQEhdMk9bQ0BASF0oW0NIMl1bT0hdKVtDQEBIXShbT0hdKVtDQEhdMltPSF0=

> <s_epik_cmdline>
J2VwaWtfcHl0aG9uJywgJy1waCcsICc3LjAnLCAnLXRuJywgJzgnLCAnLW1hJywgJzIwMCcsICctbWV0YWxfYmluZGluZycsICctaW1hZScsICc8aW5maWxlLm1hZT4nLCAnLW9tYWUnLCAnPG91dGZpbGUubWFlPic=

> <r_epik_Ionization_Penalty>
1.06112

> <r_epik_Ionization_Penalty_Charging>
2.1796e-09

> <r_epik_Ionization_Penalty_Neutral>
1.06112

> <r_epik_State_Penalty>
1.11484

> <r_epik_Charging_Adjusted_Penalty>
1.11484

> <i_epik_Tot_Q>
-1

> <i_epik_Tot_abs_Q>
1

> <r_epik_Metal_State_Penalty>
0.0032876

> <b_epik_Metal_Only>
0

> <s_epik_Chemistry_Notes>
This compound contains an acetal/aminal-like group ( X-CH(R)-Y where X, Y are N, S, or O) that may be acid/base labile, releasing an aldehyde.

> <s_lp_Force_Field>
OPLS_2005

> <r_lp_Energy>
39.1744

> <b_lp_Chiralities_Consistent>
1

> <s_lp_Variant>
AV-unprocessed.smi:35-26

> <Gold.Version>
5.8.1

> <Gold.Id.Protein>
6NUR|6NUR_protein|mol2

> <Gold.PLP.Fitness>
40.8407

> <Gold.PLP.PLP>
-26.1943

> <Gold.PLP.part.hbond>
-5.9838

> <Gold.PLP.part.metal>
0.0000

> <Gold.PLP.part.buried>
3.2150

> <Gold.PLP.part.nonpolar>
-24.0172

> <Gold.PLP.part.repulsive>
1.9901

> <Gold.PLP.ligand.clash>
0.0000

> <Gold.PLP.ligand.torsion>
0.5944

> <Gold.PLP.Chemscore.Hbond>
4.4184

> <Gold.PLP.Chemscore.CHOScore>
0.8395

> <Gold.PLP.Chemscore.Metal>
0.0000

> <Gold.Chemscore.Hbonds>
donor molecule, donor type, donor heavy atom, donor atom, acceptor molecule, acceptor atom, score
      L1  H    11    23       P1  7948  1.00
      L1  H    13    25       P1 10175  1.00
      L1  H    15    27       P1  8028  0.39
      P1  H  7997  8010       L1     1  1.00
      P1  H  8011  8017       L1     8  0.74
      L1  C    16    28       P1  7957  0.91

> <Gold.PLP.Chemscore.Internal.Correction>
0.0615

> <Gold.Rescore>
     Score         DG    S(hbond)    S(metal)    S(lipo)     H(rot)  DE(clash)    DE(int)     intcor
      9.74     -12.92       3.35        0.00      47.22       3.63       2.42       0.76       ----

> <Gold.Chemscore.Fitness>
9.7447

> <Gold.Chemscore.DG>
-12.9224

> <Gold.Chemscore.ZeroCoef>
-5.4800

> <Gold.Chemscore.Hbond>
3.3533

> <Gold.Chemscore.Metal>
0.0000

> <Gold.Chemscore.Lipo>
47.2244

> <Gold.Chemscore.Internal_Hbond>
0.0000

> <Gold.Chemscore.DEClash>
2.4208

> <Gold.Chemscore.DEInternal>
0.7569

> <Gold.Chemscore.Rot>
3.6261

> <Gold.Chemscore.Internal.Correction>
   9.000000E+99

> <Gold.Chemscore.Hbonds>
donor molecule, donor type, donor heavy atom, donor atom, acceptor molecule, acceptor atom, score
      L1  H    11    23       P1  7948  0.98
      L1  H    13    25       P1 10175  1.00
      L1  H    15    27       P1  8028  0.03
      P1  H  7997  8010       L1     1  0.39
      P1  H  8011  8017       L1     8  0.61

> <Gold.Chemscore.Hbond.Weighted>
-11.1999

> <Gold.Chemscore.Metal.Weighted>
-0.0000

> <Gold.Chemscore.Lipo.Weighted>
-5.5253

> <Gold.Chemscore.Internal_Hbond.Weighted>
0.0000

> <Gold.Chemscore.DEClash.Weighted>
2.4208

> <Gold.Chemscore.DEInternal.Weighted>
0.7569

> <Gold.Chemscore.Rot.Weighted>
9.2828

> <Gold.Chemscore.Internal.Correction.Weighted>
   9.000000E+99

> <Gold.Protein.RotatedTorsions>
[ 6907 6896 6895 6894 ] final -131.04 input  -60.11 | X-H torsion
[ 7974 7965 7964 7962 ] final  -45.61 input  175.53 | X-H torsion
[ 8008 7997 7996 7995 ] final   47.50 input   59.86 | X-H torsion
[ 10167 10162 10161 10158 ] final  -47.06 input  -65.29 | X-H torsion
[ 10718 10713 10712 10709 ] final  116.69 input   66.30 | X-H torsion
[ 10763 10752 10751 10750 ] final -128.10 input  -60.55 | X-H torsion
[ 11005 11000 10999 10996 ] final -174.30 input  -57.11 | X-H torsion

> <Gold.Protein.ActiveResidues>
 VAL166  LYS551  ARG553  GLY616  TRP617  ASP618  TYR619  PRO620  LYS621  CYS622 
 ASP623  PHE694  ASN695  SER759  ASP760  ASP761  ALA762  ILE779  LEU786  VAL792 
 PHE793  MET794  SER795  GLU796  ALA797  LYS798  CYS799  TRP800  GLU811  SER814 

> <Gold.Protein.RotatedAtoms>
  150.9464  133.6598  159.2780 H   0  0  0  0  0  0  0  0  0  0  0  0  # atno 6907 bound_to 6896
  151.3969  135.0964  159.9553 H   0  0  0  0  0  0  0  0  0  0  0  0  # atno 6908 bound_to 6896
  152.5091  133.8967  159.7475 H   0  0  0  0  0  0  0  0  0  0  0  0  # atno 6909 bound_to 6896
  145.9803  140.7290  142.9367 H   0  0  0  0  0  0  0  0  0  0  0  0  # atno 7974 bound_to 7965
  155.3700  140.3423  155.4243 H   0  0  0  0  0  0  0  0  0  0  0  0  # atno 8008 bound_to 7997
  156.1667  140.1618  156.8552 H   0  0  0  0  0  0  0  0  0  0  0  0  # atno 8009 bound_to 7997
  154.5192  140.0771  156.8122 H   0  0  0  0  0  0  0  0  0  0  0  0  # atno 8010 bound_to 7997
  140.6791  143.2802  151.3872 H   0  0  0  0  0  0  0  0  0  0  0  0  # atno 10167 bound_to 10162
  157.6144  131.1028  150.7509 H   0  0  0  0  0  0  0  0  0  0  0  0  # atno 10718 bound_to 10713
  154.8755  135.3940  154.3701 H   0  0  0  0  0  0  0  0  0  0  0  0  # atno 10763 bound_to 10752
  153.4462  135.7027  153.6143 H   0  0  0  0  0  0  0  0  0  0  0  0  # atno 10764 bound_to 10752
  153.4702  135.3792  155.2356 H   0  0  0  0  0  0  0  0  0  0  0  0  # atno 10765 bound_to 10752
  140.4760  134.6120  157.4901 H   0  0  0  0  0  0  0  0  0  0  0  0  # atno 11005 bound_to 11000
  144.6860  140.2898  143.7280 LP  0  0  0  0  0  0  0  0  0  0  0  0  # atno 17320 bound_to 7965
  145.7779  139.1880  143.2175 LP  0  0  0  0  0  0  0  0  0  0  0  0  # atno 17321 bound_to 7965
  139.6102  144.1114  152.2291 LP  0  0  0  0  0  0  0  0  0  0  0  0  # atno 17342 bound_to 10162
  140.0526  144.5920  150.7324 LP  0  0  0  0  0  0  0  0  0  0  0  0  # atno 17343 bound_to 10162
  156.7879  130.4880  149.5390 LP  0  0  0  0  0  0  0  0  0  0  0  0  # atno 17370 bound_to 10713
  156.1260  130.6144  151.0264 LP  0  0  0  0  0  0  0  0  0  0  0  0  # atno 17371 bound_to 10713
  139.9856  134.7068  155.9781 LP  0  0  0  0  0  0  0  0  0  0  0  0  # atno 17394 bound_to 11000
  141.1554  133.6543  156.4145 LP  0  0  0  0  0  0  0  0  0  0  0  0  # atno 17395 bound_to 11000

$$$$
