#       Name:                AV-unprocessed.smi:2693
#       Creating user name   scv26
#       Creation time:       Fri Mar 27 14:43:45 2020


#       File generated by GOLD software.
#

@<TRIPOS>MOLECULE
AV-unprocessed.smi:2693
    51    53     1
SMALL
NO_CHARGES


@<TRIPOS>ATOM
      1 ****        -6.9092  -0.0645   0.7728 C.3            1 S1                 0.0000
      2 ****        -6.1368  -1.1570   0.1879 N.pl3          1 S1                 0.0000
      3 ****        -6.8586  -2.3679  -0.1925 C.3            1 S1                 0.0000
      4 ****        -4.7557  -1.0477   0.0004 C.ar           1 S1                 0.0000
      5 ****        -4.1159  -2.1072  -0.5124 N.ar           1 S1                 0.0000
      6 ****        -2.7817  -2.0066  -0.6904 C.ar           1 S1                 0.0000
      7 ****        -2.0704  -0.8351  -0.3625 C.ar           1 S1                 0.0000
      8 ****        -0.6629  -0.8053  -0.5518 N.am           1 S1                 0.0000
      9 ****         0.1510   0.2635  -0.5731 C.2            1 S1                 0.0000
     10 ****        -0.2151   1.4376  -0.5293 O.2            1 S1                 0.0000
     11 ****         1.4350  -0.1052  -0.6647 N.am           1 S1                 0.0000
     12 ****         2.5575   0.8255  -0.6758 C.3            1 S1                 0.0000
     13 ****         3.9088   0.1128  -0.7386 C.3            1 S1                 0.0000
     14 ****         4.9996   0.0269  -1.7457 C.3            1 S1                 0.0000
     15 ****         6.1944   0.2748  -0.7861 C.3            1 S1                 0.0000
     16 ****         5.6136   0.7062   0.4692 O.3            1 S1                 0.0000
     17 ****         4.3862   1.2920   0.0869 C.3            1 S1                 0.0000
     18 ****         2.9998   1.2982   0.7611 C.3            1 S1                 0.0000
     19 ****         2.4873   2.6753   1.1840 C.3            1 S1                 0.0000
     20 ****         2.7863   0.3674   1.9724 C.3            1 S1                 0.0000
     21 ****        -2.8418   0.2208   0.1790 C.ar           1 S1                 0.0000
     22 ****        -4.1755   0.1067   0.3538 N.ar           1 S1                 0.0000
     23 ****        -6.5089   0.2059   1.7504 H              1 S1                 0.0000
     24 ****        -7.9572  -0.3320   0.9076 H              1 S1                 0.0000
     25 ****        -6.8682   0.8147   0.1292 H              1 S1                 0.0000
     26 ****        -6.5066  -3.2181   0.3923 H              1 S1                 0.0000
     27 ****        -6.7035  -2.5884  -1.2491 H              1 S1                 0.0000
     28 ****        -7.9320  -2.2711  -0.0288 H              1 S1                 0.0000
     29 ****        -2.2795  -2.8714  -1.0991 H              1 S1                 0.0000
     30 ****        -0.2246  -1.7038  -0.6928 H              1 S1                 0.0000
     31 ****         1.6529  -1.0900  -0.7056 H              1 S1                 0.0000
     32 ****         2.4638   1.6336  -1.4072 H              1 S1                 0.0000
     33 ****         3.8723  -0.8204  -0.1714 H              1 S1                 0.0000
     34 ****         5.0502  -0.9457  -2.2354 H              1 S1                 0.0000
     35 ****         4.9165   0.8055  -2.5053 H              1 S1                 0.0000
     36 ****         6.7818  -0.6293  -0.6239 H              1 S1                 0.0000
     37 ****         6.8582   1.0437  -1.1834 H              1 S1                 0.0000
     38 ****         4.5594   2.2019  -0.4992 H              1 S1                 0.0000
     39 ****         3.0488   3.0678   2.0325 H              1 S1                 0.0000
     40 ****         1.4358   2.6416   1.4708 H              1 S1                 0.0000
     41 ****         2.5749   3.4010   0.3751 H              1 S1                 0.0000
     42 ****         3.3572   0.7113   2.8354 H              1 S1                 0.0000
     43 ****         3.0856  -0.6634   1.7930 H              1 S1                 0.0000
     44 ****         1.7377   0.3395   2.2703 H              1 S1                 0.0000
     45 ****        -2.4113   1.1562   0.4998 H              1 S1                 0.0000
     46 ****        -4.6091  -2.9427  -0.7546 LP             1 S1                 0.0000
     47 ****        -1.1894   1.6558  -0.4728 LP             1 S1                 0.0000
     48 ****         0.4617   2.1735  -0.5502 LP             1 S1                 0.0000
     49 ****         6.2020   1.3754   0.9230 LP             1 S1                 0.0000
     50 ****         5.4627  -0.0723   1.0784 LP             1 S1                 0.0000
     51 ****        -4.7127   0.8593   0.7346 LP             1 S1                 0.0000
@<TRIPOS>BOND
    1    1    2 1     
    2    1   23 1     
    3    1   24 1     
    4    1   25 1     
    5    2    3 1     
    6    2    4 1     
    7    3   26 1     
    8    3   27 1     
    9    3   28 1     
   10    4   22 ar    
   11    4    5 ar    
   12    5    6 ar    
   13    6    7 ar    
   14    6   29 1     
   15    7    8 1     
   16    7   21 ar    
   17    8    9 am    
   18    8   30 1     
   19    9   10 2     
   20    9   11 am    
   21   11   12 1     
   22   11   31 1     
   23   12   18 1     
   24   12   13 1     
   25   12   32 1     
   26   13   17 1     
   27   13   14 1     
   28   13   33 1     
   29   14   15 1     
   30   14   34 1     
   31   14   35 1     
   32   15   16 1     
   33   15   36 1     
   34   15   37 1     
   35   16   17 1     
   36   17   18 1     
   37   17   38 1     
   38   18   19 1     
   39   18   20 1     
   40   19   39 1     
   41   19   40 1     
   42   19   41 1     
   43   20   42 1     
   44   20   43 1     
   45   20   44 1     
   46   21   22 ar    
   47   21   45 1     
   48    5   46 1     
   49   10   47 1     
   50   10   48 1     
   51   16   49 1     
   52   16   50 1     
   53   22   51 1     
@<TRIPOS>SUBSTRUCTURE
      1 S1             1
@<TRIPOS>SET
LONE_PAIRS      STATIC     ATOMS    <user>   **** ""
6 46 47 48 49 50 51
DONOR_HYDROGENS      STATIC     ATOMS    <user>   **** ""
2 30 31
ATOM$BLUE        STATIC     ATOMS    COLORGROUP SYSTEM
6 46 47 48 49 50 51
ATOM$RED        STATIC     ATOMS    COLORGROUP SYSTEM
2 30 31
