AV-unprocessed.smi:3119|AV-procd|sdf|11890|dock10
  -GOLD-   2272017283D 1   1.00000     0.00000
 Structure written by MMmdl.
 31 32  0  0  0  0  0  0  0  0  1 V2000
  151.1268  142.2310  158.9483 O   0  0  0  0  0  0  0  0  0  0  0  0
  150.5337  143.1292  158.3495 C   0  0  0  0  0  0  0  0  0  0  0  0
  149.6301  142.8964  157.3857 N   0  0  0  0  0  0  0  0  0  0  0  0
  149.2269  141.5744  156.9194 C   0  0  0  0  0  0  0  0  0  0  0  0
  149.5104  141.3900  155.4192 C   0  0  0  0  0  0  0  0  0  0  0  0
  150.4238  140.2094  155.1483 C   0  0  0  0  0  0  0  0  0  0  0  0
  151.7346  140.1759  155.6707 C   0  0  0  0  0  0  0  0  0  0  0  0
  152.5425  139.0585  155.3835 C   0  0  0  0  0  0  0  0  0  0  0  0
  152.0122  138.0239  154.5890 C   0  0  0  0  0  0  0  0  0  0  0  0
  150.6919  138.1533  154.1140 C   0  0  0  0  0  0  0  0  0  0  0  0
  149.9094  139.2207  154.3825 N   0  0  0  0  0  0  0  0  0  0  0  0
  150.8010  144.6034  158.6810 C   0  0  0  0  0  0  0  0  0  0  0  0
  152.2885  144.9578  158.8518 C   0  0  0  0  0  0  0  0  0  0  0  0
  151.9104  145.7739  160.0916 C   0  0  0  0  0  0  0  0  0  0  0  0
  150.6054  144.9755  160.1618 C   0  0  0  0  0  0  0  0  0  0  0  0
  149.1894  143.6914  156.9456 H   0  0  0  0  0  0  0  0  0  0  0  0
  149.7323  140.8034  157.5036 H   0  0  0  0  0  0  0  0  0  0  0  0
  148.1600  141.4582  157.1113 H   0  0  0  0  0  0  0  0  0  0  0  0
  148.5738  141.2517  154.8775 H   0  0  0  0  0  0  0  0  0  0  0  0
  149.9715  142.2890  155.0074 H   0  0  0  0  0  0  0  0  0  0  0  0
  152.1144  140.9861  156.2758 H   0  0  0  0  0  0  0  0  0  0  0  0
  153.5510  138.9967  155.7653 H   0  0  0  0  0  0  0  0  0  0  0  0
  152.6025  137.1518  154.3490 H   0  0  0  0  0  0  0  0  0  0  0  0
  150.2527  137.3794  153.5018 H   0  0  0  0  0  0  0  0  0  0  0  0
  150.2886  145.3004  158.0151 H   0  0  0  0  0  0  0  0  0  0  0  0
  152.9296  144.1064  159.0876 H   0  0  0  0  0  0  0  0  0  0  0  0
  152.7047  145.5540  158.0392 H   0  0  0  0  0  0  0  0  0  0  0  0
  152.5735  145.6369  160.9461 H   0  0  0  0  0  0  0  0  0  0  0  0
  151.7476  146.8294  159.8689 H   0  0  0  0  0  0  0  0  0  0  0  0
  149.7239  145.5858  160.3591 H   0  0  0  0  0  0  0  0  0  0  0  0
  150.6661  144.1317  160.8513 H   0  0  0  0  0  0  0  0  0  0  0  0
  1  2  2  0  0  0  0
  2  3  1  0  0  0  0
  2 12  1  0  0  0  0
  3  4  1  0  0  0  0
  3 16  1  0  0  0  0
  4  5  1  0  0  0  0
  4 17  1  0  0  0  0
  4 18  1  0  0  0  0
  5  6  1  0  0  0  0
  5 19  1  0  0  0  0
  5 20  1  0  0  0  0
  6 11  1  0  0  0  0
  6  7  2  0  0  0  0
  7  8  1  0  0  0  0
  7 21  1  0  0  0  0
  8  9  2  0  0  0  0
  8 22  1  0  0  0  0
  9 10  1  0  0  0  0
  9 23  1  0  0  0  0
 10 11  2  0  0  0  0
 10 24  1  0  0  0  0
 12 15  1  0  0  0  0
 12 13  1  0  0  0  0
 12 25  1  0  0  0  0
 13 14  1  0  0  0  0
 13 26  1  0  0  0  0
 13 27  1  0  0  0  0
 14 15  1  0  0  0  0
 14 28  1  0  0  0  0
 14 29  1  0  0  0  0
 15 30  1  0  0  0  0
 15 31  1  0  0  0  0
M  END
> <s_m_source_file>
AV-unprocessed.smi

> <i_m_source_file_index>
3119

> <i_lp_mmshare_version>
43012

> <i_f3d_flags>
0

> <s_epik_input>
W0NIMl0xW0NIMl1bQ0gyXVtDSF0xQyg9TylbTkhdW0NIMl1bQ0gyXWMyW2NIXVtjSF1bY0hdW2NIXW4y

> <s_epik_cmdline>
J2VwaWtfcHl0aG9uJywgJy1waCcsICc3LjAnLCAnLXRuJywgJzgnLCAnLW1hJywgJzIwMCcsICctbWV0YWxfYmluZGluZycsICctaW1hZScsICc8aW5maWxlLm1hZT4nLCAnLW9tYWUnLCAnPG91dGZpbGUubWFlPic=

> <r_epik_Ionization_Penalty>
0.0277532

> <r_epik_Ionization_Penalty_Charging>
0

> <r_epik_Ionization_Penalty_Neutral>
0.0277532

> <r_epik_State_Penalty>
0.022734

> <r_epik_Charging_Adjusted_Penalty>
0.022734

> <i_epik_Tot_Q>
0

> <i_epik_Tot_abs_Q>
0

> <r_epik_Metal_State_Penalty>
0.0217133

> <b_epik_Metal_Only>
0

> <s_lp_Force_Field>
OPLS_2005

> <r_lp_Energy>
9.15138

> <b_lp_Chiralities_Consistent>
1

> <s_lp_Variant>
AV-unprocessed.smi:3119-1

> <Gold.Version>
5.8.1

> <Gold.Id.Protein>
6NUR|6NUR_protein|mol2

> <Gold.PLP.Fitness>
42.7901

> <Gold.PLP.PLP>
-37.2766

> <Gold.PLP.part.hbond>
-1.0000

> <Gold.PLP.part.metal>
0.0000

> <Gold.PLP.part.buried>
-3.5184

> <Gold.PLP.part.nonpolar>
-33.2792

> <Gold.PLP.part.repulsive>
0.1995

> <Gold.PLP.ligand.clash>
0.0000

> <Gold.PLP.ligand.torsion>
0.6065

> <Gold.PLP.Chemscore.Hbond>
1.0000

> <Gold.PLP.Chemscore.CHOScore>
1.1064

> <Gold.PLP.Chemscore.Metal>
0.0000

> <Gold.Chemscore.Hbonds>
donor molecule, donor type, donor heavy atom, donor atom, acceptor molecule, acceptor atom, score
      L1  H     3    16       P1  8028  1.00
      L1  C    10    24       P1  7948  0.89
      L1  C    10    24       P1  7949  0.22

> <Gold.PLP.Chemscore.Internal.Correction>
0.4075

> <Gold.Rescore>
     Score         DG    S(hbond)    S(metal)    S(lipo)     H(rot)  DE(clash)    DE(int)     intcor
     15.69     -16.35       0.94        0.00      97.54       1.44       0.09       0.57       ----

> <Gold.Chemscore.Fitness>
15.6869

> <Gold.Chemscore.DG>
-16.3492

> <Gold.Chemscore.ZeroCoef>
-5.4800

> <Gold.Chemscore.Hbond>
0.9400

> <Gold.Chemscore.Metal>
0.0000

> <Gold.Chemscore.Lipo>
97.5365

> <Gold.Chemscore.Internal_Hbond>
0.0000

> <Gold.Chemscore.DEClash>
0.0896

> <Gold.Chemscore.DEInternal>
0.5727

> <Gold.Chemscore.Rot>
1.4383

> <Gold.Chemscore.Internal.Correction>
   9.000000E+99

> <Gold.Chemscore.Hbonds>
donor molecule, donor type, donor heavy atom, donor atom, acceptor molecule, acceptor atom, score
      L1  H     3    16       P1  8028  0.69

> <Gold.Chemscore.Hbond.Weighted>
-3.1395

> <Gold.Chemscore.Metal.Weighted>
-0.0000

> <Gold.Chemscore.Lipo.Weighted>
-11.4118

> <Gold.Chemscore.Internal_Hbond.Weighted>
0.0000

> <Gold.Chemscore.DEClash.Weighted>
0.0896

> <Gold.Chemscore.DEInternal.Weighted>
0.5727

> <Gold.Chemscore.Rot.Weighted>
3.6820

> <Gold.Chemscore.Internal.Correction.Weighted>
   9.000000E+99

> <Gold.Protein.RotatedTorsions>
[ 6907 6896 6895 6894 ] final   69.23 input  -60.11 | X-H torsion
[ 7974 7965 7964 7962 ] final   79.15 input  175.53 | X-H torsion
[ 8008 7997 7996 7995 ] final  141.99 input   59.86 | X-H torsion
[ 10167 10162 10161 10158 ] final  149.89 input  -65.29 | X-H torsion
[ 10718 10713 10712 10709 ] final  179.19 input   66.30 | X-H torsion
[ 10763 10752 10751 10750 ] final   66.29 input  -60.55 | X-H torsion
[ 11005 11000 10999 10996 ] final   40.12 input  -57.11 | X-H torsion

> <Gold.Protein.ActiveResidues>
 VAL166  LYS551  ARG553  GLY616  TRP617  ASP618  TYR619  PRO620  LYS621  CYS622 
 ASP623  PHE694  ASN695  SER759  ASP760  ASP761  ALA762  ILE779  LEU786  VAL792 
 PHE793  MET794  SER795  GLU796  ALA797  LYS798  CYS799  TRP800  GLU811  SER814 

> <Gold.Protein.RotatedAtoms>
  152.4672  134.5047  159.9735 H   0  0  0  0  0  0  0  0  0  0  0  0  # atno 6907 bound_to 6896
  151.5081  133.3484  159.2888 H   0  0  0  0  0  0  0  0  0  0  0  0  # atno 6908 bound_to 6896
  150.8663  134.8055  159.7183 H   0  0  0  0  0  0  0  0  0  0  0  0  # atno 6909 bound_to 6896
  145.6680  139.2489  143.1885 H   0  0  0  0  0  0  0  0  0  0  0  0  # atno 7974 bound_to 7965
  156.2957  140.2300  156.4654 H   0  0  0  0  0  0  0  0  0  0  0  0  # atno 8008 bound_to 7997
  154.7981  140.0450  157.1273 H   0  0  0  0  0  0  0  0  0  0  0  0  # atno 8009 bound_to 7997
  154.9565  140.3049  155.5054 H   0  0  0  0  0  0  0  0  0  0  0  0  # atno 8010 bound_to 7997
  139.4856  144.5566  151.7307 H   0  0  0  0  0  0  0  0  0  0  0  0  # atno 10167 bound_to 10162
  156.8795  130.9811  151.3063 H   0  0  0  0  0  0  0  0  0  0  0  0  # atno 10718 bound_to 10713
  153.0133  135.5326  154.6801 H   0  0  0  0  0  0  0  0  0  0  0  0  # atno 10763 bound_to 10752
  154.5963  135.2864  155.0585 H   0  0  0  0  0  0  0  0  0  0  0  0  # atno 10764 bound_to 10752
  154.1659  135.6540  153.5049 H   0  0  0  0  0  0  0  0  0  0  0  0  # atno 10765 bound_to 10752
  140.1962  134.3927  155.8120 H   0  0  0  0  0  0  0  0  0  0  0  0  # atno 11005 bound_to 11000
  146.1070  140.7475  142.9522 LP  0  0  0  0  0  0  0  0  0  0  0  0  # atno 17320 bound_to 7965
  144.7066  140.3877  143.7113 LP  0  0  0  0  0  0  0  0  0  0  0  0  # atno 17321 bound_to 7965
  140.5128  144.0998  150.6000 LP  0  0  0  0  0  0  0  0  0  0  0  0  # atno 17342 bound_to 10162
  140.3930  143.2743  152.0038 LP  0  0  0  0  0  0  0  0  0  0  0  0  # atno 17343 bound_to 10162
  157.6149  130.8610  149.9011 LP  0  0  0  0  0  0  0  0  0  0  0  0  # atno 17370 bound_to 10713
  156.0684  130.3688  150.0827 LP  0  0  0  0  0  0  0  0  0  0  0  0  # atno 17371 bound_to 10713
  141.2227  133.7071  156.8179 LP  0  0  0  0  0  0  0  0  0  0  0  0  # atno 17394 bound_to 11000
  140.2105  134.8831  157.3269 LP  0  0  0  0  0  0  0  0  0  0  0  0  # atno 17395 bound_to 11000

$$$$
