AV-unprocessed.smi:220|AV-procd|sdf|1682|dock3
  -GOLD-   2262020113D 1   1.00000     0.00000
 Structure written by MMmdl.
 51 55  0  0  0  0  0  0  0  0  1 V2000
  149.5045  140.0620  156.9261 N   0  0  0  0  0  0  0  0  0  0  0  0
  150.6900  140.6645  156.8077 C   0  0  0  0  0  0  0  0  0  0  0  0
  151.2622  140.7740  155.7246 O   0  0  0  0  0  0  0  0  0  0  0  0
  151.3057  141.2357  158.0950 C   0  0  2  0  0  0  0  0  0  0  0  0
  151.5488  142.7564  157.9976 C   0  0  1  0  0  0  0  0  0  0  0  0
  150.4533  143.6536  158.5976 C   0  0  0  0  0  0  0  0  0  0  0  0
  151.2166  144.7504  159.3421 C   0  0  0  0  0  0  0  0  0  0  0  0
  152.4468  144.0342  159.9006 C   0  0  0  0  0  0  0  0  0  0  0  0
  152.8232  143.0234  158.8083 C   0  0  1  0  0  0  0  0  0  0  0  0
  153.2850  141.6445  159.2893 C   0  0  0  0  0  0  0  0  0  0  0  0
  152.6351  140.7026  158.3925 N   0  0  0  0  0  0  0  0  0  0  0  0
  152.7338  139.4086  158.7732 C   0  0  0  0  0  0  0  0  0  0  0  0
  152.1589  138.4916  157.9577 N   0  0  0  0  0  0  0  0  0  0  0  0
  152.2130  137.1932  158.2676 C   0  0  0  0  0  0  0  0  0  0  0  0
  152.7871  136.6100  159.3217 N   0  0  0  0  0  0  0  0  0  0  0  0
  153.3784  137.5294  160.1379 C   0  0  0  0  0  0  0  0  0  0  0  0
  153.4013  138.9390  159.9407 C   0  0  0  0  0  0  0  0  0  0  0  0
  154.1032  139.5478  160.9745 N   0  0  0  0  0  0  0  0  0  0  0  0
  154.4630  138.5572  161.7438 C   0  0  0  0  0  0  0  0  0  0  0  0
  154.0781  137.3082  161.3118 N   0  0  0  0  0  0  0  0  0  0  0  0
  154.3424  136.0372  161.9689 C   0  0  0  0  0  0  0  0  0  0  0  0
  154.7034  136.1709  163.4621 C   0  0  0  0  0  0  0  0  0  0  0  0
  153.6535  137.0233  164.1963 C   0  0  0  0  0  0  0  0  0  0  0  0
  153.8274  136.9608  165.5971 O   0  0  0  0  0  0  0  0  0  0  0  0
  155.0765  134.8674  164.1829 C   0  0  0  0  0  0  0  0  0  0  0  0
  156.3054  135.4304  164.6877 O   0  0  0  0  0  0  0  0  0  0  0  0
  156.1627  136.5341  163.7687 C   0  0  0  0  0  0  0  0  0  0  0  0
  149.0571  139.6730  156.1087 H   0  0  0  0  0  0  0  0  0  0  0  0
  149.0580  139.9996  157.8293 H   0  0  0  0  0  0  0  0  0  0  0  0
  150.6390  141.0247  158.9306 H   0  0  0  0  0  0  0  0  0  0  0  0
  151.7388  143.0563  156.9647 H   0  0  0  0  0  0  0  0  0  0  0  0
  149.7823  144.0553  157.8377 H   0  0  0  0  0  0  0  0  0  0  0  0
  149.8443  143.0982  159.3117 H   0  0  0  0  0  0  0  0  0  0  0  0
  151.5283  145.5251  158.6402 H   0  0  0  0  0  0  0  0  0  0  0  0
  150.6177  145.2251  160.1198 H   0  0  0  0  0  0  0  0  0  0  0  0
  153.2616  144.7201  160.1330 H   0  0  0  0  0  0  0  0  0  0  0  0
  152.1719  143.5227  160.8237 H   0  0  0  0  0  0  0  0  0  0  0  0
  153.5719  143.4564  158.1430 H   0  0  0  0  0  0  0  0  0  0  0  0
  154.3704  141.5492  159.2394 H   0  0  0  0  0  0  0  0  0  0  0  0
  152.9795  141.4577  160.3201 H   0  0  0  0  0  0  0  0  0  0  0  0
  151.7265  136.5263  157.5712 H   0  0  0  0  0  0  0  0  0  0  0  0
  155.0247  138.7144  162.6525 H   0  0  0  0  0  0  0  0  0  0  0  0
  153.4557  135.4141  161.8459 H   0  0  0  0  0  0  0  0  0  0  0  0
  155.1350  135.5221  161.4251 H   0  0  0  0  0  0  0  0  0  0  0  0
  153.6855  138.0657  163.8789 H   0  0  0  0  0  0  0  0  0  0  0  0
  152.6467  136.6702  163.9704 H   0  0  0  0  0  0  0  0  0  0  0  0
  154.5541  136.3866  165.7845 H   0  0  0  0  0  0  0  0  0  0  0  0
  154.3855  134.5837  164.9777 H   0  0  0  0  0  0  0  0  0  0  0  0
  155.2690  134.0262  163.5156 H   0  0  0  0  0  0  0  0  0  0  0  0
  156.8324  136.4374  162.9128 H   0  0  0  0  0  0  0  0  0  0  0  0
  156.2900  137.5028  164.2534 H   0  0  0  0  0  0  0  0  0  0  0  0
  1  2  1  0  0  0  0
  1 28  1  0  0  0  0
  1 29  1  0  0  0  0
  2  3  2  0  0  0  0
  2  4  1  0  0  0  0
  4 11  1  0  0  0  0
  4  5  1  0  0  0  0
  4 30  1  0  0  0  0
  5  9  1  0  0  0  0
  5  6  1  0  0  0  0
  5 31  1  0  0  0  0
  6  7  1  0  0  0  0
  6 32  1  0  0  0  0
  6 33  1  0  0  0  0
  7  8  1  0  0  0  0
  7 34  1  0  0  0  0
  7 35  1  0  0  0  0
  8  9  1  0  0  0  0
  8 36  1  0  0  0  0
  8 37  1  0  0  0  0
  9 10  1  0  0  0  0
  9 38  1  0  0  0  0
 10 11  1  0  0  0  0
 10 39  1  0  0  0  0
 10 40  1  0  0  0  0
 11 12  1  0  0  0  0
 12 17  1  0  0  0  0
 12 13  2  0  0  0  0
 13 14  1  0  0  0  0
 14 15  2  0  0  0  0
 14 41  1  0  0  0  0
 15 16  1  0  0  0  0
 16 20  1  0  0  0  0
 16 17  2  0  0  0  0
 17 18  1  0  0  0  0
 18 19  2  0  0  0  0
 19 20  1  0  0  0  0
 19 42  1  0  0  0  0
 20 21  1  0  0  0  0
 21 22  1  0  0  0  0
 21 43  1  0  0  0  0
 21 44  1  0  0  0  0
 22 27  1  0  0  0  0
 22 23  1  0  0  0  0
 22 25  1  0  0  0  0
 23 24  1  0  0  0  0
 23 45  1  0  0  0  0
 23 46  1  0  0  0  0
 24 47  1  0  0  0  0
 25 26  1  0  0  0  0
 25 48  1  0  0  0  0
 25 49  1  0  0  0  0
 26 27  1  0  0  0  0
 27 50  1  0  0  0  0
 27 51  1  0  0  0  0
M  END
> <s_m_source_file>
AV-unprocessed.smi

> <i_m_source_file_index>
220

> <i_lp_mmshare_version>
43012

> <i_f3d_flags>
0

> <s_epik_input>
W0NIMl0xW0NIMl1bQ0gyXVtDQEhdKFtDQEhdMTIpW0NIMl1OKFtDQEBIXTJDKD1PKVtOSDJdKWMobltjSF1uMyljKGMzNCluW2NIXW40W0NIMl1DNShbQ0gyXVtPSF0pW0NIMl1PW0NIMl01

> <s_epik_cmdline>
J2VwaWtfcHl0aG9uJywgJy1waCcsICc3LjAnLCAnLXRuJywgJzgnLCAnLW1hJywgJzIwMCcsICctbWV0YWxfYmluZGluZycsICctaW1hZScsICc8aW5maWxlLm1hZT4nLCAnLW9tYWUnLCAnPG91dGZpbGUubWFlPic=

> <r_lp_tautomer_probability>
1

> <r_epik_Ionization_Penalty>
0.00118987

> <r_epik_Ionization_Penalty_Charging>
0

> <r_epik_Ionization_Penalty_Neutral>
0.00118987

> <r_epik_State_Penalty>
0.000654261

> <r_epik_Charging_Adjusted_Penalty>
0.000654261

> <i_epik_Tot_Q>
0

> <i_epik_Tot_abs_Q>
0

> <r_epik_Metal_State_Penalty>
-0

> <b_epik_Metal_Only>
0

> <s_lp_Force_Field>
OPLS_2005

> <r_lp_Energy>
61.293

> <b_lp_Chiralities_Consistent>
1

> <s_lp_Variant>
AV-unprocessed.smi:220-1

> <Gold.Version>
5.8.1

> <Gold.Id.Protein>
6NUR|6NUR_protein|mol2

> <Gold.PLP.Fitness>
50.2400

> <Gold.PLP.PLP>
-47.0037

> <Gold.PLP.part.hbond>
-4.8007

> <Gold.PLP.part.metal>
0.0000

> <Gold.PLP.part.buried>
-6.4138

> <Gold.PLP.part.nonpolar>
-35.3496

> <Gold.PLP.part.repulsive>
0.1139

> <Gold.PLP.ligand.clash>
0.0000

> <Gold.PLP.ligand.torsion>
0.6229

> <Gold.PLP.Chemscore.Hbond>
1.3514

> <Gold.PLP.Chemscore.CHOScore>
0.0000

> <Gold.PLP.Chemscore.Metal>
0.0000

> <Gold.Chemscore.Hbonds>
donor molecule, donor type, donor heavy atom, donor atom, acceptor molecule, acceptor atom, score
      P1  H  6896  6909       L1    15  0.86
      P1  H  7989  7998       L1     3  0.33

> <Gold.PLP.Chemscore.Internal.Correction>
0.4280

> <Gold.Rescore>
     Score         DG    S(hbond)    S(metal)    S(lipo)     H(rot)  DE(clash)    DE(int)     intcor
      9.68     -15.82       1.70        0.00     111.45       3.27       1.96       4.19       ----

> <Gold.Chemscore.Fitness>
9.6755

> <Gold.Chemscore.DG>
-15.8233

> <Gold.Chemscore.ZeroCoef>
-5.4800

> <Gold.Chemscore.Hbond>
1.6994

> <Gold.Chemscore.Metal>
0.0000

> <Gold.Chemscore.Lipo>
111.4485

> <Gold.Chemscore.Internal_Hbond>
0.0000

> <Gold.Chemscore.DEClash>
1.9617

> <Gold.Chemscore.DEInternal>
4.1861

> <Gold.Chemscore.Rot>
3.2703

> <Gold.Chemscore.Internal.Correction>
   9.000000E+99

> <Gold.Chemscore.Hbonds>
donor molecule, donor type, donor heavy atom, donor atom, acceptor molecule, acceptor atom, score
      P1  H  6896  6909       L1    15  0.82
      P1  H  7989  7998       L1     3  0.34

> <Gold.Chemscore.Hbond.Weighted>
-5.6759

> <Gold.Chemscore.Metal.Weighted>
-0.0000

> <Gold.Chemscore.Lipo.Weighted>
-13.0395

> <Gold.Chemscore.Internal_Hbond.Weighted>
0.0000

> <Gold.Chemscore.DEClash.Weighted>
1.9617

> <Gold.Chemscore.DEInternal.Weighted>
4.1861

> <Gold.Chemscore.Rot.Weighted>
8.3721

> <Gold.Chemscore.Internal.Correction.Weighted>
   9.000000E+99

> <Gold.Protein.RotatedTorsions>
[ 6907 6896 6895 6894 ] final  164.31 input  -60.11 | X-H torsion
[ 7974 7965 7964 7962 ] final  -31.88 input  175.53 | X-H torsion
[ 8008 7997 7996 7995 ] final   83.93 input   59.86 | X-H torsion
[ 10167 10162 10161 10158 ] final  125.96 input  -65.29 | X-H torsion
[ 10718 10713 10712 10709 ] final   72.94 input   66.30 | X-H torsion
[ 10763 10752 10751 10750 ] final  -53.89 input  -60.55 | X-H torsion
[ 11005 11000 10999 10996 ] final -118.14 input  -57.11 | X-H torsion

> <Gold.Protein.ActiveResidues>
 VAL166  LYS551  ARG553  GLY616  TRP617  ASP618  TYR619  PRO620  LYS621  CYS622 
 ASP623  PHE694  ASN695  SER759  ASP760  ASP761  ALA762  ILE779  LEU786  VAL792 
 PHE793  MET794  SER795  GLU796  ALA797  LYS798  CYS799  TRP800  GLU811  SER814 

> <Gold.Protein.RotatedAtoms>
  151.9117  133.3563  159.3865 H   0  0  0  0  0  0  0  0  0  0  0  0  # atno 6907 bound_to 6896
  150.7056  134.4725  159.5441 H   0  0  0  0  0  0  0  0  0  0  0  0  # atno 6908 bound_to 6896
  152.2332  134.8301  160.0521 H   0  0  0  0  0  0  0  0  0  0  0  0  # atno 6909 bound_to 6896
  146.1033  140.5723  142.8811 H   0  0  0  0  0  0  0  0  0  0  0  0  # atno 7974 bound_to 7965
  155.9304  140.3415  155.6244 H   0  0  0  0  0  0  0  0  0  0  0  0  # atno 8008 bound_to 7997
  155.7164  140.0778  157.2368 H   0  0  0  0  0  0  0  0  0  0  0  0  # atno 8009 bound_to 7997
  154.4084  140.1613  156.2341 H   0  0  0  0  0  0  0  0  0  0  0  0  # atno 8010 bound_to 7997
  139.5657  144.6909  151.3918 H   0  0  0  0  0  0  0  0  0  0  0  0  # atno 10167 bound_to 10162
  157.6525  130.9604  150.0999 H   0  0  0  0  0  0  0  0  0  0  0  0  # atno 10718 bound_to 10713
  154.1661  135.6467  153.4997 H   0  0  0  0  0  0  0  0  0  0  0  0  # atno 10763 bound_to 10752
  153.0097  135.5372  154.6661 H   0  0  0  0  0  0  0  0  0  0  0  0  # atno 10764 bound_to 10752
  154.5988  135.2941  155.0530 H   0  0  0  0  0  0  0  0  0  0  0  0  # atno 10765 bound_to 10752
  141.0306  133.9987  157.3148 H   0  0  0  0  0  0  0  0  0  0  0  0  # atno 11005 bound_to 11000
  144.7450  140.5044  143.6842 LP  0  0  0  0  0  0  0  0  0  0  0  0  # atno 17320 bound_to 7965
  145.5811  139.1489  143.3235 LP  0  0  0  0  0  0  0  0  0  0  0  0  # atno 17321 bound_to 7965
  140.6940  143.7794  150.7298 LP  0  0  0  0  0  0  0  0  0  0  0  0  # atno 17342 bound_to 10162
  140.1285  143.4548  152.2269 LP  0  0  0  0  0  0  0  0  0  0  0  0  # atno 17343 bound_to 10162
  156.1925  130.3655  149.8892 LP  0  0  0  0  0  0  0  0  0  0  0  0  # atno 17370 bound_to 10713
  156.6817  130.8860  151.3576 LP  0  0  0  0  0  0  0  0  0  0  0  0  # atno 17371 bound_to 10713
  139.9205  135.0200  156.8047 LP  0  0  0  0  0  0  0  0  0  0  0  0  # atno 17394 bound_to 11000
  140.6413  133.9816  155.7709 LP  0  0  0  0  0  0  0  0  0  0  0  0  # atno 17395 bound_to 11000

$$$$
