AV-unprocessed.smi:2062|AV-procd|sdf|8396|dock1
  -GOLD-   2272011 83D 1   1.00000     0.00000
 Structure written by MMmdl.
 43 44  0  0  0  0  0  0  0  0  2 V2000
  151.6602  145.2348  160.1252 C   0  0  0  0  0  0  0  0  0  0  0  0
  152.3710  143.9518  159.6693 C   0  0  0  0  0  0  0  0  0  0  0  0
  153.4343  144.2769  158.6068 C   0  0  0  0  0  0  0  0  0  0  0  0
  151.3465  142.9168  159.1578 C   0  0  0  0  0  0  0  0  0  0  0  0
  151.8457  141.5198  159.2326 N   0  3  1  0  0  0  0  0  0  0  0  0
  152.0967  141.0510  160.6179 C   0  0  0  0  0  0  0  0  0  0  0  0
  152.6450  139.6152  160.6069 C   0  0  0  0  0  0  0  0  0  0  0  0
  151.7341  138.7637  159.9232 O   0  0  0  0  0  0  0  0  0  0  0  0
  151.5609  139.1410  158.5620 C   0  0  1  0  0  0  0  0  0  0  0  0
  150.6576  138.0860  157.8942 C   0  0  0  0  0  0  0  0  0  0  0  0
  149.3710  137.9367  158.5677 N   0  0  0  0  0  0  0  0  0  0  0  0
  148.6692  136.7963  158.6345 C   0  0  0  0  0  0  0  0  0  0  0  0
  149.0417  135.7428  158.1174 O   0  0  0  0  0  0  0  0  0  0  0  0
  147.5274  136.9637  159.3244 N   0  0  0  0  0  0  0  0  0  0  0  0
  146.5201  136.0013  159.5970 C   0  0  0  0  0  0  0  0  0  0  0  0
  146.4343  134.8082  158.9968 N   0  0  0  0  0  0  0  0  0  0  0  0
  145.3445  134.0659  159.4585 C   0  0  0  0  0  0  0  0  0  0  0  0
  144.6042  134.7150  160.4149 C   0  0  0  0  0  0  0  0  0  0  0  0
  145.2512  136.2927  160.7778 S   0  0  0  0  0  0  0  0  0  0  0  0
  150.9689  140.5654  158.5136 C   0  0  0  0  0  0  0  0  0  0  0  0
  151.1281  145.7090  159.2997 H   0  0  0  0  0  0  0  0  0  0  0  0
  152.3722  145.9595  160.5215 H   0  0  0  0  0  0  0  0  0  0  0  0
  150.9347  145.0256  160.9121 H   0  0  0  0  0  0  0  0  0  0  0  0
  152.8818  143.5485  160.5434 H   0  0  0  0  0  0  0  0  0  0  0  0
  152.9802  144.6886  157.7048 H   0  0  0  0  0  0  0  0  0  0  0  0
  153.9986  143.3893  158.3201 H   0  0  0  0  0  0  0  0  0  0  0  0
  154.1503  145.0090  158.9810 H   0  0  0  0  0  0  0  0  0  0  0  0
  150.4102  142.9932  159.7130 H   0  0  0  0  0  0  0  0  0  0  0  0
  151.1035  143.1617  158.1225 H   0  0  0  0  0  0  0  0  0  0  0  0
  152.8096  141.7038  161.1206 H   0  0  0  0  0  0  0  0  0  0  0  0
  151.1693  141.0883  161.1916 H   0  0  0  0  0  0  0  0  0  0  0  0
  153.6280  139.5750  160.1346 H   0  0  0  0  0  0  0  0  0  0  0  0
  152.7675  139.2527  161.6277 H   0  0  0  0  0  0  0  0  0  0  0  0
  152.5372  139.1354  158.0737 H   0  0  0  0  0  0  0  0  0  0  0  0
  150.4900  138.3443  156.8472 H   0  0  0  0  0  0  0  0  0  0  0  0
  151.1556  137.1162  157.8948 H   0  0  0  0  0  0  0  0  0  0  0  0
  148.9971  138.7557  159.0246 H   0  0  0  0  0  0  0  0  0  0  0  0
  147.3570  137.8862  159.6969 H   0  0  0  0  0  0  0  0  0  0  0  0
  145.1693  133.0814  159.0507 H   0  0  0  0  0  0  0  0  0  0  0  0
  143.7212  134.3615  160.9262 H   0  0  0  0  0  0  0  0  0  0  0  0
  149.9725  140.5772  158.9588 H   0  0  0  0  0  0  0  0  0  0  0  0
  150.8620  140.8872  157.4770 H   0  0  0  0  0  0  0  0  0  0  0  0
  152.7322  141.5050  158.7482 H   0  0  0  0  0  0  0  0  0  0  0  0
  1  2  1  0  0  0  0
  1 21  1  0  0  0  0
  1 22  1  0  0  0  0
  1 23  1  0  0  0  0
  2  3  1  0  0  0  0
  2  4  1  0  0  0  0
  2 24  1  0  0  0  0
  3 25  1  0  0  0  0
  3 26  1  0  0  0  0
  3 27  1  0  0  0  0
  4  5  1  0  0  0  0
  4 28  1  0  0  0  0
  4 29  1  0  0  0  0
  5 20  1  0  0  0  0
  5  6  1  0  0  0  0
  5 43  1  0  0  0  0
  6  7  1  0  0  0  0
  6 30  1  0  0  0  0
  6 31  1  0  0  0  0
  7  8  1  0  0  0  0
  7 32  1  0  0  0  0
  7 33  1  0  0  0  0
  8  9  1  0  0  0  0
  9 10  1  0  0  0  0
  9 20  1  0  0  0  0
  9 34  1  0  0  0  0
 10 11  1  0  0  0  0
 10 35  1  0  0  0  0
 10 36  1  0  0  0  0
 11 12  1  0  0  0  0
 11 37  1  0  0  0  0
 12 13  2  0  0  0  0
 12 14  1  0  0  0  0
 14 15  1  0  0  0  0
 14 38  1  0  0  0  0
 15 19  1  0  0  0  0
 15 16  2  0  0  0  0
 16 17  1  0  0  0  0
 17 18  2  0  0  0  0
 17 39  1  0  0  0  0
 18 19  1  0  0  0  0
 18 40  1  0  0  0  0
 20 41  1  0  0  0  0
 20 42  1  0  0  0  0
M  CHG  1   5   1
M  END
> <s_m_source_file>
AV-unprocessed.smi

> <i_m_source_file_index>
2062

> <i_lp_mmshare_version>
43012

> <i_f3d_flags>
0

> <s_epik_input>
W0NIM11bQ0hdKFtDSDNdKVtDSDJdTjFbQ0gyXVtDSDJdT1tDQEhdKFtDSDJdMSlbQ0gyXVtOSF1DKD1PKVtOSF1jMm5bY0hdW2NIXXMy

> <s_epik_cmdline>
J2VwaWtfcHl0aG9uJywgJy1waCcsICc3LjAnLCAnLXRuJywgJzgnLCAnLW1hJywgJzIwMCcsICctbWV0YWxfYmluZGluZycsICctaW1hZScsICc8aW5maWxlLm1hZT4nLCAnLW9tYWUnLCAnPG91dGZpbGUubWFlPic=

> <r_lp_tautomer_probability>
0.999

> <r_epik_Ionization_Penalty>
0.0985527

> <r_epik_Ionization_Penalty_Charging>
0.098413

> <r_epik_Ionization_Penalty_Neutral>
0.000139681

> <r_epik_State_Penalty>
0.0884988

> <r_epik_Charging_Adjusted_Penalty>
0.186912

> <i_epik_Tot_Q>
1

> <i_epik_Tot_abs_Q>
1

> <r_epik_Metal_State_Penalty>
0.141792

> <b_epik_Metal_Only>
0

> <s_lp_Force_Field>
OPLS_2005

> <r_lp_Energy>
15.1925

> <b_lp_Chiralities_Consistent>
1

> <s_lp_Variant>
AV-unprocessed.smi:2062-1

> <Gold.Version>
5.8.1

> <Gold.Id.Protein>
6NUR|6NUR_protein|mol2

> <Gold.PLP.Fitness>
43.4540

> <Gold.PLP.PLP>
-41.2845

> <Gold.PLP.part.hbond>
-1.0000

> <Gold.PLP.part.metal>
0.0000

> <Gold.PLP.part.buried>
-6.8167

> <Gold.PLP.part.nonpolar>
-35.5619

> <Gold.PLP.part.repulsive>
0.9058

> <Gold.PLP.ligand.clash>
0.0000

> <Gold.PLP.ligand.torsion>
0.4854

> <Gold.PLP.Chemscore.Hbond>
1.0000

> <Gold.PLP.Chemscore.CHOScore>
0.0000

> <Gold.PLP.Chemscore.Metal>
0.0000

> <Gold.PLP.Chemscore.Internal.Correction>
0.1403

> <Gold.Rescore>
     Score         DG    S(hbond)    S(metal)    S(lipo)     H(rot)  DE(clash)    DE(int)     intcor
     13.93     -16.32       0.96        0.00     103.92       1.76       0.22       2.17       ----

> <Gold.Chemscore.Fitness>
13.9286

> <Gold.Chemscore.DG>
-16.3232

> <Gold.Chemscore.ZeroCoef>
-5.4800

> <Gold.Chemscore.Hbond>
0.9553

> <Gold.Chemscore.Metal>
0.0000

> <Gold.Chemscore.Lipo>
103.9151

> <Gold.Chemscore.Internal_Hbond>
0.0000

> <Gold.Chemscore.DEClash>
0.2203

> <Gold.Chemscore.DEInternal>
2.1743

> <Gold.Chemscore.Rot>
1.7599

> <Gold.Chemscore.Internal.Correction>
   9.000000E+99

> <Gold.Chemscore.Hbonds>
donor molecule, donor type, donor heavy atom, donor atom, acceptor molecule, acceptor atom, score
      P1  H  6896  6909       L1    13  0.02

> <Gold.Chemscore.Hbond.Weighted>
-3.1906

> <Gold.Chemscore.Metal.Weighted>
-0.0000

> <Gold.Chemscore.Lipo.Weighted>
-12.1581

> <Gold.Chemscore.Internal_Hbond.Weighted>
0.0000

> <Gold.Chemscore.DEClash.Weighted>
0.2203

> <Gold.Chemscore.DEInternal.Weighted>
2.1743

> <Gold.Chemscore.Rot.Weighted>
4.5054

> <Gold.Chemscore.Internal.Correction.Weighted>
   9.000000E+99

> <Gold.Protein.RotatedTorsions>
[ 6907 6896 6895 6894 ] final   39.35 input  -60.11 | X-H torsion
[ 7974 7965 7964 7962 ] final  -19.64 input  175.53 | X-H torsion
[ 8008 7997 7996 7995 ] final  131.27 input   59.86 | X-H torsion
[ 10167 10162 10161 10158 ] final   16.86 input  -65.29 | X-H torsion
[ 10718 10713 10712 10709 ] final   98.07 input   66.30 | X-H torsion
[ 10763 10752 10751 10750 ] final  -74.41 input  -60.55 | X-H torsion
[ 11005 11000 10999 10996 ] final  -50.16 input  -57.11 | X-H torsion

> <Gold.Protein.ActiveResidues>
 VAL166  LYS551  ARG553  GLY616  TRP617  ASP618  TYR619  PRO620  LYS621  CYS622 
 ASP623  PHE694  ASN695  SER759  ASP760  ASP761  ALA762  ILE779  LEU786  VAL792 
 PHE793  MET794  SER795  GLU796  ALA797  LYS798  CYS799  TRP800  GLU811  SER814 

> <Gold.Protein.RotatedAtoms>
  152.1684  134.8854  160.0536 H   0  0  0  0  0  0  0  0  0  0  0  0  # atno 6907 bound_to 6896
  151.9824  133.3757  159.4120 H   0  0  0  0  0  0  0  0  0  0  0  0  # atno 6908 bound_to 6896
  150.6898  134.3947  159.5136 H   0  0  0  0  0  0  0  0  0  0  0  0  # atno 6909 bound_to 6896
  146.1830  140.4091  142.8487 H   0  0  0  0  0  0  0  0  0  0  0  0  # atno 7974 bound_to 7965
  156.2967  140.2575  156.2898 H   0  0  0  0  0  0  0  0  0  0  0  0  # atno 8008 bound_to 7997
  154.9520  140.0394  157.2167 H   0  0  0  0  0  0  0  0  0  0  0  0  # atno 8009 bound_to 7997
  154.8027  140.2831  155.5914 H   0  0  0  0  0  0  0  0  0  0  0  0  # atno 8010 bound_to 7997
  140.5767  143.9059  150.6756 H   0  0  0  0  0  0  0  0  0  0  0  0  # atno 10167 bound_to 10162
  157.6902  131.0629  150.4740 H   0  0  0  0  0  0  0  0  0  0  0  0  # atno 10718 bound_to 10713
  154.4727  135.5865  153.6333 H   0  0  0  0  0  0  0  0  0  0  0  0  # atno 10763 bound_to 10752
  152.9837  135.6071  154.3346 H   0  0  0  0  0  0  0  0  0  0  0  0  # atno 10764 bound_to 10752
  154.3229  135.2843  155.2489 H   0  0  0  0  0  0  0  0  0  0  0  0  # atno 10765 bound_to 10752
  141.0800  133.6656  156.3690 H   0  0  0  0  0  0  0  0  0  0  0  0  # atno 11005 bound_to 11000
  144.8348  140.6765  143.6267 LP  0  0  0  0  0  0  0  0  0  0  0  0  # atno 17320 bound_to 7965
  145.4020  139.1596  143.4172 LP  0  0  0  0  0  0  0  0  0  0  0  0  # atno 17321 bound_to 7965
  140.2548  143.3567  152.1374 LP  0  0  0  0  0  0  0  0  0  0  0  0  # atno 17342 bound_to 10162
  139.5147  144.6951  151.5652 LP  0  0  0  0  0  0  0  0  0  0  0  0  # atno 17343 bound_to 10162
  156.5076  130.4131  149.6319 LP  0  0  0  0  0  0  0  0  0  0  0  0  # atno 17370 bound_to 10713
  156.3270  130.7311  151.2234 LP  0  0  0  0  0  0  0  0  0  0  0  0  # atno 17371 bound_to 10713
  140.5489  134.6047  157.5402 LP  0  0  0  0  0  0  0  0  0  0  0  0  # atno 17394 bound_to 11000
  139.9614  134.7447  156.0230 LP  0  0  0  0  0  0  0  0  0  0  0  0  # atno 17395 bound_to 11000

$$$$
