AV-unprocessed.smi:3126|AV-procd|sdf|11912|dock2
  -GOLD-   2272017293D 1   1.00000     0.00000
 Structure written by MMmdl.
 42 43  0  0  0  0  0  0  0  0  2 V2000
  154.3231  141.1771  160.3775 C   0  0  0  0  0  0  0  0  0  0  0  0
  153.4916  142.1986  161.1655 C   0  0  0  0  0  0  0  0  0  0  0  0
  152.9083  143.3371  160.3036 C   0  0  2  0  0  0  0  0  0  0  0  0
  152.1802  144.3692  161.1870 C   0  0  0  0  0  0  0  0  0  0  0  0
  151.5961  145.5185  160.3531 C   0  0  0  0  0  0  0  0  0  0  0  0
  150.6522  144.9916  159.2625 C   0  0  0  0  0  0  0  0  0  0  0  0
  151.3610  143.9622  158.3578 C   0  0  2  0  0  0  0  0  0  0  0  0
  150.4430  143.4008  157.3413 N   0  3  0  0  0  0  0  0  0  0  0  0
  151.0174  142.3489  156.4771 C   0  0  0  0  0  0  0  0  0  0  0  0
  150.1535  141.0816  156.5102 C   0  0  0  0  0  0  0  0  0  0  0  0
  150.7422  139.9695  155.6652 C   0  0  0  0  0  0  0  0  0  0  0  0
  152.0671  139.5287  155.8642 C   0  0  0  0  0  0  0  0  0  0  0  0
  152.5679  138.4962  155.0481 C   0  0  0  0  0  0  0  0  0  0  0  0
  151.7205  137.9469  154.0651 C   0  0  0  0  0  0  0  0  0  0  0  0
  150.4510  138.3621  153.8651 N   0  0  0  0  0  0  0  0  0  0  0  0
  149.9782  139.3514  154.6522 C   0  0  0  0  0  0  0  0  0  0  0  0
  151.9524  142.8190  159.2061 C   0  0  0  0  0  0  0  0  0  0  0  0
  154.7687  140.4446  161.0507 H   0  0  0  0  0  0  0  0  0  0  0  0
  155.1346  141.6632  159.8353 H   0  0  0  0  0  0  0  0  0  0  0  0
  153.7161  140.6285  159.6579 H   0  0  0  0  0  0  0  0  0  0  0  0
  152.6896  141.6850  161.6971 H   0  0  0  0  0  0  0  0  0  0  0  0
  154.1333  142.6289  161.9352 H   0  0  0  0  0  0  0  0  0  0  0  0
  153.7411  143.8480  159.8174 H   0  0  0  0  0  0  0  0  0  0  0  0
  151.3791  143.8801  161.7431 H   0  0  0  0  0  0  0  0  0  0  0  0
  152.8665  144.7754  161.9309 H   0  0  0  0  0  0  0  0  0  0  0  0
  151.0621  146.2131  161.0022 H   0  0  0  0  0  0  0  0  0  0  0  0
  152.4063  146.0865  159.8939 H   0  0  0  0  0  0  0  0  0  0  0  0
  149.7779  144.5358  159.7293 H   0  0  0  0  0  0  0  0  0  0  0  0
  150.2873  145.8356  158.6775 H   0  0  0  0  0  0  0  0  0  0  0  0
  152.1836  144.4541  157.8360 H   0  0  0  0  0  0  0  0  0  0  0  0
  149.6607  142.9915  157.8320 H   0  0  0  0  0  0  0  0  0  0  0  0
  151.0907  142.7131  155.4524 H   0  0  0  0  0  0  0  0  0  0  0  0
  152.0290  142.1160  156.8123 H   0  0  0  0  0  0  0  0  0  0  0  0
  150.0421  140.7288  157.5366 H   0  0  0  0  0  0  0  0  0  0  0  0
  149.1482  141.3030  156.1491 H   0  0  0  0  0  0  0  0  0  0  0  0
  152.6901  139.9732  156.6265 H   0  0  0  0  0  0  0  0  0  0  0  0
  153.5776  138.1330  155.1716 H   0  0  0  0  0  0  0  0  0  0  0  0
  152.0720  137.1541  153.4214 H   0  0  0  0  0  0  0  0  0  0  0  0
  148.9608  139.6622  154.4651 H   0  0  0  0  0  0  0  0  0  0  0  0
  152.4790  142.1273  158.5485 H   0  0  0  0  0  0  0  0  0  0  0  0
  151.1446  142.2489  159.6683 H   0  0  0  0  0  0  0  0  0  0  0  0
  150.0978  144.1529  156.7621 H   0  0  0  0  0  0  0  0  0  0  0  0
  1  2  1  0  0  0  0
  1 18  1  0  0  0  0
  1 19  1  0  0  0  0
  1 20  1  0  0  0  0
  2  3  1  0  0  0  0
  2 21  1  0  0  0  0
  2 22  1  0  0  0  0
  3 17  1  0  0  0  0
  3  4  1  0  0  0  0
  3 23  1  0  0  0  0
  4  5  1  0  0  0  0
  4 24  1  0  0  0  0
  4 25  1  0  0  0  0
  5  6  1  0  0  0  0
  5 26  1  0  0  0  0
  5 27  1  0  0  0  0
  6  7  1  0  0  0  0
  6 28  1  0  0  0  0
  6 29  1  0  0  0  0
  7  8  1  0  0  0  0
  7 17  1  0  0  0  0
  7 30  1  0  0  0  0
  8  9  1  0  0  0  0
  8 31  1  0  0  0  0
  8 42  1  0  0  0  0
  9 10  1  0  0  0  0
  9 32  1  0  0  0  0
  9 33  1  0  0  0  0
 10 11  1  0  0  0  0
 10 34  1  0  0  0  0
 10 35  1  0  0  0  0
 11 16  1  0  0  0  0
 11 12  2  0  0  0  0
 12 13  1  0  0  0  0
 12 36  1  0  0  0  0
 13 14  2  0  0  0  0
 13 37  1  0  0  0  0
 14 15  1  0  0  0  0
 14 38  1  0  0  0  0
 15 16  2  0  0  0  0
 16 39  1  0  0  0  0
 17 40  1  0  0  0  0
 17 41  1  0  0  0  0
M  CHG  1   8   1
M  END
> <s_m_source_file>
AV-unprocessed.smi

> <i_m_source_file_index>
3126

> <i_lp_mmshare_version>
43012

> <i_f3d_flags>
0

> <s_epik_input>
W0NIM11bQ0gyXVtDQEBIXTFbQ0gyXVtDSDJdW0NIMl1bQ0BIXShbQ0gyXTEpW05IXVtDSDJdW0NIMl1jMltjSF1bY0hdW2NIXW5bY0hdMg==

> <s_epik_cmdline>
J2VwaWtfcHl0aG9uJywgJy1waCcsICc3LjAnLCAnLXRuJywgJzgnLCAnLW1hJywgJzIwMCcsICctbWV0YWxfYmluZGluZycsICctaW1hZScsICc8aW5maWxlLm1hZT4nLCAnLW9tYWUnLCAnPG91dGZpbGUubWFlPic=

> <r_lp_tautomer_probability>
1

> <r_epik_Ionization_Penalty>
0.000947364

> <r_epik_Ionization_Penalty_Charging>
0.000286103

> <r_epik_Ionization_Penalty_Neutral>
0.000661261

> <r_epik_State_Penalty>
-0

> <r_epik_Charging_Adjusted_Penalty>
0.000286103

> <i_epik_Tot_Q>
1

> <i_epik_Tot_abs_Q>
1

> <r_epik_Metal_State_Penalty>
-0

> <b_epik_Metal_Only>
0

> <s_lp_Force_Field>
OPLS_2005

> <r_lp_Energy>
14.2685

> <b_lp_Chiralities_Consistent>
1

> <s_lp_Variant>
AV-unprocessed.smi:3126-3

> <Gold.Version>
5.8.1

> <Gold.Id.Protein>
6NUR|6NUR_protein|mol2

> <Gold.PLP.Fitness>
54.7330

> <Gold.PLP.PLP>
-46.5314

> <Gold.PLP.part.hbond>
-1.0000

> <Gold.PLP.part.metal>
0.0000

> <Gold.PLP.part.buried>
-6.0177

> <Gold.PLP.part.nonpolar>
-41.0104

> <Gold.PLP.part.repulsive>
0.2702

> <Gold.PLP.ligand.clash>
0.0000

> <Gold.PLP.ligand.torsion>
0.4133

> <Gold.PLP.Chemscore.Hbond>
1.9840

> <Gold.PLP.Chemscore.CHOScore>
1.0000

> <Gold.PLP.Chemscore.Metal>
0.0000

> <Gold.Chemscore.Hbonds>
donor molecule, donor type, donor heavy atom, donor atom, acceptor molecule, acceptor atom, score
      L1  H     8    42       P1  8028  1.98
      L1  C    14    38       P1  7949  1.00

> <Gold.PLP.Chemscore.Internal.Correction>
0.0761

> <Gold.Rescore>
     Score         DG    S(hbond)    S(metal)    S(lipo)     H(rot)  DE(clash)    DE(int)     intcor
     21.33     -21.82       0.95        0.00     141.99       1.35       0.10       0.39       ----

> <Gold.Chemscore.Fitness>
21.3347

> <Gold.Chemscore.DG>
-21.8209

> <Gold.Chemscore.ZeroCoef>
-5.4800

> <Gold.Chemscore.Hbond>
0.9540

> <Gold.Chemscore.Metal>
0.0000

> <Gold.Chemscore.Lipo>
141.9867

> <Gold.Chemscore.Internal_Hbond>
0.0000

> <Gold.Chemscore.DEClash>
0.0975

> <Gold.Chemscore.DEInternal>
0.3887

> <Gold.Chemscore.Rot>
1.3507

> <Gold.Chemscore.Internal.Correction>
   9.000000E+99

> <Gold.Chemscore.Hbonds>
donor molecule, donor type, donor heavy atom, donor atom, acceptor molecule, acceptor atom, score
      L1  H     8    42       P1  8028  0.91

> <Gold.Chemscore.Hbond.Weighted>
-3.1864

> <Gold.Chemscore.Metal.Weighted>
-0.0000

> <Gold.Chemscore.Lipo.Weighted>
-16.6124

> <Gold.Chemscore.Internal_Hbond.Weighted>
0.0000

> <Gold.Chemscore.DEClash.Weighted>
0.0975

> <Gold.Chemscore.DEInternal.Weighted>
0.3887

> <Gold.Chemscore.Rot.Weighted>
3.4579

> <Gold.Chemscore.Internal.Correction.Weighted>
   9.000000E+99

> <Gold.Protein.RotatedTorsions>
[ 6907 6896 6895 6894 ] final    4.30 input  -60.11 | X-H torsion
[ 7974 7965 7964 7962 ] final -104.71 input  175.53 | X-H torsion
[ 8008 7997 7996 7995 ] final  153.07 input   59.86 | X-H torsion
[ 10167 10162 10161 10158 ] final  173.81 input  -65.29 | X-H torsion
[ 10718 10713 10712 10709 ] final  109.18 input   66.30 | X-H torsion
[ 10763 10752 10751 10750 ] final  -38.06 input  -60.55 | X-H torsion
[ 11005 11000 10999 10996 ] final   46.78 input  -57.11 | X-H torsion

> <Gold.Protein.ActiveResidues>
 VAL166  LYS551  ARG553  GLY616  TRP617  ASP618  TYR619  PRO620  LYS621  CYS622 
 ASP623  PHE694  ASN695  SER759  ASP760  ASP761  ALA762  ILE779  LEU786  VAL792 
 PHE793  MET794  SER795  GLU796  ALA797  LYS798  CYS799  TRP800  GLU811  SER814 

> <Gold.Protein.RotatedAtoms>
  151.6391  135.1015  160.0137 H   0  0  0  0  0  0  0  0  0  0  0  0  # atno 6907 bound_to 6896
  152.4064  133.6891  159.6368 H   0  0  0  0  0  0  0  0  0  0  0  0  # atno 6908 bound_to 6896
  150.7958  133.8618  159.3275 H   0  0  0  0  0  0  0  0  0  0  0  0  # atno 6909 bound_to 6896
  145.2397  140.9200  143.3157 H   0  0  0  0  0  0  0  0  0  0  0  0  # atno 7974 bound_to 7965
  156.2599  140.2003  156.6433 H   0  0  0  0  0  0  0  0  0  0  0  0  # atno 8008 bound_to 7997
  154.6593  140.0562  157.0068 H   0  0  0  0  0  0  0  0  0  0  0  0  # atno 8009 bound_to 7997
  155.1301  140.3233  155.4479 H   0  0  0  0  0  0  0  0  0  0  0  0  # atno 8010 bound_to 7997
  139.5121  144.3218  152.0195 H   0  0  0  0  0  0  0  0  0  0  0  0  # atno 10167 bound_to 10162
  157.6553  131.0908  150.6415 H   0  0  0  0  0  0  0  0  0  0  0  0  # atno 10718 bound_to 10713
  153.9065  135.6797  153.4753 H   0  0  0  0  0  0  0  0  0  0  0  0  # atno 10763 bound_to 10752
  153.1101  135.4787  154.9017 H   0  0  0  0  0  0  0  0  0  0  0  0  # atno 10764 bound_to 10752
  154.7548  135.3194  154.8444 H   0  0  0  0  0  0  0  0  0  0  0  0  # atno 10765 bound_to 10752
  140.1338  134.4671  155.8501 H   0  0  0  0  0  0  0  0  0  0  0  0  # atno 11005 bound_to 11000
  144.9601  139.3989  143.6360 LP  0  0  0  0  0  0  0  0  0  0  0  0  # atno 17320 bound_to 7965
  146.3332  139.8650  142.8850 LP  0  0  0  0  0  0  0  0  0  0  0  0  # atno 17321 bound_to 7965
  140.2659  144.4016  150.6168 LP  0  0  0  0  0  0  0  0  0  0  0  0  # atno 17342 bound_to 10162
  140.6123  143.2170  151.6861 LP  0  0  0  0  0  0  0  0  0  0  0  0  # atno 17343 bound_to 10162
  156.6722  130.4543  149.5653 LP  0  0  0  0  0  0  0  0  0  0  0  0  # atno 17370 bound_to 10713
  156.1989  130.6607  151.1145 LP  0  0  0  0  0  0  0  0  0  0  0  0  # atno 17371 bound_to 10713
  141.2175  133.6806  156.7119 LP  0  0  0  0  0  0  0  0  0  0  0  0  # atno 17394 bound_to 11000
  140.2809  134.8318  157.3932 LP  0  0  0  0  0  0  0  0  0  0  0  0  # atno 17395 bound_to 11000

$$$$
