AV-unprocessed.smi:2032|AV-procd|sdf|8251|dock7
  -GOLD-   2272010523D 1   1.00000     0.00000
 Structure written by MMmdl.
 42 43  0  0  0  0  0  0  0  0  3 V2000
  152.4686  138.4664  155.0024 C   0  0  0  0  0  0  0  0  0  0  0  0
  151.0914  139.0732  155.2932 C   0  0  2  0  0  0  0  0  0  0  0  0
  149.9819  138.4117  154.4586 C   0  0  0  0  0  0  0  0  0  0  0  0
  148.6685  139.0617  154.7082 N   0  3  2  0  0  0  0  0  0  0  0  0
  147.5399  138.3382  154.0382 C   0  0  2  0  0  0  0  0  0  0  0  0
  146.2077  139.1268  154.0310 C   0  0  0  0  0  0  0  0  0  0  0  0
  147.3368  136.9505  154.7006 C   0  0  0  0  0  0  0  0  0  0  0  0
  147.3163  135.8575  153.7336 N   0  0  0  0  0  0  0  0  0  0  0  0
  146.3200  134.9747  153.5765 C   0  0  0  0  0  0  0  0  0  0  0  0
  145.3053  135.0641  154.2720 O   0  0  0  0  0  0  0  0  0  0  0  0
  146.5655  134.0413  152.6303 N   0  5  0  0  0  0  0  0  0  0  0  0
  145.5475  133.4959  151.9450 C   0  0  0  0  0  0  0  0  0  0  0  0
  145.6693  132.3722  151.2292 N   0  0  0  0  0  0  0  0  0  0  0  0
  144.4842  131.9815  150.6030 C   0  0  0  0  0  0  0  0  0  0  0  0
  143.4332  132.8229  150.8552 C   0  0  0  0  0  0  0  0  0  0  0  0
  143.9034  134.1389  151.8928 S   0  0  0  0  0  0  0  0  0  0  0  0
  148.7762  140.5173  154.4159 C   0  0  0  0  0  0  0  0  0  0  0  0
  149.9351  141.1704  155.1968 C   0  0  1  0  0  0  0  0  0  0  0  0
  149.6354  141.3618  156.6946 C   0  0  0  0  0  0  0  0  0  0  0  0
  151.1516  140.4598  154.9781 O   0  0  0  0  0  0  0  0  0  0  0  0
  152.4836  137.4000  155.2292 H   0  0  0  0  0  0  0  0  0  0  0  0
  153.2407  138.9446  155.6058 H   0  0  0  0  0  0  0  0  0  0  0  0
  152.7415  138.5894  153.9538 H   0  0  0  0  0  0  0  0  0  0  0  0
  150.8820  138.9408  156.3548 H   0  0  0  0  0  0  0  0  0  0  0  0
  150.2221  138.4789  153.3960 H   0  0  0  0  0  0  0  0  0  0  0  0
  149.9451  137.3513  154.7021 H   0  0  0  0  0  0  0  0  0  0  0  0
  147.8194  138.1951  152.9931 H   0  0  0  0  0  0  0  0  0  0  0  0
  145.4085  138.5605  153.5527 H   0  0  0  0  0  0  0  0  0  0  0  0
  146.2860  140.0567  153.4677 H   0  0  0  0  0  0  0  0  0  0  0  0
  145.8776  139.3637  155.0429 H   0  0  0  0  0  0  0  0  0  0  0  0
  148.1040  136.7335  155.4430 H   0  0  0  0  0  0  0  0  0  0  0  0
  146.3885  136.9362  155.2384 H   0  0  0  0  0  0  0  0  0  0  0  0
  148.1267  135.7521  153.1405 H   0  0  0  0  0  0  0  0  0  0  0  0
  144.4797  131.0884  149.9961 H   0  0  0  0  0  0  0  0  0  0  0  0
  142.4173  132.7494  150.4976 H   0  0  0  0  0  0  0  0  0  0  0  0
  148.9307  140.6536  153.3443 H   0  0  0  0  0  0  0  0  0  0  0  0
  147.8590  141.0433  154.6793 H   0  0  0  0  0  0  0  0  0  0  0  0
  150.0925  142.1660  154.7809 H   0  0  0  0  0  0  0  0  0  0  0  0
  148.7850  142.0293  156.8359 H   0  0  0  0  0  0  0  0  0  0  0  0
  150.4891  141.8046  157.2082 H   0  0  0  0  0  0  0  0  0  0  0  0
  149.3946  140.4230  157.1927 H   0  0  0  0  0  0  0  0  0  0  0  0
  148.4897  138.9940  155.6999 H   0  0  0  0  0  0  0  0  0  0  0  0
  1  2  1  0  0  0  0
  1 21  1  0  0  0  0
  1 22  1  0  0  0  0
  1 23  1  0  0  0  0
  2 20  1  0  0  0  0
  2  3  1  0  0  0  0
  2 24  1  0  0  0  0
  3  4  1  0  0  0  0
  3 25  1  0  0  0  0
  3 26  1  0  0  0  0
  4  5  1  0  0  0  0
  4 17  1  0  0  0  0
  4 42  1  0  0  0  0
  5  6  1  0  0  0  0
  5  7  1  0  0  0  0
  5 27  1  0  0  0  0
  6 28  1  0  0  0  0
  6 29  1  0  0  0  0
  6 30  1  0  0  0  0
  7  8  1  0  0  0  0
  7 31  1  0  0  0  0
  7 32  1  0  0  0  0
  8  9  1  0  0  0  0
  8 33  1  0  0  0  0
  9 10  2  0  0  0  0
  9 11  1  0  0  0  0
 11 12  1  0  0  0  0
 12 16  1  0  0  0  0
 12 13  2  0  0  0  0
 13 14  1  0  0  0  0
 14 15  2  0  0  0  0
 14 34  1  0  0  0  0
 15 16  1  0  0  0  0
 15 35  1  0  0  0  0
 17 18  1  0  0  0  0
 17 36  1  0  0  0  0
 17 37  1  0  0  0  0
 18 19  1  0  0  0  0
 18 20  1  0  0  0  0
 18 38  1  0  0  0  0
 19 39  1  0  0  0  0
 19 40  1  0  0  0  0
 19 41  1  0  0  0  0
M  CHG  1   4   1
M  CHG  1  11  -1
M  END
> <s_m_source_file>
AV-unprocessed.smi

> <i_m_source_file_index>
2032

> <i_lp_mmshare_version>
43012

> <i_f3d_flags>
0

> <s_epik_input>
W0NIM11bQ0BASF0xW0NIMl1OKFtDSDJdW0NASF0oTzEpW0NIM10pW0NASF0oW0NIM10pW0NIMl1bTkhdQyg9TylbTkhdYzJuW2NIXVtjSF1zMg==

> <s_epik_cmdline>
J2VwaWtfcHl0aG9uJywgJy1waCcsICc3LjAnLCAnLXRuJywgJzgnLCAnLW1hJywgJzIwMCcsICctbWV0YWxfYmluZGluZycsICctaW1hZScsICc8aW5maWxlLm1hZT4nLCAnLW9tYWUnLCAnPG91dGZpbGUubWFlPic=

> <r_lp_tautomer_probability>
0.999

> <r_epik_Ionization_Penalty>
6.71699

> <r_epik_Ionization_Penalty_Charging>
5.88592

> <r_epik_Ionization_Penalty_Neutral>
0.831074

> <r_epik_State_Penalty>
6.08365

> <r_epik_Charging_Adjusted_Penalty>
11.9696

> <i_epik_Tot_Q>
0

> <i_epik_Tot_abs_Q>
2

> <r_epik_Metal_State_Penalty>
2.0947

> <b_epik_Metal_Only>
1

> <s_lp_Force_Field>
OPLS_2005

> <r_lp_Energy>
13.7972

> <b_lp_Chiralities_Consistent>
1

> <s_lp_Variant>
AV-unprocessed.smi:2032-21

> <Gold.Version>
5.8.1

> <Gold.Id.Protein>
6NUR|6NUR_protein|mol2

> <Gold.PLP.Fitness>
37.2289

> <Gold.PLP.PLP>
-30.4334

> <Gold.PLP.part.hbond>
-1.7278

> <Gold.PLP.part.metal>
0.0000

> <Gold.PLP.part.buried>
-4.3834

> <Gold.PLP.part.nonpolar>
-25.3019

> <Gold.PLP.part.repulsive>
0.3767

> <Gold.PLP.ligand.clash>
0.0000

> <Gold.PLP.ligand.torsion>
1.1017

> <Gold.PLP.Chemscore.Hbond>
1.9920

> <Gold.PLP.Chemscore.CHOScore>
0.9844

> <Gold.PLP.Chemscore.Metal>
0.0000

> <Gold.Chemscore.Hbonds>
donor molecule, donor type, donor heavy atom, donor atom, acceptor molecule, acceptor atom, score
      L1  H     8    33       P1  7948  0.99
      P1  H  7989  7998       L1    20  1.00
      L1  C    15    35       P1 10186  1.00

> <Gold.PLP.Chemscore.Internal.Correction>
0.0698

> <Gold.Rescore>
     Score         DG    S(hbond)    S(metal)    S(lipo)     H(rot)  DE(clash)    DE(int)     intcor
     14.29     -15.58       1.66        0.00      73.51       1.58       0.10       1.19       ----

> <Gold.Chemscore.Fitness>
14.2933

> <Gold.Chemscore.DG>
-15.5806

> <Gold.Chemscore.ZeroCoef>
-5.4800

> <Gold.Chemscore.Hbond>
1.6594

> <Gold.Chemscore.Metal>
0.0000

> <Gold.Chemscore.Lipo>
73.5112

> <Gold.Chemscore.Internal_Hbond>
0.0000

> <Gold.Chemscore.DEClash>
0.0971

> <Gold.Chemscore.DEInternal>
1.1902

> <Gold.Chemscore.Rot>
1.5791

> <Gold.Chemscore.Internal.Correction>
   9.000000E+99

> <Gold.Chemscore.Hbonds>
donor molecule, donor type, donor heavy atom, donor atom, acceptor molecule, acceptor atom, score
      L1  H     8    33       P1  7948  0.92
      P1  H  7989  7998       L1    20  0.50

> <Gold.Chemscore.Hbond.Weighted>
-5.5423

> <Gold.Chemscore.Metal.Weighted>
-0.0000

> <Gold.Chemscore.Lipo.Weighted>
-8.6008

> <Gold.Chemscore.Internal_Hbond.Weighted>
0.0000

> <Gold.Chemscore.DEClash.Weighted>
0.0971

> <Gold.Chemscore.DEInternal.Weighted>
1.1902

> <Gold.Chemscore.Rot.Weighted>
4.0425

> <Gold.Chemscore.Internal.Correction.Weighted>
   9.000000E+99

> <Gold.Protein.RotatedTorsions>
[ 6907 6896 6895 6894 ] final   30.60 input  -60.11 | X-H torsion
[ 7974 7965 7964 7962 ] final -168.36 input  175.53 | X-H torsion
[ 8008 7997 7996 7995 ] final  -71.87 input   59.86 | X-H torsion
[ 10167 10162 10161 10158 ] final -149.46 input  -65.29 | X-H torsion
[ 10718 10713 10712 10709 ] final -161.60 input   66.30 | X-H torsion
[ 10763 10752 10751 10750 ] final   37.04 input  -60.55 | X-H torsion
[ 11005 11000 10999 10996 ] final -156.91 input  -57.11 | X-H torsion

> <Gold.Protein.ActiveResidues>
 VAL166  LYS551  ARG553  GLY616  TRP617  ASP618  TYR619  PRO620  LYS621  CYS622 
 ASP623  PHE694  ASN695  SER759  ASP760  ASP761  ALA762  ILE779  LEU786  VAL792 
 PHE793  MET794  SER795  GLU796  ALA797  LYS798  CYS799  TRP800  GLU811  SER814 

> <Gold.Protein.RotatedAtoms>
  152.0483  134.9669  160.0574 H   0  0  0  0  0  0  0  0  0  0  0  0  # atno 6907 bound_to 6896
  152.1081  133.4281  159.4626 H   0  0  0  0  0  0  0  0  0  0  0  0  # atno 6908 bound_to 6896
  150.6842  134.2600  159.4589 H   0  0  0  0  0  0  0  0  0  0  0  0  # atno 6909 bound_to 6896
  144.7204  140.2381  143.6295 H   0  0  0  0  0  0  0  0  0  0  0  0  # atno 7974 bound_to 7965
  154.5121  140.0807  156.8010 H   0  0  0  0  0  0  0  0  0  0  0  0  # atno 8008 bound_to 7997
  155.3762  140.3425  155.4227 H   0  0  0  0  0  0  0  0  0  0  0  0  # atno 8009 bound_to 7997
  156.1585  140.1581  156.8639 H   0  0  0  0  0  0  0  0  0  0  0  0  # atno 8010 bound_to 7997
  139.7441  143.8618  152.2570 H   0  0  0  0  0  0  0  0  0  0  0  0  # atno 10167 bound_to 10162
  156.5986  130.8801  151.2908 H   0  0  0  0  0  0  0  0  0  0  0  0  # atno 10718 bound_to 10713
  153.0053  135.6289  154.2082 H   0  0  0  0  0  0  0  0  0  0  0  0  # atno 10763 bound_to 10752
  154.1825  135.2812  155.3049 H   0  0  0  0  0  0  0  0  0  0  0  0  # atno 10764 bound_to 10752
  154.5823  135.5643  153.7257 H   0  0  0  0  0  0  0  0  0  0  0  0  # atno 10765 bound_to 10752
  140.6704  134.4253  157.5232 H   0  0  0  0  0  0  0  0  0  0  0  0  # atno 11005 bound_to 11000
  145.8346  139.2101  143.1863 LP  0  0  0  0  0  0  0  0  0  0  0  0  # atno 17320 bound_to 7965
  146.0400  140.8174  142.9833 LP  0  0  0  0  0  0  0  0  0  0  0  0  # atno 17321 bound_to 7965
  139.8577  144.7133  150.9137 LP  0  0  0  0  0  0  0  0  0  0  0  0  # atno 17342 bound_to 10162
  140.7790  143.3844  151.1419 LP  0  0  0  0  0  0  0  0  0  0  0  0  # atno 17343 bound_to 10162
  157.7285  130.9658  150.1746 LP  0  0  0  0  0  0  0  0  0  0  0  0  # atno 17370 bound_to 10713
  156.2488  130.3698  149.8255 LP  0  0  0  0  0  0  0  0  0  0  0  0  # atno 17371 bound_to 10713
  139.8983  134.8616  156.2006 LP  0  0  0  0  0  0  0  0  0  0  0  0  # atno 17394 bound_to 11000
  141.0396  133.6944  156.1575 LP  0  0  0  0  0  0  0  0  0  0  0  0  # atno 17395 bound_to 11000

$$$$
