AV-unprocessed.smi:497|AV-procd|sdf|2727|dock2
  -GOLD-   2262023173D 1   1.00000     0.00000
 Structure written by MMmdl.
 39 41  0  0  0  0  0  0  0  0  3 V2000
  149.7485  139.6066  154.3930 C   0  0  0  0  0  0  0  0  0  0  0  0
  150.9967  140.1718  154.7519 O   0  0  0  0  0  0  0  0  0  0  0  0
  151.4948  139.6526  155.9739 C   0  0  0  0  0  0  0  0  0  0  0  0
  150.7743  140.3017  157.1674 C   0  0  0  0  0  0  0  0  0  0  0  0
  151.7094  140.7631  158.2166 N   0  0  0  0  0  0  0  0  0  0  0  0
  152.5930  140.0791  159.0160 C   0  0  0  0  0  0  0  0  0  0  0  0
  152.8829  138.6057  159.0543 C   0  0  0  0  0  0  0  0  0  0  0  0
  153.2474  138.1775  160.4004 N   0  5  0  0  0  0  0  0  0  0  0  0
  153.6447  136.9147  160.7229 C   0  0  0  0  0  0  0  0  0  0  0  0
  153.8299  135.9350  159.9931 O   0  0  0  0  0  0  0  0  0  0  0  0
  153.8503  136.7465  162.1807 C   0  0  0  0  0  0  0  0  0  0  0  0
  153.7060  137.6500  163.1998 C   0  0  0  0  0  0  0  0  0  0  0  0
  154.0485  136.9725  164.4027 C   0  0  0  0  0  0  0  0  0  0  0  0
  154.3787  135.7001  164.0357 C   0  0  0  0  0  0  0  0  0  0  0  0
  154.2643  135.5448  162.6894 O   0  0  0  0  0  0  0  0  0  0  0  0
  153.1947  140.9986  159.8221 N   0  3  0  0  0  0  0  0  0  0  0  0
  152.7060  142.2740  159.5442 C   0  0  0  0  0  0  0  0  0  0  0  0
  153.0183  143.5091  160.1039 C   0  0  0  0  0  0  0  0  0  0  0  0
  152.3300  144.6282  159.5916 C   0  0  0  0  0  0  0  0  0  0  0  0
  151.3740  144.4937  158.5644 C   0  0  0  0  0  0  0  0  0  0  0  0
  151.0671  143.2357  158.0057 C   0  0  0  0  0  0  0  0  0  0  0  0
  151.7528  142.1325  158.5157 C   0  0  0  0  0  0  0  0  0  0  0  0
  149.4090  140.0377  153.4516 H   0  0  0  0  0  0  0  0  0  0  0  0
  148.9903  139.8127  155.1497 H   0  0  0  0  0  0  0  0  0  0  0  0
  149.8277  138.5269  154.2609 H   0  0  0  0  0  0  0  0  0  0  0  0
  151.3535  138.5723  155.9964 H   0  0  0  0  0  0  0  0  0  0  0  0
  152.5675  139.8371  156.0449 H   0  0  0  0  0  0  0  0  0  0  0  0
  150.1920  141.1580  156.8269 H   0  0  0  0  0  0  0  0  0  0  0  0
  150.0544  139.6125  157.6079 H   0  0  0  0  0  0  0  0  0  0  0  0
  152.0064  138.0881  158.6622 H   0  0  0  0  0  0  0  0  0  0  0  0
  153.6839  138.3965  158.3444 H   0  0  0  0  0  0  0  0  0  0  0  0
  153.3946  138.6784  163.0907 H   0  0  0  0  0  0  0  0  0  0  0  0
  154.0542  137.3668  165.4078 H   0  0  0  0  0  0  0  0  0  0  0  0
  154.7018  134.8222  164.5752 H   0  0  0  0  0  0  0  0  0  0  0  0
  153.7488  143.6120  160.8927 H   0  0  0  0  0  0  0  0  0  0  0  0
  152.5380  145.6082  159.9958 H   0  0  0  0  0  0  0  0  0  0  0  0
  150.8637  145.3725  158.1983 H   0  0  0  0  0  0  0  0  0  0  0  0
  150.3269  143.1445  157.2248 H   0  0  0  0  0  0  0  0  0  0  0  0
  153.8874  140.7569  160.5186 H   0  0  0  0  0  0  0  0  0  0  0  0
  1  2  1  0  0  0  0
  1 23  1  0  0  0  0
  1 24  1  0  0  0  0
  1 25  1  0  0  0  0
  2  3  1  0  0  0  0
  3  4  1  0  0  0  0
  3 26  1  0  0  0  0
  3 27  1  0  0  0  0
  4  5  1  0  0  0  0
  4 28  1  0  0  0  0
  4 29  1  0  0  0  0
  5 22  1  0  0  0  0
  5  6  1  0  0  0  0
  6  7  1  0  0  0  0
  6 16  2  0  0  0  0
  7  8  1  0  0  0  0
  7 30  1  0  0  0  0
  7 31  1  0  0  0  0
  8  9  1  0  0  0  0
  9 10  2  0  0  0  0
  9 11  1  0  0  0  0
 11 15  1  0  0  0  0
 11 12  2  0  0  0  0
 12 13  1  0  0  0  0
 12 32  1  0  0  0  0
 13 14  2  0  0  0  0
 13 33  1  0  0  0  0
 14 15  1  0  0  0  0
 14 34  1  0  0  0  0
 16 17  1  0  0  0  0
 16 39  1  0  0  0  0
 17 22  2  0  0  0  0
 17 18  1  0  0  0  0
 18 19  2  0  0  0  0
 18 35  1  0  0  0  0
 19 20  1  0  0  0  0
 19 36  1  0  0  0  0
 20 21  2  0  0  0  0
 20 37  1  0  0  0  0
 21 22  1  0  0  0  0
 21 38  1  0  0  0  0
M  CHG  1   8  -1
M  CHG  1  16   1
M  END
> <s_m_source_file>
AV-unprocessed.smi

> <i_m_source_file_index>
497

> <i_lp_mmshare_version>
43012

> <i_f3d_flags>
0

> <s_epik_input>
W2NIXTFbY0hdW2NIXVtjSF1jKGMxMiluKFtDSDJdW0NIMl1PW0NIM10pYyhuMilbQ0gyXVtOSF1DKD1PKWMzW2NIXVtjSF1bY0hdbzM=

> <s_epik_cmdline>
J2VwaWtfcHl0aG9uJywgJy1waCcsICc3LjAnLCAnLXRuJywgJzgnLCAnLW1hJywgJzIwMCcsICctbWV0YWxfYmluZGluZycsICctaW1hZScsICc8aW5maWxlLm1hZT4nLCAnLW9tYWUnLCAnPG91dGZpbGUubWFlPic=

> <r_epik_Ionization_Penalty>
6.0511

> <r_epik_Ionization_Penalty_Charging>
6.0511

> <r_epik_Ionization_Penalty_Neutral>
2.61117e-12

> <r_epik_State_Penalty>
7.24158

> <r_epik_Charging_Adjusted_Penalty>
13.2927

> <i_epik_Tot_Q>
0

> <i_epik_Tot_abs_Q>
2

> <r_epik_Metal_State_Penalty>
3.25464

> <b_epik_Metal_Only>
1

> <s_lp_Force_Field>
OPLS_2005

> <r_lp_Energy>
9.23096

> <b_lp_Chiralities_Consistent>
1

> <s_lp_Variant>
AV-unprocessed.smi:497-4

> <Gold.Version>
5.8.1

> <Gold.Id.Protein>
6NUR|6NUR_protein|mol2

> <Gold.PLP.Fitness>
52.2453

> <Gold.PLP.PLP>
-47.7211

> <Gold.PLP.part.hbond>
-2.0000

> <Gold.PLP.part.metal>
0.0000

> <Gold.PLP.part.buried>
-7.0036

> <Gold.PLP.part.nonpolar>
-39.2979

> <Gold.PLP.part.repulsive>
0.1633

> <Gold.PLP.ligand.clash>
0.0000

> <Gold.PLP.ligand.torsion>
0.8045

> <Gold.PLP.Chemscore.Hbond>
2.0000

> <Gold.PLP.Chemscore.CHOScore>
0.0000

> <Gold.PLP.Chemscore.Metal>
0.0000

> <Gold.Chemscore.Hbonds>
donor molecule, donor type, donor heavy atom, donor atom, acceptor molecule, acceptor atom, score
      P1  H  6896  6908       L1    10  1.00
      P1  H  7989  7998       L1     2  1.00

> <Gold.PLP.Chemscore.Internal.Correction>
0.1331

> <Gold.Rescore>
     Score         DG    S(hbond)    S(metal)    S(lipo)     H(rot)  DE(clash)    DE(int)     intcor
     20.62     -21.47       1.96        0.00     122.18       1.89       0.00       0.85       ----

> <Gold.Chemscore.Fitness>
20.6168

> <Gold.Chemscore.DG>
-21.4685

> <Gold.Chemscore.ZeroCoef>
-5.4800

> <Gold.Chemscore.Hbond>
1.9551

> <Gold.Chemscore.Metal>
0.0000

> <Gold.Chemscore.Lipo>
122.1786

> <Gold.Chemscore.Internal_Hbond>
0.0000

> <Gold.Chemscore.DEClash>
0.0029

> <Gold.Chemscore.DEInternal>
0.8488

> <Gold.Chemscore.Rot>
1.8892

> <Gold.Chemscore.Internal.Correction>
   9.000000E+99

> <Gold.Chemscore.Hbonds>
donor molecule, donor type, donor heavy atom, donor atom, acceptor molecule, acceptor atom, score
      P1  H  6896  6908       L1    10  0.82
      P1  H  7989  7998       L1     2  0.72

> <Gold.Chemscore.Hbond.Weighted>
-6.5299

> <Gold.Chemscore.Metal.Weighted>
-0.0000

> <Gold.Chemscore.Lipo.Weighted>
-14.2949

> <Gold.Chemscore.Internal_Hbond.Weighted>
0.0000

> <Gold.Chemscore.DEClash.Weighted>
0.0029

> <Gold.Chemscore.DEInternal.Weighted>
0.8488

> <Gold.Chemscore.Rot.Weighted>
4.8363

> <Gold.Chemscore.Internal.Correction.Weighted>
   9.000000E+99

> <Gold.Protein.RotatedTorsions>
[ 6907 6896 6895 6894 ] final  -67.17 input  -60.11 | X-H torsion
[ 7974 7965 7964 7962 ] final   15.32 input  175.53 | X-H torsion
[ 8008 7997 7996 7995 ] final  157.93 input   59.86 | X-H torsion
[ 10167 10162 10161 10158 ] final  -69.93 input  -65.29 | X-H torsion
[ 10718 10713 10712 10709 ] final  157.35 input   66.30 | X-H torsion
[ 10763 10752 10751 10750 ] final   95.46 input  -60.55 | X-H torsion
[ 11005 11000 10999 10996 ] final  -76.50 input  -57.11 | X-H torsion

> <Gold.Protein.ActiveResidues>
 VAL166  LYS551  ARG553  GLY616  TRP617  ASP618  TYR619  PRO620  LYS621  CYS622 
 ASP623  PHE694  ASN695  SER759  ASP760  ASP761  ALA762  ILE779  LEU786  VAL792 
 PHE793  MET794  SER795  GLU796  ALA797  LYS798  CYS799  TRP800  GLU811  SER814 

> <Gold.Protein.RotatedAtoms>
  150.7424  134.5918  159.5991 H   0  0  0  0  0  0  0  0  0  0  0  0  # atno 6907 bound_to 6896
  152.3304  134.7264  160.0300 H   0  0  0  0  0  0  0  0  0  0  0  0  # atno 6908 bound_to 6896
  151.7750  133.3308  159.3491 H   0  0  0  0  0  0  0  0  0  0  0  0  # atno 6909 bound_to 6896
  146.2281  139.8911  142.8554 H   0  0  0  0  0  0  0  0  0  0  0  0  # atno 7974 bound_to 7965
  156.2334  140.1872  156.7184 H   0  0  0  0  0  0  0  0  0  0  0  0  # atno 8008 bound_to 7997
  154.6062  140.0628  156.9461 H   0  0  0  0  0  0  0  0  0  0  0  0  # atno 8009 bound_to 7997
  155.2092  140.3298  155.4334 H   0  0  0  0  0  0  0  0  0  0  0  0  # atno 8010 bound_to 7997
  140.5392  143.2316  151.7121 H   0  0  0  0  0  0  0  0  0  0  0  0  # atno 10167 bound_to 10162
  157.1926  131.0658  151.2071 H   0  0  0  0  0  0  0  0  0  0  0  0  # atno 10718 bound_to 10713
  153.2534  135.4253  155.0821 H   0  0  0  0  0  0  0  0  0  0  0  0  # atno 10763 bound_to 10752
  154.8391  135.3431  154.6480 H   0  0  0  0  0  0  0  0  0  0  0  0  # atno 10764 bound_to 10752
  153.6901  135.7034  153.5149 H   0  0  0  0  0  0  0  0  0  0  0  0  # atno 10765 bound_to 10752
  141.1654  133.6986  156.7679 H   0  0  0  0  0  0  0  0  0  0  0  0  # atno 11005 bound_to 11000
  145.2416  141.0011  143.3932 LP  0  0  0  0  0  0  0  0  0  0  0  0  # atno 17320 bound_to 7965
  144.9447  139.4149  143.6432 LP  0  0  0  0  0  0  0  0  0  0  0  0  # atno 17321 bound_to 7965
  139.4982  144.3995  152.0196 LP  0  0  0  0  0  0  0  0  0  0  0  0  # atno 17342 bound_to 10162
  140.3103  144.3545  150.6036 LP  0  0  0  0  0  0  0  0  0  0  0  0  # atno 17343 bound_to 10162
  157.3846  130.7249  149.6654 LP  0  0  0  0  0  0  0  0  0  0  0  0  # atno 17370 bound_to 10713
  155.9710  130.4163  150.4224 LP  0  0  0  0  0  0  0  0  0  0  0  0  # atno 17371 bound_to 10713
  140.2486  134.8558  157.3645 LP  0  0  0  0  0  0  0  0  0  0  0  0  # atno 17394 bound_to 11000
  140.1725  134.4591  155.7822 LP  0  0  0  0  0  0  0  0  0  0  0  0  # atno 17395 bound_to 11000

$$$$
