AV-unprocessed.smi:1944|AV-procd|sdf|7855|dock9
  -GOLD-   2272010 03D 1   1.00000     0.00000
 Structure written by MMmdl.
 46 47  0  0  0  0  0  0  0  0  2 V2000
  153.5108  138.4240  154.3061 C   0  0  0  0  0  0  0  0  0  0  0  0
  152.0997  138.5180  154.4696 O   0  0  0  0  0  0  0  0  0  0  0  0
  151.5855  139.6068  155.1478 C   0  0  0  0  0  0  0  0  0  0  0  0
  152.3590  140.2045  156.0888 N   0  0  0  0  0  0  0  0  0  0  0  0
  151.8608  141.2698  156.7491 C   0  0  0  0  0  0  0  0  0  0  0  0
  150.5795  141.7967  156.5049 C   0  0  0  0  0  0  0  0  0  0  0  0
  149.7751  141.1787  155.5297 C   0  0  0  0  0  0  0  0  0  0  0  0
  150.2779  140.0496  154.8385 C   0  0  0  0  0  0  0  0  0  0  0  0
  149.5575  139.3633  153.8217 N   0  0  0  0  0  0  0  0  0  0  0  0
  148.3139  139.6007  153.3716 C   0  0  0  0  0  0  0  0  0  0  0  0
  147.5560  140.4734  153.7946 O   0  0  0  0  0  0  0  0  0  0  0  0
  147.9753  138.7408  152.4005 N   0  0  0  0  0  0  0  0  0  0  0  0
  146.6908  138.7281  151.7101 C   0  0  0  0  0  0  0  0  0  0  0  0
  145.7181  137.7149  152.3460 C   0  0  0  0  0  0  0  0  0  0  0  0
  146.1589  136.3006  152.2047 N   0  3  2  0  0  0  0  0  0  0  0  0
  145.4755  135.6169  151.0729 C   0  0  0  0  0  0  0  0  0  0  0  0
  146.0904  134.2361  150.7953 C   0  0  0  0  0  0  0  0  0  0  0  0
  146.0695  133.3614  152.0531 C   0  0  0  0  0  0  0  0  0  0  0  0
  146.7659  134.0942  153.2077 C   0  0  0  0  0  0  0  0  0  0  0  0
  146.1591  135.4905  153.4641 C   0  0  2  0  0  0  0  0  0  0  0  0
  144.7774  135.4088  154.1482 C   0  0  0  0  0  0  0  0  0  0  0  0
  153.7508  137.5094  153.7642 H   0  0  0  0  0  0  0  0  0  0  0  0
  154.0227  138.3816  155.2687 H   0  0  0  0  0  0  0  0  0  0  0  0
  153.9020  139.2629  153.7288 H   0  0  0  0  0  0  0  0  0  0  0  0
  152.5055  141.7200  157.4892 H   0  0  0  0  0  0  0  0  0  0  0  0
  150.2235  142.6589  157.0491 H   0  0  0  0  0  0  0  0  0  0  0  0
  148.8000  141.5913  155.3228 H   0  0  0  0  0  0  0  0  0  0  0  0
  150.0246  138.5549  153.4371 H   0  0  0  0  0  0  0  0  0  0  0  0
  148.6565  138.0524  152.1141 H   0  0  0  0  0  0  0  0  0  0  0  0
  146.2573  139.7299  151.7075 H   0  0  0  0  0  0  0  0  0  0  0  0
  146.8947  138.4706  150.6713 H   0  0  0  0  0  0  0  0  0  0  0  0
  145.5428  137.9554  153.3948 H   0  0  0  0  0  0  0  0  0  0  0  0
  144.7501  137.8138  151.8530 H   0  0  0  0  0  0  0  0  0  0  0  0
  144.4090  135.5240  151.2801 H   0  0  0  0  0  0  0  0  0  0  0  0
  145.5632  136.2252  150.1718 H   0  0  0  0  0  0  0  0  0  0  0  0
  145.5480  133.7421  149.9885 H   0  0  0  0  0  0  0  0  0  0  0  0
  147.1182  134.3557  150.4493 H   0  0  0  0  0  0  0  0  0  0  0  0
  145.0407  133.1224  152.3240 H   0  0  0  0  0  0  0  0  0  0  0  0
  146.5670  132.4109  151.8576 H   0  0  0  0  0  0  0  0  0  0  0  0
  146.7236  133.4892  154.1142 H   0  0  0  0  0  0  0  0  0  0  0  0
  147.8248  134.2034  152.9686 H   0  0  0  0  0  0  0  0  0  0  0  0
  146.8328  135.9751  154.1698 H   0  0  0  0  0  0  0  0  0  0  0  0
  144.8288  134.7899  155.0446 H   0  0  0  0  0  0  0  0  0  0  0  0
  144.0174  134.9750  153.4993 H   0  0  0  0  0  0  0  0  0  0  0  0
  144.4244  136.3894  154.4664 H   0  0  0  0  0  0  0  0  0  0  0  0
  147.1284  136.3556  151.9259 H   0  0  0  0  0  0  0  0  0  0  0  0
  1  2  1  0  0  0  0
  1 22  1  0  0  0  0
  1 23  1  0  0  0  0
  1 24  1  0  0  0  0
  2  3  1  0  0  0  0
  3  8  1  0  0  0  0
  3  4  2  0  0  0  0
  4  5  1  0  0  0  0
  5  6  2  0  0  0  0
  5 25  1  0  0  0  0
  6  7  1  0  0  0  0
  6 26  1  0  0  0  0
  7  8  2  0  0  0  0
  7 27  1  0  0  0  0
  8  9  1  0  0  0  0
  9 10  1  0  0  0  0
  9 28  1  0  0  0  0
 10 11  2  0  0  0  0
 10 12  1  0  0  0  0
 12 13  1  0  0  0  0
 12 29  1  0  0  0  0
 13 14  1  0  0  0  0
 13 30  1  0  0  0  0
 13 31  1  0  0  0  0
 14 15  1  0  0  0  0
 14 32  1  0  0  0  0
 14 33  1  0  0  0  0
 15 20  1  0  0  0  0
 15 16  1  0  0  0  0
 15 46  1  0  0  0  0
 16 17  1  0  0  0  0
 16 34  1  0  0  0  0
 16 35  1  0  0  0  0
 17 18  1  0  0  0  0
 17 36  1  0  0  0  0
 17 37  1  0  0  0  0
 18 19  1  0  0  0  0
 18 38  1  0  0  0  0
 18 39  1  0  0  0  0
 19 20  1  0  0  0  0
 19 40  1  0  0  0  0
 19 41  1  0  0  0  0
 20 21  1  0  0  0  0
 20 42  1  0  0  0  0
 21 43  1  0  0  0  0
 21 44  1  0  0  0  0
 21 45  1  0  0  0  0
M  CHG  1  15   1
M  END
> <s_m_source_file>
AV-unprocessed.smi

> <i_m_source_file_index>
1944

> <i_lp_mmshare_version>
43012

> <i_f3d_flags>
0

> <s_epik_input>
W0NIM11PYzFuW2NIXVtjSF1bY0hdYzFbTkhdQyg9TylbTkhdW0NIMl1bQ0gyXU4yW0NIMl1bQ0gyXVtDSDJdW0NIMl1bQ0BIXTJbQ0gzXQ==

> <s_epik_cmdline>
J2VwaWtfcHl0aG9uJywgJy1waCcsICc3LjAnLCAnLXRuJywgJzgnLCAnLW1hJywgJzIwMCcsICctbWV0YWxfYmluZGluZycsICctaW1hZScsICc8aW5maWxlLm1hZT4nLCAnLW9tYWUnLCAnPG91dGZpbGUubWFlPic=

> <r_lp_tautomer_probability>
1

> <r_epik_Ionization_Penalty>
0.00219525

> <r_epik_Ionization_Penalty_Charging>
0.00211816

> <r_epik_Ionization_Penalty_Neutral>
7.7088e-05

> <r_epik_State_Penalty>
0.00145254

> <r_epik_Charging_Adjusted_Penalty>
0.0035707

> <i_epik_Tot_Q>
1

> <i_epik_Tot_abs_Q>
1

> <r_epik_Metal_State_Penalty>
-0

> <b_epik_Metal_Only>
0

> <s_lp_Force_Field>
OPLS_2005

> <r_lp_Energy>
23.2027

> <b_lp_Chiralities_Consistent>
1

> <s_lp_Variant>
AV-unprocessed.smi:1944-3

> <Gold.Version>
5.8.1

> <Gold.Id.Protein>
6NUR|6NUR_protein|mol2

> <Gold.PLP.Fitness>
44.3419

> <Gold.PLP.PLP>
-34.9672

> <Gold.PLP.part.hbond>
-4.8255

> <Gold.PLP.part.metal>
0.0000

> <Gold.PLP.part.buried>
0.4726

> <Gold.PLP.part.nonpolar>
-29.6716

> <Gold.PLP.part.repulsive>
0.4210

> <Gold.PLP.ligand.clash>
0.0000

> <Gold.PLP.ligand.torsion>
1.1730

> <Gold.PLP.Chemscore.Hbond>
3.8870

> <Gold.PLP.Chemscore.CHOScore>
0.0000

> <Gold.PLP.Chemscore.Metal>
0.0000

> <Gold.Chemscore.Hbonds>
donor molecule, donor type, donor heavy atom, donor atom, acceptor molecule, acceptor atom, score
      L1  H    12    29       P1  7948  0.91
      L1  H    15    46       P1  7948  2.00
      P1  H  7997  8009       L1     4  1.00

> <Gold.PLP.Chemscore.Internal.Correction>
0.0598

> <Gold.Rescore>
     Score         DG    S(hbond)    S(metal)    S(lipo)     H(rot)  DE(clash)    DE(int)     intcor
     16.08     -18.68       2.69        0.00      73.48       1.71       0.25       2.34       ----

> <Gold.Chemscore.Fitness>
16.0822

> <Gold.Chemscore.DG>
-18.6754

> <Gold.Chemscore.ZeroCoef>
-5.4800

> <Gold.Chemscore.Hbond>
2.6879

> <Gold.Chemscore.Metal>
0.0000

> <Gold.Chemscore.Lipo>
73.4806

> <Gold.Chemscore.Internal_Hbond>
0.0000

> <Gold.Chemscore.DEClash>
0.2489

> <Gold.Chemscore.DEInternal>
2.3443

> <Gold.Chemscore.Rot>
1.7107

> <Gold.Chemscore.Internal.Correction>
   9.000000E+99

> <Gold.Chemscore.Hbonds>
donor molecule, donor type, donor heavy atom, donor atom, acceptor molecule, acceptor atom, score
      L1  H    12    29       P1  7948  0.89
      L1  H    15    46       P1  7948  1.00
      P1  H  7997  8009       L1     4  0.67

> <Gold.Chemscore.Hbond.Weighted>
-8.9776

> <Gold.Chemscore.Metal.Weighted>
-0.0000

> <Gold.Chemscore.Lipo.Weighted>
-8.5972

> <Gold.Chemscore.Internal_Hbond.Weighted>
0.0000

> <Gold.Chemscore.DEClash.Weighted>
0.2489

> <Gold.Chemscore.DEInternal.Weighted>
2.3443

> <Gold.Chemscore.Rot.Weighted>
4.3794

> <Gold.Chemscore.Internal.Correction.Weighted>
   9.000000E+99

> <Gold.Protein.RotatedTorsions>
[ 6907 6896 6895 6894 ] final   75.59 input  -60.11 | X-H torsion
[ 7974 7965 7964 7962 ] final  157.71 input  175.53 | X-H torsion
[ 8008 7997 7996 7995 ] final -161.25 input   59.86 | X-H torsion
[ 10167 10162 10161 10158 ] final   27.50 input  -65.29 | X-H torsion
[ 10718 10713 10712 10709 ] final -138.79 input   66.30 | X-H torsion
[ 10763 10752 10751 10750 ] final   85.77 input  -60.55 | X-H torsion
[ 11005 11000 10999 10996 ] final  152.27 input  -57.11 | X-H torsion

> <Gold.Protein.ActiveResidues>
 VAL166  LYS551  ARG553  GLY616  TRP617  ASP618  TYR619  PRO620  LYS621  CYS622 
 ASP623  PHE694  ASN695  SER759  ASP760  ASP761  ALA762  ILE779  LEU786  VAL792 
 PHE793  MET794  SER795  GLU796  ALA797  LYS798  CYS799  TRP800  GLU811  SER814 

> <Gold.Protein.RotatedAtoms>
  152.5033  134.4097  159.9444 H   0  0  0  0  0  0  0  0  0  0  0  0  # atno 6907 bound_to 6896
  151.4064  133.3735  159.2746 H   0  0  0  0  0  0  0  0  0  0  0  0  # atno 6908 bound_to 6896
  150.9323  134.8759  159.7619 H   0  0  0  0  0  0  0  0  0  0  0  0  # atno 6909 bound_to 6896
  144.7887  139.7378  143.6230 H   0  0  0  0  0  0  0  0  0  0  0  0  # atno 7974 bound_to 7965
  155.7894  140.0876  157.2017 H   0  0  0  0  0  0  0  0  0  0  0  0  # atno 8008 bound_to 7997
  154.3986  140.1493  156.3203 H   0  0  0  0  0  0  0  0  0  0  0  0  # atno 8009 bound_to 7997
  155.8574  140.3432  155.5736 H   0  0  0  0  0  0  0  0  0  0  0  0  # atno 8010 bound_to 7997
  140.4933  144.0433  150.6305 H   0  0  0  0  0  0  0  0  0  0  0  0  # atno 10167 bound_to 10162
  156.3033  130.7441  151.1498 H   0  0  0  0  0  0  0  0  0  0  0  0  # atno 10718 bound_to 10713
  153.1506  135.4605  154.9631 H   0  0  0  0  0  0  0  0  0  0  0  0  # atno 10763 bound_to 10752
  154.7822  135.3192  154.7968 H   0  0  0  0  0  0  0  0  0  0  0  0  # atno 10764 bound_to 10752
  153.8474  135.6924  153.4850 H   0  0  0  0  0  0  0  0  0  0  0  0  # atno 10765 bound_to 10752
  140.1292  134.8813  157.2181 H   0  0  0  0  0  0  0  0  0  0  0  0  # atno 11005 bound_to 11000
  146.2130  139.5500  142.9668 LP  0  0  0  0  0  0  0  0  0  0  0  0  # atno 17320 bound_to 7965
  145.5851  141.0377  143.2100 LP  0  0  0  0  0  0  0  0  0  0  0  0  # atno 17321 bound_to 7965
  140.3708  143.2856  152.0280 LP  0  0  0  0  0  0  0  0  0  0  0  0  # atno 17342 bound_to 10162
  139.4856  144.6231  151.7216 LP  0  0  0  0  0  0  0  0  0  0  0  0  # atno 17343 bound_to 10162
  157.7373  131.0553  150.5361 LP  0  0  0  0  0  0  0  0  0  0  0  0  # atno 17370 bound_to 10713
  156.5491  130.4227  149.6116 LP  0  0  0  0  0  0  0  0  0  0  0  0  # atno 17371 bound_to 10713
  140.2864  134.3291  155.7328 LP  0  0  0  0  0  0  0  0  0  0  0  0  # atno 17394 bound_to 11000
  141.2167  133.7508  156.9439 LP  0  0  0  0  0  0  0  0  0  0  0  0  # atno 17395 bound_to 11000

$$$$
