AV-unprocessed.smi:287|AV-procd|sdf|2184|dock7
  -GOLD-   2262021563D 1   1.00000     0.00000
 Structure written by MMmdl.
 55 58  0  0  0  0  0  0  0  0  1 V2000
  151.4051  142.9766  157.6303 C   0  0  0  0  0  0  0  0  0  0  0  0
  150.9346  141.7147  156.9913 C   0  0  0  0  0  0  0  0  0  0  0  0
  150.3293  141.4266  155.8029 C   0  0  0  0  0  0  0  0  0  0  0  0
  150.1269  140.0148  155.7584 C   0  0  0  0  0  0  0  0  0  0  0  0
  149.4852  139.2432  154.6127 C   0  0  2  0  0  0  0  0  0  0  0  0
  150.5181  138.3026  153.9692 C   0  0  0  0  0  0  0  0  0  0  0  0
  149.0425  140.0808  153.5624 O   0  0  0  0  0  0  0  0  0  0  0  0
  148.2485  138.4386  155.0718 C   0  0  0  0  0  0  0  0  0  0  0  0
  147.4276  137.9768  153.9598 N   0  0  0  0  0  0  0  0  0  0  0  0
  146.9463  136.7167  153.9272 C   0  0  0  0  0  0  0  0  0  0  0  0
  147.2363  135.9544  155.0088 N   0  0  0  0  0  0  0  0  0  0  0  0
  146.8109  134.6898  155.0744 C   0  0  0  0  0  0  0  0  0  0  0  0
  146.0938  134.0037  154.1827 N   0  0  0  0  0  0  0  0  0  0  0  0
  145.7946  134.7666  153.0917 C   0  0  0  0  0  0  0  0  0  0  0  0
  146.1780  136.1222  152.8824 C   0  0  0  0  0  0  0  0  0  0  0  0
  145.6855  136.5507  151.6538 N   0  0  0  0  0  0  0  0  0  0  0  0
  145.0583  135.5115  151.1739 C   0  0  0  0  0  0  0  0  0  0  0  0
  145.0792  134.3918  151.9759 N   0  0  0  0  0  0  0  0  0  0  0  0
  144.4691  133.0450  151.7372 C   0  0  1  0  0  0  0  0  0  0  0  0
  143.5772  133.1717  150.6695 O   0  0  0  0  0  0  0  0  0  0  0  0
  143.9361  132.3035  149.5945 C   0  0  1  0  0  0  0  0  0  0  0  0
  143.5694  132.9253  148.2352 C   0  0  0  0  0  0  0  0  0  0  0  0
  143.5104  134.3311  148.3455 O   0  0  0  0  0  0  0  0  0  0  0  0
  145.4274  132.0062  149.8088 C   0  0  1  0  0  0  0  0  0  0  0  0
  146.2458  133.0005  149.2151 O   0  0  0  0  0  0  0  0  0  0  0  0
  145.5238  131.9999  151.3276 C   0  0  1  0  0  0  0  0  0  0  0  0
  146.8398  132.2293  151.8030 O   0  0  0  0  0  0  0  0  0  0  0  0
  150.6331  139.5506  156.9492 C   0  0  0  0  0  0  0  0  0  0  0  0
  150.7552  138.1977  157.5695 C   0  0  0  0  0  0  0  0  0  0  0  0
  151.1240  140.5748  157.7016 O   0  0  0  0  0  0  0  0  0  0  0  0
  143.9491  132.8068  152.6658 H   0  0  0  0  0  0  0  0  0  0  0  0
  143.3927  131.3669  149.7330 H   0  0  0  0  0  0  0  0  0  0  0  0
  145.7102  131.0417  149.3860 H   0  0  0  0  0  0  0  0  0  0  0  0
  145.1803  131.0343  151.7011 H   0  0  0  0  0  0  0  0  0  0  0  0
  151.4720  143.7817  156.8983 H   0  0  0  0  0  0  0  0  0  0  0  0
  152.3915  142.8424  158.0748 H   0  0  0  0  0  0  0  0  0  0  0  0
  150.7186  143.2904  158.4166 H   0  0  0  0  0  0  0  0  0  0  0  0
  150.0635  142.1480  155.0443 H   0  0  0  0  0  0  0  0  0  0  0  0
  150.8956  137.5754  154.6889 H   0  0  0  0  0  0  0  0  0  0  0  0
  151.3749  138.8577  153.5845 H   0  0  0  0  0  0  0  0  0  0  0  0
  150.0865  137.7431  153.1382 H   0  0  0  0  0  0  0  0  0  0  0  0
  149.4266  139.7769  152.7543 H   0  0  0  0  0  0  0  0  0  0  0  0
  148.5446  137.5991  155.7024 H   0  0  0  0  0  0  0  0  0  0  0  0
  147.6218  139.0899  155.6826 H   0  0  0  0  0  0  0  0  0  0  0  0
  147.2121  138.6707  153.2584 H   0  0  0  0  0  0  0  0  0  0  0  0
  147.0853  134.1506  155.9691 H   0  0  0  0  0  0  0  0  0  0  0  0
  144.5626  135.5367  150.2146 H   0  0  0  0  0  0  0  0  0  0  0  0
  144.2795  132.6369  147.4598 H   0  0  0  0  0  0  0  0  0  0  0  0
  142.5837  132.5832  147.9184 H   0  0  0  0  0  0  0  0  0  0  0  0
  144.3010  134.6944  147.9769 H   0  0  0  0  0  0  0  0  0  0  0  0
  145.6860  133.6063  148.7530 H   0  0  0  0  0  0  0  0  0  0  0  0
  147.4462  131.7842  151.2303 H   0  0  0  0  0  0  0  0  0  0  0  0
  149.7741  137.7379  157.6883 H   0  0  0  0  0  0  0  0  0  0  0  0
  151.2200  138.2543  158.5541 H   0  0  0  0  0  0  0  0  0  0  0  0
  151.3652  137.5419  156.9484 H   0  0  0  0  0  0  0  0  0  0  0  0
  1  2  1  0  0  0  0
  1 35  1  0  0  0  0
  1 36  1  0  0  0  0
  1 37  1  0  0  0  0
  2 30  1  0  0  0  0
  2  3  2  0  0  0  0
  3  4  1  0  0  0  0
  3 38  1  0  0  0  0
  4  5  1  0  0  0  0
  4 28  2  0  0  0  0
  5  6  1  0  0  0  0
  5  7  1  0  0  0  0
  5  8  1  0  0  0  0
  6 39  1  0  0  0  0
  6 40  1  0  0  0  0
  6 41  1  0  0  0  0
  7 42  1  0  0  0  0
  8  9  1  0  0  0  0
  8 43  1  0  0  0  0
  8 44  1  0  0  0  0
  9 10  1  0  0  0  0
  9 45  1  0  0  0  0
 10 15  1  0  0  0  0
 10 11  2  0  0  0  0
 11 12  1  0  0  0  0
 12 13  2  0  0  0  0
 12 46  1  0  0  0  0
 13 14  1  0  0  0  0
 14 18  1  0  0  0  0
 14 15  2  0  0  0  0
 15 16  1  0  0  0  0
 16 17  2  0  0  0  0
 17 18  1  0  0  0  0
 17 47  1  0  0  0  0
 18 19  1  0  0  0  0
 19 31  1  0  0  0  0
 19 26  1  0  0  0  0
 19 20  1  0  0  0  0
 20 21  1  0  0  0  0
 21 32  1  0  0  0  0
 21 22  1  0  0  0  0
 21 24  1  0  0  0  0
 22 23  1  0  0  0  0
 22 48  1  0  0  0  0
 22 49  1  0  0  0  0
 23 50  1  0  0  0  0
 24 33  1  0  0  0  0
 24 25  1  0  0  0  0
 24 26  1  0  0  0  0
 25 51  1  0  0  0  0
 26 34  1  0  0  0  0
 26 27  1  0  0  0  0
 27 52  1  0  0  0  0
 28 29  1  0  0  0  0
 28 30  1  0  0  0  0
 29 53  1  0  0  0  0
 29 54  1  0  0  0  0
 29 55  1  0  0  0  0
M  END
> <s_m_source_file>
AV-unprocessed.smi

> <i_m_source_file_index>
287

> <i_lp_mmshare_version>
43012

> <i_f3d_flags>
0

> <s_epik_input>
W0NIM11jMVtjSF1jKGMobzEpW0NIM10pW0NAQF0oW0NIM10pKFtPSF0pW0NIMl1bTkhdYyhuW2NIXW4yKWMoYzIzKW5bY0hdbjNbQ0BASF00T1tDQEhdKFtDSDJdW09IXSlbQ0BASF0oW09IXSlbQ0BIXTRbT0hd

> <s_epik_cmdline>
J2VwaWtfcHl0aG9uJywgJy1waCcsICc3LjAnLCAnLXRuJywgJzgnLCAnLW1hJywgJzIwMCcsICctbWV0YWxfYmluZGluZycsICctaW1hZScsICc8aW5maWxlLm1hZT4nLCAnLW9tYWUnLCAnPG91dGZpbGUubWFlPic=

> <r_lp_tautomer_probability>
1

> <r_epik_Ionization_Penalty>
0.000992612

> <r_epik_Ionization_Penalty_Charging>
0

> <r_epik_Ionization_Penalty_Neutral>
0.000992612

> <r_epik_State_Penalty>
-0

> <r_epik_Charging_Adjusted_Penalty>
0

> <i_epik_Tot_Q>
0

> <i_epik_Tot_abs_Q>
0

> <r_epik_Metal_State_Penalty>
-0

> <b_epik_Metal_Only>
0

> <s_epik_Chemistry_Notes>
This compound contains an acetal/aminal-like group ( X-CH(R)-Y where X, Y are N, S, or O) that may be acid/base labile, releasing an aldehyde.

> <s_lp_Force_Field>
OPLS_2005

> <r_lp_Energy>
46.5399

> <b_lp_Chiralities_Consistent>
1

> <s_lp_Variant>
AV-unprocessed.smi:287-8

> <Gold.Version>
5.8.1

> <Gold.Id.Protein>
6NUR|6NUR_protein|mol2

> <Gold.PLP.Fitness>
52.5599

> <Gold.PLP.PLP>
-41.1431

> <Gold.PLP.part.hbond>
-6.5862

> <Gold.PLP.part.metal>
0.0000

> <Gold.PLP.part.buried>
-0.4493

> <Gold.PLP.part.nonpolar>
-35.6150

> <Gold.PLP.part.repulsive>
0.9342

> <Gold.PLP.ligand.clash>
0.0000

> <Gold.PLP.ligand.torsion>
1.1659

> <Gold.PLP.Chemscore.Hbond>
4.3149

> <Gold.PLP.Chemscore.CHOScore>
0.0000

> <Gold.PLP.Chemscore.Metal>
0.0000

> <Gold.Chemscore.Hbonds>
donor molecule, donor type, donor heavy atom, donor atom, acceptor molecule, acceptor atom, score
      L1  H     7    42       P1  7957  0.93
      L1  H    23    50       P1  7921  1.00
      L1  H    25    51       P1  7921  0.46
      L1  H    27    52       P1 10747  1.00
      P1  H 10192 10197       L1    23  0.86

> <Gold.PLP.Chemscore.Internal.Correction>
0.8040

> <Gold.Rescore>
     Score         DG    S(hbond)    S(metal)    S(lipo)     H(rot)  DE(clash)    DE(int)     intcor
     10.80     -14.95       3.28        0.00     102.40       5.27       2.31       1.83       ----

> <Gold.Chemscore.Fitness>
10.8004

> <Gold.Chemscore.DG>
-14.9454

> <Gold.Chemscore.ZeroCoef>
-5.4800

> <Gold.Chemscore.Hbond>
3.2838

> <Gold.Chemscore.Metal>
0.0000

> <Gold.Chemscore.Lipo>
102.4049

> <Gold.Chemscore.Internal_Hbond>
0.0000

> <Gold.Chemscore.DEClash>
2.3119

> <Gold.Chemscore.DEInternal>
1.8331

> <Gold.Chemscore.Rot>
5.2672

> <Gold.Chemscore.Internal.Correction>
   9.000000E+99

> <Gold.Chemscore.Hbonds>
donor molecule, donor type, donor heavy atom, donor atom, acceptor molecule, acceptor atom, score
      L1  H     7    42       P1  7957  0.90
      L1  H    23    50       P1  7921  0.99
      L1  H    25    51       P1  7921  0.08
      L1  H    27    52       P1 10747  0.93
      P1  H 10192 10197       L1    23  0.28

> <Gold.Chemscore.Hbond.Weighted>
-10.9680

> <Gold.Chemscore.Metal.Weighted>
-0.0000

> <Gold.Chemscore.Lipo.Weighted>
-11.9814

> <Gold.Chemscore.Internal_Hbond.Weighted>
0.0000

> <Gold.Chemscore.DEClash.Weighted>
2.3119

> <Gold.Chemscore.DEInternal.Weighted>
1.8331

> <Gold.Chemscore.Rot.Weighted>
13.4839

> <Gold.Chemscore.Internal.Correction.Weighted>
   9.000000E+99

> <Gold.Protein.RotatedTorsions>
[ 6907 6896 6895 6894 ] final   51.40 input  -60.11 | X-H torsion
[ 7974 7965 7964 7962 ] final   48.15 input  175.53 | X-H torsion
[ 8008 7997 7996 7995 ] final  -88.10 input   59.86 | X-H torsion
[ 10167 10162 10161 10158 ] final   51.68 input  -65.29 | X-H torsion
[ 10718 10713 10712 10709 ] final    5.11 input   66.30 | X-H torsion
[ 10763 10752 10751 10750 ] final   83.28 input  -60.55 | X-H torsion
[ 11005 11000 10999 10996 ] final   55.80 input  -57.11 | X-H torsion

> <Gold.Protein.ActiveResidues>
 VAL166  LYS551  ARG553  GLY616  TRP617  ASP618  TYR619  PRO620  LYS621  CYS622 
 ASP623  PHE694  ASN695  SER759  ASP760  ASP761  ALA762  ILE779  LEU786  VAL792 
 PHE793  MET794  SER795  GLU796  ALA797  LYS798  CYS799  TRP800  GLU811  SER814 

> <Gold.Protein.RotatedAtoms>
  152.3123  134.7483  160.0333 H   0  0  0  0  0  0  0  0  0  0  0  0  # atno 6907 bound_to 6896
  151.7959  133.3359  159.3521 H   0  0  0  0  0  0  0  0  0  0  0  0  # atno 6908 bound_to 6896
  150.7326  134.5729  159.5944 H   0  0  0  0  0  0  0  0  0  0  0  0  # atno 6909 bound_to 6896
  146.0231  139.4675  142.9884 H   0  0  0  0  0  0  0  0  0  0  0  0  # atno 7974 bound_to 7965
  154.6709  140.0557  157.0164 H   0  0  0  0  0  0  0  0  0  0  0  0  # atno 8008 bound_to 7997
  155.1090  140.3236  155.4508 H   0  0  0  0  0  0  0  0  0  0  0  0  # atno 8009 bound_to 7997
  156.2657  140.2017  156.6215 H   0  0  0  0  0  0  0  0  0  0  0  0  # atno 8010 bound_to 7997
  140.2594  144.3390  150.6323 H   0  0  0  0  0  0  0  0  0  0  0  0  # atno 10167 bound_to 10162
  156.9025  130.5727  149.5648 H   0  0  0  0  0  0  0  0  0  0  0  0  # atno 10718 bound_to 10713
  153.1277  135.4697  154.9298 H   0  0  0  0  0  0  0  0  0  0  0  0  # atno 10763 bound_to 10752
  154.7635  135.3138  154.8334 H   0  0  0  0  0  0  0  0  0  0  0  0  # atno 10764 bound_to 10752
  153.8884  135.6887  153.4816 H   0  0  0  0  0  0  0  0  0  0  0  0  # atno 10765 bound_to 10752
  140.0578  134.5645  155.9187 H   0  0  0  0  0  0  0  0  0  0  0  0  # atno 11005 bound_to 11000
  145.7161  141.0090  143.1427 LP  0  0  0  0  0  0  0  0  0  0  0  0  # atno 17320 bound_to 7965
  144.6998  139.8815  143.7447 LP  0  0  0  0  0  0  0  0  0  0  0  0  # atno 17321 bound_to 7965
  140.5978  143.2167  151.7130 LP  0  0  0  0  0  0  0  0  0  0  0  0  # atno 17342 bound_to 10162
  139.5021  144.3840  152.0347 LP  0  0  0  0  0  0  0  0  0  0  0  0  # atno 17343 bound_to 10162
  156.0575  130.5634  150.9122 LP  0  0  0  0  0  0  0  0  0  0  0  0  # atno 17370 bound_to 10713
  157.6017  131.0941  150.8948 LP  0  0  0  0  0  0  0  0  0  0  0  0  # atno 17371 bound_to 10713
  141.1960  133.6589  156.5669 LP  0  0  0  0  0  0  0  0  0  0  0  0  # atno 17394 bound_to 11000
  140.3816  134.7518  157.4665 LP  0  0  0  0  0  0  0  0  0  0  0  0  # atno 17395 bound_to 11000

$$$$
