AV-unprocessed.smi:2226|AV-procd|sdf|9005|dock7
  -GOLD-   2272012213D 1   1.00000     0.00000
 Structure written by MMmdl.
 41 43  0  0  0  0  0  0  0  0  3 V2000
  143.2547  132.4613  151.3822 C   0  0  0  0  0  0  0  0  0  0  0  0
  144.0586  133.2545  152.3427 N   0  3  2  0  0  0  0  0  0  0  0  0
  143.6922  134.6886  152.4256 C   0  0  2  0  0  0  0  0  0  0  0  0
  144.1017  135.4533  151.1416 C   0  0  0  0  0  0  0  0  0  0  0  0
  145.5693  135.2458  150.7253 C   0  0  0  0  0  0  0  0  0  0  0  0
  146.0314  133.7878  150.8933 C   0  0  0  0  0  0  0  0  0  0  0  0
  145.5266  133.1124  152.1925 C   0  0  1  0  0  0  0  0  0  0  0  0
  146.2180  133.5912  153.4906 C   0  0  0  0  0  0  0  0  0  0  0  0
  145.7291  134.9540  154.0573 C   0  0  1  0  0  0  0  0  0  0  0  0
  146.6050  136.0732  153.7137 N   0  0  0  0  0  0  0  0  0  0  0  0
  146.3967  137.3589  154.0388 C   0  0  0  0  0  0  0  0  0  0  0  0
  145.4300  137.7482  154.6943 O   0  0  0  0  0  0  0  0  0  0  0  0
  147.3665  138.1544  153.5624 N   0  0  0  0  0  0  0  0  0  0  0  0
  147.4535  139.5525  153.7537 C   0  0  0  0  0  0  0  0  0  0  0  0
  146.4546  140.4008  153.5153 N   0  3  0  0  0  0  0  0  0  0  0  0
  146.8806  141.6742  153.8014 C   0  0  0  0  0  0  0  0  0  0  0  0
  148.1829  141.5470  154.2214 C   0  0  0  0  0  0  0  0  0  0  0  0
  148.5575  140.2185  154.1971 O   0  0  0  0  0  0  0  0  0  0  0  0
  144.2447  135.2756  153.7456 C   0  0  0  0  0  0  0  0  0  0  0  0
  143.3983  132.7869  150.3522 H   0  0  0  0  0  0  0  0  0  0  0  0
  142.1932  132.5441  151.6168 H   0  0  0  0  0  0  0  0  0  0  0  0
  143.5232  131.4062  151.4426 H   0  0  0  0  0  0  0  0  0  0  0  0
  142.6052  134.7493  152.4977 H   0  0  0  0  0  0  0  0  0  0  0  0
  143.4638  135.1239  150.3209 H   0  0  0  0  0  0  0  0  0  0  0  0
  143.8961  136.5181  151.2561 H   0  0  0  0  0  0  0  0  0  0  0  0
  145.6979  135.5496  149.6860 H   0  0  0  0  0  0  0  0  0  0  0  0
  146.2188  135.9118  151.2827 H   0  0  0  0  0  0  0  0  0  0  0  0
  145.6741  133.2138  150.0380 H   0  0  0  0  0  0  0  0  0  0  0  0
  147.1194  133.7360  150.8411 H   0  0  0  0  0  0  0  0  0  0  0  0
  145.7487  132.0478  152.1036 H   0  0  0  0  0  0  0  0  0  0  0  0
  146.0105  132.8387  154.2532 H   0  0  0  0  0  0  0  0  0  0  0  0
  147.3017  133.5733  153.3704 H   0  0  0  0  0  0  0  0  0  0  0  0
  145.7936  134.8814  155.1451 H   0  0  0  0  0  0  0  0  0  0  0  0
  147.4274  135.8498  153.1720 H   0  0  0  0  0  0  0  0  0  0  0  0
  145.5236  140.1855  153.1806 H   0  0  0  0  0  0  0  0  0  0  0  0
  146.2282  142.5272  153.6798 H   0  0  0  0  0  0  0  0  0  0  0  0
  148.9332  142.2512  154.5507 H   0  0  0  0  0  0  0  0  0  0  0  0
  144.0584  136.3495  153.7948 H   0  0  0  0  0  0  0  0  0  0  0  0
  143.6483  134.8501  154.5542 H   0  0  0  0  0  0  0  0  0  0  0  0
  143.8361  132.8613  153.2462 H   0  0  0  0  0  0  0  0  0  0  0  0
  148.1056  137.7261  153.0249 H   0  0  0  0  0  0  0  0  0  0  0  0
  1  2  1  0  0  0  0
  1 20  1  0  0  0  0
  1 21  1  0  0  0  0
  1 22  1  0  0  0  0
  2  7  1  0  0  0  0
  2  3  1  0  0  0  0
  2 40  1  0  0  0  0
  3 19  1  0  0  0  0
  3  4  1  0  0  0  0
  3 23  1  0  0  0  0
  4  5  1  0  0  0  0
  4 24  1  0  0  0  0
  4 25  1  0  0  0  0
  5  6  1  0  0  0  0
  5 26  1  0  0  0  0
  5 27  1  0  0  0  0
  6  7  1  0  0  0  0
  6 28  1  0  0  0  0
  6 29  1  0  0  0  0
  7  8  1  0  0  0  0
  7 30  1  0  0  0  0
  8  9  1  0  0  0  0
  8 31  1  0  0  0  0
  8 32  1  0  0  0  0
  9 10  1  0  0  0  0
  9 19  1  0  0  0  0
  9 33  1  0  0  0  0
 10 34  1  0  0  0  0
 10 11  1  0  0  0  0
 11 13  1  0  0  0  0
 11 12  2  0  0  0  0
 13 14  1  0  0  0  0
 13 41  1  0  0  0  0
 14 18  1  0  0  0  0
 14 15  2  0  0  0  0
 15 35  1  0  0  0  0
 15 16  1  0  0  0  0
 16 36  1  0  0  0  0
 16 17  2  0  0  0  0
 17 37  1  0  0  0  0
 17 18  1  0  0  0  0
 19 38  1  0  0  0  0
 19 39  1  0  0  0  0
M  CHG  1   2   1
M  CHG  1  15   1
M  END
> <s_m_source_file>
AV-unprocessed.smi

> <i_m_source_file_index>
2226

> <i_lp_mmshare_version>
43012

> <i_f3d_flags>
0

> <s_epik_input>
W0NIMl0xW0NIMl1bQ0gyXVtDQEhdKE4oW0NIM10pW0NIXTEyKVtDSDJdW0NASF0oW0NIMl0yKVtOSF1DKD1PKVtOSF1jM25bY0hdW2NIXW8z

> <s_epik_cmdline>
J2VwaWtfcHl0aG9uJywgJy1waCcsICc3LjAnLCAnLXRuJywgJzgnLCAnLW1hJywgJzIwMCcsICctbWV0YWxfYmluZGluZycsICctaW1hZScsICc8aW5maWxlLm1hZT4nLCAnLW9tYWUnLCAnPG91dGZpbGUubWFlPic=

> <r_epik_Ionization_Penalty>
6.92532

> <r_epik_Ionization_Penalty_Charging>
6.82059

> <r_epik_Ionization_Penalty_Neutral>
0.104727

> <r_epik_State_Penalty>
2.17671

> <r_epik_Charging_Adjusted_Penalty>
8.99731

> <i_epik_Tot_Q>
2

> <i_epik_Tot_abs_Q>
2

> <r_epik_Metal_State_Penalty>
2.20618

> <b_epik_Metal_Only>
0

> <s_lp_Force_Field>
OPLS_2005

> <r_lp_Energy>
47.9723

> <b_lp_Chiralities_Consistent>
1

> <s_lp_Variant>
AV-unprocessed.smi:2226-5

> <Gold.Version>
5.8.1

> <Gold.Id.Protein>
6NUR|6NUR_protein|mol2

> <Gold.PLP.Fitness>
42.5238

> <Gold.PLP.PLP>
-26.6799

> <Gold.PLP.part.hbond>
-3.5200

> <Gold.PLP.part.metal>
0.0000

> <Gold.PLP.part.buried>
-5.5583

> <Gold.PLP.part.nonpolar>
-19.7093

> <Gold.PLP.part.repulsive>
0.2216

> <Gold.PLP.ligand.clash>
0.0000

> <Gold.PLP.ligand.torsion>
0.5218

> <Gold.PLP.Chemscore.Hbond>
5.0313

> <Gold.PLP.Chemscore.CHOScore>
0.5791

> <Gold.PLP.Chemscore.Metal>
0.0000

> <Gold.Chemscore.Hbonds>
donor molecule, donor type, donor heavy atom, donor atom, acceptor molecule, acceptor atom, score
      L1  H     2    40       P1 10957  1.11
      L1  H    10    34       P1  7948  0.98
      L1  H    13    41       P1  7948  0.91
      L1  H    15    35       P1 10175  2.00
      L1  C    17    37       P1  8028  0.60

> <Gold.PLP.Chemscore.Internal.Correction>
0.0566

> <Gold.Rescore>
     Score         DG    S(hbond)    S(metal)    S(lipo)     H(rot)  DE(clash)    DE(int)     intcor
     18.40     -20.77       3.34        0.00      57.14       1.00       0.63       1.74       ----

> <Gold.Chemscore.Fitness>
18.3983

> <Gold.Chemscore.DG>
-20.7688

> <Gold.Chemscore.ZeroCoef>
-5.4800

> <Gold.Chemscore.Hbond>
3.3424

> <Gold.Chemscore.Metal>
0.0000

> <Gold.Chemscore.Lipo>
57.1391

> <Gold.Chemscore.Internal_Hbond>
0.0000

> <Gold.Chemscore.DEClash>
0.6284

> <Gold.Chemscore.DEInternal>
1.7422

> <Gold.Chemscore.Rot>
1.0000

> <Gold.Chemscore.Internal.Correction>
   9.000000E+99

> <Gold.Chemscore.Hbonds>
donor molecule, donor type, donor heavy atom, donor atom, acceptor molecule, acceptor atom, score
      L1  H     2    40       P1 10957  0.30
      L1  H    10    34       P1  7948  0.90
      L1  H    13    41       P1  7948  0.87
      L1  H    15    35       P1 10175  0.95

> <Gold.Chemscore.Hbond.Weighted>
-11.1636

> <Gold.Chemscore.Metal.Weighted>
-0.0000

> <Gold.Chemscore.Lipo.Weighted>
-6.6853

> <Gold.Chemscore.Internal_Hbond.Weighted>
0.0000

> <Gold.Chemscore.DEClash.Weighted>
0.6284

> <Gold.Chemscore.DEInternal.Weighted>
1.7422

> <Gold.Chemscore.Rot.Weighted>
2.5600

> <Gold.Chemscore.Internal.Correction.Weighted>
   9.000000E+99

> <Gold.Protein.RotatedTorsions>
[ 6907 6896 6895 6894 ] final -119.57 input  -60.11 | X-H torsion
[ 7974 7965 7964 7962 ] final   70.67 input  175.53 | X-H torsion
[ 8008 7997 7996 7995 ] final  104.59 input   59.86 | X-H torsion
[ 10167 10162 10161 10158 ] final  -58.18 input  -65.29 | X-H torsion
[ 10718 10713 10712 10709 ] final  151.68 input   66.30 | X-H torsion
[ 10763 10752 10751 10750 ] final  -88.51 input  -60.55 | X-H torsion
[ 11005 11000 10999 10996 ] final   29.93 input  -57.11 | X-H torsion

> <Gold.Protein.ActiveResidues>
 VAL166  LYS551  ARG553  GLY616  TRP617  ASP618  TYR619  PRO620  LYS621  CYS622 
 ASP623  PHE694  ASN695  SER759  ASP760  ASP761  ALA762  ILE779  LEU786  VAL792 
 PHE793  MET794  SER795  GLU796  ALA797  LYS798  CYS799  TRP800  GLU811  SER814 

> <Gold.Protein.RotatedAtoms>
  150.8316  133.8081  159.3095 H   0  0  0  0  0  0  0  0  0  0  0  0  # atno 6907 bound_to 6896
  151.5809  135.1057  160.0026 H   0  0  0  0  0  0  0  0  0  0  0  0  # atno 6908 bound_to 6896
  152.4395  133.7380  159.6681 H   0  0  0  0  0  0  0  0  0  0  0  0  # atno 6909 bound_to 6896
  145.7753  139.2862  143.1297 H   0  0  0  0  0  0  0  0  0  0  0  0  # atno 7974 bound_to 7965
  156.1586  140.3145  155.8768 H   0  0  0  0  0  0  0  0  0  0  0  0  # atno 8008 bound_to 7997
  155.3828  140.0489  157.3060 H   0  0  0  0  0  0  0  0  0  0  0  0  # atno 8009 bound_to 7997
  154.5124  140.2169  155.9141 H   0  0  0  0  0  0  0  0  0  0  0  0  # atno 8010 bound_to 7997
  140.6213  143.2420  151.5474 H   0  0  0  0  0  0  0  0  0  0  0  0  # atno 10167 bound_to 10162
  157.2675  131.0810  151.1623 H   0  0  0  0  0  0  0  0  0  0  0  0  # atno 10718 bound_to 10713
  154.6453  135.5374  153.7838 H   0  0  0  0  0  0  0  0  0  0  0  0  # atno 10763 bound_to 10752
  153.0356  135.6469  154.1098 H   0  0  0  0  0  0  0  0  0  0  0  0  # atno 10764 bound_to 10752
  154.1019  135.2932  155.3229 H   0  0  0  0  0  0  0  0  0  0  0  0  # atno 10765 bound_to 10752
  140.2998  134.2770  155.7756 H   0  0  0  0  0  0  0  0  0  0  0  0  # atno 11005 bound_to 11000
  146.0129  140.8419  142.9962 LP  0  0  0  0  0  0  0  0  0  0  0  0  # atno 17320 bound_to 7965
  144.6805  140.2515  143.7331 LP  0  0  0  0  0  0  0  0  0  0  0  0  # atno 17321 bound_to 7965
  139.5441  144.2569  152.1408 LP  0  0  0  0  0  0  0  0  0  0  0  0  # atno 17342 bound_to 10162
  140.1789  144.4863  150.6539 LP  0  0  0  0  0  0  0  0  0  0  0  0  # atno 17343 bound_to 10162
  157.3108  130.6889  149.6214 LP  0  0  0  0  0  0  0  0  0  0  0  0  # atno 17370 bound_to 10713
  155.9663  130.4364  150.5133 LP  0  0  0  0  0  0  0  0  0  0  0  0  # atno 17371 bound_to 10713
  141.2130  133.7638  156.9749 LP  0  0  0  0  0  0  0  0  0  0  0  0  # atno 17394 bound_to 11000
  140.1120  134.9471  157.2079 LP  0  0  0  0  0  0  0  0  0  0  0  0  # atno 17395 bound_to 11000

$$$$
