#       Name:                AV-unprocessed.smi:99
#       Creating user name   scv26
#       Creation time:       Thu Mar 26 17:38:28 2020


#       File generated by GOLD software.
#

@<TRIPOS>MOLECULE
AV-unprocessed.smi:99
    65    68     1
SMALL
NO_CHARGES


@<TRIPOS>ATOM
      1 ****        -3.6842   1.0626   0.6040 O.2            1 S1                 0.0000
      2 ****        -2.8220   1.9372   0.7120 C.2            1 S1                 0.0000
      3 ****        -1.5098   1.7212   0.4939 O.3            1 S1                 0.0000
      4 ****        -1.0597   0.4330   0.1080 C.3            1 S1                 0.0000
      5 ****         0.4461   0.4922  -0.2024 C.3            1 S1                 0.0000
      6 ****         0.6178   1.1482  -1.4593 O.3            1 S1                 0.0000
      7 ****         0.9014   0.2338  -2.4845 C.3            1 S1                 0.0000
      8 ****         2.2794   0.5203  -3.0413 N.am           1 S1                 0.0000
      9 ****         3.2445   1.1490  -2.2719 C.2            1 S1                 0.0000
     10 ****         4.4792   1.3941  -2.7564 C.2            1 S1                 0.0000
     11 ****         4.8082   0.9872  -4.1191 C.2            1 S1                 0.0000
     12 ****         5.9322   1.2253  -4.5565 O.2            1 S1                 0.0000
     13 ****         3.8462   0.3542  -4.8503 N.pl3          1 S1                -1.0000
     14 ****         2.5985   0.0976  -4.3605 C.2            1 S1                 0.0000
     15 ****         1.7310  -0.4924  -5.0048 O.2            1 S1                 0.0000
     16 ****         0.8613  -1.1786  -1.8863 C.3            1 S1                 0.0000
     17 ****        -0.3944  -1.7848  -2.1286 O.3            1 S1                 0.0000
     18 ****         1.1037  -0.8726  -0.4156 C.3            1 S1                 0.0000
     19 ****         0.6641  -1.8951   0.4714 O.3            1 S1                 0.0000
     20 ****         1.4249  -2.9850   0.7069 C.2            1 S1                 0.0000
     21 ****         2.5279  -3.1753   0.1910 O.2            1 S1                 0.0000
     22 ****         0.7867  -3.9372   1.6606 C.ar           1 S1                 0.0000
     23 ****         1.4648  -5.1283   2.0099 C.ar           1 S1                 0.0000
     24 ****         0.8875  -6.0446   2.9103 C.ar           1 S1                 0.0000
     25 ****        -0.3752  -5.7806   3.4722 C.ar           1 S1                 0.0000
     26 ****        -1.0606  -4.6000   3.1316 C.ar           1 S1                 0.0000
     27 ****        -0.4850  -3.6827   2.2313 C.ar           1 S1                 0.0000
     28 ****        -3.1247   3.3468   1.0949 C.ar           1 S1                 0.0000
     29 ****        -4.4685   3.7330   1.3102 C.ar           1 S1                 0.0000
     30 ****        -4.7860   5.0571   1.6704 C.ar           1 S1                 0.0000
     31 ****        -3.7632   6.0112   1.8218 C.ar           1 S1                 0.0000
     32 ****        -2.4225   5.6396   1.6119 C.ar           1 S1                 0.0000
     33 ****        -2.1031   4.3161   1.2501 C.ar           1 S1                 0.0000
     34 ****        -1.2492  -0.2572   0.9310 H              1 S1                 0.0000
     35 ****        -1.6212   0.0769  -0.7563 H              1 S1                 0.0000
     36 ****         0.9634   1.0376   0.5875 H              1 S1                 0.0000
     37 ****         0.2065   0.3942  -3.3106 H              1 S1                 0.0000
     38 ****         3.0207   1.4494  -1.2595 H              1 S1                 0.0000
     39 ****         5.2202   1.8832  -2.1415 H              1 S1                 0.0000
     40 ****         1.6407  -1.8141  -2.3089 H              1 S1                 0.0000
     41 ****        -1.0726  -1.2039  -1.8204 H              1 S1                 0.0000
     42 ****         2.1760  -0.7228  -0.2779 H              1 S1                 0.0000
     43 ****         2.4355  -5.3519   1.5912 H              1 S1                 0.0000
     44 ****         1.4152  -6.9506   3.1699 H              1 S1                 0.0000
     45 ****        -0.8181  -6.4826   4.1633 H              1 S1                 0.0000
     46 ****        -2.0302  -4.3963   3.5614 H              1 S1                 0.0000
     47 ****        -1.0385  -2.7867   1.9912 H              1 S1                 0.0000
     48 ****        -5.2713   3.0180   1.1998 H              1 S1                 0.0000
     49 ****        -5.8158   5.3408   1.8303 H              1 S1                 0.0000
     50 ****        -4.0068   7.0264   2.0987 H              1 S1                 0.0000
     51 ****        -1.6364   6.3710   1.7285 H              1 S1                 0.0000
     52 ****        -1.0638   4.0644   1.0967 H              1 S1                 0.0000
     53 ****        -3.4238   0.1335   0.3416 LP             1 S1                 0.0000
     54 ****        -4.6440   1.2824   0.7788 LP             1 S1                 0.0000
     55 ****         1.3743   1.7980  -1.3855 LP             1 S1                 0.0000
     56 ****        -0.2229   1.6398  -1.6863 LP             1 S1                 0.0000
     57 ****         6.6044   1.6909  -3.9809 LP             1 S1                 0.0000
     58 ****         6.1742   0.9534  -5.4879 LP             1 S1                 0.0000
     59 ****         4.0640   0.0666  -5.7829 LP             1 S1                 0.0000
     60 ****         0.8335  -0.6612  -4.5973 LP             1 S1                 0.0000
     61 ****         1.9238  -0.8027  -5.9356 LP             1 S1                 0.0000
     62 ****        -0.4484  -2.6555  -1.6398 LP             1 S1                 0.0000
     63 ****        -0.5078  -1.9453  -3.1091 LP             1 S1                 0.0000
     64 ****         2.9066  -2.5006  -0.4426 LP             1 S1                 0.0000
     65 ****         3.0441  -4.0043   0.4060 LP             1 S1                 0.0000
@<TRIPOS>BOND
    1    1    2 2     
    2    2    3 1     
    3    2   28 1     
    4    3    4 1     
    5    4    5 1     
    6    4   34 1     
    7    4   35 1     
    8    5   18 1     
    9    5    6 1     
   10    5   36 1     
   11    6    7 1     
   12    7    8 1     
   13    7   16 1     
   14    7   37 1     
   15    8   14 am    
   16    8    9 1     
   17    9   10 2     
   18    9   38 1     
   19   10   11 1     
   20   10   39 1     
   21   11   12 2     
   22   11   13 1     
   23   13   14 1     
   24   14   15 2     
   25   16   17 1     
   26   16   18 1     
   27   16   40 1     
   28   17   41 1     
   29   18   19 1     
   30   18   42 1     
   31   19   20 1     
   32   20   21 2     
   33   20   22 1     
   34   22   27 ar    
   35   22   23 ar    
   36   23   24 ar    
   37   23   43 1     
   38   24   25 ar    
   39   24   44 1     
   40   25   26 ar    
   41   25   45 1     
   42   26   27 ar    
   43   26   46 1     
   44   27   47 1     
   45   28   33 ar    
   46   28   29 ar    
   47   29   30 ar    
   48   29   48 1     
   49   30   31 ar    
   50   30   49 1     
   51   31   32 ar    
   52   31   50 1     
   53   32   33 ar    
   54   32   51 1     
   55   33   52 1     
   56    1   53 1     
   57    1   54 1     
   58    6   55 1     
   59    6   56 1     
   60   12   57 1     
   61   12   58 1     
   62   13   59 1     
   63   15   60 1     
   64   15   61 1     
   65   17   62 1     
   66   17   63 1     
   67   21   64 1     
   68   21   65 1     
@<TRIPOS>SUBSTRUCTURE
      1 S1             1
@<TRIPOS>SET
LONE_PAIRS      STATIC     ATOMS    <user>   **** ""
13 53 54 55 56 57 58 59 60 61 62 63 64 65
DONOR_HYDROGENS      STATIC     ATOMS    <user>   **** ""
1 41
ATOM$BLUE        STATIC     ATOMS    COLORGROUP SYSTEM
13 53 54 55 56 57 58 59 60 61 62 63 64 65
ATOM$RED        STATIC     ATOMS    COLORGROUP SYSTEM
1 41
