AV-unprocessed.smi:3253|AV-procd|sdf|12445|dock8
  -GOLD-   2272018343D 1   1.00000     0.00000
 Structure written by MMmdl.
 37 38  0  0  0  0  0  0  0  0  2 V2000
  151.0067  139.3965  154.8161 C   0  0  0  0  0  0  0  0  0  0  0  0
  150.3485  140.4405  155.7376 C   0  0  2  0  0  0  0  0  0  0  0  0
  149.4687  141.4511  154.9748 C   0  0  0  0  0  0  0  0  0  0  0  0
  148.2808  140.8388  154.3725 N   0  0  0  0  0  0  0  0  0  0  0  0
  148.1219  139.5337  153.9816 C   0  0  0  0  0  0  0  0  0  0  0  0
  146.8523  139.4301  153.4739 C   0  0  0  0  0  0  0  0  0  0  0  0
  146.2919  140.6755  153.5731 N   0  3  0  0  0  0  0  0  0  0  0  0
  147.1633  141.5314  154.1170 C   0  0  0  0  0  0  0  0  0  0  0  0
  151.3688  141.1666  156.4889 N   0  0  0  0  0  0  0  0  0  0  0  0
  151.1534  141.8692  157.6122 C   0  0  0  0  0  0  0  0  0  0  0  0
  150.0460  141.9742  158.1405 O   0  0  0  0  0  0  0  0  0  0  0  0
  152.3771  142.5603  158.2345 C   0  0  2  0  0  0  0  0  0  0  0  0
  152.5875  142.1236  159.6988 C   0  0  0  0  0  0  0  0  0  0  0  0
  152.3006  143.3803  160.5037 C   0  0  0  0  0  0  0  0  0  0  0  0
  152.2757  143.3954  161.7333 O   0  0  0  0  0  0  0  0  0  0  0  0
  152.0792  144.4230  159.6988 N   0  0  0  0  0  0  0  0  0  0  0  0
  151.7592  145.7771  160.1292 C   0  0  0  0  0  0  0  0  0  0  0  0
  152.2221  144.0965  158.2904 C   0  0  0  0  0  0  0  0  0  0  0  0
  150.2612  138.7963  154.2946 H   0  0  0  0  0  0  0  0  0  0  0  0
  151.6322  138.7066  155.3835 H   0  0  0  0  0  0  0  0  0  0  0  0
  151.6364  139.8731  154.0642 H   0  0  0  0  0  0  0  0  0  0  0  0
  149.7080  139.9123  156.4465 H   0  0  0  0  0  0  0  0  0  0  0  0
  149.1297  142.2459  155.6414 H   0  0  0  0  0  0  0  0  0  0  0  0
  150.0383  141.9293  154.1764 H   0  0  0  0  0  0  0  0  0  0  0  0
  148.9018  138.7942  154.0933 H   0  0  0  0  0  0  0  0  0  0  0  0
  146.3201  138.5858  153.0597 H   0  0  0  0  0  0  0  0  0  0  0  0
  146.9955  142.5753  154.3140 H   0  0  0  0  0  0  0  0  0  0  0  0
  152.3113  141.1331  156.1280 H   0  0  0  0  0  0  0  0  0  0  0  0
  153.2626  142.3092  157.6476 H   0  0  0  0  0  0  0  0  0  0  0  0
  151.9304  141.3112  160.0140 H   0  0  0  0  0  0  0  0  0  0  0  0
  153.6174  141.8095  159.8712 H   0  0  0  0  0  0  0  0  0  0  0  0
  152.5397  146.1664  160.7836 H   0  0  0  0  0  0  0  0  0  0  0  0
  150.8150  145.7901  160.6746 H   0  0  0  0  0  0  0  0  0  0  0  0
  151.6668  146.4490  159.2756 H   0  0  0  0  0  0  0  0  0  0  0  0
  153.1105  144.5904  157.8942 H   0  0  0  0  0  0  0  0  0  0  0  0
  151.3631  144.4625  157.7249 H   0  0  0  0  0  0  0  0  0  0  0  0
  145.3540  140.9169  153.2779 H   0  0  0  0  0  0  0  0  0  0  0  0
  1  2  1  0  0  0  0
  1 19  1  0  0  0  0
  1 20  1  0  0  0  0
  1 21  1  0  0  0  0
  2  3  1  0  0  0  0
  2  9  1  0  0  0  0
  2 22  1  0  0  0  0
  3  4  1  0  0  0  0
  3 23  1  0  0  0  0
  3 24  1  0  0  0  0
  4  8  1  0  0  0  0
  4  5  1  0  0  0  0
  5  6  2  0  0  0  0
  5 25  1  0  0  0  0
  6  7  1  0  0  0  0
  6 26  1  0  0  0  0
  7  8  2  0  0  0  0
  7 37  1  0  0  0  0
  8 27  1  0  0  0  0
  9 10  1  0  0  0  0
  9 28  1  0  0  0  0
 10 11  2  0  0  0  0
 10 12  1  0  0  0  0
 12 18  1  0  0  0  0
 12 13  1  0  0  0  0
 12 29  1  0  0  0  0
 13 14  1  0  0  0  0
 13 30  1  0  0  0  0
 13 31  1  0  0  0  0
 14 15  2  0  0  0  0
 14 16  1  0  0  0  0
 16 17  1  0  0  0  0
 16 18  1  0  0  0  0
 17 32  1  0  0  0  0
 17 33  1  0  0  0  0
 17 34  1  0  0  0  0
 18 35  1  0  0  0  0
 18 36  1  0  0  0  0
M  CHG  1   7   1
M  END
> <s_m_source_file>
AV-unprocessed.smi

> <i_m_source_file_index>
3253

> <i_lp_mmshare_version>
43012

> <i_f3d_flags>
0

> <s_epik_input>
W2NIXTFuW2NIXVtjSF1uMVtDSDJdW0NAQEhdKFtDSDNdKVtOSF1DKD1PKVtDQEBIXTJbQ0gyXUMoPU8pTihbQ0gzXSlbQ0gyXTI=

> <s_epik_cmdline>
J2VwaWtfcHl0aG9uJywgJy1waCcsICc3LjAnLCAnLXRuJywgJzgnLCAnLW1hJywgJzIwMCcsICctbWV0YWxfYmluZGluZycsICctaW1hZScsICc8aW5maWxlLm1hZT4nLCAnLW9tYWUnLCAnPG91dGZpbGUubWFlPic=

> <r_lp_tautomer_probability>
1

> <r_epik_Ionization_Penalty>
0.251561

> <r_epik_Ionization_Penalty_Charging>
0

> <r_epik_Ionization_Penalty_Neutral>
0.251561

> <r_epik_State_Penalty>
0.242926

> <r_epik_Charging_Adjusted_Penalty>
0.242926

> <i_epik_Tot_Q>
1

> <i_epik_Tot_abs_Q>
1

> <r_epik_Metal_State_Penalty>
0.533885

> <b_epik_Metal_Only>
0

> <s_lp_Force_Field>
OPLS_2005

> <r_lp_Energy>
15.657

> <b_lp_Chiralities_Consistent>
1

> <s_lp_Variant>
AV-unprocessed.smi:3253-1

> <Gold.Version>
5.8.1

> <Gold.Id.Protein>
6NUR|6NUR_protein|mol2

> <Gold.PLP.Fitness>
47.9052

> <Gold.PLP.PLP>
-43.1310

> <Gold.PLP.part.hbond>
-1.0000

> <Gold.PLP.part.metal>
0.0000

> <Gold.PLP.part.buried>
-3.2739

> <Gold.PLP.part.nonpolar>
-38.9526

> <Gold.PLP.part.repulsive>
0.3811

> <Gold.PLP.ligand.clash>
0.0000

> <Gold.PLP.ligand.torsion>
0.6259

> <Gold.PLP.Chemscore.Hbond>
2.0000

> <Gold.PLP.Chemscore.CHOScore>
0.0000

> <Gold.PLP.Chemscore.Metal>
0.0000

> <Gold.Chemscore.Hbonds>
donor molecule, donor type, donor heavy atom, donor atom, acceptor molecule, acceptor atom, score
      L1  H     7    37       P1 10175  2.00

> <Gold.PLP.Chemscore.Internal.Correction>
0.0260

> <Gold.Rescore>
     Score         DG    S(hbond)    S(metal)    S(lipo)     H(rot)  DE(clash)    DE(int)     intcor
     12.55     -13.30       1.26        0.00      75.41       2.03       0.13       0.61       ----

> <Gold.Chemscore.Fitness>
12.5497

> <Gold.Chemscore.DG>
-13.2952

> <Gold.Chemscore.ZeroCoef>
-5.4800

> <Gold.Chemscore.Hbond>
1.2573

> <Gold.Chemscore.Metal>
0.0000

> <Gold.Chemscore.Lipo>
75.4098

> <Gold.Chemscore.Internal_Hbond>
0.0000

> <Gold.Chemscore.DEClash>
0.1331

> <Gold.Chemscore.DEInternal>
0.6124

> <Gold.Chemscore.Rot>
2.0341

> <Gold.Chemscore.Internal.Correction>
   9.000000E+99

> <Gold.Chemscore.Hbonds>
donor molecule, donor type, donor heavy atom, donor atom, acceptor molecule, acceptor atom, score
      L1  H     7    37       P1 10175  0.58

> <Gold.Chemscore.Hbond.Weighted>
-4.1995

> <Gold.Chemscore.Metal.Weighted>
-0.0000

> <Gold.Chemscore.Lipo.Weighted>
-8.8229

> <Gold.Chemscore.Internal_Hbond.Weighted>
0.0000

> <Gold.Chemscore.DEClash.Weighted>
0.1331

> <Gold.Chemscore.DEInternal.Weighted>
0.6124

> <Gold.Chemscore.Rot.Weighted>
5.2072

> <Gold.Chemscore.Internal.Correction.Weighted>
   9.000000E+99

> <Gold.Protein.RotatedTorsions>
[ 6907 6896 6895 6894 ] final -116.90 input  -60.11 | X-H torsion
[ 7974 7965 7964 7962 ] final  176.28 input  175.53 | X-H torsion
[ 8008 7997 7996 7995 ] final  -54.37 input   59.86 | X-H torsion
[ 10167 10162 10161 10158 ] final -129.14 input  -65.29 | X-H torsion
[ 10718 10713 10712 10709 ] final  139.31 input   66.30 | X-H torsion
[ 10763 10752 10751 10750 ] final  133.17 input  -60.55 | X-H torsion
[ 11005 11000 10999 10996 ] final  152.17 input  -57.11 | X-H torsion

> <Gold.Protein.ActiveResidues>
 VAL166  LYS551  ARG553  GLY616  TRP617  ASP618  TYR619  PRO620  LYS621  CYS622 
 ASP623  PHE694  ASN695  SER759  ASP760  ASP761  ALA762  ILE779  LEU786  VAL792 
 PHE793  MET794  SER795  GLU796  ALA797  LYS798  CYS799  TRP800  GLU811  SER814 

> <Gold.Protein.RotatedAtoms>
  150.8093  133.8452  159.3189 H   0  0  0  0  0  0  0  0  0  0  0  0  # atno 6907 bound_to 6896
  151.6242  135.1027  160.0117 H   0  0  0  0  0  0  0  0  0  0  0  0  # atno 6908 bound_to 6896
  152.4184  133.7036  159.6495 H   0  0  0  0  0  0  0  0  0  0  0  0  # atno 6909 bound_to 6896
  144.7187  140.0073  143.6440 H   0  0  0  0  0  0  0  0  0  0  0  0  # atno 7974 bound_to 7965
  154.4161  140.1178  156.5304 H   0  0  0  0  0  0  0  0  0  0  0  0  # atno 8008 bound_to 7997
  155.6611  140.3496  155.4764 H   0  0  0  0  0  0  0  0  0  0  0  0  # atno 8009 bound_to 7997
  155.9712  140.1142  157.0800 H   0  0  0  0  0  0  0  0  0  0  0  0  # atno 8010 bound_to 7997
  139.9429  143.6142  152.2498 H   0  0  0  0  0  0  0  0  0  0  0  0  # atno 10167 bound_to 10162
  157.4158  131.1033  151.0406 H   0  0  0  0  0  0  0  0  0  0  0  0  # atno 10718 bound_to 10713
  153.8027  135.3140  155.3392 H   0  0  0  0  0  0  0  0  0  0  0  0  # atno 10763 bound_to 10752
  154.8083  135.4684  154.0452 H   0  0  0  0  0  0  0  0  0  0  0  0  # atno 10764 bound_to 10752
  153.1804  135.6892  153.8573 H   0  0  0  0  0  0  0  0  0  0  0  0  # atno 10765 bound_to 10752
  140.1284  134.8818  157.2169 H   0  0  0  0  0  0  0  0  0  0  0  0  # atno 11005 bound_to 11000
  146.0287  139.3315  143.0768 LP  0  0  0  0  0  0  0  0  0  0  0  0  # atno 17320 bound_to 7965
  145.8480  140.9545  143.0765 LP  0  0  0  0  0  0  0  0  0  0  0  0  # atno 17321 bound_to 7965
  139.6690  144.7661  151.1819 LP  0  0  0  0  0  0  0  0  0  0  0  0  # atno 17342 bound_to 10162
  140.7605  143.5894  150.8812 LP  0  0  0  0  0  0  0  0  0  0  0  0  # atno 17343 bound_to 10162
  157.1354  130.6120  149.5540 LP  0  0  0  0  0  0  0  0  0  0  0  0  # atno 17370 bound_to 10713
  155.9865  130.4899  150.7080 LP  0  0  0  0  0  0  0  0  0  0  0  0  # atno 17371 bound_to 10713
  140.2874  134.3280  155.7325 LP  0  0  0  0  0  0  0  0  0  0  0  0  # atno 17394 bound_to 11000
  141.2165  133.7514  156.9453 LP  0  0  0  0  0  0  0  0  0  0  0  0  # atno 17395 bound_to 11000

$$$$
