#       Name:                AV-unprocessed.smi:1881
#       Creating user name   scv26
#       Creation time:       Fri Mar 27 09:36:48 2020


#       File generated by GOLD software.
#

@<TRIPOS>MOLECULE
AV-unprocessed.smi:1881
    55    56     1
SMALL
NO_CHARGES


@<TRIPOS>ATOM
      1 ****        -5.6027   1.7016   1.3191 C.3            1 S1                 0.0000
      2 ****        -4.5672   2.1093   0.2457 C.3            1 S1                 0.0000
      3 ****        -5.3131   3.0651  -0.7246 C.3            1 S1                 0.0000
      4 ****        -3.3969   2.9381   0.8339 C.3            1 S1                 0.0000
      5 ****        -4.0665   0.8595  -0.5502 C.2            1 S1                 0.0000
      6 ****        -4.4298   0.7509  -1.7239 O.2            1 S1                 0.0000
      7 ****        -3.2552  -0.0905  -0.0034 N.am           1 S1                 0.0000
      8 ****        -2.7114  -1.2003  -0.8050 C.3            1 S1                 0.0000
      9 ****        -1.1976  -0.9872  -0.9900 C.3            1 S1                 0.0000
     10 ****        -0.4794  -0.8953   0.3762 C.3            1 S1                 0.0000
     11 ****         1.0036  -0.5406   0.2041 C.2            1 S1                 0.0000
     12 ****         1.3322   0.5118  -0.3444 O.2            1 S1                 0.0000
     13 ****         1.8893  -1.4294   0.6798 N.am           1 S1                 0.0000
     14 ****         3.3390  -1.2829   0.6245 C.3            1 S1                 0.0000
     15 ****         3.8981  -1.7014  -0.7452 C.3            1 S1                 0.0000
     16 ****         5.4098  -1.5900  -0.8068 C.ar           1 S1                 0.0000
     17 ****         6.0256  -0.4801  -1.4236 C.ar           1 S1                 0.0000
     18 ****         7.4325  -0.4211  -1.4488 C.ar           1 S1                 0.0000
     19 ****         8.1660  -1.4685  -0.8589 C.ar           1 S1                 0.0000
     20 ****         7.4564  -2.5321  -0.2662 C.ar           1 S1                 0.0000
     21 ****         6.1077  -2.5982  -0.2364 N.ar           1 S1                 0.0000
     22 ****        -1.1894   0.1202   1.3001 C.3            1 S1                 0.0000
     23 ****        -2.7040  -0.1506   1.3572 C.3            1 S1                 0.0000
     24 ****        -6.0178   2.5814   1.8120 H              1 S1                 0.0000
     25 ****        -5.1988   1.0679   2.1041 H              1 S1                 0.0000
     26 ****        -6.4379   1.1593   0.8735 H              1 S1                 0.0000
     27 ****        -6.1806   2.5881  -1.1838 H              1 S1                 0.0000
     28 ****        -4.6623   3.4155  -1.5277 H              1 S1                 0.0000
     29 ****        -5.6845   3.9505  -0.2069 H              1 S1                 0.0000
     30 ****        -3.6803   3.9817   0.9739 H              1 S1                 0.0000
     31 ****        -2.5285   2.9353   0.1737 H              1 S1                 0.0000
     32 ****        -3.0750   2.5981   1.8152 H              1 S1                 0.0000
     33 ****        -2.8968  -2.1463  -0.2941 H              1 S1                 0.0000
     34 ****        -3.1852  -1.3078  -1.7813 H              1 S1                 0.0000
     35 ****        -0.7801  -1.8062  -1.5768 H              1 S1                 0.0000
     36 ****        -1.0349  -0.0772  -1.5698 H              1 S1                 0.0000
     37 ****        -0.5471  -1.8764   0.8501 H              1 S1                 0.0000
     38 ****         1.5324  -2.2684   1.1137 H              1 S1                 0.0000
     39 ****         3.6231  -0.2549   0.8562 H              1 S1                 0.0000
     40 ****         3.7689  -1.9070   1.4085 H              1 S1                 0.0000
     41 ****         3.6101  -2.7297  -0.9692 H              1 S1                 0.0000
     42 ****         3.4638  -1.0842  -1.5330 H              1 S1                 0.0000
     43 ****         5.4351   0.3088  -1.8663 H              1 S1                 0.0000
     44 ****         7.9395   0.4125  -1.9117 H              1 S1                 0.0000
     45 ****         9.2460  -1.4572  -0.8600 H              1 S1                 0.0000
     46 ****         7.9865  -3.3513   0.1964 H              1 S1                 0.0000
     47 ****        -0.7697   0.0662   2.3053 H              1 S1                 0.0000
     48 ****        -1.0167   1.1386   0.9493 H              1 S1                 0.0000
     49 ****        -3.1740   0.5199   2.0640 H              1 S1                 0.0000
     50 ****        -2.8823  -1.1446   1.7701 H              1 S1                 0.0000
     51 ****        -5.0216   1.4469  -2.1305 LP             1 S1                 0.0000
     52 ****        -4.1325  -0.0331  -2.2688 LP             1 S1                 0.0000
     53 ****         0.6310   1.1406  -0.6805 LP             1 S1                 0.0000
     54 ****         2.3002   0.7376  -0.4537 LP             1 S1                 0.0000
     55 ****         5.6393  -3.3695   0.1945 LP             1 S1                 0.0000
@<TRIPOS>BOND
    1    1    2 1     
    2    1   24 1     
    3    1   25 1     
    4    1   26 1     
    5    2    3 1     
    6    2    4 1     
    7    2    5 1     
    8    3   27 1     
    9    3   28 1     
   10    3   29 1     
   11    4   30 1     
   12    4   31 1     
   13    4   32 1     
   14    5    6 2     
   15    5    7 am    
   16    7   23 1     
   17    7    8 1     
   18    8    9 1     
   19    8   33 1     
   20    8   34 1     
   21    9   10 1     
   22    9   35 1     
   23    9   36 1     
   24   10   11 1     
   25   10   22 1     
   26   10   37 1     
   27   11   12 2     
   28   11   13 am    
   29   13   14 1     
   30   13   38 1     
   31   14   15 1     
   32   14   39 1     
   33   14   40 1     
   34   15   16 1     
   35   15   41 1     
   36   15   42 1     
   37   16   21 ar    
   38   16   17 ar    
   39   17   18 ar    
   40   17   43 1     
   41   18   19 ar    
   42   18   44 1     
   43   19   20 ar    
   44   19   45 1     
   45   20   21 ar    
   46   20   46 1     
   47   22   23 1     
   48   22   47 1     
   49   22   48 1     
   50   23   49 1     
   51   23   50 1     
   52    6   51 1     
   53    6   52 1     
   54   12   53 1     
   55   12   54 1     
   56   21   55 1     
@<TRIPOS>SUBSTRUCTURE
      1 S1             1
@<TRIPOS>SET
LONE_PAIRS      STATIC     ATOMS    <user>   **** ""
5 51 52 53 54 55
DONOR_HYDROGENS      STATIC     ATOMS    <user>   **** ""
1 38
ATOM$BLUE        STATIC     ATOMS    COLORGROUP SYSTEM
5 51 52 53 54 55
ATOM$RED        STATIC     ATOMS    COLORGROUP SYSTEM
1 38
