AV-unprocessed.smi:1110|AV-procd|sdf|4790|dock9
  -GOLD-   22720 3333D 1   1.00000     0.00000
 Structure written by MMmdl.
 44 45  0  0  0  0  0  0  0  0  2 V2000
  149.6184  131.8963  155.3248 C   0  0  0  0  0  0  0  0  0  0  0  0
  148.4183  132.4310  154.5318 C   0  0  0  0  0  0  0  0  0  0  0  0
  148.6677  133.8213  153.8932 C   0  0  2  0  0  0  0  0  0  0  0  0
  148.8125  134.9413  154.9524 C   0  0  0  0  0  0  0  0  0  0  0  0
  149.6260  136.0500  154.4589 N   0  0  0  0  0  0  0  0  0  0  0  0
  150.2319  136.9710  155.2237 C   0  0  0  0  0  0  0  0  0  0  0  0
  150.2630  136.9186  156.4531 O   0  0  0  0  0  0  0  0  0  0  0  0
  150.8793  138.1468  154.4818 C   0  0  0  0  0  0  0  0  0  0  0  0
  150.5922  139.4412  155.1244 N   0  0  0  0  0  0  0  0  0  0  0  0
  149.2673  139.9161  155.0538 C   0  0  0  0  0  0  0  0  0  0  0  0
  148.9001  141.0817  155.6094 C   0  0  0  0  0  0  0  0  0  0  0  0
  149.9049  141.8577  156.2966 C   0  0  0  0  0  0  0  0  0  0  0  0
  151.1763  141.4160  156.3670 C   0  0  0  0  0  0  0  0  0  0  0  0
  151.5833  140.1446  155.7581 C   0  0  0  0  0  0  0  0  0  0  0  0
  152.7457  139.7386  155.8098 O   0  0  0  0  0  0  0  0  0  0  0  0
  147.6602  134.1860  152.8534 N   0  3  0  0  0  0  0  0  0  0  0  0
  147.5964  133.2825  151.6815 C   0  0  0  0  0  0  0  0  0  0  0  0
  146.1634  133.3856  151.1647 C   0  0  0  0  0  0  0  0  0  0  0  0
  145.3575  133.5888  152.4425 C   0  0  0  0  0  0  0  0  0  0  0  0
  146.2732  134.4572  153.3085 C   0  0  0  0  0  0  0  0  0  0  0  0
  149.4136  130.8944  155.7028 H   0  0  0  0  0  0  0  0  0  0  0  0
  149.8481  132.5264  156.1836 H   0  0  0  0  0  0  0  0  0  0  0  0
  150.5108  131.8375  154.7011 H   0  0  0  0  0  0  0  0  0  0  0  0
  148.1780  131.6990  153.7617 H   0  0  0  0  0  0  0  0  0  0  0  0
  147.5529  132.4625  155.1934 H   0  0  0  0  0  0  0  0  0  0  0  0
  149.6216  133.7725  153.3648 H   0  0  0  0  0  0  0  0  0  0  0  0
  147.8292  135.2897  155.2728 H   0  0  0  0  0  0  0  0  0  0  0  0
  149.3001  134.5532  155.8464 H   0  0  0  0  0  0  0  0  0  0  0  0
  149.6774  136.1636  153.4564 H   0  0  0  0  0  0  0  0  0  0  0  0
  151.9527  137.9614  154.4248 H   0  0  0  0  0  0  0  0  0  0  0  0
  150.5339  138.1736  153.4463 H   0  0  0  0  0  0  0  0  0  0  0  0
  148.5757  139.2811  154.5195 H   0  0  0  0  0  0  0  0  0  0  0  0
  147.8800  141.4309  155.5428 H   0  0  0  0  0  0  0  0  0  0  0  0
  149.6357  142.7970  156.7573 H   0  0  0  0  0  0  0  0  0  0  0  0
  151.9141  142.0101  156.8863 H   0  0  0  0  0  0  0  0  0  0  0  0
  148.3306  133.5648  150.9265 H   0  0  0  0  0  0  0  0  0  0  0  0
  147.8025  132.2527  151.9732 H   0  0  0  0  0  0  0  0  0  0  0  0
  146.0618  134.2590  150.5188 H   0  0  0  0  0  0  0  0  0  0  0  0
  145.8514  132.5071  150.5994 H   0  0  0  0  0  0  0  0  0  0  0  0
  144.3845  134.0474  152.2631 H   0  0  0  0  0  0  0  0  0  0  0  0
  145.1915  132.6266  152.9294 H   0  0  0  0  0  0  0  0  0  0  0  0
  146.1075  134.2924  154.3722 H   0  0  0  0  0  0  0  0  0  0  0  0
  146.0635  135.5095  153.1154 H   0  0  0  0  0  0  0  0  0  0  0  0
  147.9801  135.0666  152.4749 H   0  0  0  0  0  0  0  0  0  0  0  0
  1  2  1  0  0  0  0
  1 21  1  0  0  0  0
  1 22  1  0  0  0  0
  1 23  1  0  0  0  0
  2  3  1  0  0  0  0
  2 24  1  0  0  0  0
  2 25  1  0  0  0  0
  3  4  1  0  0  0  0
  3 16  1  0  0  0  0
  3 26  1  0  0  0  0
  4  5  1  0  0  0  0
  4 27  1  0  0  0  0
  4 28  1  0  0  0  0
  5  6  1  0  0  0  0
  5 29  1  0  0  0  0
  6  7  2  0  0  0  0
  6  8  1  0  0  0  0
  8  9  1  0  0  0  0
  8 30  1  0  0  0  0
  8 31  1  0  0  0  0
  9 14  1  0  0  0  0
  9 10  1  0  0  0  0
 10 11  2  0  0  0  0
 10 32  1  0  0  0  0
 11 12  1  0  0  0  0
 11 33  1  0  0  0  0
 12 13  2  0  0  0  0
 12 34  1  0  0  0  0
 13 14  1  0  0  0  0
 13 35  1  0  0  0  0
 14 15  2  0  0  0  0
 16 20  1  0  0  0  0
 16 17  1  0  0  0  0
 16 44  1  0  0  0  0
 17 18  1  0  0  0  0
 17 36  1  0  0  0  0
 17 37  1  0  0  0  0
 18 19  1  0  0  0  0
 18 38  1  0  0  0  0
 18 39  1  0  0  0  0
 19 20  1  0  0  0  0
 19 40  1  0  0  0  0
 19 41  1  0  0  0  0
 20 42  1  0  0  0  0
 20 43  1  0  0  0  0
M  CHG  1  16   1
M  END
> <s_m_source_file>
AV-unprocessed.smi

> <i_m_source_file_index>
1110

> <i_lp_mmshare_version>
43012

> <i_f3d_flags>
0

> <s_epik_input>
W0NIMl0xW0NIMl1bQ0gyXVtDSDJdTjFbQ0BIXShbQ0gyXVtDSDNdKVtDSDJdW05IXUMoPU8pW0NIMl1uMltjSF1bY0hdW2NIXVtjSF1jMj1P

> <s_epik_cmdline>
J2VwaWtfcHl0aG9uJywgJy1waCcsICc3LjAnLCAnLXRuJywgJzgnLCAnLW1hJywgJzIwMCcsICctbWV0YWxfYmluZGluZycsICctaW1hZScsICc8aW5maWxlLm1hZT4nLCAnLW9tYWUnLCAnPG91dGZpbGUubWFlPic=

> <r_lp_tautomer_probability>
1

> <r_epik_Ionization_Penalty>
0.00361135

> <r_epik_Ionization_Penalty_Charging>
0.00361127

> <r_epik_Ionization_Penalty_Neutral>
7.8489e-08

> <r_epik_State_Penalty>
0.00256751

> <r_epik_Charging_Adjusted_Penalty>
0.00617878

> <i_epik_Tot_Q>
1

> <i_epik_Tot_abs_Q>
1

> <r_epik_Metal_State_Penalty>
-0

> <b_epik_Metal_Only>
0

> <s_lp_Force_Field>
OPLS_2005

> <r_lp_Energy>
45.664

> <b_lp_Chiralities_Consistent>
1

> <s_lp_Variant>
AV-unprocessed.smi:1110-1

> <Gold.Version>
5.8.1

> <Gold.Id.Protein>
6NUR|6NUR_protein|mol2

> <Gold.PLP.Fitness>
44.4649

> <Gold.PLP.PLP>
-33.8057

> <Gold.PLP.part.hbond>
-3.3370

> <Gold.PLP.part.metal>
0.0000

> <Gold.PLP.part.buried>
-2.0503

> <Gold.PLP.part.nonpolar>
-28.3470

> <Gold.PLP.part.repulsive>
0.0537

> <Gold.PLP.ligand.clash>
0.0000

> <Gold.PLP.ligand.torsion>
0.7726

> <Gold.PLP.Chemscore.Hbond>
4.0000

> <Gold.PLP.Chemscore.CHOScore>
0.0000

> <Gold.PLP.Chemscore.Metal>
0.0000

> <Gold.Chemscore.Hbonds>
donor molecule, donor type, donor heavy atom, donor atom, acceptor molecule, acceptor atom, score
      L1  H     5    29       P1  7948  1.00
      L1  H    16    44       P1  7948  2.00
      P1  H  7997  8009       L1    15  1.00

> <Gold.PLP.Chemscore.Internal.Correction>
0.2044

> <Gold.Rescore>
     Score         DG    S(hbond)    S(metal)    S(lipo)     H(rot)  DE(clash)    DE(int)     intcor
     15.69     -16.84       2.88        0.00      58.29       1.99       0.05       1.10       ----

> <Gold.Chemscore.Fitness>
15.6928

> <Gold.Chemscore.DG>
-16.8381

> <Gold.Chemscore.ZeroCoef>
-5.4800

> <Gold.Chemscore.Hbond>
2.8833

> <Gold.Chemscore.Metal>
0.0000

> <Gold.Chemscore.Lipo>
58.2943

> <Gold.Chemscore.Internal_Hbond>
0.0000

> <Gold.Chemscore.DEClash>
0.0494

> <Gold.Chemscore.DEInternal>
1.0959

> <Gold.Chemscore.Rot>
1.9893

> <Gold.Chemscore.Internal.Correction>
   9.000000E+99

> <Gold.Chemscore.Hbonds>
donor molecule, donor type, donor heavy atom, donor atom, acceptor molecule, acceptor atom, score
      L1  H     5    29       P1  7948  0.25
      L1  H    16    44       P1  7948  0.89
      P1  H  7997  8009       L1    15  0.98

> <Gold.Chemscore.Hbond.Weighted>
-9.6303

> <Gold.Chemscore.Metal.Weighted>
-0.0000

> <Gold.Chemscore.Lipo.Weighted>
-6.8204

> <Gold.Chemscore.Internal_Hbond.Weighted>
0.0000

> <Gold.Chemscore.DEClash.Weighted>
0.0494

> <Gold.Chemscore.DEInternal.Weighted>
1.0959

> <Gold.Chemscore.Rot.Weighted>
5.0927

> <Gold.Chemscore.Internal.Correction.Weighted>
   9.000000E+99

> <Gold.Protein.RotatedTorsions>
[ 6907 6896 6895 6894 ] final   86.08 input  -60.11 | X-H torsion
[ 7974 7965 7964 7962 ] final  155.15 input  175.53 | X-H torsion
[ 8008 7997 7996 7995 ] final -136.15 input   59.86 | X-H torsion
[ 10167 10162 10161 10158 ] final   35.37 input  -65.29 | X-H torsion
[ 10718 10713 10712 10709 ] final   28.68 input   66.30 | X-H torsion
[ 10763 10752 10751 10750 ] final  -39.43 input  -60.55 | X-H torsion
[ 11005 11000 10999 10996 ] final -131.97 input  -57.11 | X-H torsion

> <Gold.Protein.ActiveResidues>
 VAL166  LYS551  ARG553  GLY616  TRP617  ASP618  TYR619  PRO620  LYS621  CYS622 
 ASP623  PHE694  ASN695  SER759  ASP760  ASP761  ALA762  ILE779  LEU786  VAL792 
 PHE793  MET794  SER795  GLU796  ALA797  LYS798  CYS799  TRP800  GLU811  SER814 

> <Gold.Protein.RotatedAtoms>
  152.5387  134.2486  159.8889 H   0  0  0  0  0  0  0  0  0  0  0  0  # atno 6907 bound_to 6896
  151.2450  133.4373  159.2616 H   0  0  0  0  0  0  0  0  0  0  0  0  # atno 6908 bound_to 6896
  151.0591  134.9738  159.8307 H   0  0  0  0  0  0  0  0  0  0  0  0  # atno 6909 bound_to 6896
  144.8043  139.7029  143.6168 H   0  0  0  0  0  0  0  0  0  0  0  0  # atno 7974 bound_to 7965
  155.3905  140.0499  157.3041 H   0  0  0  0  0  0  0  0  0  0  0  0  # atno 8008 bound_to 7997
  154.5038  140.2166  155.9253 H   0  0  0  0  0  0  0  0  0  0  0  0  # atno 8009 bound_to 7997
  156.1501  140.3137  155.8639 H   0  0  0  0  0  0  0  0  0  0  0  0  # atno 8010 bound_to 7997
  140.4228  144.1435  150.6150 H   0  0  0  0  0  0  0  0  0  0  0  0  # atno 10167 bound_to 10162
  157.2366  130.7049  149.6339 H   0  0  0  0  0  0  0  0  0  0  0  0  # atno 10718 bound_to 10713
  153.9292  135.6774  153.4746 H   0  0  0  0  0  0  0  0  0  0  0  0  # atno 10763 bound_to 10752
  153.0988  135.4838  154.8826 H   0  0  0  0  0  0  0  0  0  0  0  0  # atno 10764 bound_to 10752
  154.7437  135.3167  154.8640 H   0  0  0  0  0  0  0  0  0  0  0  0  # atno 10765 bound_to 10752
  140.9212  134.1442  157.4312 H   0  0  0  0  0  0  0  0  0  0  0  0  # atno 11005 bound_to 11000
  146.2331  139.5853  142.9541 LP  0  0  0  0  0  0  0  0  0  0  0  0  # atno 17320 bound_to 7965
  145.5476  141.0416  143.2296 LP  0  0  0  0  0  0  0  0  0  0  0  0  # atno 17321 bound_to 7965
  140.4514  143.2485  151.9342 LP  0  0  0  0  0  0  0  0  0  0  0  0  # atno 17342 bound_to 10162
  139.4783  144.5558  151.8315 LP  0  0  0  0  0  0  0  0  0  0  0  0  # atno 17343 bound_to 10162
  155.9672  130.4471  150.5568 LP  0  0  0  0  0  0  0  0  0  0  0  0  # atno 17370 bound_to 10713
  157.3422  131.0719  151.1779 LP  0  0  0  0  0  0  0  0  0  0  0  0  # atno 17371 bound_to 10713
  139.8776  134.9972  156.5834 LP  0  0  0  0  0  0  0  0  0  0  0  0  # atno 17394 bound_to 11000
  140.7985  133.8524  155.8706 LP  0  0  0  0  0  0  0  0  0  0  0  0  # atno 17395 bound_to 11000

$$$$
