#       Name:                AV-unprocessed.smi:1042
#       Creating user name   scv26
#       Creation time:       Fri Mar 27 02:56:41 2020


#       File generated by GOLD software.
#

@<TRIPOS>MOLECULE
AV-unprocessed.smi:1042
    43    45     1
SMALL
NO_CHARGES


@<TRIPOS>ATOM
      1 ****        -1.0062   1.9775  -1.0450 O.2            1 S1                 0.0000
      2 ****        -1.5229   0.9183  -1.4023 C.2            1 S1                 0.0000
      3 ****        -0.8160  -0.1830  -1.6947 N.am           1 S1                 0.0000
      4 ****         0.6386  -0.2831  -1.6332 C.3            1 S1                 0.0000
      5 ****         1.1545  -0.3825  -0.1844 C.3            1 S1                 0.0000
      6 ****         0.6542  -1.5982   0.5961 C.3            1 S1                 0.0000
      7 ****         1.6967  -1.7914   1.7048 C.3            1 S1                 0.0000
      8 ****         2.9050  -1.0390   1.2928 N.4            1 S1                 1.0000
      9 ****         4.1703  -1.7873   1.4494 C.3            1 S1                 0.0000
     10 ****         4.7628  -1.6854   2.8345 C.3            1 S1                 0.0000
     11 ****         5.3698  -0.9024   1.6904 C.3            1 S1                 0.0000
     12 ****         2.6704  -0.5326  -0.0743 C.3            1 S1                 0.0000
     13 ****        -2.8426   0.7045  -1.5475 N.am           1 S1                 0.0000
     14 ****        -3.9096   1.6110  -1.3083 C.ar           1 S1                 0.0000
     15 ****        -5.2014   1.0943  -1.5560 C.ar           1 S1                 0.0000
     16 ****        -6.3274   1.9139  -1.3467 C.ar           1 S1                 0.0000
     17 ****        -6.1323   3.2310  -0.8940 C.ar           1 S1                 0.0000
     18 ****        -4.8131   3.6669  -0.6713 C.ar           1 S1                 0.0000
     19 ****        -3.7326   2.8827  -0.8707 N.ar           1 S1                 0.0000
     20 ****        -1.3186  -1.0093  -1.9849 H              1 S1                 0.0000
     21 ****         0.9403  -1.1637  -2.2010 H              1 S1                 0.0000
     22 ****         1.0871   0.5756  -2.1358 H              1 S1                 0.0000
     23 ****         0.8682   0.5168   0.3639 H              1 S1                 0.0000
     24 ****        -0.3541  -1.4607   0.9882 H              1 S1                 0.0000
     25 ****         0.6424  -2.4774  -0.0499 H              1 S1                 0.0000
     26 ****         1.3406  -1.3816   2.6503 H              1 S1                 0.0000
     27 ****         1.9039  -2.8512   1.8614 H              1 S1                 0.0000
     28 ****         4.2675  -2.7047   0.8715 H              1 S1                 0.0000
     29 ****         4.2130  -1.1272   3.5903 H              1 S1                 0.0000
     30 ****         5.3238  -2.5410   3.2052 H              1 S1                 0.0000
     31 ****         6.3298  -1.2431   1.3080 H              1 S1                 0.0000
     32 ****         5.2239   0.1762   1.6861 H              1 S1                 0.0000
     33 ****         3.0283  -1.2626  -0.8029 H              1 S1                 0.0000
     34 ****         3.1983   0.4054  -0.2490 H              1 S1                 0.0000
     35 ****        -3.1178  -0.2154  -1.8580 H              1 S1                 0.0000
     36 ****        -5.3337   0.0800  -1.9038 H              1 S1                 0.0000
     37 ****        -7.3230   1.5377  -1.5304 H              1 S1                 0.0000
     38 ****        -6.9707   3.8895  -0.7216 H              1 S1                 0.0000
     39 ****        -4.6196   4.6705  -0.3231 H              1 S1                 0.0000
     40 ****         2.9519  -0.2290   1.8943 H              1 S1                 0.0000
     41 ****        -0.0121   2.0455  -0.9609 LP             1 S1                 0.0000
     42 ****        -1.5808   2.7696  -0.8389 LP             1 S1                 0.0000
     43 ****        -2.8128   3.2350  -0.6979 LP             1 S1                 0.0000
@<TRIPOS>BOND
    1    1    2 2     
    2    2    3 am    
    3    2   13 am    
    4    3    4 1     
    5    3   20 1     
    6    4    5 1     
    7    4   21 1     
    8    4   22 1     
    9    5   12 1     
   10    5    6 1     
   11    5   23 1     
   12    6    7 1     
   13    6   24 1     
   14    6   25 1     
   15    7    8 1     
   16    7   26 1     
   17    7   27 1     
   18    8    9 1     
   19    8   12 1     
   20    8   40 1     
   21    9   11 1     
   22    9   10 1     
   23    9   28 1     
   24   10   11 1     
   25   10   29 1     
   26   10   30 1     
   27   11   31 1     
   28   11   32 1     
   29   12   33 1     
   30   12   34 1     
   31   13   14 1     
   32   13   35 1     
   33   14   19 ar    
   34   14   15 ar    
   35   15   16 ar    
   36   15   36 1     
   37   16   17 ar    
   38   16   37 1     
   39   17   18 ar    
   40   17   38 1     
   41   18   19 ar    
   42   18   39 1     
   43    1   41 1     
   44    1   42 1     
   45   19   43 1     
@<TRIPOS>SUBSTRUCTURE
      1 S1             1
@<TRIPOS>SET
LONE_PAIRS      STATIC     ATOMS    <user>   **** ""
3 41 42 43
DONOR_HYDROGENS      STATIC     ATOMS    <user>   **** ""
3 20 40 35
ATOM$BLUE        STATIC     ATOMS    COLORGROUP SYSTEM
3 41 42 43
ATOM$RED        STATIC     ATOMS    COLORGROUP SYSTEM
3 20 40 35
