AV-unprocessed.smi:137|AV-procd|sdf|1178|dock4
  -GOLD-   2262018323D 1   1.00000     0.00000
 Structure written by MMmdl.
 51 54  0  0  0  0  0  0  0  0  1 V2000
  146.5259  142.3156  153.6899 C   0  0  0  0  0  0  0  0  0  0  0  0
  146.6309  141.7969  155.1329 C   0  0  1  0  0  0  0  0  0  0  0  0
  145.5333  140.7491  155.4416 C   0  0  0  0  0  0  0  0  0  0  0  0
  145.9632  139.3543  155.3037 N   0  0  0  0  0  0  0  0  0  0  0  0
  145.9465  138.7321  154.0876 C   0  0  0  0  0  0  0  0  0  0  0  0
  146.7499  139.2251  153.1071 N   0  0  0  0  0  0  0  0  0  0  0  0
  146.7853  138.6662  151.8958 C   0  0  0  0  0  0  0  0  0  0  0  0
  146.1001  137.6174  151.4443 N   0  0  0  0  0  0  0  0  0  0  0  0
  145.2829  137.1112  152.4101 C   0  0  0  0  0  0  0  0  0  0  0  0
  145.1469  137.5954  153.7459 C   0  0  0  0  0  0  0  0  0  0  0  0
  144.2352  136.7946  154.4276 N   0  0  0  0  0  0  0  0  0  0  0  0
  143.8597  135.9010  153.5559 C   0  0  0  0  0  0  0  0  0  0  0  0
  144.4165  136.0365  152.3065 N   0  0  0  0  0  0  0  0  0  0  0  0
  144.2094  135.1761  151.1781 C   0  0  0  0  0  0  0  0  0  0  0  0
  143.6265  133.7706  151.3532 C   0  0  0  0  0  0  0  0  0  0  0  0
  144.5529  133.2318  150.2402 C   0  0  0  0  0  0  0  0  0  0  0  0
  145.2639  131.9153  150.5902 C   0  0  0  0  0  0  0  0  0  0  0  0
  146.3699  131.6842  149.7411 O   0  0  0  0  0  0  0  0  0  0  0  0
  143.9110  133.0461  148.8474 C   0  0  0  0  0  0  0  0  0  0  0  0
  143.5869  134.2675  148.2149 O   0  0  0  0  0  0  0  0  0  0  0  0
  145.3905  134.5099  150.4654 C   0  0  0  0  0  0  0  0  0  0  0  0
  146.4486  138.6809  156.5083 C   0  0  0  0  0  0  0  0  0  0  0  0
  147.9402  138.9247  156.8055 C   0  0  0  0  0  0  0  0  0  0  0  0
  148.2685  140.7189  157.1685 S   0  0  2  0  0  0  0  0  0  0  0  0
  147.1145  141.2543  158.0188 O   0  0  0  0  0  0  0  0  0  0  0  0
  148.0836  141.3648  155.4342 C   0  0  0  0  0  0  0  0  0  0  0  0
  146.7802  141.5404  152.9673 H   0  0  0  0  0  0  0  0  0  0  0  0
  147.2060  143.1519  153.5250 H   0  0  0  0  0  0  0  0  0  0  0  0
  145.5178  142.6656  153.4658 H   0  0  0  0  0  0  0  0  0  0  0  0
  146.4133  142.6546  155.7708 H   0  0  0  0  0  0  0  0  0  0  0  0
  145.2078  140.8907  156.4719 H   0  0  0  0  0  0  0  0  0  0  0  0
  144.6326  140.9490  154.8610 H   0  0  0  0  0  0  0  0  0  0  0  0
  147.4570  139.1271  151.1870 H   0  0  0  0  0  0  0  0  0  0  0  0
  143.1570  135.1184  153.8026 H   0  0  0  0  0  0  0  0  0  0  0  0
  143.6119  135.7539  150.4722 H   0  0  0  0  0  0  0  0  0  0  0  0
  143.8507  133.3518  152.3357 H   0  0  0  0  0  0  0  0  0  0  0  0
  142.5596  133.6992  151.1382 H   0  0  0  0  0  0  0  0  0  0  0  0
  145.6320  131.9330  151.6163 H   0  0  0  0  0  0  0  0  0  0  0  0
  144.5822  131.0671  150.5222 H   0  0  0  0  0  0  0  0  0  0  0  0
  147.1061  131.4198  150.2713 H   0  0  0  0  0  0  0  0  0  0  0  0
  144.5781  132.5022  148.1785 H   0  0  0  0  0  0  0  0  0  0  0  0
  142.9953  132.4584  148.9202 H   0  0  0  0  0  0  0  0  0  0  0  0
  144.3898  134.7246  148.0160 H   0  0  0  0  0  0  0  0  0  0  0  0
  145.7070  135.0155  149.5525 H   0  0  0  0  0  0  0  0  0  0  0  0
  146.2390  134.3432  151.1313 H   0  0  0  0  0  0  0  0  0  0  0  0
  145.8583  139.0176  157.3608 H   0  0  0  0  0  0  0  0  0  0  0  0
  146.2451  137.6127  156.4460 H   0  0  0  0  0  0  0  0  0  0  0  0
  148.2283  138.3466  157.6835 H   0  0  0  0  0  0  0  0  0  0  0  0
  148.5798  138.5963  155.9873 H   0  0  0  0  0  0  0  0  0  0  0  0
  148.4412  140.6211  154.7214 H   0  0  0  0  0  0  0  0  0  0  0  0
  148.7385  142.2304  155.3331 H   0  0  0  0  0  0  0  0  0  0  0  0
  1  2  1  0  0  0  0
  1 27  1  0  0  0  0
  1 28  1  0  0  0  0
  1 29  1  0  0  0  0
  2 26  1  0  0  0  0
  2  3  1  0  0  0  0
  2 30  1  0  0  0  0
  3  4  1  0  0  0  0
  3 31  1  0  0  0  0
  3 32  1  0  0  0  0
  4  5  1  0  0  0  0
  4 22  1  0  0  0  0
  5 10  1  0  0  0  0
  5  6  2  0  0  0  0
  6  7  1  0  0  0  0
  7  8  2  0  0  0  0
  7 33  1  0  0  0  0
  8  9  1  0  0  0  0
  9 13  1  0  0  0  0
  9 10  2  0  0  0  0
 10 11  1  0  0  0  0
 11 12  2  0  0  0  0
 12 13  1  0  0  0  0
 12 34  1  0  0  0  0
 13 14  1  0  0  0  0
 14 21  1  0  0  0  0
 14 15  1  0  0  0  0
 14 35  1  0  0  0  0
 15 16  1  0  0  0  0
 15 36  1  0  0  0  0
 15 37  1  0  0  0  0
 16 17  1  0  0  0  0
 16 19  1  0  0  0  0
 16 21  1  0  0  0  0
 17 18  1  0  0  0  0
 17 38  1  0  0  0  0
 17 39  1  0  0  0  0
 18 40  1  0  0  0  0
 19 20  1  0  0  0  0
 19 41  1  0  0  0  0
 19 42  1  0  0  0  0
 20 43  1  0  0  0  0
 21 44  1  0  0  0  0
 21 45  1  0  0  0  0
 22 23  1  0  0  0  0
 22 46  1  0  0  0  0
 22 47  1  0  0  0  0
 23 24  1  0  0  0  0
 23 48  1  0  0  0  0
 23 49  1  0  0  0  0
 24 25  2  0  0  0  0
 24 26  1  0  0  0  0
 26 50  1  0  0  0  0
 26 51  1  0  0  0  0
M  END
> <s_m_source_file>
AV-unprocessed.smi

> <i_m_source_file_index>
137

> <i_lp_mmshare_version>
43012

> <i_f3d_flags>
0

> <s_epik_input>
Tz1bU0BAXShbQ0gyXTEpW0NIMl1bQ0gyXU4oW0NIMl1bQ0BIXTFbQ0gzXSljKG5bY0hdbjIpYyhjMjMpbltjSF1uM1tDSF0oW0NIMl00KVtDSDJdQzQoW0NIMl1bT0hdKVtDSDJdW09IXQ==

> <s_epik_cmdline>
J2VwaWtfcHl0aG9uJywgJy1waCcsICc3LjAnLCAnLXRuJywgJzgnLCAnLW1hJywgJzIwMCcsICctbWV0YWxfYmluZGluZycsICctaW1hZScsICc8aW5maWxlLm1hZT4nLCAnLW9tYWUnLCAnPG91dGZpbGUubWFlPic=

> <r_lp_tautomer_probability>
1

> <r_epik_Ionization_Penalty>
0.000811024

> <r_epik_Ionization_Penalty_Charging>
0

> <r_epik_Ionization_Penalty_Neutral>
0.000811024

> <r_epik_State_Penalty>
0.000429598

> <r_epik_Charging_Adjusted_Penalty>
0.000429598

> <i_epik_Tot_Q>
0

> <i_epik_Tot_abs_Q>
0

> <r_epik_Metal_State_Penalty>
-0

> <b_epik_Metal_Only>
0

> <s_lp_Force_Field>
OPLS_2005

> <r_lp_Energy>
44.8713

> <b_lp_Chiralities_Consistent>
1

> <s_lp_Variant>
AV-unprocessed.smi:137-4

> <Gold.Version>
5.8.1

> <Gold.Id.Protein>
6NUR|6NUR_protein|mol2

> <Gold.PLP.Fitness>
46.7364

> <Gold.PLP.PLP>
-38.2134

> <Gold.PLP.part.hbond>
-4.4340

> <Gold.PLP.part.metal>
0.0000

> <Gold.PLP.part.buried>
-5.3498

> <Gold.PLP.part.nonpolar>
-30.3271

> <Gold.PLP.part.repulsive>
2.0939

> <Gold.PLP.ligand.clash>
0.0000

> <Gold.PLP.ligand.torsion>
1.9166

> <Gold.PLP.Chemscore.Hbond>
2.9750

> <Gold.PLP.Chemscore.CHOScore>
1.0000

> <Gold.PLP.Chemscore.Metal>
0.0000

> <Gold.Chemscore.Hbonds>
donor molecule, donor type, donor heavy atom, donor atom, acceptor molecule, acceptor atom, score
      L1  H    18    40       P1 10747  0.90
      L1  H    20    43       P1  7921  1.00
      P1  H 10192 10197       L1    20  0.83
      L1  C     7    33       P1  7957  1.00

> <Gold.PLP.Chemscore.Internal.Correction>
0.4312

> <Gold.Rescore>
     Score         DG    S(hbond)    S(metal)    S(lipo)     H(rot)  DE(clash)    DE(int)     intcor
     12.08     -14.68       2.56        0.00      68.37       2.87       0.83       1.77       ----

> <Gold.Chemscore.Fitness>
12.0840

> <Gold.Chemscore.DG>
-14.6831

> <Gold.Chemscore.ZeroCoef>
-5.4800

> <Gold.Chemscore.Hbond>
2.5620

> <Gold.Chemscore.Metal>
0.0000

> <Gold.Chemscore.Lipo>
68.3724

> <Gold.Chemscore.Internal_Hbond>
0.0000

> <Gold.Chemscore.DEClash>
0.8272

> <Gold.Chemscore.DEInternal>
1.7719

> <Gold.Chemscore.Rot>
2.8725

> <Gold.Chemscore.Internal.Correction>
   9.000000E+99

> <Gold.Chemscore.Hbonds>
donor molecule, donor type, donor heavy atom, donor atom, acceptor molecule, acceptor atom, score
      L1  H    18    40       P1 10747  0.87
      L1  H    20    43       P1  7921  0.98
      P1  H 10192 10197       L1    20  0.58

> <Gold.Chemscore.Hbond.Weighted>
-8.5571

> <Gold.Chemscore.Metal.Weighted>
-0.0000

> <Gold.Chemscore.Lipo.Weighted>
-7.9996

> <Gold.Chemscore.Internal_Hbond.Weighted>
0.0000

> <Gold.Chemscore.DEClash.Weighted>
0.8272

> <Gold.Chemscore.DEInternal.Weighted>
1.7719

> <Gold.Chemscore.Rot.Weighted>
7.3535

> <Gold.Chemscore.Internal.Correction.Weighted>
   9.000000E+99

> <Gold.Protein.RotatedTorsions>
[ 6907 6896 6895 6894 ] final   27.99 input  -60.11 | X-H torsion
[ 7974 7965 7964 7962 ] final  -93.78 input  175.53 | X-H torsion
[ 8008 7997 7996 7995 ] final -131.82 input   59.86 | X-H torsion
[ 10167 10162 10161 10158 ] final -109.73 input  -65.29 | X-H torsion
[ 10718 10713 10712 10709 ] final   64.80 input   66.30 | X-H torsion
[ 10763 10752 10751 10750 ] final  -13.51 input  -60.55 | X-H torsion
[ 11005 11000 10999 10996 ] final   95.92 input  -57.11 | X-H torsion

> <Gold.Protein.ActiveResidues>
 VAL166  LYS551  ARG553  GLY616  TRP617  ASP618  TYR619  PRO620  LYS621  CYS622 
 ASP623  PHE694  ASN695  SER759  ASP760  ASP761  ALA762  ILE779  LEU786  VAL792 
 PHE793  MET794  SER795  GLU796  ALA797  LYS798  CYS799  TRP800  GLU811  SER814 

> <Gold.Protein.RotatedAtoms>
  152.0104  134.9879  160.0567 H   0  0  0  0  0  0  0  0  0  0  0  0  # atno 6907 bound_to 6896
  152.1434  133.4473  159.4786 H   0  0  0  0  0  0  0  0  0  0  0  0  # atno 6908 bound_to 6896
  150.6867  134.2196  159.4434 H   0  0  0  0  0  0  0  0  0  0  0  0  # atno 6909 bound_to 6896
  145.3820  140.9518  143.2388 H   0  0  0  0  0  0  0  0  0  0  0  0  # atno 7974 bound_to 7965
  155.3186  140.0461  157.3038 H   0  0  0  0  0  0  0  0  0  0  0  0  # atno 8008 bound_to 7997
  154.5392  140.2282  155.8636 H   0  0  0  0  0  0  0  0  0  0  0  0  # atno 8009 bound_to 7997
  156.1865  140.3061  155.9255 H   0  0  0  0  0  0  0  0  0  0  0  0  # atno 8010 bound_to 7997
  140.1521  143.4190  152.1487 H   0  0  0  0  0  0  0  0  0  0  0  0  # atno 10167 bound_to 10162
  157.6064  130.9180  149.9893 H   0  0  0  0  0  0  0  0  0  0  0  0  # atno 10718 bound_to 10713
  153.5144  135.7016  153.5764 H   0  0  0  0  0  0  0  0  0  0  0  0  # atno 10763 bound_to 10752
  153.3840  135.3913  155.1877 H   0  0  0  0  0  0  0  0  0  0  0  0  # atno 10764 bound_to 10752
  154.8700  135.3842  154.4627 H   0  0  0  0  0  0  0  0  0  0  0  0  # atno 10765 bound_to 10752
  139.8785  134.8924  156.4082 H   0  0  0  0  0  0  0  0  0  0  0  0  # atno 11005 bound_to 11000
  144.8501  139.5336  143.6860 LP  0  0  0  0  0  0  0  0  0  0  0  0  # atno 17320 bound_to 7965
  146.2837  139.6947  142.9210 LP  0  0  0  0  0  0  0  0  0  0  0  0  # atno 17321 bound_to 7965
  139.5421  144.7265  151.4701 LP  0  0  0  0  0  0  0  0  0  0  0  0  # atno 17342 bound_to 10162
  140.6696  143.8323  150.6983 LP  0  0  0  0  0  0  0  0  0  0  0  0  # atno 17343 bound_to 10162
  156.1152  130.3648  149.9981 LP  0  0  0  0  0  0  0  0  0  0  0  0  # atno 17370 bound_to 10713
  156.8072  130.9312  151.3645 LP  0  0  0  0  0  0  0  0  0  0  0  0  # atno 17371 bound_to 10713
  140.9219  133.7639  155.9917 LP  0  0  0  0  0  0  0  0  0  0  0  0  # atno 17394 bound_to 11000
  140.8430  134.3044  157.5306 LP  0  0  0  0  0  0  0  0  0  0  0  0  # atno 17395 bound_to 11000

$$$$
