AV-unprocessed.smi:240|AV-procd|sdf|1836|dock5
  -GOLD-   2262020443D 1   1.00000     0.00000
 Structure written by MMmdl.
 55 59  0  0  0  0  0  0  0  0  1 V2000
  149.9880  140.4096  153.7182 O   0  0  0  0  0  0  0  0  0  0  0  0
  150.4084  139.5506  154.7576 C   0  0  2  0  0  0  0  0  0  0  0  0
  151.7302  138.8735  154.4006 C   0  0  0  0  0  0  0  0  0  0  0  0
  151.7860  137.6587  155.3276 C   0  0  0  0  0  0  0  0  0  0  0  0
  150.3259  137.2567  155.5874 C   0  0  0  0  0  0  0  0  0  0  0  0
  149.4448  138.3706  154.9850 C   0  0  1  0  0  0  0  0  0  0  0  0
  148.1336  138.6643  155.7834 C   0  0  1  0  0  0  0  0  0  0  0  0
  148.3901  139.3894  157.1306 C   0  0  0  0  0  0  0  0  0  0  0  0
  147.1644  139.5931  157.8219 O   0  0  0  0  0  0  0  0  0  0  0  0
  146.2893  140.4403  157.0908 C   0  0  0  0  0  0  0  0  0  0  0  0
  145.9335  139.7601  155.7628 C   0  0  0  0  0  0  0  0  0  0  0  0
  147.1391  139.4256  155.0100 N   0  0  0  0  0  0  0  0  0  0  0  0
  146.7920  138.9500  153.7904 C   0  0  0  0  0  0  0  0  0  0  0  0
  147.2312  139.5665  152.6604 N   0  0  0  0  0  0  0  0  0  0  0  0
  146.8853  139.0888  151.4611 C   0  0  0  0  0  0  0  0  0  0  0  0
  146.1305  138.0263  151.1713 N   0  0  0  0  0  0  0  0  0  0  0  0
  145.7042  137.3972  152.3044 C   0  0  0  0  0  0  0  0  0  0  0  0
  145.9922  137.7865  153.6417 C   0  0  0  0  0  0  0  0  0  0  0  0
  145.3927  136.9081  154.5348 N   0  0  0  0  0  0  0  0  0  0  0  0
  144.7785  136.0490  153.7677 C   0  0  0  0  0  0  0  0  0  0  0  0
  144.9173  136.2639  152.4146 N   0  0  0  0  0  0  0  0  0  0  0  0
  144.3389  135.4703  151.3412 C   0  0  0  0  0  0  0  0  0  0  0  0
  144.1827  133.9658  151.6804 C   0  0  2  0  0  0  0  0  0  0  0  0
  143.0165  133.7852  152.4626 O   0  0  0  0  0  0  0  0  0  0  0  0
  145.3786  133.3625  152.4144 C   0  0  0  0  0  0  0  0  0  0  0  0
  146.2401  132.8548  151.2687 C   0  0  0  0  0  0  0  0  0  0  0  0
  145.2824  132.2965  150.3845 O   0  0  0  0  0  0  0  0  0  0  0  0
  144.1078  133.1038  150.4039 C   0  0  0  0  0  0  0  0  0  0  0  0
  149.7899  139.8863  152.9568 H   0  0  0  0  0  0  0  0  0  0  0  0
  150.5521  140.1320  155.6668 H   0  0  0  0  0  0  0  0  0  0  0  0
  151.7126  138.5352  153.3632 H   0  0  0  0  0  0  0  0  0  0  0  0
  152.5888  139.5348  154.5209 H   0  0  0  0  0  0  0  0  0  0  0  0
  152.3713  136.8443  154.8995 H   0  0  0  0  0  0  0  0  0  0  0  0
  152.2580  137.9406  156.2698 H   0  0  0  0  0  0  0  0  0  0  0  0
  150.0952  136.2996  155.1181 H   0  0  0  0  0  0  0  0  0  0  0  0
  150.1663  137.1233  156.6562 H   0  0  0  0  0  0  0  0  0  0  0  0
  149.1797  137.9948  153.9966 H   0  0  0  0  0  0  0  0  0  0  0  0
  147.6777  137.7025  156.0226 H   0  0  0  0  0  0  0  0  0  0  0  0
  149.0414  138.8047  157.7776 H   0  0  0  0  0  0  0  0  0  0  0  0
  148.8735  140.3554  156.9868 H   0  0  0  0  0  0  0  0  0  0  0  0
  145.3874  140.6124  157.6784 H   0  0  0  0  0  0  0  0  0  0  0  0
  146.7527  141.4139  156.9224 H   0  0  0  0  0  0  0  0  0  0  0  0
  145.3630  138.8506  155.9569 H   0  0  0  0  0  0  0  0  0  0  0  0
  145.2939  140.4210  155.1758 H   0  0  0  0  0  0  0  0  0  0  0  0
  147.2675  139.6368  150.6125 H   0  0  0  0  0  0  0  0  0  0  0  0
  144.2047  135.2268  154.1705 H   0  0  0  0  0  0  0  0  0  0  0  0
  143.3686  135.9000  151.0881 H   0  0  0  0  0  0  0  0  0  0  0  0
  144.9622  135.5934  150.4546 H   0  0  0  0  0  0  0  0  0  0  0  0
  143.2689  133.4138  153.2943 H   0  0  0  0  0  0  0  0  0  0  0  0
  145.9059  134.0519  153.0721 H   0  0  0  0  0  0  0  0  0  0  0  0
  145.0674  132.5100  153.0207 H   0  0  0  0  0  0  0  0  0  0  0  0
  146.7648  133.6758  150.7773 H   0  0  0  0  0  0  0  0  0  0  0  0
  146.9744  132.1147  151.5870 H   0  0  0  0  0  0  0  0  0  0  0  0
  143.2334  132.4516  150.3891 H   0  0  0  0  0  0  0  0  0  0  0  0
  144.0701  133.7166  149.5023 H   0  0  0  0  0  0  0  0  0  0  0  0
  1  2  1  0  0  0  0
  1 29  1  0  0  0  0
  2  6  1  0  0  0  0
  2  3  1  0  0  0  0
  2 30  1  0  0  0  0
  3  4  1  0  0  0  0
  3 31  1  0  0  0  0
  3 32  1  0  0  0  0
  4  5  1  0  0  0  0
  4 33  1  0  0  0  0
  4 34  1  0  0  0  0
  5  6  1  0  0  0  0
  5 35  1  0  0  0  0
  5 36  1  0  0  0  0
  6  7  1  0  0  0  0
  6 37  1  0  0  0  0
  7 12  1  0  0  0  0
  7  8  1  0  0  0  0
  7 38  1  0  0  0  0
  8  9  1  0  0  0  0
  8 39  1  0  0  0  0
  8 40  1  0  0  0  0
  9 10  1  0  0  0  0
 10 11  1  0  0  0  0
 10 41  1  0  0  0  0
 10 42  1  0  0  0  0
 11 12  1  0  0  0  0
 11 43  1  0  0  0  0
 11 44  1  0  0  0  0
 12 13  1  0  0  0  0
 13 18  1  0  0  0  0
 13 14  2  0  0  0  0
 14 15  1  0  0  0  0
 15 16  2  0  0  0  0
 15 45  1  0  0  0  0
 16 17  1  0  0  0  0
 17 21  1  0  0  0  0
 17 18  2  0  0  0  0
 18 19  1  0  0  0  0
 19 20  2  0  0  0  0
 20 21  1  0  0  0  0
 20 46  1  0  0  0  0
 21 22  1  0  0  0  0
 22 23  1  0  0  0  0
 22 47  1  0  0  0  0
 22 48  1  0  0  0  0
 23 28  1  0  0  0  0
 23 24  1  0  0  0  0
 23 25  1  0  0  0  0
 24 49  1  0  0  0  0
 25 26  1  0  0  0  0
 25 50  1  0  0  0  0
 25 51  1  0  0  0  0
 26 27  1  0  0  0  0
 26 52  1  0  0  0  0
 26 53  1  0  0  0  0
 27 28  1  0  0  0  0
 28 54  1  0  0  0  0
 28 55  1  0  0  0  0
M  END
> <s_m_source_file>
AV-unprocessed.smi

> <i_m_source_file_index>
240

> <i_lp_mmshare_version>
43012

> <i_f3d_flags>
0

> <s_epik_input>
W09IXVtDQEBIXTFbQ0gyXVtDSDJdW0NIMl1bQ0BIXTFbQ0BASF0yW0NIMl1PW0NIMl1bQ0gyXU4yYyhuW2NIXW4zKWMoYzM0KW5bY0hdbjRbQ0gyXVtDQEBdNShbT0hdKVtDSDJdW0NIMl1PW0NIMl01

> <s_epik_cmdline>
J2VwaWtfcHl0aG9uJywgJy1waCcsICc3LjAnLCAnLXRuJywgJzgnLCAnLW1hJywgJzIwMCcsICctbWV0YWxfYmluZGluZycsICctaW1hZScsICc8aW5maWxlLm1hZT4nLCAnLW9tYWUnLCAnPG91dGZpbGUubWFlPic=

> <r_lp_tautomer_probability>
1

> <r_epik_Ionization_Penalty>
0.000130618

> <r_epik_Ionization_Penalty_Charging>
0

> <r_epik_Ionization_Penalty_Neutral>
0.000130618

> <r_epik_State_Penalty>
-0

> <r_epik_Charging_Adjusted_Penalty>
0

> <i_epik_Tot_Q>
0

> <i_epik_Tot_abs_Q>
0

> <r_epik_Metal_State_Penalty>
-0

> <b_epik_Metal_Only>
0

> <s_lp_Force_Field>
OPLS_2005

> <r_lp_Energy>
59.7423

> <b_lp_Chiralities_Consistent>
1

> <s_lp_Variant>
AV-unprocessed.smi:240-13

> <Gold.Version>
5.8.1

> <Gold.Id.Protein>
6NUR|6NUR_protein|mol2

> <Gold.PLP.Fitness>
39.8915

> <Gold.PLP.PLP>
-33.2474

> <Gold.PLP.part.hbond>
-3.6932

> <Gold.PLP.part.metal>
0.0000

> <Gold.PLP.part.buried>
-8.0257

> <Gold.PLP.part.nonpolar>
-26.1151

> <Gold.PLP.part.repulsive>
3.8156

> <Gold.PLP.ligand.clash>
0.0000

> <Gold.PLP.ligand.torsion>
0.9737

> <Gold.PLP.Chemscore.Hbond>
2.1717

> <Gold.PLP.Chemscore.CHOScore>
0.6343

> <Gold.PLP.Chemscore.Metal>
0.0000

> <Gold.Chemscore.Hbonds>
donor molecule, donor type, donor heavy atom, donor atom, acceptor molecule, acceptor atom, score
      L1  H     1    29       P1  7957  0.82
      L1  H    24    49       P1 10957  0.28
      P1  H  7989  7998       L1     1  0.32
      L1  C    15    45       P1  7957  0.52

> <Gold.PLP.Chemscore.Internal.Correction>
0.1736

> <Gold.Rescore>
     Score         DG    S(hbond)    S(metal)    S(lipo)     H(rot)  DE(clash)    DE(int)     intcor
      5.98      -9.05       1.14        0.00      63.56       3.00       2.02       1.05       ----

> <Gold.Chemscore.Fitness>
5.9769

> <Gold.Chemscore.DG>
-9.0491

> <Gold.Chemscore.ZeroCoef>
-5.4800

> <Gold.Chemscore.Hbond>
1.1445

> <Gold.Chemscore.Metal>
0.0000

> <Gold.Chemscore.Lipo>
63.5598

> <Gold.Chemscore.Internal_Hbond>
0.0000

> <Gold.Chemscore.DEClash>
2.0204

> <Gold.Chemscore.DEInternal>
1.0518

> <Gold.Chemscore.Rot>
3.0039

> <Gold.Chemscore.Internal.Correction>
   9.000000E+99

> <Gold.Chemscore.Hbonds>
donor molecule, donor type, donor heavy atom, donor atom, acceptor molecule, acceptor atom, score
      L1  H     1    29       P1  7957  0.81
      L1  H    24    49       P1 10957  0.26
      P1  H  7989  7998       L1     1  0.01

> <Gold.Chemscore.Hbond.Weighted>
-3.8225

> <Gold.Chemscore.Metal.Weighted>
-0.0000

> <Gold.Chemscore.Lipo.Weighted>
-7.4365

> <Gold.Chemscore.Internal_Hbond.Weighted>
0.0000

> <Gold.Chemscore.DEClash.Weighted>
2.0204

> <Gold.Chemscore.DEInternal.Weighted>
1.0518

> <Gold.Chemscore.Rot.Weighted>
7.6899

> <Gold.Chemscore.Internal.Correction.Weighted>
   9.000000E+99

> <Gold.Protein.RotatedTorsions>
[ 6907 6896 6895 6894 ] final   12.14 input  -60.11 | X-H torsion
[ 7974 7965 7964 7962 ] final -143.82 input  175.53 | X-H torsion
[ 8008 7997 7996 7995 ] final  157.66 input   59.86 | X-H torsion
[ 10167 10162 10161 10158 ] final  166.68 input  -65.29 | X-H torsion
[ 10718 10713 10712 10709 ] final  128.53 input   66.30 | X-H torsion
[ 10763 10752 10751 10750 ] final  164.36 input  -60.55 | X-H torsion
[ 11005 11000 10999 10996 ] final  -36.45 input  -57.11 | X-H torsion

> <Gold.Protein.ActiveResidues>
 VAL166  LYS551  ARG553  GLY616  TRP617  ASP618  TYR619  PRO620  LYS621  CYS622 
 ASP623  PHE694  ASN695  SER759  ASP760  ASP761  ALA762  ILE779  LEU786  VAL792 
 PHE793  MET794  SER795  GLU796  ALA797  LYS798  CYS799  TRP800  GLU811  SER814 

> <Gold.Protein.RotatedAtoms>
  151.7656  135.0799  160.0351 H   0  0  0  0  0  0  0  0  0  0  0  0  # atno 6907 bound_to 6896
  152.3324  133.5968  159.5827 H   0  0  0  0  0  0  0  0  0  0  0  0  # atno 6908 bound_to 6896
  150.7430  133.9764  159.3604 H   0  0  0  0  0  0  0  0  0  0  0  0  # atno 6909 bound_to 6896
  144.8342  140.5787  143.5495 H   0  0  0  0  0  0  0  0  0  0  0  0  # atno 7974 bound_to 7965
  156.2350  140.1879  156.7142 H   0  0  0  0  0  0  0  0  0  0  0  0  # atno 8008 bound_to 7997
  154.6091  140.0624  156.9497 H   0  0  0  0  0  0  0  0  0  0  0  0  # atno 8009 bound_to 7997
  155.2046  140.3295  155.4340 H   0  0  0  0  0  0  0  0  0  0  0  0  # atno 8010 bound_to 7997
  139.4929  144.4001  151.9419 H   0  0  0  0  0  0  0  0  0  0  0  0  # atno 10167 bound_to 10162
  157.5236  131.1098  150.9116 H   0  0  0  0  0  0  0  0  0  0  0  0  # atno 10718 bound_to 10713
  154.3077  135.2758  155.2581 H   0  0  0  0  0  0  0  0  0  0  0  0  # atno 10763 bound_to 10752
  154.4990  135.5813  153.6520 H   0  0  0  0  0  0  0  0  0  0  0  0  # atno 10764 bound_to 10752
  152.9892  135.6153  154.3252 H   0  0  0  0  0  0  0  0  0  0  0  0  # atno 10765 bound_to 10752
  140.9876  133.7022  156.1792 H   0  0  0  0  0  0  0  0  0  0  0  0  # atno 11005 bound_to 11000
  145.4831  139.1494  143.3751 LP  0  0  0  0  0  0  0  0  0  0  0  0  # atno 17320 bound_to 7965
  146.2642  140.4967  142.8841 LP  0  0  0  0  0  0  0  0  0  0  0  0  # atno 17321 bound_to 7965
  140.3440  144.3169  150.5961 LP  0  0  0  0  0  0  0  0  0  0  0  0  # atno 17342 bound_to 10162
  140.5541  143.2201  151.7877 LP  0  0  0  0  0  0  0  0  0  0  0  0  # atno 17343 bound_to 10162
  156.9719  130.5494  149.5291 LP  0  0  0  0  0  0  0  0  0  0  0  0  # atno 17370 bound_to 10713
  156.0371  130.5457  150.8680 LP  0  0  0  0  0  0  0  0  0  0  0  0  # atno 17371 bound_to 10713
  140.7091  134.4481  157.5582 LP  0  0  0  0  0  0  0  0  0  0  0  0  # atno 17394 bound_to 11000
  139.8977  134.8630  156.2031 LP  0  0  0  0  0  0  0  0  0  0  0  0  # atno 17395 bound_to 11000

$$$$
