AV-unprocessed.smi:265|AV-procd|sdf|2022|dock8
  -GOLD-   2262021223D 1   1.00000     0.00000
 Structure written by MMmdl.
 52 56  0  0  0  0  0  0  0  0  1 V2000
  138.5141  137.3298  154.2256 C   0  0  0  0  0  0  0  0  0  0  0  0
  138.8580  138.6374  153.4954 C   0  0  1  0  0  0  0  0  0  0  0  0
  137.7473  139.5169  153.6588 O   0  0  0  0  0  0  0  0  0  0  0  0
  138.2171  140.8517  153.7268 C   0  0  0  0  0  0  0  0  0  0  0  0
  139.4890  140.7112  154.5486 C   0  0  0  0  0  0  0  0  0  0  0  0
  140.0988  139.4198  154.0120 C   0  0  2  0  0  0  0  0  0  0  0  0
  140.8957  139.7517  152.8868 O   0  0  0  0  0  0  0  0  0  0  0  0
  141.0035  138.6819  155.0339 C   0  0  0  0  0  0  0  0  0  0  0  0
  141.9202  137.7338  154.4181 N   0  0  0  0  0  0  0  0  0  0  0  0
  141.6395  136.8721  153.3818 C   0  0  0  0  0  0  0  0  0  0  0  0
  142.6322  136.1143  153.0034 N   0  0  0  0  0  0  0  0  0  0  0  0
  143.6773  136.4764  153.8455 C   0  0  0  0  0  0  0  0  0  0  0  0
  145.0286  136.0503  153.9887 C   0  0  0  0  0  0  0  0  0  0  0  0
  145.5873  135.1009  153.1952 N   0  0  0  0  0  0  0  0  0  0  0  0
  146.1218  133.9440  153.9101 C   0  0  0  0  0  0  0  0  0  0  0  0
  147.1049  133.1648  153.0238 C   0  0  0  0  0  0  0  0  0  0  0  0
  146.4774  132.7825  151.6733 C   0  0  1  0  0  0  0  0  0  0  0  0
  145.4522  131.8158  151.8626 O   0  0  0  0  0  0  0  0  0  0  0  0
  144.9408  131.2718  150.6444 C   0  0  0  0  0  0  0  0  0  0  0  0
  144.5780  132.3646  149.6213 C   0  0  0  0  0  0  0  0  0  0  0  0
  143.8688  132.0891  148.6563 O   0  0  0  0  0  0  0  0  0  0  0  0
  145.0917  133.5925  149.7982 N   0  0  0  0  0  0  0  0  0  0  0  0
  145.8423  134.0070  150.9791 C   0  0  1  0  0  0  0  0  0  0  0  0
  144.9141  134.7844  151.9351 C   0  0  0  0  0  0  0  0  0  0  0  0
  145.7663  136.6349  154.9708 N   0  0  0  0  0  0  0  0  0  0  0  0
  145.2272  137.5740  155.7535 C   0  0  0  0  0  0  0  0  0  0  0  0
  143.9891  138.0701  155.7289 N   0  0  0  0  0  0  0  0  0  0  0  0
  143.2413  137.4862  154.7497 C   0  0  0  0  0  0  0  0  0  0  0  0
  147.2547  132.3504  151.0399 H   0  0  0  0  0  0  0  0  0  0  0  0
  146.6401  134.6744  150.6513 H   0  0  0  0  0  0  0  0  0  0  0  0
  139.3168  136.5978  154.1347 H   0  0  0  0  0  0  0  0  0  0  0  0
  137.6156  136.8796  153.8032 H   0  0  0  0  0  0  0  0  0  0  0  0
  138.3250  137.5019  155.2854 H   0  0  0  0  0  0  0  0  0  0  0  0
  138.9596  138.4203  152.4303 H   0  0  0  0  0  0  0  0  0  0  0  0
  138.4340  141.2190  152.7225 H   0  0  0  0  0  0  0  0  0  0  0  0
  137.4849  141.5139  154.1889 H   0  0  0  0  0  0  0  0  0  0  0  0
  140.1479  141.5775  154.4752 H   0  0  0  0  0  0  0  0  0  0  0  0
  139.2146  140.5893  155.5970 H   0  0  0  0  0  0  0  0  0  0  0  0
  141.7574  139.9915  153.1917 H   0  0  0  0  0  0  0  0  0  0  0  0
  141.5987  139.3952  155.6045 H   0  0  0  0  0  0  0  0  0  0  0  0
  140.3938  138.1398  155.7580 H   0  0  0  0  0  0  0  0  0  0  0  0
  140.6687  136.8254  152.9098 H   0  0  0  0  0  0  0  0  0  0  0  0
  146.6231  134.2366  154.8319 H   0  0  0  0  0  0  0  0  0  0  0  0
  145.2914  133.2988  154.2003 H   0  0  0  0  0  0  0  0  0  0  0  0
  147.9871  133.7812  152.8460 H   0  0  0  0  0  0  0  0  0  0  0  0
  147.4527  132.2717  153.5436 H   0  0  0  0  0  0  0  0  0  0  0  0
  145.6846  130.6077  150.2027 H   0  0  0  0  0  0  0  0  0  0  0  0
  144.0608  130.6681  150.8672 H   0  0  0  0  0  0  0  0  0  0  0  0
  144.8859  134.3008  149.1088 H   0  0  0  0  0  0  0  0  0  0  0  0
  144.0213  134.1956  152.1528 H   0  0  0  0  0  0  0  0  0  0  0  0
  144.5817  135.7025  151.4478 H   0  0  0  0  0  0  0  0  0  0  0  0
  145.8818  137.9872  156.5068 H   0  0  0  0  0  0  0  0  0  0  0  0
  1  2  1  0  0  0  0
  1 31  1  0  0  0  0
  1 32  1  0  0  0  0
  1 33  1  0  0  0  0
  2  6  1  0  0  0  0
  2  3  1  0  0  0  0
  2 34  1  0  0  0  0
  3  4  1  0  0  0  0
  4  5  1  0  0  0  0
  4 35  1  0  0  0  0
  4 36  1  0  0  0  0
  5  6  1  0  0  0  0
  5 37  1  0  0  0  0
  5 38  1  0  0  0  0
  6  7  1  0  0  0  0
  6  8  1  0  0  0  0
  7 39  1  0  0  0  0
  8  9  1  0  0  0  0
  8 40  1  0  0  0  0
  8 41  1  0  0  0  0
  9 28  1  0  0  0  0
  9 10  1  0  0  0  0
 10 11  2  0  0  0  0
 10 42  1  0  0  0  0
 11 12  1  0  0  0  0
 12 28  2  0  0  0  0
 12 13  1  0  0  0  0
 13 14  1  0  0  0  0
 13 25  2  0  0  0  0
 14 24  1  0  0  0  0
 14 15  1  0  0  0  0
 15 16  1  0  0  0  0
 15 43  1  0  0  0  0
 15 44  1  0  0  0  0
 16 17  1  0  0  0  0
 16 45  1  0  0  0  0
 16 46  1  0  0  0  0
 17 29  1  0  0  0  0
 17 23  1  0  0  0  0
 17 18  1  0  0  0  0
 18 19  1  0  0  0  0
 19 20  1  0  0  0  0
 19 47  1  0  0  0  0
 19 48  1  0  0  0  0
 20 21  2  0  0  0  0
 20 22  1  0  0  0  0
 22 23  1  0  0  0  0
 22 49  1  0  0  0  0
 23 30  1  0  0  0  0
 23 24  1  0  0  0  0
 24 50  1  0  0  0  0
 24 51  1  0  0  0  0
 25 26  1  0  0  0  0
 26 27  2  0  0  0  0
 26 52  1  0  0  0  0
 27 28  1  0  0  0  0
M  END
> <s_m_source_file>
AV-unprocessed.smi

> <i_m_source_file_index>
265

> <i_lp_mmshare_version>
43012

> <i_f3d_flags>
0

> <s_epik_input>
W0NIMl0xW0NIMl1PW0NAQEhdKFtDSDNdKVtDQEBdMShbT0hdKVtDSDJdbihbY0hdbjIpYyhjMjMpbltjSF1uYzNOKFtDSDJdW0NIMl00KVtDSDJdW0NAQEhdKFtDQEhdNDUpW05IXUMoPU8pW0NIMl1PNQ==

> <s_epik_cmdline>
J2VwaWtfcHl0aG9uJywgJy1waCcsICc3LjAnLCAnLXRuJywgJzgnLCAnLW1hJywgJzIwMCcsICctbWV0YWxfYmluZGluZycsICctaW1hZScsICc8aW5maWxlLm1hZT4nLCAnLW9tYWUnLCAnPG91dGZpbGUubWFlPic=

> <r_lp_tautomer_probability>
1

> <r_epik_Ionization_Penalty>
0.00221504

> <r_epik_Ionization_Penalty_Charging>
0

> <r_epik_Ionization_Penalty_Neutral>
0.00221504

> <r_epik_State_Penalty>
-0

> <r_epik_Charging_Adjusted_Penalty>
0

> <i_epik_Tot_Q>
0

> <i_epik_Tot_abs_Q>
0

> <r_epik_Metal_State_Penalty>
-0

> <b_epik_Metal_Only>
0

> <s_lp_Force_Field>
OPLS_2005

> <r_lp_Energy>
44.6863

> <b_lp_Chiralities_Consistent>
1

> <s_lp_Variant>
AV-unprocessed.smi:265-8

> <Gold.Version>
5.8.1

> <Gold.Id.Protein>
6NUR|6NUR_protein|mol2

> <Gold.PLP.Fitness>
38.8705

> <Gold.PLP.PLP>
-34.3131

> <Gold.PLP.part.hbond>
-2.9711

> <Gold.PLP.part.metal>
0.0000

> <Gold.PLP.part.buried>
-9.3146

> <Gold.PLP.part.nonpolar>
-24.4381

> <Gold.PLP.part.repulsive>
0.8851

> <Gold.PLP.ligand.clash>
0.0000

> <Gold.PLP.ligand.torsion>
0.7838

> <Gold.PLP.Chemscore.Hbond>
1.9200

> <Gold.PLP.Chemscore.CHOScore>
0.0000

> <Gold.PLP.Chemscore.Metal>
0.0000

> <Gold.Chemscore.Hbonds>
donor molecule, donor type, donor heavy atom, donor atom, acceptor molecule, acceptor atom, score
      L1  H     7    39       P1 10175  0.80
      L1  H    22    49       P1  7921  0.48
      P1  H 10785 10796       L1    21  0.59

> <Gold.PLP.Chemscore.Internal.Correction>
0.3651

> <Gold.Rescore>
     Score         DG    S(hbond)    S(metal)    S(lipo)     H(rot)  DE(clash)    DE(int)     intcor
     11.55     -13.73       1.56        0.00      75.09       2.25       0.20       1.98       ----

> <Gold.Chemscore.Fitness>
11.5535

> <Gold.Chemscore.DG>
-13.7348

> <Gold.Chemscore.ZeroCoef>
-5.4800

> <Gold.Chemscore.Hbond>
1.5619

> <Gold.Chemscore.Metal>
0.0000

> <Gold.Chemscore.Lipo>
75.0943

> <Gold.Chemscore.Internal_Hbond>
0.0000

> <Gold.Chemscore.DEClash>
0.2004

> <Gold.Chemscore.DEInternal>
1.9809

> <Gold.Chemscore.Rot>
2.2453

> <Gold.Chemscore.Internal.Correction>
   9.000000E+99

> <Gold.Chemscore.Hbonds>
donor molecule, donor type, donor heavy atom, donor atom, acceptor molecule, acceptor atom, score
      L1  H     7    39       P1 10175  0.23
      L1  H    22    49       P1  7921  0.46
      P1  H 10785 10796       L1    21  0.46

> <Gold.Chemscore.Hbond.Weighted>
-5.2167

> <Gold.Chemscore.Metal.Weighted>
-0.0000

> <Gold.Chemscore.Lipo.Weighted>
-8.7860

> <Gold.Chemscore.Internal_Hbond.Weighted>
0.0000

> <Gold.Chemscore.DEClash.Weighted>
0.2004

> <Gold.Chemscore.DEInternal.Weighted>
1.9809

> <Gold.Chemscore.Rot.Weighted>
5.7479

> <Gold.Chemscore.Internal.Correction.Weighted>
   9.000000E+99

> <Gold.Protein.RotatedTorsions>
[ 6907 6896 6895 6894 ] final   31.37 input  -60.11 | X-H torsion
[ 7974 7965 7964 7962 ] final  -22.24 input  175.53 | X-H torsion
[ 8008 7997 7996 7995 ] final  -12.41 input   59.86 | X-H torsion
[ 10167 10162 10161 10158 ] final   25.48 input  -65.29 | X-H torsion
[ 10718 10713 10712 10709 ] final   -3.22 input   66.30 | X-H torsion
[ 10763 10752 10751 10750 ] final  -82.26 input  -60.55 | X-H torsion
[ 11005 11000 10999 10996 ] final  -18.80 input  -57.11 | X-H torsion

> <Gold.Protein.ActiveResidues>
 VAL166  LYS551  ARG553  GLY616  TRP617  ASP618  TYR619  PRO620  LYS621  CYS622 
 ASP623  PHE694  ASN695  SER759  ASP760  ASP761  ALA762  ILE779  LEU786  VAL792 
 PHE793  MET794  SER795  GLU796  ALA797  LYS798  CYS799  TRP800  GLU811  SER814 

> <Gold.Protein.RotatedAtoms>
  152.0594  134.9604  160.0574 H   0  0  0  0  0  0  0  0  0  0  0  0  # atno 6907 bound_to 6896
  152.0973  133.4227  159.4579 H   0  0  0  0  0  0  0  0  0  0  0  0  # atno 6908 bound_to 6896
  150.6838  134.2720  159.4635 H   0  0  0  0  0  0  0  0  0  0  0  0  # atno 6909 bound_to 6896
  146.1687  140.4452  142.8541 H   0  0  0  0  0  0  0  0  0  0  0  0  # atno 7974 bound_to 7965
  154.5380  140.2277  155.8689 H   0  0  0  0  0  0  0  0  0  0  0  0  # atno 8008 bound_to 7997
  156.1830  140.3095  155.9148 H   0  0  0  0  0  0  0  0  0  0  0  0  # atno 8009 bound_to 7997
  155.3315  140.0445  157.3033 H   0  0  0  0  0  0  0  0  0  0  0  0  # atno 8010 bound_to 7997
  140.5102  144.0172  150.6369 H   0  0  0  0  0  0  0  0  0  0  0  0  # atno 10167 bound_to 10162
  156.7793  130.5325  149.5753 H   0  0  0  0  0  0  0  0  0  0  0  0  # atno 10718 bound_to 10713
  154.5735  135.5597  153.7118 H   0  0  0  0  0  0  0  0  0  0  0  0  # atno 10763 bound_to 10752
  153.0057  135.6303  154.2081 H   0  0  0  0  0  0  0  0  0  0  0  0  # atno 10764 bound_to 10752
  154.2021  135.2877  155.2967 H   0  0  0  0  0  0  0  0  0  0  0  0  # atno 10765 bound_to 10752
  140.8304  133.8001  155.9752 H   0  0  0  0  0  0  0  0  0  0  0  0  # atno 11005 bound_to 11000
  144.8130  140.6419  143.6403 LP  0  0  0  0  0  0  0  0  0  0  0  0  # atno 17320 bound_to 7965
  145.4399  139.1537  143.3976 LP  0  0  0  0  0  0  0  0  0  0  0  0  # atno 17321 bound_to 7965
  140.3493  143.2972  152.0504 LP  0  0  0  0  0  0  0  0  0  0  0  0  # atno 17342 bound_to 10162
  139.4894  144.6385  151.6925 LP  0  0  0  0  0  0  0  0  0  0  0  0  # atno 17343 bound_to 10162
  156.1228  130.6122  151.0219 LP  0  0  0  0  0  0  0  0  0  0  0  0  # atno 17370 bound_to 10713
  157.6654  131.0872  150.7741 LP  0  0  0  0  0  0  0  0  0  0  0  0  # atno 17371 bound_to 10713
  140.9004  134.2385  157.5044 LP  0  0  0  0  0  0  0  0  0  0  0  0  # atno 17394 bound_to 11000
  139.8705  134.9704  156.4700 LP  0  0  0  0  0  0  0  0  0  0  0  0  # atno 17395 bound_to 11000

$$$$
