AV-unprocessed.smi:2221|AV-procd|sdf|8984|dock1
  -GOLD-   2272012193D 1   1.00000     0.00000
 Structure written by MMmdl.
 53 54  0  0  0  0  0  0  0  0  2 V2000
  150.9821  145.5239  159.1949 C   0  0  0  0  0  0  0  0  0  0  0  0
  151.4169  144.0850  159.0125 C   0  0  0  0  0  0  0  0  0  0  0  0
  152.3626  143.5035  159.8783 C   0  0  0  0  0  0  0  0  0  0  0  0
  152.7248  142.1597  159.6612 C   0  0  0  0  0  0  0  0  0  0  0  0
  153.7357  141.4732  160.5554 C   0  0  0  0  0  0  0  0  0  0  0  0
  152.2036  141.4074  158.6683 N   0  0  0  0  0  0  0  0  0  0  0  0
  151.2922  141.9572  157.8283 C   0  0  0  0  0  0  0  0  0  0  0  0
  150.6864  141.2521  156.7545 N   0  0  0  0  0  0  0  0  0  0  0  0
  151.2598  140.3780  155.9090 C   0  0  0  0  0  0  0  0  0  0  0  0
  152.4465  140.0511  155.9159 O   0  0  0  0  0  0  0  0  0  0  0  0
  150.3641  139.8760  155.0464 N   0  0  0  0  0  0  0  0  0  0  0  0
  150.6565  138.8852  154.0125 C   0  0  0  0  0  0  0  0  0  0  0  0
  151.1286  137.5278  154.5806 C   0  0  0  0  0  0  0  0  0  0  0  0
  150.0838  136.4734  154.5254 N   0  3  2  0  0  0  0  0  0  0  0  0
  148.9075  136.7935  155.3718 C   0  0  0  0  0  0  0  0  0  0  0  0
  147.7899  135.7513  155.1869 C   0  0  0  0  0  0  0  0  0  0  0  0
  148.2766  134.3142  155.4955 C   0  0  2  0  0  0  0  0  0  0  0  0
  148.5202  134.0872  156.9342 N   0  0  0  0  0  0  0  0  0  0  0  0
  147.3176  134.3199  157.7319 C   0  0  0  0  0  0  0  0  0  0  0  0
  148.9448  132.7178  157.2168 C   0  0  0  0  0  0  0  0  0  0  0  0
  149.5174  134.0467  154.6086 C   0  0  0  0  0  0  0  0  0  0  0  0
  150.6096  135.1126  154.8030 C   0  0  0  0  0  0  0  0  0  0  0  0
  150.8763  143.2996  157.9743 C   0  0  0  0  0  0  0  0  0  0  0  0
  151.7183  146.0861  159.7701 H   0  0  0  0  0  0  0  0  0  0  0  0
  150.0295  145.5641  159.7235 H   0  0  0  0  0  0  0  0  0  0  0  0
  150.8613  146.0144  158.2286 H   0  0  0  0  0  0  0  0  0  0  0  0
  152.7983  144.0717  160.6872 H   0  0  0  0  0  0  0  0  0  0  0  0
  154.3178  142.2015  161.1209 H   0  0  0  0  0  0  0  0  0  0  0  0
  154.4283  140.8730  159.9643 H   0  0  0  0  0  0  0  0  0  0  0  0
  153.2282  140.8166  161.2623 H   0  0  0  0  0  0  0  0  0  0  0  0
  149.6994  141.4212  156.6281 H   0  0  0  0  0  0  0  0  0  0  0  0
  149.4120  140.2081  155.1029 H   0  0  0  0  0  0  0  0  0  0  0  0
  149.7488  138.7458  153.4255 H   0  0  0  0  0  0  0  0  0  0  0  0
  151.4018  139.2823  153.3216 H   0  0  0  0  0  0  0  0  0  0  0  0
  152.0311  137.1910  154.0685 H   0  0  0  0  0  0  0  0  0  0  0  0
  151.4149  137.6814  155.6217 H   0  0  0  0  0  0  0  0  0  0  0  0
  149.2100  136.8458  156.4189 H   0  0  0  0  0  0  0  0  0  0  0  0
  148.5222  137.7780  155.1034 H   0  0  0  0  0  0  0  0  0  0  0  0
  146.9091  136.0298  155.7622 H   0  0  0  0  0  0  0  0  0  0  0  0
  147.4592  135.7863  154.1478 H   0  0  0  0  0  0  0  0  0  0  0  0
  147.4935  133.6181  155.1906 H   0  0  0  0  0  0  0  0  0  0  0  0
  147.4903  134.0629  158.7779 H   0  0  0  0  0  0  0  0  0  0  0  0
  146.4803  133.7201  157.3722 H   0  0  0  0  0  0  0  0  0  0  0  0
  147.0223  135.3675  157.7259 H   0  0  0  0  0  0  0  0  0  0  0  0
  149.0169  132.5478  158.2920 H   0  0  0  0  0  0  0  0  0  0  0  0
  149.9355  132.5137  156.8141 H   0  0  0  0  0  0  0  0  0  0  0  0
  148.2427  131.9906  156.8063 H   0  0  0  0  0  0  0  0  0  0  0  0
  149.9255  133.0471  154.7478 H   0  0  0  0  0  0  0  0  0  0  0  0
  149.2033  134.0682  153.5641 H   0  0  0  0  0  0  0  0  0  0  0  0
  151.4400  134.8907  154.1332 H   0  0  0  0  0  0  0  0  0  0  0  0
  151.0040  135.0702  155.8196 H   0  0  0  0  0  0  0  0  0  0  0  0
  150.1480  143.7260  157.2994 H   0  0  0  0  0  0  0  0  0  0  0  0
  149.7453  136.4675  153.5738 H   0  0  0  0  0  0  0  0  0  0  0  0
  1  2  1  0  0  0  0
  1 24  1  0  0  0  0
  1 25  1  0  0  0  0
  1 26  1  0  0  0  0
  2 23  1  0  0  0  0
  2  3  2  0  0  0  0
  3  4  1  0  0  0  0
  3 27  1  0  0  0  0
  4  5  1  0  0  0  0
  4  6  2  0  0  0  0
  5 28  1  0  0  0  0
  5 29  1  0  0  0  0
  5 30  1  0  0  0  0
  6  7  1  0  0  0  0
  7  8  1  0  0  0  0
  7 23  2  0  0  0  0
  8  9  1  0  0  0  0
  8 31  1  0  0  0  0
  9 10  2  0  0  0  0
  9 11  1  0  0  0  0
 11 12  1  0  0  0  0
 11 32  1  0  0  0  0
 12 13  1  0  0  0  0
 12 33  1  0  0  0  0
 12 34  1  0  0  0  0
 13 14  1  0  0  0  0
 13 35  1  0  0  0  0
 13 36  1  0  0  0  0
 14 22  1  0  0  0  0
 14 15  1  0  0  0  0
 14 53  1  0  0  0  0
 15 16  1  0  0  0  0
 15 37  1  0  0  0  0
 15 38  1  0  0  0  0
 16 17  1  0  0  0  0
 16 39  1  0  0  0  0
 16 40  1  0  0  0  0
 17 18  1  0  0  0  0
 17 21  1  0  0  0  0
 17 41  1  0  0  0  0
 18 19  1  0  0  0  0
 18 20  1  0  0  0  0
 19 42  1  0  0  0  0
 19 43  1  0  0  0  0
 19 44  1  0  0  0  0
 20 45  1  0  0  0  0
 20 46  1  0  0  0  0
 20 47  1  0  0  0  0
 21 22  1  0  0  0  0
 21 48  1  0  0  0  0
 21 49  1  0  0  0  0
 22 50  1  0  0  0  0
 22 51  1  0  0  0  0
 23 52  1  0  0  0  0
M  CHG  1  14   1
M  END
> <s_m_source_file>
AV-unprocessed.smi

> <i_m_source_file_index>
2221

> <i_lp_mmshare_version>
43012

> <i_f3d_flags>
0

> <s_epik_input>
W0NIM11jMVtjSF1jKFtDSDNdKW5jKFtjSF0xKVtOSF1DKD1PKVtOSF1bQ0gyXVtDSDJdTjJbQ0gyXVtDSDJdW0NIXShOKFtDSDNdKVtDSDNdKVtDSDJdW0NIMl0y

> <s_epik_cmdline>
J2VwaWtfcHl0aG9uJywgJy1waCcsICc3LjAnLCAnLXRuJywgJzgnLCAnLW1hJywgJzIwMCcsICctbWV0YWxfYmluZGluZycsICctaW1hZScsICc8aW5maWxlLm1hZT4nLCAnLW9tYWUnLCAnPG91dGZpbGUubWFlPic=

> <r_epik_Ionization_Penalty>
1.32168

> <r_epik_Ionization_Penalty_Charging>
0.00219175

> <r_epik_Ionization_Penalty_Neutral>
1.31949

> <r_epik_State_Penalty>
1.51166

> <r_epik_Charging_Adjusted_Penalty>
1.51385

> <i_epik_Tot_Q>
1

> <i_epik_Tot_abs_Q>
1

> <r_epik_Metal_State_Penalty>
1.51167

> <b_epik_Metal_Only>
0

> <s_lp_Force_Field>
OPLS_2005

> <r_lp_Energy>
32.286

> <b_lp_Chiralities_Consistent>
1

> <s_lp_Variant>
AV-unprocessed.smi:2221-5

> <Gold.Version>
5.8.1

> <Gold.Id.Protein>
6NUR|6NUR_protein|mol2

> <Gold.PLP.Fitness>
49.2637

> <Gold.PLP.PLP>
-41.5444

> <Gold.PLP.part.hbond>
-2.0000

> <Gold.PLP.part.metal>
0.0000

> <Gold.PLP.part.buried>
-6.5987

> <Gold.PLP.part.nonpolar>
-33.4980

> <Gold.PLP.part.repulsive>
0.2553

> <Gold.PLP.ligand.clash>
0.0000

> <Gold.PLP.ligand.torsion>
0.6720

> <Gold.PLP.Chemscore.Hbond>
3.0000

> <Gold.PLP.Chemscore.CHOScore>
0.0000

> <Gold.PLP.Chemscore.Metal>
0.0000

> <Gold.Chemscore.Hbonds>
donor molecule, donor type, donor heavy atom, donor atom, acceptor molecule, acceptor atom, score
      L1  H    14    53       P1  7948  2.00
      P1  H  7997  8008       L1    10  1.00

> <Gold.PLP.Chemscore.Internal.Correction>
0.0632

> <Gold.Rescore>
     Score         DG    S(hbond)    S(metal)    S(lipo)     H(rot)  DE(clash)    DE(int)     intcor
     18.05     -19.52       1.94        0.00      99.85       1.61       0.03       1.43       ----

> <Gold.Chemscore.Fitness>
18.0488

> <Gold.Chemscore.DG>
-19.5150

> <Gold.Chemscore.ZeroCoef>
-5.4800

> <Gold.Chemscore.Hbond>
1.9398

> <Gold.Chemscore.Metal>
0.0000

> <Gold.Chemscore.Lipo>
99.8500

> <Gold.Chemscore.Internal_Hbond>
0.0000

> <Gold.Chemscore.DEClash>
0.0343

> <Gold.Chemscore.DEInternal>
1.4319

> <Gold.Chemscore.Rot>
1.6119

> <Gold.Chemscore.Internal.Correction>
   9.000000E+99

> <Gold.Chemscore.Hbonds>
donor molecule, donor type, donor heavy atom, donor atom, acceptor molecule, acceptor atom, score
      L1  H    14    53       P1  7948  0.40
      P1  H  7997  8008       L1    10  0.99

> <Gold.Chemscore.Hbond.Weighted>
-6.4790

> <Gold.Chemscore.Metal.Weighted>
-0.0000

> <Gold.Chemscore.Lipo.Weighted>
-11.6825

> <Gold.Chemscore.Internal_Hbond.Weighted>
0.0000

> <Gold.Chemscore.DEClash.Weighted>
0.0343

> <Gold.Chemscore.DEInternal.Weighted>
1.4319

> <Gold.Chemscore.Rot.Weighted>
4.1264

> <Gold.Chemscore.Internal.Correction.Weighted>
   9.000000E+99

> <Gold.Protein.RotatedTorsions>
[ 6907 6896 6895 6894 ] final   18.55 input  -60.11 | X-H torsion
[ 7974 7965 7964 7962 ] final  -98.53 input  175.53 | X-H torsion
[ 8008 7997 7996 7995 ] final  -31.03 input   59.86 | X-H torsion
[ 10167 10162 10161 10158 ] final  138.47 input  -65.29 | X-H torsion
[ 10718 10713 10712 10709 ] final  175.68 input   66.30 | X-H torsion
[ 10763 10752 10751 10750 ] final  117.78 input  -60.55 | X-H torsion
[ 11005 11000 10999 10996 ] final  -30.15 input  -57.11 | X-H torsion

> <Gold.Protein.ActiveResidues>
 VAL166  LYS551  ARG553  GLY616  TRP617  ASP618  TYR619  PRO620  LYS621  CYS622 
 ASP623  PHE694  ASN695  SER759  ASP760  ASP761  ALA762  ILE779  LEU786  VAL792 
 PHE793  MET794  SER795  GLU796  ALA797  LYS798  CYS799  TRP800  GLU811  SER814 

> <Gold.Protein.RotatedAtoms>
  151.8671  135.0503  160.0475 H   0  0  0  0  0  0  0  0  0  0  0  0  # atno 6907 bound_to 6896
  152.2617  133.5299  159.5394 H   0  0  0  0  0  0  0  0  0  0  0  0  # atno 6908 bound_to 6896
  150.7119  134.0736  159.3915 H   0  0  0  0  0  0  0  0  0  0  0  0  # atno 6909 bound_to 6896
  145.3194  140.9418  143.2724 H   0  0  0  0  0  0  0  0  0  0  0  0  # atno 7974 bound_to 7965
  154.4228  140.1775  156.1501 H   0  0  0  0  0  0  0  0  0  0  0  0  # atno 8008 bound_to 7997
  155.9922  140.3368  155.6739 H   0  0  0  0  0  0  0  0  0  0  0  0  # atno 8009 bound_to 7997
  155.6357  140.0674  157.2625 H   0  0  0  0  0  0  0  0  0  0  0  0  # atno 8010 bound_to 7997
  139.5110  144.6351  151.5716 H   0  0  0  0  0  0  0  0  0  0  0  0  # atno 10167 bound_to 10162
  156.9314  130.9972  151.2986 H   0  0  0  0  0  0  0  0  0  0  0  0  # atno 10718 bound_to 10713
  153.5575  135.3527  155.2785 H   0  0  0  0  0  0  0  0  0  0  0  0  # atno 10763 bound_to 10752
  154.8699  135.4128  154.2867 H   0  0  0  0  0  0  0  0  0  0  0  0  # atno 10764 bound_to 10752
  153.3606  135.7059  153.6784 H   0  0  0  0  0  0  0  0  0  0  0  0  # atno 10765 bound_to 10752
  140.9358  133.7309  156.1002 H   0  0  0  0  0  0  0  0  0  0  0  0  # atno 11005 bound_to 11000
  144.8951  139.4722  143.6659 LP  0  0  0  0  0  0  0  0  0  0  0  0  # atno 17320 bound_to 7965
  146.3088  139.7673  142.9036 LP  0  0  0  0  0  0  0  0  0  0  0  0  # atno 17321 bound_to 7965
  140.6098  143.9458  150.6445 LP  0  0  0  0  0  0  0  0  0  0  0  0  # atno 17342 bound_to 10162
  140.2696  143.3465  152.1249 LP  0  0  0  0  0  0  0  0  0  0  0  0  # atno 17343 bound_to 10162
  157.5844  130.8399  149.8569 LP  0  0  0  0  0  0  0  0  0  0  0  0  # atno 17370 bound_to 10713
  156.0445  130.3731  150.1351 LP  0  0  0  0  0  0  0  0  0  0  0  0  # atno 17371 bound_to 10713
  140.7801  134.3735  157.5489 LP  0  0  0  0  0  0  0  0  0  0  0  0  # atno 17394 bound_to 11000
  139.8807  134.9076  156.2950 LP  0  0  0  0  0  0  0  0  0  0  0  0  # atno 17395 bound_to 11000

$$$$
