AV-unprocessed.smi:2451|AV-procd|sdf|9682|dock3
  -GOLD-   2272013323D 1   1.00000     0.00000
 Structure written by MMmdl.
 37 38  0  0  0  0  0  0  0  0  2 V2000
  153.9878  141.6925  161.4431 C   0  0  0  0  0  0  0  0  0  0  0  0
  152.8850  141.8398  160.3769 C   0  0  1  0  0  0  0  0  0  0  0  0
  152.9391  143.2772  159.8021 C   0  0  0  0  0  0  0  0  0  0  0  0
  151.8552  143.4635  158.7266 C   0  0  0  0  0  0  0  0  0  0  0  0
  151.9704  142.4104  157.6044 C   0  0  0  0  0  0  0  0  0  0  0  0
  151.9080  140.9550  158.1242 C   0  0  1  0  0  0  0  0  0  0  0  0
  152.1550  140.0449  157.0134 N   0  5  0  0  0  0  0  0  0  0  0  0
  150.9003  139.4305  156.1916 S   0  0  0  0  0  0  0  0  0  0  0  0
  151.3077  138.8022  154.9240 O   0  0  0  0  0  0  0  0  0  0  0  0
  149.9827  138.6645  157.0512 O   0  0  0  0  0  0  0  0  0  0  0  0
  150.0064  140.9768  155.7335 C   0  0  0  0  0  0  0  0  0  0  0  0
  148.7938  140.6526  154.9056 C   0  0  0  0  0  0  0  0  0  0  0  0
  147.8165  141.5414  154.3768 C   0  0  0  0  0  0  0  0  0  0  0  0
  146.9591  140.7145  153.7106 C   0  0  0  0  0  0  0  0  0  0  0  0
  147.3712  139.4255  153.8062 O   0  0  0  0  0  0  0  0  0  0  0  0
  148.5447  139.3961  154.5685 N   0  0  0  0  0  0  0  0  0  0  0  0
  152.9601  140.7346  159.2632 C   0  0  2  0  0  0  0  0  0  0  0  0
  152.8463  139.3136  159.8776 C   0  0  0  0  0  0  0  0  0  0  0  0
  154.9791  141.6778  160.9888 H   0  0  0  0  0  0  0  0  0  0  0  0
  153.8703  140.7826  162.0301 H   0  0  0  0  0  0  0  0  0  0  0  0
  153.9618  142.5221  162.1500 H   0  0  0  0  0  0  0  0  0  0  0  0
  151.9309  141.7377  160.8987 H   0  0  0  0  0  0  0  0  0  0  0  0
  152.8004  144.0124  160.5955 H   0  0  0  0  0  0  0  0  0  0  0  0
  153.9216  143.4668  159.3675 H   0  0  0  0  0  0  0  0  0  0  0  0
  150.8664  143.4217  159.1883 H   0  0  0  0  0  0  0  0  0  0  0  0
  151.9410  144.4616  158.2960 H   0  0  0  0  0  0  0  0  0  0  0  0
  151.1770  142.5750  156.8742 H   0  0  0  0  0  0  0  0  0  0  0  0
  152.9101  142.5699  157.0727 H   0  0  0  0  0  0  0  0  0  0  0  0
  150.9190  140.8023  158.5591 H   0  0  0  0  0  0  0  0  0  0  0  0
  149.7273  141.4950  156.6504 H   0  0  0  0  0  0  0  0  0  0  0  0
  150.6997  141.6180  155.1883 H   0  0  0  0  0  0  0  0  0  0  0  0
  147.7530  142.6147  154.4789 H   0  0  0  0  0  0  0  0  0  0  0  0
  146.0552  140.8832  153.1441 H   0  0  0  0  0  0  0  0  0  0  0  0
  153.9491  140.8106  158.8082 H   0  0  0  0  0  0  0  0  0  0  0  0
  151.9088  139.1775  160.4198 H   0  0  0  0  0  0  0  0  0  0  0  0
  153.6568  139.1152  160.5769 H   0  0  0  0  0  0  0  0  0  0  0  0
  152.9126  138.5200  159.1307 H   0  0  0  0  0  0  0  0  0  0  0  0
  1  2  1  0  0  0  0
  1 19  1  0  0  0  0
  1 20  1  0  0  0  0
  1 21  1  0  0  0  0
  2 17  1  0  0  0  0
  2  3  1  0  0  0  0
  2 22  1  0  0  0  0
  3  4  1  0  0  0  0
  3 23  1  0  0  0  0
  3 24  1  0  0  0  0
  4  5  1  0  0  0  0
  4 25  1  0  0  0  0
  4 26  1  0  0  0  0
  5  6  1  0  0  0  0
  5 27  1  0  0  0  0
  5 28  1  0  0  0  0
  6  7  1  0  0  0  0
  6 17  1  0  0  0  0
  6 29  1  0  0  0  0
  7  8  1  0  0  0  0
  8  9  2  0  0  0  0
  8 10  2  0  0  0  0
  8 11  1  0  0  0  0
 11 12  1  0  0  0  0
 11 30  1  0  0  0  0
 11 31  1  0  0  0  0
 12 16  2  0  0  0  0
 12 13  1  0  0  0  0
 13 14  2  0  0  0  0
 13 32  1  0  0  0  0
 14 15  1  0  0  0  0
 14 33  1  0  0  0  0
 15 16  1  0  0  0  0
 17 18  1  0  0  0  0
 17 34  1  0  0  0  0
 18 35  1  0  0  0  0
 18 36  1  0  0  0  0
 18 37  1  0  0  0  0
M  CHG  1   7  -1
M  END
> <s_m_source_file>
AV-unprocessed.smi

> <i_m_source_file_index>
2451

> <i_lp_mmshare_version>
43012

> <i_f3d_flags>
0

> <s_epik_input>
W0NIM11bQ0BASF0xW0NIMl1bQ0gyXVtDSDJdW0NASF0oW0NASF0xW0NIM10pW05IXVMoPU8pKD1PKVtDSDJdYzJbY0hdW2NIXW9uMg==

> <s_epik_cmdline>
J2VwaWtfcHl0aG9uJywgJy1waCcsICc3LjAnLCAnLXRuJywgJzgnLCAnLW1hJywgJzIwMCcsICctbWV0YWxfYmluZGluZycsICctaW1hZScsICc8aW5maWxlLm1hZT4nLCAnLW9tYWUnLCAnPG91dGZpbGUubWFlPic=

> <r_lp_tautomer_probability>
1

> <r_epik_Ionization_Penalty>
5.22693

> <r_epik_Ionization_Penalty_Charging>
5.22693

> <r_epik_Ionization_Penalty_Neutral>
2.67702e-10

> <r_epik_State_Penalty>
5.22685

> <r_epik_Charging_Adjusted_Penalty>
10.4538

> <i_epik_Tot_Q>
-1

> <i_epik_Tot_abs_Q>
1

> <r_epik_Metal_State_Penalty>
1.28716

> <b_epik_Metal_Only>
1

> <s_lp_Force_Field>
OPLS_2005

> <r_lp_Energy>
12.2025

> <b_lp_Chiralities_Consistent>
1

> <s_lp_Variant>
AV-unprocessed.smi:2451-14

> <Gold.Version>
5.8.1

> <Gold.Id.Protein>
6NUR|6NUR_protein|mol2

> <Gold.PLP.Fitness>
45.2470

> <Gold.PLP.PLP>
-34.8909

> <Gold.PLP.part.hbond>
-2.0000

> <Gold.PLP.part.metal>
0.0000

> <Gold.PLP.part.buried>
-3.0562

> <Gold.PLP.part.nonpolar>
-29.8409

> <Gold.PLP.part.repulsive>
0.8555

> <Gold.PLP.ligand.clash>
0.0000

> <Gold.PLP.ligand.torsion>
0.9076

> <Gold.PLP.Chemscore.Hbond>
2.9666

> <Gold.PLP.Chemscore.CHOScore>
0.7579

> <Gold.PLP.Chemscore.Metal>
0.0000

> <Gold.Chemscore.Hbonds>
donor molecule, donor type, donor heavy atom, donor atom, acceptor molecule, acceptor atom, score
      P1  H  7997  8009       L1     7  0.94
      L1  C    14    33       P1 10175  1.00

> <Gold.PLP.Chemscore.Internal.Correction>
0.9975

> <Gold.Rescore>
     Score         DG    S(hbond)    S(metal)    S(lipo)     H(rot)  DE(clash)    DE(int)     intcor
     16.38     -19.32       1.67        0.00     101.31       1.40       0.48       2.47       ----

> <Gold.Chemscore.Fitness>
16.3792

> <Gold.Chemscore.DG>
-19.3228

> <Gold.Chemscore.ZeroCoef>
-5.4800

> <Gold.Chemscore.Hbond>
1.6678

> <Gold.Chemscore.Metal>
0.0000

> <Gold.Chemscore.Lipo>
101.3061

> <Gold.Chemscore.Internal_Hbond>
0.0000

> <Gold.Chemscore.DEClash>
0.4785

> <Gold.Chemscore.DEInternal>
2.4652

> <Gold.Chemscore.Rot>
1.3986

> <Gold.Chemscore.Internal.Correction>
   9.000000E+99

> <Gold.Chemscore.Hbonds>
donor molecule, donor type, donor heavy atom, donor atom, acceptor molecule, acceptor atom, score
      P1  H  7997  8009       L1     7  0.31

> <Gold.Chemscore.Hbond.Weighted>
-5.5704

> <Gold.Chemscore.Metal.Weighted>
-0.0000

> <Gold.Chemscore.Lipo.Weighted>
-11.8528

> <Gold.Chemscore.Internal_Hbond.Weighted>
0.0000

> <Gold.Chemscore.DEClash.Weighted>
0.4785

> <Gold.Chemscore.DEInternal.Weighted>
2.4652

> <Gold.Chemscore.Rot.Weighted>
3.5804

> <Gold.Chemscore.Internal.Correction.Weighted>
   9.000000E+99

> <Gold.Protein.RotatedTorsions>
[ 6907 6896 6895 6894 ] final   33.90 input  -60.11 | X-H torsion
[ 7974 7965 7964 7962 ] final  151.48 input  175.53 | X-H torsion
[ 8008 7997 7996 7995 ] final -175.09 input   59.86 | X-H torsion
[ 10167 10162 10161 10158 ] final   72.16 input  -65.29 | X-H torsion
[ 10718 10713 10712 10709 ] final  128.28 input   66.30 | X-H torsion
[ 10763 10752 10751 10750 ] final -169.81 input  -60.55 | X-H torsion
[ 11005 11000 10999 10996 ] final   46.81 input  -57.11 | X-H torsion

> <Gold.Protein.ActiveResidues>
 VAL166  LYS551  ARG553  GLY616  TRP617  ASP618  TYR619  PRO620  LYS621  CYS622 
 ASP623  PHE694  ASN695  SER759  ASP760  ASP761  ALA762  ILE779  LEU786  VAL792 
 PHE793  MET794  SER795  GLU796  ALA797  LYS798  CYS799  TRP800  GLU811  SER814 

> <Gold.Protein.RotatedAtoms>
  152.0949  134.9381  160.0570 H   0  0  0  0  0  0  0  0  0  0  0  0  # atno 6907 bound_to 6896
  152.0618  133.4061  159.4429 H   0  0  0  0  0  0  0  0  0  0  0  0  # atno 6908 bound_to 6896
  150.6838  134.3112  159.4790 H   0  0  0  0  0  0  0  0  0  0  0  0  # atno 6909 bound_to 6896
  144.8289  139.6543  143.6067 H   0  0  0  0  0  0  0  0  0  0  0  0  # atno 7974 bound_to 7965
  155.9782  140.1176  157.0750 H   0  0  0  0  0  0  0  0  0  0  0  0  # atno 8008 bound_to 7997
  154.4175  140.1149  156.5467 H   0  0  0  0  0  0  0  0  0  0  0  0  # atno 8009 bound_to 7997
  155.6506  140.3473  155.4749 H   0  0  0  0  0  0  0  0  0  0  0  0  # atno 8010 bound_to 7997
  140.0383  144.5410  150.7454 H   0  0  0  0  0  0  0  0  0  0  0  0  # atno 10167 bound_to 10162
  157.5258  131.1098  150.9084 H   0  0  0  0  0  0  0  0  0  0  0  0  # atno 10718 bound_to 10713
  154.6483  135.2908  155.0019 H   0  0  0  0  0  0  0  0  0  0  0  0  # atno 10763 bound_to 10752
  154.1121  135.6561  153.4891 H   0  0  0  0  0  0  0  0  0  0  0  0  # atno 10764 bound_to 10752
  153.0362  135.5267  154.7380 H   0  0  0  0  0  0  0  0  0  0  0  0  # atno 10765 bound_to 10752
  140.1335  134.4674  155.8503 H   0  0  0  0  0  0  0  0  0  0  0  0  # atno 11005 bound_to 11000
  146.2593  139.6374  142.9373 LP  0  0  0  0  0  0  0  0  0  0  0  0  # atno 17320 bound_to 7965
  145.4938  141.0438  143.2578 LP  0  0  0  0  0  0  0  0  0  0  0  0  # atno 17321 bound_to 7965
  140.7272  143.2648  151.4080 LP  0  0  0  0  0  0  0  0  0  0  0  0  # atno 17342 bound_to 10162
  139.6031  144.1255  152.2219 LP  0  0  0  0  0  0  0  0  0  0  0  0  # atno 17343 bound_to 10162
  156.9681  130.5480  149.5289 LP  0  0  0  0  0  0  0  0  0  0  0  0  # atno 17370 bound_to 10713
  156.0386  130.5471  150.8715 LP  0  0  0  0  0  0  0  0  0  0  0  0  # atno 17371 bound_to 10713
  141.2174  133.6805  156.7114 LP  0  0  0  0  0  0  0  0  0  0  0  0  # atno 17394 bound_to 11000
  140.2812  134.8315  157.3934 LP  0  0  0  0  0  0  0  0  0  0  0  0  # atno 17395 bound_to 11000

$$$$
