AV-unprocessed.smi:1985|AV-procd|sdf|8044|dock5
  -GOLD-   2272010243D 1   1.00000     0.00000
 Structure written by MMmdl.
 51 52  0  0  0  0  0  0  0  0  2 V2000
  149.6488  132.0506  155.4178 C   0  0  0  0  0  0  0  0  0  0  0  0
  148.6968  133.1659  155.8855 C   0  0  0  0  0  0  0  0  0  0  0  0
  148.7889  134.5094  155.0971 C   0  0  1  0  0  0  0  0  0  0  0  0
  148.1892  135.6154  156.0055 C   0  0  0  0  0  0  0  0  0  0  0  0
  150.2827  134.8589  154.8044 C   0  0  0  0  0  0  0  0  0  0  0  0
  150.4726  136.2129  154.2856 N   0  0  0  0  0  0  0  0  0  0  0  0
  151.2763  137.1460  154.8183 C   0  0  0  0  0  0  0  0  0  0  0  0
  151.9966  136.9412  155.7958 O   0  0  0  0  0  0  0  0  0  0  0  0
  151.2597  138.5228  154.1437 C   0  0  0  0  0  0  0  0  0  0  0  0
  150.7570  139.5711  155.0407 N   0  0  0  0  0  0  0  0  0  0  0  0
  149.5936  140.2478  154.7211 C   0  0  0  0  0  0  0  0  0  0  0  0
  149.0748  141.2369  155.4806 C   0  0  0  0  0  0  0  0  0  0  0  0
  149.7327  141.6560  156.7115 C   0  0  0  0  0  0  0  0  0  0  0  0
  149.3042  142.5533  157.4387 O   0  0  0  0  0  0  0  0  0  0  0  0
  150.9180  140.9491  157.0167 N   0  0  0  0  0  0  0  0  0  0  0  0
  151.6048  141.3413  158.2297 C   0  0  0  0  0  0  0  0  0  0  0  0
  151.4571  139.9126  156.2194 C   0  0  0  0  0  0  0  0  0  0  0  0
  152.4965  139.3194  156.5182 O   0  0  0  0  0  0  0  0  0  0  0  0
  148.0056  134.4030  153.8120 N   0  3  0  0  0  0  0  0  0  0  0  0
  148.1926  133.1486  153.0290 C   0  0  0  0  0  0  0  0  0  0  0  0
  147.4966  133.2582  151.6611 C   0  0  0  0  0  0  0  0  0  0  0  0
  146.1172  133.5455  151.8412 O   0  0  0  0  0  0  0  0  0  0  0  0
  145.9214  134.7842  152.5088 C   0  0  0  0  0  0  0  0  0  0  0  0
  146.5512  134.7161  153.9090 C   0  0  0  0  0  0  0  0  0  0  0  0
  149.5036  131.1524  156.0185 H   0  0  0  0  0  0  0  0  0  0  0  0
  150.6952  132.3394  155.5165 H   0  0  0  0  0  0  0  0  0  0  0  0
  149.4709  131.7746  154.3788 H   0  0  0  0  0  0  0  0  0  0  0  0
  147.6837  132.7698  155.8171 H   0  0  0  0  0  0  0  0  0  0  0  0
  148.8485  133.3375  156.9508 H   0  0  0  0  0  0  0  0  0  0  0  0
  148.5847  135.5620  157.0207 H   0  0  0  0  0  0  0  0  0  0  0  0
  147.1044  135.5365  156.0797 H   0  0  0  0  0  0  0  0  0  0  0  0
  148.4220  136.6159  155.6407 H   0  0  0  0  0  0  0  0  0  0  0  0
  150.9007  134.7233  155.6920 H   0  0  0  0  0  0  0  0  0  0  0  0
  150.6906  134.1816  154.0548 H   0  0  0  0  0  0  0  0  0  0  0  0
  149.9240  136.4710  153.4778 H   0  0  0  0  0  0  0  0  0  0  0  0
  152.2750  138.7568  153.8210 H   0  0  0  0  0  0  0  0  0  0  0  0
  150.6589  138.4934  153.2329 H   0  0  0  0  0  0  0  0  0  0  0  0
  149.0718  139.9771  153.8147 H   0  0  0  0  0  0  0  0  0  0  0  0
  148.1627  141.7264  155.1719 H   0  0  0  0  0  0  0  0  0  0  0  0
  152.4990  140.7413  158.3945 H   0  0  0  0  0  0  0  0  0  0  0  0
  150.9076  141.1976  159.0573 H   0  0  0  0  0  0  0  0  0  0  0  0
  151.8798  142.3919  158.1190 H   0  0  0  0  0  0  0  0  0  0  0  0
  149.2450  132.9418  152.8446 H   0  0  0  0  0  0  0  0  0  0  0  0
  147.7873  132.2981  153.5774 H   0  0  0  0  0  0  0  0  0  0  0  0
  147.9639  134.0306  151.0479 H   0  0  0  0  0  0  0  0  0  0  0  0
  147.5916  132.3195  151.1152 H   0  0  0  0  0  0  0  0  0  0  0  0
  146.3501  135.6013  151.9260 H   0  0  0  0  0  0  0  0  0  0  0  0
  144.8513  134.9762  152.5877 H   0  0  0  0  0  0  0  0  0  0  0  0
  146.0346  133.9532  154.4917 H   0  0  0  0  0  0  0  0  0  0  0  0
  146.3782  135.6699  154.4036 H   0  0  0  0  0  0  0  0  0  0  0  0
  148.3912  135.1310  153.2276 H   0  0  0  0  0  0  0  0  0  0  0  0
  1  2  1  0  0  0  0
  1 25  1  0  0  0  0
  1 26  1  0  0  0  0
  1 27  1  0  0  0  0
  2  3  1  0  0  0  0
  2 28  1  0  0  0  0
  2 29  1  0  0  0  0
  3  4  1  0  0  0  0
  3  5  1  0  0  0  0
  3 19  1  0  0  0  0
  4 30  1  0  0  0  0
  4 31  1  0  0  0  0
  4 32  1  0  0  0  0
  5  6  1  0  0  0  0
  5 33  1  0  0  0  0
  5 34  1  0  0  0  0
  6  7  1  0  0  0  0
  6 35  1  0  0  0  0
  7  8  2  0  0  0  0
  7  9  1  0  0  0  0
  9 10  1  0  0  0  0
  9 36  1  0  0  0  0
  9 37  1  0  0  0  0
 10 17  1  0  0  0  0
 10 11  1  0  0  0  0
 11 12  2  0  0  0  0
 11 38  1  0  0  0  0
 12 13  1  0  0  0  0
 12 39  1  0  0  0  0
 13 14  2  0  0  0  0
 13 15  1  0  0  0  0
 15 16  1  0  0  0  0
 15 17  1  0  0  0  0
 16 40  1  0  0  0  0
 16 41  1  0  0  0  0
 16 42  1  0  0  0  0
 17 18  2  0  0  0  0
 19 24  1  0  0  0  0
 19 20  1  0  0  0  0
 19 51  1  0  0  0  0
 20 21  1  0  0  0  0
 20 43  1  0  0  0  0
 20 44  1  0  0  0  0
 21 22  1  0  0  0  0
 21 45  1  0  0  0  0
 21 46  1  0  0  0  0
 22 23  1  0  0  0  0
 23 24  1  0  0  0  0
 23 47  1  0  0  0  0
 23 48  1  0  0  0  0
 24 49  1  0  0  0  0
 24 50  1  0  0  0  0
M  CHG  1  19   1
M  END
> <s_m_source_file>
AV-unprocessed.smi

> <i_m_source_file_index>
1985

> <i_lp_mmshare_version>
43012

> <i_f3d_flags>
0

> <s_epik_input>
W0NIMl0xW0NIMl1PW0NIMl1bQ0gyXU4xW0NAQF0oW0NIM10pKFtDSDJdW0NIM10pW0NIMl1bTkhdQyg9TylbQ0gyXW4yW2NIXVtjSF1jKD1PKW4oW0NIM10pYzI9Tw==

> <s_epik_cmdline>
J2VwaWtfcHl0aG9uJywgJy1waCcsICc3LjAnLCAnLXRuJywgJzgnLCAnLW1hJywgJzIwMCcsICctbWV0YWxfYmluZGluZycsICctaW1hZScsICc8aW5maWxlLm1hZT4nLCAnLW9tYWUnLCAnPG91dGZpbGUubWFlPic=

> <r_lp_tautomer_probability>
1

> <r_epik_Ionization_Penalty>
0.519658

> <r_epik_Ionization_Penalty_Charging>
0.519658

> <r_epik_Ionization_Penalty_Neutral>
8.70177e-08

> <r_epik_State_Penalty>
0.527569

> <r_epik_Charging_Adjusted_Penalty>
1.04723

> <i_epik_Tot_Q>
1

> <i_epik_Tot_abs_Q>
1

> <r_epik_Metal_State_Penalty>
0.527613

> <b_epik_Metal_Only>
0

> <s_lp_Force_Field>
OPLS_2005

> <r_lp_Energy>
36.0852

> <b_lp_Chiralities_Consistent>
1

> <s_lp_Variant>
AV-unprocessed.smi:1985-3

> <Gold.Version>
5.8.1

> <Gold.Id.Protein>
6NUR|6NUR_protein|mol2

> <Gold.PLP.Fitness>
50.2407

> <Gold.PLP.PLP>
-35.7553

> <Gold.PLP.part.hbond>
-5.0000

> <Gold.PLP.part.metal>
0.0000

> <Gold.PLP.part.buried>
-2.0033

> <Gold.PLP.part.nonpolar>
-30.3148

> <Gold.PLP.part.repulsive>
1.9685

> <Gold.PLP.ligand.clash>
0.0000

> <Gold.PLP.ligand.torsion>
1.0695

> <Gold.PLP.Chemscore.Hbond>
4.8260

> <Gold.PLP.Chemscore.CHOScore>
0.5904

> <Gold.PLP.Chemscore.Metal>
0.0000

> <Gold.Chemscore.Hbonds>
donor molecule, donor type, donor heavy atom, donor atom, acceptor molecule, acceptor atom, score
      L1  H     6    35       P1  7948  0.85
      L1  H    19    51       P1  7948  2.00
      P1  H  7997  8010       L1    18  1.00
      P1  H 10752 10765       L1     8  0.94
      L1  C    11    38       P1  7957  0.55

> <Gold.PLP.Chemscore.Internal.Correction>
0.3752

> <Gold.Rescore>
     Score         DG    S(hbond)    S(metal)    S(lipo)     H(rot)  DE(clash)    DE(int)     intcor
     14.07     -17.28       3.13        0.00      61.23       2.27       0.15       3.06       ----

> <Gold.Chemscore.Fitness>
14.0704

> <Gold.Chemscore.DG>
-17.2795

> <Gold.Chemscore.ZeroCoef>
-5.4800

> <Gold.Chemscore.Hbond>
3.1296

> <Gold.Chemscore.Metal>
0.0000

> <Gold.Chemscore.Lipo>
61.2311

> <Gold.Chemscore.Internal_Hbond>
0.0000

> <Gold.Chemscore.DEClash>
0.1513

> <Gold.Chemscore.DEInternal>
3.0578

> <Gold.Chemscore.Rot>
2.2724

> <Gold.Chemscore.Internal.Correction>
   9.000000E+99

> <Gold.Chemscore.Hbonds>
donor molecule, donor type, donor heavy atom, donor atom, acceptor molecule, acceptor atom, score
      L1  H     6    35       P1  7948  0.14
      L1  H    19    51       P1  7948  0.91
      P1  H  7997  8010       L1    18  0.94
      P1  H 10752 10765       L1     8  0.20

> <Gold.Chemscore.Hbond.Weighted>
-10.4529

> <Gold.Chemscore.Metal.Weighted>
-0.0000

> <Gold.Chemscore.Lipo.Weighted>
-7.1640

> <Gold.Chemscore.Internal_Hbond.Weighted>
0.0000

> <Gold.Chemscore.DEClash.Weighted>
0.1513

> <Gold.Chemscore.DEInternal.Weighted>
3.0578

> <Gold.Chemscore.Rot.Weighted>
5.8174

> <Gold.Chemscore.Internal.Correction.Weighted>
   9.000000E+99

> <Gold.Protein.RotatedTorsions>
[ 6907 6896 6895 6894 ] final -114.15 input  -60.11 | X-H torsion
[ 7974 7965 7964 7962 ] final -156.16 input  175.53 | X-H torsion
[ 8008 7997 7996 7995 ] final   62.52 input   59.86 | X-H torsion
[ 10167 10162 10161 10158 ] final  127.23 input  -65.29 | X-H torsion
[ 10718 10713 10712 10709 ] final   57.34 input   66.30 | X-H torsion
[ 10763 10752 10751 10750 ] final -150.93 input  -60.55 | X-H torsion
[ 11005 11000 10999 10996 ] final  126.83 input  -57.11 | X-H torsion

> <Gold.Protein.ActiveResidues>
 VAL166  LYS551  ARG553  GLY616  TRP617  ASP618  TYR619  PRO620  LYS621  CYS622 
 ASP623  PHE694  ASN695  SER759  ASP760  ASP761  ALA762  ILE779  LEU786  VAL792 
 PHE793  MET794  SER795  GLU796  ALA797  LYS798  CYS799  TRP800  GLU811  SER814 

> <Gold.Protein.RotatedAtoms>
  150.7881  133.8842  159.3294 H   0  0  0  0  0  0  0  0  0  0  0  0  # atno 6907 bound_to 6896
  151.6687  135.0977  160.0203 H   0  0  0  0  0  0  0  0  0  0  0  0  # atno 6908 bound_to 6896
  152.3949  133.6694  159.6303 H   0  0  0  0  0  0  0  0  0  0  0  0  # atno 6909 bound_to 6896
  144.7606  140.4148  143.5979 H   0  0  0  0  0  0  0  0  0  0  0  0  # atno 7974 bound_to 7965
  155.6157  140.3495  155.4636 H   0  0  0  0  0  0  0  0  0  0  0  0  # atno 8008 bound_to 7997
  156.0119  140.1235  157.0469 H   0  0  0  0  0  0  0  0  0  0  0  0  # atno 8009 bound_to 7997
  154.4284  140.1080  156.5828 H   0  0  0  0  0  0  0  0  0  0  0  0  # atno 8010 bound_to 7997
  139.5589  144.6868  151.4100 H   0  0  0  0  0  0  0  0  0  0  0  0  # atno 10167 bound_to 10162
  157.5506  130.8763  149.8958 H   0  0  0  0  0  0  0  0  0  0  0  0  # atno 10718 bound_to 10713
  154.8089  135.3272  154.7358 H   0  0  0  0  0  0  0  0  0  0  0  0  # atno 10763 bound_to 10752
  153.8011  135.6903  153.4860 H   0  0  0  0  0  0  0  0  0  0  0  0  # atno 10764 bound_to 10752
  153.1853  135.4571  155.0026 H   0  0  0  0  0  0  0  0  0  0  0  0  # atno 10765 bound_to 10752
  139.9476  134.9627  156.8765 H   0  0  0  0  0  0  0  0  0  0  0  0  # atno 11005 bound_to 11000
  145.6632  139.1585  143.2796 LP  0  0  0  0  0  0  0  0  0  0  0  0  # atno 17320 bound_to 7965
  146.1664  140.6711  142.9253 LP  0  0  0  0  0  0  0  0  0  0  0  0  # atno 17321 bound_to 7965
  140.6866  143.7959  150.7195 LP  0  0  0  0  0  0  0  0  0  0  0  0  # atno 17342 bound_to 10162
  140.1428  143.4426  152.2182 LP  0  0  0  0  0  0  0  0  0  0  0  0  # atno 17343 bound_to 10162
  156.0573  130.3706  150.1061 LP  0  0  0  0  0  0  0  0  0  0  0  0  # atno 17370 bound_to 10713
  156.9234  130.9690  151.3545 LP  0  0  0  0  0  0  0  0  0  0  0  0  # atno 17371 bound_to 10713
  140.5797  134.0364  155.7459 LP  0  0  0  0  0  0  0  0  0  0  0  0  # atno 17394 bound_to 11000
  141.1131  133.9585  157.2874 LP  0  0  0  0  0  0  0  0  0  0  0  0  # atno 17395 bound_to 11000

$$$$
