AV-unprocessed.smi:218|AV-procd|sdf|1668|dock1
  -GOLD-   2262020 73D 1   1.00000     0.00000
 Structure written by MMmdl.
 54 57  0  0  0  0  0  0  0  0  1 V2000
  152.0380  144.2396  161.4537 C   0  0  0  0  0  0  0  0  0  0  0  0
  152.0258  145.1421  160.2140 C   0  0  0  0  0  0  0  0  0  0  0  0
  150.5877  145.4775  159.7833 C   0  0  0  0  0  0  0  0  0  0  0  0
  152.6980  144.4298  159.1735 O   0  0  0  0  0  0  0  0  0  0  0  0
  152.2242  143.2012  158.7552 C   0  0  0  0  0  0  0  0  0  0  0  0
  151.7305  143.0889  157.4396 C   0  0  0  0  0  0  0  0  0  0  0  0
  151.2353  141.8441  157.0014 C   0  0  0  0  0  0  0  0  0  0  0  0
  150.7065  141.6814  155.5925 C   0  0  0  0  0  0  0  0  0  0  0  0
  150.2719  140.3206  155.3095 N   0  0  0  0  0  0  0  0  0  0  0  0
  149.1850  140.1052  154.5383 C   0  0  0  0  0  0  0  0  0  0  0  0
  148.8483  140.9716  153.5482 N   0  0  0  0  0  0  0  0  0  0  0  0
  147.7775  140.7298  152.7874 C   0  0  0  0  0  0  0  0  0  0  0  0
  146.9239  139.7062  152.8517 N   0  0  0  0  0  0  0  0  0  0  0  0
  147.2467  138.8355  153.8534 C   0  0  0  0  0  0  0  0  0  0  0  0
  148.3623  138.9644  154.7283 C   0  0  0  0  0  0  0  0  0  0  0  0
  148.4013  137.8894  155.6036 N   0  0  0  0  0  0  0  0  0  0  0  0
  147.3725  137.1649  155.2573 C   0  0  0  0  0  0  0  0  0  0  0  0
  146.5956  137.6746  154.2362 N   0  0  0  0  0  0  0  0  0  0  0  0
  145.3806  137.0433  153.6026 C   0  0  2  0  0  0  0  0  0  0  0  0
  145.6241  135.6933  153.3671 O   0  0  0  0  0  0  0  0  0  0  0  0
  146.2757  135.5517  152.1142 C   0  0  1  0  0  0  0  0  0  0  0  0
  146.1531  134.0960  151.6399 C   0  0  0  0  0  0  0  0  0  0  0  0
  146.3302  134.0141  150.2420 O   0  0  0  0  0  0  0  0  0  0  0  0
  145.5590  136.5850  151.2342 C   0  0  2  0  0  0  0  0  0  0  0  0
  146.4657  137.1371  150.3000 O   0  0  0  0  0  0  0  0  0  0  0  0
  145.0897  137.6603  152.2193 C   0  0  1  0  0  0  0  0  0  0  0  0
  143.7110  137.9225  152.0576 O   0  0  0  0  0  0  0  0  0  0  0  0
  151.2550  140.7556  157.8956 C   0  0  0  0  0  0  0  0  0  0  0  0
  151.7671  140.9643  159.1909 C   0  0  0  0  0  0  0  0  0  0  0  0
  152.2406  142.1543  159.6178 N   0  0  0  0  0  0  0  0  0  0  0  0
  144.5933  137.1928  154.3425 H   0  0  0  0  0  0  0  0  0  0  0  0
  147.3262  135.8180  152.2486 H   0  0  0  0  0  0  0  0  0  0  0  0
  144.7143  136.1314  150.7132 H   0  0  0  0  0  0  0  0  0  0  0  0
  145.6296  138.5972  152.0850 H   0  0  0  0  0  0  0  0  0  0  0  0
  151.5438  144.7231  162.2968 H   0  0  0  0  0  0  0  0  0  0  0  0
  153.0595  144.0090  161.7572 H   0  0  0  0  0  0  0  0  0  0  0  0
  151.5266  143.2961  161.2619 H   0  0  0  0  0  0  0  0  0  0  0  0
  152.5601  146.0563  160.4770 H   0  0  0  0  0  0  0  0  0  0  0  0
  150.0504  145.9892  160.5820 H   0  0  0  0  0  0  0  0  0  0  0  0
  150.0319  144.5732  159.5344 H   0  0  0  0  0  0  0  0  0  0  0  0
  150.5686  146.1273  158.9089 H   0  0  0  0  0  0  0  0  0  0  0  0
  151.7330  143.9443  156.7797 H   0  0  0  0  0  0  0  0  0  0  0  0
  149.8728  142.3676  155.4377 H   0  0  0  0  0  0  0  0  0  0  0  0
  151.4928  141.9684  154.8929 H   0  0  0  0  0  0  0  0  0  0  0  0
  150.8127  139.5805  155.7333 H   0  0  0  0  0  0  0  0  0  0  0  0
  147.5752  141.4596  152.0174 H   0  0  0  0  0  0  0  0  0  0  0  0
  147.1560  136.2255  155.7450 H   0  0  0  0  0  0  0  0  0  0  0  0
  146.9193  133.4841  152.1165 H   0  0  0  0  0  0  0  0  0  0  0  0
  145.1863  133.6732  151.9139 H   0  0  0  0  0  0  0  0  0  0  0  0
  147.0671  134.5540  150.0002 H   0  0  0  0  0  0  0  0  0  0  0  0
  145.9722  137.5937  149.6359 H   0  0  0  0  0  0  0  0  0  0  0  0
  143.6044  138.8375  151.8458 H   0  0  0  0  0  0  0  0  0  0  0  0
  150.8888  139.7835  157.5993 H   0  0  0  0  0  0  0  0  0  0  0  0
  151.7974  140.1534  159.9035 H   0  0  0  0  0  0  0  0  0  0  0  0
  1  2  1  0  0  0  0
  1 35  1  0  0  0  0
  1 36  1  0  0  0  0
  1 37  1  0  0  0  0
  2  3  1  0  0  0  0
  2  4  1  0  0  0  0
  2 38  1  0  0  0  0
  3 39  1  0  0  0  0
  3 40  1  0  0  0  0
  3 41  1  0  0  0  0
  4  5  1  0  0  0  0
  5 30  1  0  0  0  0
  5  6  2  0  0  0  0
  6  7  1  0  0  0  0
  6 42  1  0  0  0  0
  7  8  1  0  0  0  0
  7 28  2  0  0  0  0
  8  9  1  0  0  0  0
  8 43  1  0  0  0  0
  8 44  1  0  0  0  0
  9 10  1  0  0  0  0
  9 45  1  0  0  0  0
 10 15  1  0  0  0  0
 10 11  2  0  0  0  0
 11 12  1  0  0  0  0
 12 13  2  0  0  0  0
 12 46  1  0  0  0  0
 13 14  1  0  0  0  0
 14 18  1  0  0  0  0
 14 15  2  0  0  0  0
 15 16  1  0  0  0  0
 16 17  2  0  0  0  0
 17 18  1  0  0  0  0
 17 47  1  0  0  0  0
 18 19  1  0  0  0  0
 19 31  1  0  0  0  0
 19 26  1  0  0  0  0
 19 20  1  0  0  0  0
 20 21  1  0  0  0  0
 21 32  1  0  0  0  0
 21 22  1  0  0  0  0
 21 24  1  0  0  0  0
 22 23  1  0  0  0  0
 22 48  1  0  0  0  0
 22 49  1  0  0  0  0
 23 50  1  0  0  0  0
 24 33  1  0  0  0  0
 24 25  1  0  0  0  0
 24 26  1  0  0  0  0
 25 51  1  0  0  0  0
 26 34  1  0  0  0  0
 26 27  1  0  0  0  0
 27 52  1  0  0  0  0
 28 29  1  0  0  0  0
 28 53  1  0  0  0  0
 29 30  2  0  0  0  0
 29 54  1  0  0  0  0
M  END
> <s_m_source_file>
AV-unprocessed.smi

> <i_m_source_file_index>
218

> <i_lp_mmshare_version>
43012

> <i_f3d_flags>
0

> <s_epik_input>
W0NIM11bQ0hdKFtDSDNdKU9jMVtjSF1jKFtjSF1bY0hdbjEpW0NIMl1bTkhdYyhuW2NIXW4yKWMoYzIzKW5bY0hdbjNbQ0BASF00T1tDQEhdKFtDSDJdW09IXSlbQ0BASF0oW09IXSlbQ0BIXTRbT0hd

> <s_epik_cmdline>
J2VwaWtfcHl0aG9uJywgJy1waCcsICc3LjAnLCAnLXRuJywgJzgnLCAnLW1hJywgJzIwMCcsICctbWV0YWxfYmluZGluZycsICctaW1hZScsICc8aW5maWxlLm1hZT4nLCAnLW9tYWUnLCAnPG91dGZpbGUubWFlPic=

> <r_lp_tautomer_probability>
1

> <r_epik_Ionization_Penalty>
0.00457014

> <r_epik_Ionization_Penalty_Charging>
0

> <r_epik_Ionization_Penalty_Neutral>
0.00457014

> <r_epik_State_Penalty>
-0

> <r_epik_Charging_Adjusted_Penalty>
0

> <i_epik_Tot_Q>
0

> <i_epik_Tot_abs_Q>
0

> <r_epik_Metal_State_Penalty>
-0

> <b_epik_Metal_Only>
0

> <s_epik_Chemistry_Notes>
This compound contains an acetal/aminal-like group ( X-CH(R)-Y where X, Y are N, S, or O) that may be acid/base labile, releasing an aldehyde.

> <s_lp_Force_Field>
OPLS_2005

> <r_lp_Energy>
35.6768

> <b_lp_Chiralities_Consistent>
1

> <s_lp_Variant>
AV-unprocessed.smi:218-7

> <Gold.Version>
5.8.1

> <Gold.Id.Protein>
6NUR|6NUR_protein|mol2

> <Gold.PLP.Fitness>
48.7680

> <Gold.PLP.PLP>
-43.6592

> <Gold.PLP.part.hbond>
-4.6352

> <Gold.PLP.part.metal>
0.0000

> <Gold.PLP.part.buried>
-5.6343

> <Gold.PLP.part.nonpolar>
-33.3562

> <Gold.PLP.part.repulsive>
1.1728

> <Gold.PLP.ligand.clash>
0.0000

> <Gold.PLP.ligand.torsion>
0.9279

> <Gold.PLP.Chemscore.Hbond>
2.1805

> <Gold.PLP.Chemscore.CHOScore>
0.0000

> <Gold.PLP.Chemscore.Metal>
0.0000

> <Gold.Chemscore.Hbonds>
donor molecule, donor type, donor heavy atom, donor atom, acceptor molecule, acceptor atom, score
      L1  H    25    51       P1 10171  0.19
      L1  H    27    52       P1 10175  0.93
      P1  H  7954  7966       L1    25  0.65
      P1  H  8011  8017       L1    11  0.76

> <Gold.PLP.Chemscore.Internal.Correction>
0.4231

> <Gold.Rescore>
     Score         DG    S(hbond)    S(metal)    S(lipo)     H(rot)  DE(clash)    DE(int)     intcor
      5.84      -9.65       1.91        0.00      88.31       4.90       0.16       3.65       ----

> <Gold.Chemscore.Fitness>
5.8381

> <Gold.Chemscore.DG>
-9.6477

> <Gold.Chemscore.ZeroCoef>
-5.4800

> <Gold.Chemscore.Hbond>
1.9123

> <Gold.Chemscore.Metal>
0.0000

> <Gold.Chemscore.Lipo>
88.3102

> <Gold.Chemscore.Internal_Hbond>
0.0000

> <Gold.Chemscore.DEClash>
0.1568

> <Gold.Chemscore.DEInternal>
3.6528

> <Gold.Chemscore.Rot>
4.9029

> <Gold.Chemscore.Internal.Correction>
   9.000000E+99

> <Gold.Chemscore.Hbonds>
donor molecule, donor type, donor heavy atom, donor atom, acceptor molecule, acceptor atom, score
      L1  H    25    51       P1 10171  0.19
      L1  H    27    52       P1 10175  0.90
      P1  H  7954  7966       L1    25  0.11
      P1  H  8011  8017       L1    11  0.16

> <Gold.Chemscore.Hbond.Weighted>
-6.3869

> <Gold.Chemscore.Metal.Weighted>
-0.0000

> <Gold.Chemscore.Lipo.Weighted>
-10.3323

> <Gold.Chemscore.Internal_Hbond.Weighted>
0.0000

> <Gold.Chemscore.DEClash.Weighted>
0.1568

> <Gold.Chemscore.DEInternal.Weighted>
3.6528

> <Gold.Chemscore.Rot.Weighted>
12.5515

> <Gold.Chemscore.Internal.Correction.Weighted>
   9.000000E+99

> <Gold.Protein.RotatedTorsions>
[ 6907 6896 6895 6894 ] final  106.37 input  -60.11 | X-H torsion
[ 7974 7965 7964 7962 ] final -104.13 input  175.53 | X-H torsion
[ 8008 7997 7996 7995 ] final   14.75 input   59.86 | X-H torsion
[ 10167 10162 10161 10158 ] final  139.68 input  -65.29 | X-H torsion
[ 10718 10713 10712 10709 ] final  173.70 input   66.30 | X-H torsion
[ 10763 10752 10751 10750 ] final -133.92 input  -60.55 | X-H torsion
[ 11005 11000 10999 10996 ] final  -71.12 input  -57.11 | X-H torsion

> <Gold.Protein.ActiveResidues>
 VAL166  LYS551  ARG553  GLY616  TRP617  ASP618  TYR619  PRO620  LYS621  CYS622 
 ASP623  PHE694  ASN695  SER759  ASP760  ASP761  ALA762  ILE779  LEU786  VAL792 
 PHE793  MET794  SER795  GLU796  ALA797  LYS798  CYS799  TRP800  GLU811  SER814 

> <Gold.Protein.RotatedAtoms>
  152.5196  133.9390  159.7617 H   0  0  0  0  0  0  0  0  0  0  0  0  # atno 6907 bound_to 6896
  150.9724  133.6321  159.2742 H   0  0  0  0  0  0  0  0  0  0  0  0  # atno 6908 bound_to 6896
  151.3528  135.0893  159.9461 H   0  0  0  0  0  0  0  0  0  0  0  0  # atno 6909 bound_to 6896
  145.2470  140.9225  143.3117 H   0  0  0  0  0  0  0  0  0  0  0  0  # atno 7974 bound_to 7965
  154.8528  140.2932  155.5587 H   0  0  0  0  0  0  0  0  0  0  0  0  # atno 8008 bound_to 7997
  156.3017  140.2492  156.3422 H   0  0  0  0  0  0  0  0  0  0  0  0  # atno 8009 bound_to 7997
  154.9002  140.0391  157.1878 H   0  0  0  0  0  0  0  0  0  0  0  0  # atno 8010 bound_to 7997
  139.5071  144.6280  151.5889 H   0  0  0  0  0  0  0  0  0  0  0  0  # atno 10167 bound_to 10162
  156.9604  131.0059  151.2929 H   0  0  0  0  0  0  0  0  0  0  0  0  # atno 10718 bound_to 10713
  154.8726  135.3750  154.4652 H   0  0  0  0  0  0  0  0  0  0  0  0  # atno 10763 bound_to 10752
  153.5317  135.7027  153.5685 H   0  0  0  0  0  0  0  0  0  0  0  0  # atno 10764 bound_to 10752
  153.3887  135.3978  155.1873 H   0  0  0  0  0  0  0  0  0  0  0  0  # atno 10765 bound_to 10752
  141.1586  133.6808  156.6856 H   0  0  0  0  0  0  0  0  0  0  0  0  # atno 11005 bound_to 11000
  144.9537  139.4055  143.6390 LP  0  0  0  0  0  0  0  0  0  0  0  0  # atno 17320 bound_to 7965
  146.3313  139.8557  142.8865 LP  0  0  0  0  0  0  0  0  0  0  0  0  # atno 17321 bound_to 7965
  140.6003  143.9622  150.6382 LP  0  0  0  0  0  0  0  0  0  0  0  0  # atno 17342 bound_to 10162
  140.2831  143.3375  152.1132 LP  0  0  0  0  0  0  0  0  0  0  0  0  # atno 17343 bound_to 10162
  157.5662  130.8279  149.8330 LP  0  0  0  0  0  0  0  0  0  0  0  0  # atno 17370 bound_to 10713
  156.0325  130.3760  150.1650 LP  0  0  0  0  0  0  0  0  0  0  0  0  # atno 17371 bound_to 10713
  140.3069  134.8118  157.4144 LP  0  0  0  0  0  0  0  0  0  0  0  0  # atno 17394 bound_to 11000
  140.1213  134.5216  155.8182 LP  0  0  0  0  0  0  0  0  0  0  0  0  # atno 17395 bound_to 11000

$$$$
