AV-unprocessed.smi:1247|AV-procd|sdf|5243|dock3
  -GOLD-   22720 4353D 1   1.00000     0.00000
 Structure written by MMmdl.
 46 47  0  0  0  0  0  0  0  0  1 V2000
  143.5655  132.4093  149.6754 C   0  0  0  0  0  0  0  0  0  0  0  0
  144.6135  133.0988  150.4986 C   0  0  0  0  0  0  0  0  0  0  0  0
  144.7717  134.4967  150.7261 C   0  0  0  0  0  0  0  0  0  0  0  0
  145.8727  134.5473  151.5368 C   0  0  0  0  0  0  0  0  0  0  0  0
  146.4871  135.6327  152.0782 N   0  0  0  0  0  0  0  0  0  0  0  0
  145.9601  136.5962  152.8541 C   0  0  0  0  0  0  0  0  0  0  0  0
  144.7830  136.6636  153.2088 O   0  0  0  0  0  0  0  0  0  0  0  0
  146.8885  137.4979  153.2046 N   0  0  0  0  0  0  0  0  0  0  0  0
  146.6444  138.6687  154.0387 C   0  0  0  0  0  0  0  0  0  0  0  0
  147.3229  139.9236  153.4576 C   0  0  0  0  0  0  0  0  0  0  0  0
  148.7022  140.1362  153.8928 N   0  0  0  0  0  0  0  0  0  0  0  0
  149.4278  138.8847  154.0964 C   0  0  0  0  0  0  0  0  0  0  0  0
  150.8716  139.1262  154.5778 C   0  0  2  0  0  0  0  0  0  0  0  0
  151.6093  137.8168  154.8765 C   0  0  0  0  0  0  0  0  0  0  0  0
  150.8436  139.9060  155.7700 O   0  0  0  0  0  0  0  0  0  0  0  0
  150.1869  141.1599  155.6069 C   0  0  2  0  0  0  0  0  0  0  0  0
  150.2311  141.9051  156.9452 C   0  0  0  0  0  0  0  0  0  0  0  0
  148.7445  140.9116  155.1274 C   0  0  0  0  0  0  0  0  0  0  0  0
  146.3178  133.2638  151.7628 N   0  0  0  0  0  0  0  0  0  0  0  0
  147.4425  132.8047  152.5544 C   0  0  0  0  0  0  0  0  0  0  0  0
  145.5360  132.3710  151.1180 N   0  0  0  0  0  0  0  0  0  0  0  0
  142.8729  133.1281  149.2369 H   0  0  0  0  0  0  0  0  0  0  0  0
  142.9832  131.7156  150.2822 H   0  0  0  0  0  0  0  0  0  0  0  0
  144.0166  131.8437  148.8598 H   0  0  0  0  0  0  0  0  0  0  0  0
  144.1667  135.3074  150.3490 H   0  0  0  0  0  0  0  0  0  0  0  0
  147.4693  135.7218  151.8635 H   0  0  0  0  0  0  0  0  0  0  0  0
  147.8319  137.3675  152.8697 H   0  0  0  0  0  0  0  0  0  0  0  0
  145.5650  138.8035  154.0969 H   0  0  0  0  0  0  0  0  0  0  0  0
  146.9924  138.4824  155.0562 H   0  0  0  0  0  0  0  0  0  0  0  0
  147.3134  139.8351  152.3703 H   0  0  0  0  0  0  0  0  0  0  0  0
  146.7234  140.8052  153.6901 H   0  0  0  0  0  0  0  0  0  0  0  0
  148.8998  138.2675  154.8252 H   0  0  0  0  0  0  0  0  0  0  0  0
  149.4624  138.3137  153.1692 H   0  0  0  0  0  0  0  0  0  0  0  0
  151.4245  139.6726  153.8116 H   0  0  0  0  0  0  0  0  0  0  0  0
  151.6659  137.1867  153.9884 H   0  0  0  0  0  0  0  0  0  0  0  0
  151.1048  137.2492  155.6588 H   0  0  0  0  0  0  0  0  0  0  0  0
  152.6284  138.0117  155.2109 H   0  0  0  0  0  0  0  0  0  0  0  0
  150.7248  141.7470  154.8604 H   0  0  0  0  0  0  0  0  0  0  0  0
  149.7475  142.8791  156.8679 H   0  0  0  0  0  0  0  0  0  0  0  0
  151.2601  142.0694  157.2660 H   0  0  0  0  0  0  0  0  0  0  0  0
  149.7240  141.3405  157.7282 H   0  0  0  0  0  0  0  0  0  0  0  0
  148.2461  141.8701  154.9768 H   0  0  0  0  0  0  0  0  0  0  0  0
  148.1875  140.3906  155.9080 H   0  0  0  0  0  0  0  0  0  0  0  0
  147.2942  133.0857  153.5975 H   0  0  0  0  0  0  0  0  0  0  0  0
  148.3608  133.2641  152.1876 H   0  0  0  0  0  0  0  0  0  0  0  0
  147.5404  131.7199  152.4907 H   0  0  0  0  0  0  0  0  0  0  0  0
  1  2  1  0  0  0  0
  1 22  1  0  0  0  0
  1 23  1  0  0  0  0
  1 24  1  0  0  0  0
  2 21  2  0  0  0  0
  2  3  1  0  0  0  0
  3  4  2  0  0  0  0
  3 25  1  0  0  0  0
  4  5  1  0  0  0  0
  4 19  1  0  0  0  0
  5  6  1  0  0  0  0
  5 26  1  0  0  0  0
  6  7  2  0  0  0  0
  6  8  1  0  0  0  0
  8  9  1  0  0  0  0
  8 27  1  0  0  0  0
  9 10  1  0  0  0  0
  9 28  1  0  0  0  0
  9 29  1  0  0  0  0
 10 11  1  0  0  0  0
 10 30  1  0  0  0  0
 10 31  1  0  0  0  0
 11 18  1  0  0  0  0
 11 12  1  0  0  0  0
 12 13  1  0  0  0  0
 12 32  1  0  0  0  0
 12 33  1  0  0  0  0
 13 14  1  0  0  0  0
 13 15  1  0  0  0  0
 13 34  1  0  0  0  0
 14 35  1  0  0  0  0
 14 36  1  0  0  0  0
 14 37  1  0  0  0  0
 15 16  1  0  0  0  0
 16 17  1  0  0  0  0
 16 18  1  0  0  0  0
 16 38  1  0  0  0  0
 17 39  1  0  0  0  0
 17 40  1  0  0  0  0
 17 41  1  0  0  0  0
 18 42  1  0  0  0  0
 18 43  1  0  0  0  0
 19 20  1  0  0  0  0
 19 21  1  0  0  0  0
 20 44  1  0  0  0  0
 20 45  1  0  0  0  0
 20 46  1  0  0  0  0
M  END
> <s_m_source_file>
AV-unprocessed.smi

> <i_m_source_file_index>
1247

> <i_lp_mmshare_version>
43012

> <i_f3d_flags>
0

> <s_epik_input>
W0NIM11jMVtjSF1jKG4objEpW0NIM10pW05IXUMoPU8pW05IXVtDSDJdW0NIMl1OMltDSDJdW0NAQEhdKFtDSDNdKU9bQ0BASF0oW0NIM10pW0NIMl0y

> <s_epik_cmdline>
J2VwaWtfcHl0aG9uJywgJy1waCcsICc3LjAnLCAnLXRuJywgJzgnLCAnLW1hJywgJzIwMCcsICctbWV0YWxfYmluZGluZycsICctaW1hZScsICc8aW5maWxlLm1hZT4nLCAnLW9tYWUnLCAnPG91dGZpbGUubWFlPic=

> <r_lp_tautomer_probability>
1

> <r_epik_Ionization_Penalty>
0.233972

> <r_epik_Ionization_Penalty_Charging>
0

> <r_epik_Ionization_Penalty_Neutral>
0.233972

> <r_epik_State_Penalty>
0.224627

> <r_epik_Charging_Adjusted_Penalty>
0.224627

> <i_epik_Tot_Q>
0

> <i_epik_Tot_abs_Q>
0

> <r_epik_Metal_State_Penalty>
0.224624

> <b_epik_Metal_Only>
0

> <s_lp_Force_Field>
OPLS_2005

> <r_lp_Energy>
19.816

> <b_lp_Chiralities_Consistent>
1

> <s_lp_Variant>
AV-unprocessed.smi:1247-1

> <Gold.Version>
5.8.1

> <Gold.Id.Protein>
6NUR|6NUR_protein|mol2

> <Gold.PLP.Fitness>
39.1028

> <Gold.PLP.PLP>
-35.6190

> <Gold.PLP.part.hbond>
-1.9641

> <Gold.PLP.part.metal>
0.0000

> <Gold.PLP.part.buried>
-4.8669

> <Gold.PLP.part.nonpolar>
-31.3280

> <Gold.PLP.part.repulsive>
1.9595

> <Gold.PLP.ligand.clash>
0.0000

> <Gold.PLP.ligand.torsion>
1.1084

> <Gold.PLP.Chemscore.Hbond>
1.8960

> <Gold.PLP.Chemscore.CHOScore>
0.0000

> <Gold.PLP.Chemscore.Metal>
0.0000

> <Gold.Chemscore.Hbonds>
donor molecule, donor type, donor heavy atom, donor atom, acceptor molecule, acceptor atom, score
      L1  H     5    26       P1  7948  1.00
      L1  H     8    27       P1  7948  0.90

> <Gold.PLP.Chemscore.Internal.Correction>
0.0127

> <Gold.Rescore>
     Score         DG    S(hbond)    S(metal)    S(lipo)     H(rot)  DE(clash)    DE(int)     intcor
     16.04     -17.36       1.85        0.00      81.28       1.48       0.28       1.05       ----

> <Gold.Chemscore.Fitness>
16.0380

> <Gold.Chemscore.DG>
-17.3639

> <Gold.Chemscore.ZeroCoef>
-5.4800

> <Gold.Chemscore.Hbond>
1.8480

> <Gold.Chemscore.Metal>
0.0000

> <Gold.Chemscore.Lipo>
81.2821

> <Gold.Chemscore.Internal_Hbond>
0.0000

> <Gold.Chemscore.DEClash>
0.2771

> <Gold.Chemscore.DEInternal>
1.0488

> <Gold.Chemscore.Rot>
1.4838

> <Gold.Chemscore.Internal.Correction>
   9.000000E+99

> <Gold.Chemscore.Hbonds>
donor molecule, donor type, donor heavy atom, donor atom, acceptor molecule, acceptor atom, score
      L1  H     5    26       P1  7948  0.93
      L1  H     8    27       P1  7948  0.88

> <Gold.Chemscore.Hbond.Weighted>
-6.1724

> <Gold.Chemscore.Metal.Weighted>
-0.0000

> <Gold.Chemscore.Lipo.Weighted>
-9.5100

> <Gold.Chemscore.Internal_Hbond.Weighted>
0.0000

> <Gold.Chemscore.DEClash.Weighted>
0.2771

> <Gold.Chemscore.DEInternal.Weighted>
1.0488

> <Gold.Chemscore.Rot.Weighted>
3.7985

> <Gold.Chemscore.Internal.Correction.Weighted>
   9.000000E+99

> <Gold.Protein.RotatedTorsions>
[ 6907 6896 6895 6894 ] final  130.08 input  -60.11 | X-H torsion
[ 7974 7965 7964 7962 ] final  -75.56 input  175.53 | X-H torsion
[ 8008 7997 7996 7995 ] final  129.60 input   59.86 | X-H torsion
[ 10167 10162 10161 10158 ] final -106.32 input  -65.29 | X-H torsion
[ 10718 10713 10712 10709 ] final  -58.23 input   66.30 | X-H torsion
[ 10763 10752 10751 10750 ] final -132.16 input  -60.55 | X-H torsion
[ 11005 11000 10999 10996 ] final -135.48 input  -57.11 | X-H torsion

> <Gold.Protein.ActiveResidues>
 VAL166  LYS551  ARG553  GLY616  TRP617  ASP618  TYR619  PRO620  LYS621  CYS622 
 ASP623  PHE694  ASN695  SER759  ASP760  ASP761  ALA762  ILE779  LEU786  VAL792 
 PHE793  MET794  SER795  GLU796  ALA797  LYS798  CYS799  TRP800  GLU811  SER814 

> <Gold.Protein.RotatedAtoms>
  152.3562  133.6239  159.5980 H   0  0  0  0  0  0  0  0  0  0  0  0  # atno 6907 bound_to 6896
  150.7570  133.9497  159.3490 H   0  0  0  0  0  0  0  0  0  0  0  0  # atno 6908 bound_to 6896
  151.7342  135.0869  160.0356 H   0  0  0  0  0  0  0  0  0  0  0  0  # atno 6909 bound_to 6896
  145.6245  140.9354  143.1120 H   0  0  0  0  0  0  0  0  0  0  0  0  # atno 7974 bound_to 7965
  156.2939  140.2616  156.2626 H   0  0  0  0  0  0  0  0  0  0  0  0  # atno 8008 bound_to 7997
  154.9774  140.0390  157.2280 H   0  0  0  0  0  0  0  0  0  0  0  0  # atno 8009 bound_to 7997
  154.7803  140.2794  155.6073 H   0  0  0  0  0  0  0  0  0  0  0  0  # atno 8010 bound_to 7997
  140.1890  143.3907  152.1222 H   0  0  0  0  0  0  0  0  0  0  0  0  # atno 10167 bound_to 10162
  156.1151  130.4171  150.0549 H   0  0  0  0  0  0  0  0  0  0  0  0  # atno 10718 bound_to 10713
  154.8745  135.3807  154.4364 H   0  0  0  0  0  0  0  0  0  0  0  0  # atno 10763 bound_to 10752
  153.5053  135.7030  153.5815 H   0  0  0  0  0  0  0  0  0  0  0  0  # atno 10764 bound_to 10752
  153.4128  135.3920  155.2028 H   0  0  0  0  0  0  0  0  0  0  0  0  # atno 10765 bound_to 10752
  140.8894  134.1831  157.4538 H   0  0  0  0  0  0  0  0  0  0  0  0  # atno 11005 bound_to 11000
  144.7218  139.8005  143.7379 LP  0  0  0  0  0  0  0  0  0  0  0  0  # atno 17320 bound_to 7965
  146.1405  139.4461  143.0111 LP  0  0  0  0  0  0  0  0  0  0  0  0  # atno 17321 bound_to 7965
  139.5264  144.7107  151.5215 LP  0  0  0  0  0  0  0  0  0  0  0  0  # atno 17342 bound_to 10162
  140.6469  143.8777  150.6746 LP  0  0  0  0  0  0  0  0  0  0  0  0  # atno 17343 bound_to 10162
  156.8502  130.9456  151.3626 LP  0  0  0  0  0  0  0  0  0  0  0  0  # atno 17370 bound_to 10713
  157.6333  130.8747  149.9314 LP  0  0  0  0  0  0  0  0  0  0  0  0  # atno 17371 bound_to 10713
  139.8728  134.9852  156.5271 LP  0  0  0  0  0  0  0  0  0  0  0  0  # atno 17394 bound_to 11000
  140.8365  133.8238  155.9034 LP  0  0  0  0  0  0  0  0  0  0  0  0  # atno 17395 bound_to 11000

$$$$
