AV-unprocessed.smi:1579|AV-procd|sdf|6356|dock10
  -GOLD-   22720 6583D 1   1.00000     0.00000
 Structure written by MMmdl.
 47 48  0  0  0  0  0  0  0  0  2 V2000
  147.0653  139.7154  155.6092 C   0  0  0  0  0  0  0  0  0  0  0  0
  148.3198  138.8847  155.5808 C   0  0  0  0  0  0  0  0  0  0  0  0
  148.1892  137.6253  155.8410 N   0  0  0  0  0  0  0  0  0  0  0  0
  149.2762  136.7731  155.8437 N   0  0  0  0  0  0  0  0  0  0  0  0
  148.9359  135.3809  156.1671 C   0  0  0  0  0  0  0  0  0  0  0  0
  148.3752  134.6095  154.9521 C   0  0  2  0  0  0  0  0  0  0  0  0
  149.3591  134.6508  153.9370 O   0  0  0  0  0  0  0  0  0  0  0  0
  147.0587  135.2047  154.4034 C   0  0  0  0  0  0  0  0  0  0  0  0
  146.8089  134.8652  152.9786 N   0  3  2  0  0  0  0  0  0  0  0  0
  145.5973  135.5443  152.4508 C   0  0  0  0  0  0  0  0  0  0  0  0
  145.4253  135.2921  150.9423 C   0  0  0  0  0  0  0  0  0  0  0  0
  145.3909  133.7912  150.6035 C   0  0  2  0  0  0  0  0  0  0  0  0
  144.0681  133.1187  151.0114 C   0  0  0  0  0  0  0  0  0  0  0  0
  146.6235  133.1025  151.2165 C   0  0  0  0  0  0  0  0  0  0  0  0
  146.7708  133.4007  152.7194 C   0  0  0  0  0  0  0  0  0  0  0  0
  150.5586  137.1519  155.5742 C   0  0  0  0  0  0  0  0  0  0  0  0
  151.4983  136.3555  155.5666 O   0  0  0  0  0  0  0  0  0  0  0  0
  150.7002  138.5798  155.2811 C   0  0  0  0  0  0  0  0  0  0  0  0
  152.0276  139.0175  154.9925 C   0  0  0  0  0  0  0  0  0  0  0  0
  153.1029  139.3858  154.7739 N   0  0  0  0  0  0  0  0  0  0  0  0
  149.6405  139.4266  155.2790 C   0  0  0  0  0  0  0  0  0  0  0  0
  149.7349  140.9163  154.9791 C   0  0  0  0  0  0  0  0  0  0  0  0
  147.1482  140.5170  156.3433 H   0  0  0  0  0  0  0  0  0  0  0  0
  146.1887  139.1206  155.8702 H   0  0  0  0  0  0  0  0  0  0  0  0
  146.8779  140.1670  154.6349 H   0  0  0  0  0  0  0  0  0  0  0  0
  149.7859  134.8454  156.5942 H   0  0  0  0  0  0  0  0  0  0  0  0
  148.1874  135.3935  156.9622 H   0  0  0  0  0  0  0  0  0  0  0  0
  148.2414  133.5670  155.2386 H   0  0  0  0  0  0  0  0  0  0  0  0
  148.9995  135.0810  153.1768 H   0  0  0  0  0  0  0  0  0  0  0  0
  146.2036  134.8658  154.9887 H   0  0  0  0  0  0  0  0  0  0  0  0
  147.0975  136.2885  154.5240 H   0  0  0  0  0  0  0  0  0  0  0  0
  144.7178  135.2054  153.0003 H   0  0  0  0  0  0  0  0  0  0  0  0
  145.6773  136.6188  152.6210 H   0  0  0  0  0  0  0  0  0  0  0  0
  144.5205  135.7822  150.5812 H   0  0  0  0  0  0  0  0  0  0  0  0
  146.2546  135.7595  150.4093 H   0  0  0  0  0  0  0  0  0  0  0  0
  145.4642  133.6954  149.5191 H   0  0  0  0  0  0  0  0  0  0  0  0
  143.8960  133.1640  152.0864 H   0  0  0  0  0  0  0  0  0  0  0  0
  144.0589  132.0677  150.7212 H   0  0  0  0  0  0  0  0  0  0  0  0
  143.2197  133.5987  150.5226 H   0  0  0  0  0  0  0  0  0  0  0  0
  146.5760  132.0256  151.0510 H   0  0  0  0  0  0  0  0  0  0  0  0
  147.5196  133.4472  150.6982 H   0  0  0  0  0  0  0  0  0  0  0  0
  147.6844  132.9279  153.0770 H   0  0  0  0  0  0  0  0  0  0  0  0
  145.9499  132.9499  153.2786 H   0  0  0  0  0  0  0  0  0  0  0  0
  150.7560  141.2304  154.7649 H   0  0  0  0  0  0  0  0  0  0  0  0
  149.3853  141.5008  155.8305 H   0  0  0  0  0  0  0  0  0  0  0  0
  149.1253  141.1727  154.1120 H   0  0  0  0  0  0  0  0  0  0  0  0
  147.5872  135.2395  152.4551 H   0  0  0  0  0  0  0  0  0  0  0  0
  1  2  1  0  0  0  0
  1 23  1  0  0  0  0
  1 24  1  0  0  0  0
  1 25  1  0  0  0  0
  2 21  1  0  0  0  0
  2  3  2  0  0  0  0
  3  4  1  0  0  0  0
  4  5  1  0  0  0  0
  4 16  1  0  0  0  0
  5  6  1  0  0  0  0
  5 26  1  0  0  0  0
  5 27  1  0  0  0  0
  6  7  1  0  0  0  0
  6  8  1  0  0  0  0
  6 28  1  0  0  0  0
  7 29  1  0  0  0  0
  8  9  1  0  0  0  0
  8 30  1  0  0  0  0
  8 31  1  0  0  0  0
  9 15  1  0  0  0  0
  9 10  1  0  0  0  0
  9 47  1  0  0  0  0
 10 11  1  0  0  0  0
 10 32  1  0  0  0  0
 10 33  1  0  0  0  0
 11 12  1  0  0  0  0
 11 34  1  0  0  0  0
 11 35  1  0  0  0  0
 12 13  1  0  0  0  0
 12 14  1  0  0  0  0
 12 36  1  0  0  0  0
 13 37  1  0  0  0  0
 13 38  1  0  0  0  0
 13 39  1  0  0  0  0
 14 15  1  0  0  0  0
 14 40  1  0  0  0  0
 14 41  1  0  0  0  0
 15 42  1  0  0  0  0
 15 43  1  0  0  0  0
 16 17  2  0  0  0  0
 16 18  1  0  0  0  0
 18 19  1  0  0  0  0
 18 21  2  0  0  0  0
 19 20  3  0  0  0  0
 21 22  1  0  0  0  0
 22 44  1  0  0  0  0
 22 45  1  0  0  0  0
 22 46  1  0  0  0  0
M  CHG  1   9   1
M  END
> <s_m_source_file>
AV-unprocessed.smi

> <i_m_source_file_index>
1579

> <i_lp_mmshare_version>
43012

> <i_f3d_flags>
0

> <s_epik_input>
TiNDYyhjMVtDSDNdKWMoPU8pbihuYzFbQ0gzXSlbQ0gyXVtDQEhdKFtPSF0pW0NIMl1OMltDSDJdW0NIMl1bQ0hdKFtDSDNdKVtDSDJdW0NIMl0y

> <s_epik_cmdline>
J2VwaWtfcHl0aG9uJywgJy1waCcsICc3LjAnLCAnLXRuJywgJzgnLCAnLW1hJywgJzIwMCcsICctbWV0YWxfYmluZGluZycsICctaW1hZScsICc8aW5maWxlLm1hZT4nLCAnLW9tYWUnLCAnPG91dGZpbGUubWFlPic=

> <r_epik_Ionization_Penalty>
0.00136816

> <r_epik_Ionization_Penalty_Charging>
0.00136813

> <r_epik_Ionization_Penalty_Neutral>
3.19884e-08

> <r_epik_State_Penalty>
0.000910892

> <r_epik_Charging_Adjusted_Penalty>
0.00227902

> <i_epik_Tot_Q>
1

> <i_epik_Tot_abs_Q>
1

> <r_epik_Metal_State_Penalty>
-0

> <b_epik_Metal_Only>
0

> <s_lp_Force_Field>
OPLS_2005

> <r_lp_Energy>
38.3008

> <b_lp_Chiralities_Consistent>
1

> <s_lp_Variant>
AV-unprocessed.smi:1579-3

> <Gold.Version>
5.8.1

> <Gold.Id.Protein>
6NUR|6NUR_protein|mol2

> <Gold.PLP.Fitness>
44.6106

> <Gold.PLP.PLP>
-30.7009

> <Gold.PLP.part.hbond>
-5.0665

> <Gold.PLP.part.metal>
0.0000

> <Gold.PLP.part.buried>
-2.8051

> <Gold.PLP.part.nonpolar>
-23.1462

> <Gold.PLP.part.repulsive>
0.1321

> <Gold.PLP.ligand.clash>
0.0000

> <Gold.PLP.ligand.torsion>
0.5538

> <Gold.PLP.Chemscore.Hbond>
5.0000

> <Gold.PLP.Chemscore.CHOScore>
0.0000

> <Gold.PLP.Chemscore.Metal>
0.0000

> <Gold.Chemscore.Hbonds>
donor molecule, donor type, donor heavy atom, donor atom, acceptor molecule, acceptor atom, score
      L1  H     7    29       P1  7948  0.95
      L1  H     9    47       P1  7948  2.00
      P1  H  7997  8009       L1    20  1.00
      P1  H 10752 10765       L1    17  1.00

> <Gold.PLP.Chemscore.Internal.Correction>
0.0173

> <Gold.Rescore>
     Score         DG    S(hbond)    S(metal)    S(lipo)     H(rot)  DE(clash)    DE(int)     intcor
     17.60     -19.07       3.74        0.00      56.86       2.17       0.05       1.43       ----

> <Gold.Chemscore.Fitness>
17.5995

> <Gold.Chemscore.DG>
-19.0713

> <Gold.Chemscore.ZeroCoef>
-5.4800

> <Gold.Chemscore.Hbond>
3.7419

> <Gold.Chemscore.Metal>
0.0000

> <Gold.Chemscore.Lipo>
56.8593

> <Gold.Chemscore.Internal_Hbond>
0.0000

> <Gold.Chemscore.DEClash>
0.0456

> <Gold.Chemscore.DEInternal>
1.4262

> <Gold.Chemscore.Rot>
2.1715

> <Gold.Chemscore.Internal.Correction>
   9.000000E+99

> <Gold.Chemscore.Hbonds>
donor molecule, donor type, donor heavy atom, donor atom, acceptor molecule, acceptor atom, score
      L1  H     7    29       P1  7948  0.21
      L1  H     9    47       P1  7948  1.00
      P1  H  7997  8009       L1    20  1.00
      P1  H 10752 10765       L1    17  1.00

> <Gold.Chemscore.Hbond.Weighted>
-12.4979

> <Gold.Chemscore.Metal.Weighted>
-0.0000

> <Gold.Chemscore.Lipo.Weighted>
-6.6525

> <Gold.Chemscore.Internal_Hbond.Weighted>
0.0000

> <Gold.Chemscore.DEClash.Weighted>
0.0456

> <Gold.Chemscore.DEInternal.Weighted>
1.4262

> <Gold.Chemscore.Rot.Weighted>
5.5591

> <Gold.Chemscore.Internal.Correction.Weighted>
   9.000000E+99

> <Gold.Protein.RotatedTorsions>
[ 6907 6896 6895 6894 ] final -161.17 input  -60.11 | X-H torsion
[ 7974 7965 7964 7962 ] final  178.00 input  175.53 | X-H torsion
[ 8008 7997 7996 7995 ] final -130.56 input   59.86 | X-H torsion
[ 10167 10162 10161 10158 ] final   92.34 input  -65.29 | X-H torsion
[ 10718 10713 10712 10709 ] final  145.62 input   66.30 | X-H torsion
[ 10763 10752 10751 10750 ] final -156.68 input  -60.55 | X-H torsion
[ 11005 11000 10999 10996 ] final  -99.98 input  -57.11 | X-H torsion

> <Gold.Protein.ActiveResidues>
 VAL166  LYS551  ARG553  GLY616  TRP617  ASP618  TYR619  PRO620  LYS621  CYS622 
 ASP623  PHE694  ASN695  SER759  ASP760  ASP761  ALA762  ILE779  LEU786  VAL792 
 PHE793  MET794  SER795  GLU796  ALA797  LYS798  CYS799  TRP800  GLU811  SER814 

> <Gold.Protein.RotatedAtoms>
  151.3605  133.3891  159.2688 H   0  0  0  0  0  0  0  0  0  0  0  0  # atno 6907 bound_to 6896
  150.9729  134.9100  159.7809 H   0  0  0  0  0  0  0  0  0  0  0  0  # atno 6908 bound_to 6896
  152.5191  134.3568  159.9323 H   0  0  0  0  0  0  0  0  0  0  0  0  # atno 6909 bound_to 6896
  144.7161  140.0331  143.6438 H   0  0  0  0  0  0  0  0  0  0  0  0  # atno 7974 bound_to 7965
  155.2978  140.0451  157.3027 H   0  0  0  0  0  0  0  0  0  0  0  0  # atno 8008 bound_to 7997
  154.5504  140.2315  155.8462 H   0  0  0  0  0  0  0  0  0  0  0  0  # atno 8009 bound_to 7997
  156.1961  140.3038  155.9438 H   0  0  0  0  0  0  0  0  0  0  0  0  # atno 8010 bound_to 7997
  139.8286  144.6698  150.9428 H   0  0  0  0  0  0  0  0  0  0  0  0  # atno 10167 bound_to 10162
  157.3430  131.0939  151.1066 H   0  0  0  0  0  0  0  0  0  0  0  0  # atno 10718 bound_to 10713
  154.7694  135.3141  154.8219 H   0  0  0  0  0  0  0  0  0  0  0  0  # atno 10763 bound_to 10752
  153.8959  135.6820  153.4762 H   0  0  0  0  0  0  0  0  0  0  0  0  # atno 10764 bound_to 10752
  153.1306  135.4782  154.9276 H   0  0  0  0  0  0  0  0  0  0  0  0  # atno 10765 bound_to 10752
  141.1288  133.8363  157.1042 H   0  0  0  0  0  0  0  0  0  0  0  0  # atno 11005 bound_to 11000
  146.0086  139.3150  143.0884 LP  0  0  0  0  0  0  0  0  0  0  0  0  # atno 17320 bound_to 7965
  145.8709  140.9420  143.0651 LP  0  0  0  0  0  0  0  0  0  0  0  0  # atno 17321 bound_to 7965
  140.7808  143.4023  151.1129 LP  0  0  0  0  0  0  0  0  0  0  0  0  # atno 17342 bound_to 10162
  139.7678  143.8539  152.3114 LP  0  0  0  0  0  0  0  0  0  0  0  0  # atno 17343 bound_to 10162
  157.2270  130.6508  149.5834 LP  0  0  0  0  0  0  0  0  0  0  0  0  # atno 17370 bound_to 10713
  155.9710  130.4611  150.6096 LP  0  0  0  0  0  0  0  0  0  0  0  0  # atno 17371 bound_to 10713
  140.0315  134.9899  157.0788 LP  0  0  0  0  0  0  0  0  0  0  0  0  # atno 17394 bound_to 11000
  140.4278  134.1812  155.7167 LP  0  0  0  0  0  0  0  0  0  0  0  0  # atno 17395 bound_to 11000

$$$$
