AV-unprocessed.smi:1746|AV-procd|sdf|7034|dock5
  -GOLD-   22720 8253D 1   1.00000     0.00000
 Structure written by MMmdl.
 35 36  0  0  0  0  0  0  0  0  1 V2000
  143.6912  132.7255  148.4136 C   0  0  0  0  0  0  0  0  0  0  0  0
  143.7990  132.2622  149.8715 C   0  0  0  0  0  0  0  0  0  0  0  0
  144.2357  133.3339  150.7447 N   0  0  0  0  0  0  0  0  0  0  0  0
  145.3289  134.1638  150.5950 C   0  0  0  0  0  0  0  0  0  0  0  0
  145.3053  135.0037  151.6724 C   0  0  0  0  0  0  0  0  0  0  0  0
  146.1964  136.0521  152.0148 N   0  0  0  0  0  0  0  0  0  0  0  0
  145.8790  137.2684  152.4879 C   0  0  0  0  0  0  0  0  0  0  0  0
  144.7346  137.6665  152.7067 O   0  0  0  0  0  0  0  0  0  0  0  0
  146.9741  138.0121  152.6970 N   0  0  0  0  0  0  0  0  0  0  0  0
  146.9695  139.3828  153.1954 C   0  0  0  0  0  0  0  0  0  0  0  0
  147.9597  139.5671  154.3574 C   0  0  1  0  0  0  0  0  0  0  0  0
  149.3424  138.9803  154.0856 C   0  0  0  0  0  0  0  0  0  0  0  0
  150.1982  139.7715  155.0482 C   0  0  0  0  0  0  0  0  0  0  0  0
  149.5615  141.1573  154.9736 C   0  0  0  0  0  0  0  0  0  0  0  0
  148.2007  140.9507  154.5998 O   0  0  0  0  0  0  0  0  0  0  0  0
  144.1699  134.6243  152.4343 C   0  0  0  0  0  0  0  0  0  0  0  0
  143.5280  133.6141  151.8671 N   0  0  0  0  0  0  0  0  0  0  0  0
  143.3773  131.9052  147.7682 H   0  0  0  0  0  0  0  0  0  0  0  0
  144.6502  133.0909  148.0452 H   0  0  0  0  0  0  0  0  0  0  0  0
  142.9623  133.5296  148.3071 H   0  0  0  0  0  0  0  0  0  0  0  0
  142.8369  131.8893  150.2254 H   0  0  0  0  0  0  0  0  0  0  0  0
  144.5076  131.4370  149.9512 H   0  0  0  0  0  0  0  0  0  0  0  0
  146.0019  134.0792  149.7546 H   0  0  0  0  0  0  0  0  0  0  0  0
  147.1780  135.8560  151.8840 H   0  0  0  0  0  0  0  0  0  0  0  0
  147.8746  137.6077  152.4863 H   0  0  0  0  0  0  0  0  0  0  0  0
  147.2086  140.0705  152.3825 H   0  0  0  0  0  0  0  0  0  0  0  0
  145.9585  139.6286  153.5211 H   0  0  0  0  0  0  0  0  0  0  0  0
  147.5652  139.1262  155.2746 H   0  0  0  0  0  0  0  0  0  0  0  0
  149.3886  137.9044  154.2568 H   0  0  0  0  0  0  0  0  0  0  0  0
  149.6527  139.1794  153.0589 H   0  0  0  0  0  0  0  0  0  0  0  0
  150.0977  139.3653  156.0558 H   0  0  0  0  0  0  0  0  0  0  0  0
  151.2560  139.7723  154.7841 H   0  0  0  0  0  0  0  0  0  0  0  0
  149.6360  141.6957  155.9188 H   0  0  0  0  0  0  0  0  0  0  0  0
  150.0434  141.7592  154.2026 H   0  0  0  0  0  0  0  0  0  0  0  0
  143.7970  135.0387  153.3594 H   0  0  0  0  0  0  0  0  0  0  0  0
  1  2  1  0  0  0  0
  1 18  1  0  0  0  0
  1 19  1  0  0  0  0
  1 20  1  0  0  0  0
  2  3  1  0  0  0  0
  2 21  1  0  0  0  0
  2 22  1  0  0  0  0
  3 17  1  0  0  0  0
  3  4  1  0  0  0  0
  4  5  2  0  0  0  0
  4 23  1  0  0  0  0
  5  6  1  0  0  0  0
  5 16  1  0  0  0  0
  6  7  1  0  0  0  0
  6 24  1  0  0  0  0
  7  8  2  0  0  0  0
  7  9  1  0  0  0  0
  9 10  1  0  0  0  0
  9 25  1  0  0  0  0
 10 11  1  0  0  0  0
 10 26  1  0  0  0  0
 10 27  1  0  0  0  0
 11 15  1  0  0  0  0
 11 12  1  0  0  0  0
 11 28  1  0  0  0  0
 12 13  1  0  0  0  0
 12 29  1  0  0  0  0
 12 30  1  0  0  0  0
 13 14  1  0  0  0  0
 13 31  1  0  0  0  0
 13 32  1  0  0  0  0
 14 15  1  0  0  0  0
 14 33  1  0  0  0  0
 14 34  1  0  0  0  0
 16 17  2  0  0  0  0
 16 35  1  0  0  0  0
M  END
> <s_m_source_file>
AV-unprocessed.smi

> <i_m_source_file_index>
1746

> <i_lp_mmshare_version>
43012

> <i_f3d_flags>
0

> <s_epik_input>
W0NIM11bQ0gyXW4xW2NIXWMoW2NIXW4xKVtOSF1DKD1PKVtOSF1bQ0gyXVtDQEBIXTJbQ0gyXVtDSDJdW0NIMl1PMg==

> <s_epik_cmdline>
J2VwaWtfcHl0aG9uJywgJy1waCcsICc3LjAnLCAnLXRuJywgJzgnLCAnLW1hJywgJzIwMCcsICctbWV0YWxfYmluZGluZycsICctaW1hZScsICc8aW5maWxlLm1hZT4nLCAnLW9tYWUnLCAnPG91dGZpbGUubWFlPic=

> <r_lp_tautomer_probability>
1

> <r_epik_Ionization_Penalty>
0.000176839

> <r_epik_Ionization_Penalty_Charging>
0

> <r_epik_Ionization_Penalty_Neutral>
0.000176839

> <r_epik_State_Penalty>
-0

> <r_epik_Charging_Adjusted_Penalty>
0

> <i_epik_Tot_Q>
0

> <i_epik_Tot_abs_Q>
0

> <r_epik_Metal_State_Penalty>
-0

> <b_epik_Metal_Only>
0

> <s_lp_Force_Field>
OPLS_2005

> <r_lp_Energy>
20.4125

> <b_lp_Chiralities_Consistent>
1

> <s_lp_Variant>
AV-unprocessed.smi:1746-2

> <Gold.Version>
5.8.1

> <Gold.Id.Protein>
6NUR|6NUR_protein|mol2

> <Gold.PLP.Fitness>
38.8316

> <Gold.PLP.PLP>
-30.9808

> <Gold.PLP.part.hbond>
-2.0000

> <Gold.PLP.part.metal>
0.0000

> <Gold.PLP.part.buried>
-4.2320

> <Gold.PLP.part.nonpolar>
-27.2516

> <Gold.PLP.part.repulsive>
1.5379

> <Gold.PLP.ligand.clash>
0.0000

> <Gold.PLP.ligand.torsion>
0.5626

> <Gold.PLP.Chemscore.Hbond>
2.0000

> <Gold.PLP.Chemscore.CHOScore>
0.9854

> <Gold.PLP.Chemscore.Metal>
0.0000

> <Gold.Chemscore.Hbonds>
donor molecule, donor type, donor heavy atom, donor atom, acceptor molecule, acceptor atom, score
      L1  H     6    24       P1  7948  1.00
      L1  H     9    25       P1  7948  1.00
      L1  C     4    23       P1  7921  1.00

> <Gold.PLP.Chemscore.Internal.Correction>
0.0196

> <Gold.Rescore>
     Score         DG    S(hbond)    S(metal)    S(lipo)     H(rot)  DE(clash)    DE(int)     intcor
     16.29     -16.77       1.96        0.00      71.40       1.41       0.01       0.47       ----

> <Gold.Chemscore.Fitness>
16.2917

> <Gold.Chemscore.DG>
-16.7719

> <Gold.Chemscore.ZeroCoef>
-5.4800

> <Gold.Chemscore.Hbond>
1.9578

> <Gold.Chemscore.Metal>
0.0000

> <Gold.Chemscore.Lipo>
71.3959

> <Gold.Chemscore.Internal_Hbond>
0.0000

> <Gold.Chemscore.DEClash>
0.0067

> <Gold.Chemscore.DEInternal>
0.4735

> <Gold.Chemscore.Rot>
1.4064

> <Gold.Chemscore.Internal.Correction>
   9.000000E+99

> <Gold.Chemscore.Hbonds>
donor molecule, donor type, donor heavy atom, donor atom, acceptor molecule, acceptor atom, score
      L1  H     6    24       P1  7948  0.99
      L1  H     9    25       P1  7948  0.97

> <Gold.Chemscore.Hbond.Weighted>
-6.5390

> <Gold.Chemscore.Metal.Weighted>
-0.0000

> <Gold.Chemscore.Lipo.Weighted>
-8.3533

> <Gold.Chemscore.Internal_Hbond.Weighted>
0.0000

> <Gold.Chemscore.DEClash.Weighted>
0.0067

> <Gold.Chemscore.DEInternal.Weighted>
0.4735

> <Gold.Chemscore.Rot.Weighted>
3.6004

> <Gold.Chemscore.Internal.Correction.Weighted>
   9.000000E+99

> <Gold.Protein.RotatedTorsions>
[ 6907 6896 6895 6894 ] final  153.38 input  -60.11 | X-H torsion
[ 7974 7965 7964 7962 ] final   35.50 input  175.53 | X-H torsion
[ 8008 7997 7996 7995 ] final  -98.86 input   59.86 | X-H torsion
[ 10167 10162 10161 10158 ] final   46.04 input  -65.29 | X-H torsion
[ 10718 10713 10712 10709 ] final  137.00 input   66.30 | X-H torsion
[ 10763 10752 10751 10750 ] final  -40.21 input  -60.55 | X-H torsion
[ 11005 11000 10999 10996 ] final  108.03 input  -57.11 | X-H torsion

> <Gold.Protein.ActiveResidues>
 VAL166  LYS551  ARG553  GLY616  TRP617  ASP618  TYR619  PRO620  LYS621  CYS622 
 ASP623  PHE694  ASN695  SER759  ASP760  ASP761  ALA762  ILE779  LEU786  VAL792 
 PHE793  MET794  SER795  GLU796  ALA797  LYS798  CYS799  TRP800  GLU811  SER814 

> <Gold.Protein.RotatedAtoms>
  152.0735  133.4118  159.4469 H   0  0  0  0  0  0  0  0  0  0  0  0  # atno 6907 bound_to 6896
  150.6863  134.3064  159.4737 H   0  0  0  0  0  0  0  0  0  0  0  0  # atno 6908 bound_to 6896
  152.0899  134.9414  160.0622 H   0  0  0  0  0  0  0  0  0  0  0  0  # atno 6909 bound_to 6896
  146.1279  139.6135  142.9246 H   0  0  0  0  0  0  0  0  0  0  0  0  # atno 7974 bound_to 7965
  154.8069  140.0452  157.1314 H   0  0  0  0  0  0  0  0  0  0  0  0  # atno 8008 bound_to 7997
  154.9413  140.3053  155.5099 H   0  0  0  0  0  0  0  0  0  0  0  0  # atno 8009 bound_to 7997
  156.2968  140.2305  156.4483 H   0  0  0  0  0  0  0  0  0  0  0  0  # atno 8010 bound_to 7997
  140.3180  144.2740  150.6187 H   0  0  0  0  0  0  0  0  0  0  0  0  # atno 10167 bound_to 10162
  157.4407  131.1057  151.0147 H   0  0  0  0  0  0  0  0  0  0  0  0  # atno 10718 bound_to 10713
  153.9422  135.6760  153.4744 H   0  0  0  0  0  0  0  0  0  0  0  0  # atno 10763 bound_to 10752
  153.0926  135.4867  154.8715 H   0  0  0  0  0  0  0  0  0  0  0  0  # atno 10764 bound_to 10752
  154.7371  135.3151  154.8751 H   0  0  0  0  0  0  0  0  0  0  0  0  # atno 10765 bound_to 10752
  139.8837  134.9418  156.5910 H   0  0  0  0  0  0  0  0  0  0  0  0  # atno 11005 bound_to 11000
  145.5326  141.0426  143.2375 LP  0  0  0  0  0  0  0  0  0  0  0  0  # atno 17320 bound_to 7965
  144.7660  139.6844  143.7214 LP  0  0  0  0  0  0  0  0  0  0  0  0  # atno 17321 bound_to 7965
  140.5509  143.2206  151.7929 LP  0  0  0  0  0  0  0  0  0  0  0  0  # atno 17342 bound_to 10162
  139.4880  144.4478  151.9690 LP  0  0  0  0  0  0  0  0  0  0  0  0  # atno 17343 bound_to 10162
  157.1011  130.5982  149.5460 LP  0  0  0  0  0  0  0  0  0  0  0  0  # atno 17370 bound_to 10713
  155.9947  130.5012  150.7432 LP  0  0  0  0  0  0  0  0  0  0  0  0  # atno 17371 bound_to 10713
  140.7956  133.8547  155.8682 LP  0  0  0  0  0  0  0  0  0  0  0  0  # atno 17394 bound_to 11000
  140.9639  134.1620  157.4632 LP  0  0  0  0  0  0  0  0  0  0  0  0  # atno 17395 bound_to 11000

$$$$
