AV-unprocessed.smi:1464|AV-procd|sdf|5938|dock5
  -GOLD-   22720 6 23D 1   1.00000     0.00000
 Structure written by MMmdl.
 40 41  0  0  0  0  0  0  0  0  2 V2000
  153.3839  141.8675  159.5083 C   0  0  0  0  0  0  0  0  0  0  0  0
  152.0416  142.6144  159.6499 C   0  0  1  0  0  0  0  0  0  0  0  0
  152.2423  144.1430  159.6769 C   0  0  0  0  0  0  0  0  0  0  0  0
  152.6158  144.7018  158.2953 C   0  0  0  0  0  0  0  0  0  0  0  0
  151.5671  144.3189  157.2422 C   0  0  0  0  0  0  0  0  0  0  0  0
  151.3324  142.7949  157.1840 C   0  0  2  0  0  0  0  0  0  0  0  0
  150.2567  142.5080  156.2374 N   0  0  0  0  0  0  0  0  0  0  0  0
  150.1876  141.4393  155.4289 C   0  0  0  0  0  0  0  0  0  0  0  0
  151.0503  140.5602  155.3999 O   0  0  0  0  0  0  0  0  0  0  0  0
  148.9483  141.3795  154.5216 C   0  0  0  0  0  0  0  0  0  0  0  0
  147.7142  141.8845  155.1415 N   0  0  0  0  0  0  0  0  0  0  0  0
  146.8976  142.7010  154.2469 N   0  5  0  0  0  0  0  0  0  0  0  0
  145.7305  143.2238  154.7075 C   0  0  0  0  0  0  0  0  0  0  0  0
  144.9965  143.9267  154.0167 O   0  0  0  0  0  0  0  0  0  0  0  0
  145.3423  142.9294  156.0770 C   0  0  0  0  0  0  0  0  0  0  0  0
  146.1069  142.1583  156.8749 C   0  0  0  0  0  0  0  0  0  0  0  0
  147.3642  141.5751  156.4229 C   0  0  0  0  0  0  0  0  0  0  0  0
  148.0599  140.8573  157.1418 O   0  0  0  0  0  0  0  0  0  0  0  0
  150.9819  142.2262  158.5840 C   0  0  1  0  0  0  0  0  0  0  0  0
  150.7007  140.7104  158.5619 C   0  0  0  0  0  0  0  0  0  0  0  0
  153.8471  142.0319  158.5360 H   0  0  0  0  0  0  0  0  0  0  0  0
  153.2596  140.7925  159.6368 H   0  0  0  0  0  0  0  0  0  0  0  0
  154.0928  142.1967  160.2686 H   0  0  0  0  0  0  0  0  0  0  0  0
  151.6394  142.3338  160.6242 H   0  0  0  0  0  0  0  0  0  0  0  0
  151.3209  144.6194  160.0149 H   0  0  0  0  0  0  0  0  0  0  0  0
  153.0053  144.4126  160.4078 H   0  0  0  0  0  0  0  0  0  0  0  0
  152.7053  145.7871  158.3478 H   0  0  0  0  0  0  0  0  0  0  0  0
  153.5950  144.3303  157.9926 H   0  0  0  0  0  0  0  0  0  0  0  0
  150.6290  144.8257  157.4735 H   0  0  0  0  0  0  0  0  0  0  0  0
  151.8816  144.6878  156.2650 H   0  0  0  0  0  0  0  0  0  0  0  0
  152.2473  142.3115  156.8373 H   0  0  0  0  0  0  0  0  0  0  0  0
  149.5008  143.1759  156.1945 H   0  0  0  0  0  0  0  0  0  0  0  0
  149.1664  141.9390  153.6100 H   0  0  0  0  0  0  0  0  0  0  0  0
  148.8012  140.3471  154.1998 H   0  0  0  0  0  0  0  0  0  0  0  0
  144.4191  143.3366  156.4620 H   0  0  0  0  0  0  0  0  0  0  0  0
  145.7789  141.9653  157.8853 H   0  0  0  0  0  0  0  0  0  0  0  0
  150.0498  142.7015  158.8948 H   0  0  0  0  0  0  0  0  0  0  0  0
  151.5376  140.1531  158.1403 H   0  0  0  0  0  0  0  0  0  0  0  0
  149.8200  140.4754  157.9638 H   0  0  0  0  0  0  0  0  0  0  0  0
  150.5167  140.3306  159.5670 H   0  0  0  0  0  0  0  0  0  0  0  0
  1  2  1  0  0  0  0
  1 21  1  0  0  0  0
  1 22  1  0  0  0  0
  1 23  1  0  0  0  0
  2 19  1  0  0  0  0
  2  3  1  0  0  0  0
  2 24  1  0  0  0  0
  3  4  1  0  0  0  0
  3 25  1  0  0  0  0
  3 26  1  0  0  0  0
  4  5  1  0  0  0  0
  4 27  1  0  0  0  0
  4 28  1  0  0  0  0
  5  6  1  0  0  0  0
  5 29  1  0  0  0  0
  5 30  1  0  0  0  0
  6  7  1  0  0  0  0
  6 19  1  0  0  0  0
  6 31  1  0  0  0  0
  7  8  1  0  0  0  0
  7 32  1  0  0  0  0
  8  9  2  0  0  0  0
  8 10  1  0  0  0  0
 10 33  1  0  0  0  0
 10 34  1  0  0  0  0
 10 11  1  0  0  0  0
 11 12  1  0  0  0  0
 11 17  1  0  0  0  0
 12 13  1  0  0  0  0
 13 14  2  0  0  0  0
 13 15  1  0  0  0  0
 15 35  1  0  0  0  0
 15 16  2  0  0  0  0
 16 36  1  0  0  0  0
 16 17  1  0  0  0  0
 17 18  2  0  0  0  0
 19 20  1  0  0  0  0
 19 37  1  0  0  0  0
 20 38  1  0  0  0  0
 20 39  1  0  0  0  0
 20 40  1  0  0  0  0
M  CHG  1  12  -1
M  END
> <s_m_source_file>
AV-unprocessed.smi

> <i_m_source_file_index>
1464

> <i_lp_mmshare_version>
43012

> <i_f3d_flags>
0

> <s_epik_input>
W0NIM11bQ0BASF0xW0NIMl1bQ0gyXVtDSDJdW0NASF0oW0NASF0xW0NIM10pW05IXUMoPU8pW0NIMl1uMltuSF1jKD1PKVtjSF1bY0hdYzI9Tw==

> <s_epik_cmdline>
J2VwaWtfcHl0aG9uJywgJy1waCcsICc3LjAnLCAnLXRuJywgJzgnLCAnLW1hJywgJzIwMCcsICctbWV0YWxfYmluZGluZycsICctaW1hZScsICc8aW5maWxlLm1hZT4nLCAnLW9tYWUnLCAnPG91dGZpbGUubWFlPic=

> <r_lp_tautomer_probability>
1

> <r_epik_Ionization_Penalty>
0.101366

> <r_epik_Ionization_Penalty_Charging>
0.101366

> <r_epik_Ionization_Penalty_Neutral>
1.90469e-08

> <r_epik_State_Penalty>
0.035861

> <r_epik_Charging_Adjusted_Penalty>
0.137227

> <i_epik_Tot_Q>
-1

> <i_epik_Tot_abs_Q>
1

> <r_epik_Metal_State_Penalty>
0.035861

> <b_epik_Metal_Only>
0

> <s_lp_Force_Field>
OPLS_2005

> <r_lp_Energy>
30.3142

> <b_lp_Chiralities_Consistent>
1

> <s_lp_Variant>
AV-unprocessed.smi:1464-4

> <Gold.Version>
5.8.1

> <Gold.Id.Protein>
6NUR|6NUR_protein|mol2

> <Gold.PLP.Fitness>
44.9352

> <Gold.PLP.PLP>
-41.4831

> <Gold.PLP.part.hbond>
-2.0000

> <Gold.PLP.part.metal>
0.0000

> <Gold.PLP.part.buried>
-4.6857

> <Gold.PLP.part.nonpolar>
-35.0421

> <Gold.PLP.part.repulsive>
0.6231

> <Gold.PLP.ligand.clash>
0.0000

> <Gold.PLP.ligand.torsion>
0.9278

> <Gold.PLP.Chemscore.Hbond>
1.7672

> <Gold.PLP.Chemscore.CHOScore>
0.0000

> <Gold.PLP.Chemscore.Metal>
0.0000

> <Gold.Chemscore.Hbonds>
donor molecule, donor type, donor heavy atom, donor atom, acceptor molecule, acceptor atom, score
      L1  H     7    32       P1  8028  0.99
      P1  H  7989  7998       L1     9  0.73

> <Gold.PLP.Chemscore.Internal.Correction>
0.0061

> <Gold.Rescore>
     Score         DG    S(hbond)    S(metal)    S(lipo)     H(rot)  DE(clash)    DE(int)     intcor
     13.77     -15.62       0.98        0.00      94.65       1.64       0.09       1.77       ----

> <Gold.Chemscore.Fitness>
13.7719

> <Gold.Chemscore.DG>
-15.6228

> <Gold.Chemscore.ZeroCoef>
-5.4800

> <Gold.Chemscore.Hbond>
0.9810

> <Gold.Chemscore.Metal>
0.0000

> <Gold.Chemscore.Lipo>
94.6521

> <Gold.Chemscore.Internal_Hbond>
0.0000

> <Gold.Chemscore.DEClash>
0.0856

> <Gold.Chemscore.DEInternal>
1.7653

> <Gold.Chemscore.Rot>
1.6438

> <Gold.Chemscore.Internal.Correction>
   9.000000E+99

> <Gold.Chemscore.Hbonds>
donor molecule, donor type, donor heavy atom, donor atom, acceptor molecule, acceptor atom, score
      L1  H     7    32       P1  8028  0.94
      P1  H  7989  7998       L1     9  0.10

> <Gold.Chemscore.Hbond.Weighted>
-3.2765

> <Gold.Chemscore.Metal.Weighted>
-0.0000

> <Gold.Chemscore.Lipo.Weighted>
-11.0743

> <Gold.Chemscore.Internal_Hbond.Weighted>
0.0000

> <Gold.Chemscore.DEClash.Weighted>
0.0856

> <Gold.Chemscore.DEInternal.Weighted>
1.7653

> <Gold.Chemscore.Rot.Weighted>
4.2080

> <Gold.Chemscore.Internal.Correction.Weighted>
   9.000000E+99

> <Gold.Protein.RotatedTorsions>
[ 6907 6896 6895 6894 ] final  163.74 input  -60.11 | X-H torsion
[ 7974 7965 7964 7962 ] final  -62.86 input  175.53 | X-H torsion
[ 8008 7997 7996 7995 ] final  -98.62 input   59.86 | X-H torsion
[ 10167 10162 10161 10158 ] final -156.95 input  -65.29 | X-H torsion
[ 10718 10713 10712 10709 ] final -153.28 input   66.30 | X-H torsion
[ 10763 10752 10751 10750 ] final   51.93 input  -60.55 | X-H torsion
[ 11005 11000 10999 10996 ] final  115.32 input  -57.11 | X-H torsion

> <Gold.Protein.ActiveResidues>
 VAL166  LYS551  ARG553  GLY616  TRP617  ASP618  TYR619  PRO620  LYS621  CYS622 
 ASP623  PHE694  ASN695  SER759  ASP760  ASP761  ALA762  ILE779  LEU786  VAL792 
 PHE793  MET794  SER795  GLU796  ALA797  LYS798  CYS799  TRP800  GLU811  SER814 

> <Gold.Protein.RotatedAtoms>
  151.9206  133.3584  159.3895 H   0  0  0  0  0  0  0  0  0  0  0  0  # atno 6907 bound_to 6896
  150.7038  134.4639  159.5403 H   0  0  0  0  0  0  0  0  0  0  0  0  # atno 6908 bound_to 6896
  152.2262  134.8366  160.0530 H   0  0  0  0  0  0  0  0  0  0  0  0  # atno 6909 bound_to 6896
  145.7862  140.8735  143.0304 H   0  0  0  0  0  0  0  0  0  0  0  0  # atno 7974 bound_to 7965
  154.8037  140.0454  157.1292 H   0  0  0  0  0  0  0  0  0  0  0  0  # atno 8008 bound_to 7997
  154.9448  140.3057  155.5083 H   0  0  0  0  0  0  0  0  0  0  0  0  # atno 8009 bound_to 7997
  156.2964  140.2299  156.4521 H   0  0  0  0  0  0  0  0  0  0  0  0  # atno 8010 bound_to 7997
  139.6809  143.9582  152.2336 H   0  0  0  0  0  0  0  0  0  0  0  0  # atno 10167 bound_to 10162
  156.4837  130.8315  151.2541 H   0  0  0  0  0  0  0  0  0  0  0  0  # atno 10718 bound_to 10713
  152.9787  135.5829  154.4495 H   0  0  0  0  0  0  0  0  0  0  0  0  # atno 10763 bound_to 10752
  154.4086  135.2769  155.2053 H   0  0  0  0  0  0  0  0  0  0  0  0  # atno 10764 bound_to 10752
  154.3853  135.6137  153.5867 H   0  0  0  0  0  0  0  0  0  0  0  0  # atno 10765 bound_to 10752
  139.9006  134.9582  156.7027 H   0  0  0  0  0  0  0  0  0  0  0  0  # atno 11005 bound_to 11000
  144.6788  140.0058  143.7484 LP  0  0  0  0  0  0  0  0  0  0  0  0  # atno 17320 bound_to 7965
  146.0024  139.3102  143.0920 LP  0  0  0  0  0  0  0  0  0  0  0  0  # atno 17321 bound_to 7965
  139.9372  144.6704  150.8303 LP  0  0  0  0  0  0  0  0  0  0  0  0  # atno 17342 bound_to 10162
  140.7652  143.3268  151.2497 LP  0  0  0  0  0  0  0  0  0  0  0  0  # atno 17343 bound_to 10162
  157.7481  131.0036  150.3046 LP  0  0  0  0  0  0  0  0  0  0  0  0  # atno 17370 bound_to 10713
  156.3496  130.3829  149.7340 LP  0  0  0  0  0  0  0  0  0  0  0  0  # atno 17371 bound_to 10713
  140.7138  133.9200  155.8101 LP  0  0  0  0  0  0  0  0  0  0  0  0  # atno 17394 bound_to 11000
  141.0280  134.0796  157.4046 LP  0  0  0  0  0  0  0  0  0  0  0  0  # atno 17395 bound_to 11000

$$$$
