#       Name:                AV-unprocessed.smi:21
#       Creating user name   scv26
#       Creation time:       Thu Mar 26 15:32:26 2020


#       File generated by GOLD software.
#

@<TRIPOS>MOLECULE
AV-unprocessed.smi:21
    72    75     1
SMALL
NO_CHARGES


@<TRIPOS>ATOM
      1 ****        -1.4742  -4.0060  -4.9612 C.3            1 S1                 0.0000
      2 ****        -1.9133  -2.6682  -4.7904 O.3            1 S1                 0.0000
      3 ****        -1.7490  -2.1863  -3.4653 C.3            1 S1                 0.0000
      4 ****        -2.0055  -0.6868  -3.4049 C.3            1 S1                 0.0000
      5 ****        -2.3341  -0.4608  -1.9275 C.3            1 S1                 0.0000
      6 ****        -3.1426   0.8297  -1.6654 C.3            1 S1                 0.0000
      7 ****        -2.4179   2.0557  -1.9983 N.3            1 S1                 0.0000
      8 ****        -3.1896   3.2893  -2.0321 C.3            1 S1                 0.0000
      9 ****        -1.1868   2.2346  -1.4646 C.ar           1 S1                 0.0000
     10 ****        -0.2295   2.7371  -2.2834 N.ar           1 S1                 0.0000
     11 ****         1.0184   2.9019  -1.8352 C.ar           1 S1                 0.0000
     12 ****         1.5132   2.6297  -0.6259 N.ar           1 S1                 0.0000
     13 ****         0.5495   2.1410   0.2056 C.ar           1 S1                 0.0000
     14 ****        -0.8174   1.9202  -0.1246 C.ar           1 S1                 0.0000
     15 ****        -1.4938   1.4172   0.9817 N.2            1 S1                 0.0000
     16 ****        -0.5776   1.3314   1.9068 C.2            1 S1                 0.0000
     17 ****         0.6817   1.7274   1.5194 N.pl3          1 S1                 0.0000
     18 ****         1.8830   1.7046   2.3340 C.3            1 S1                 0.0000
     19 ****         2.4699   0.2822   2.5408 C.3            1 S1                 0.0000
     20 ****         2.7638  -0.4413   1.2005 C.3            1 S1                 0.0000
     21 ****         1.5874  -0.9421   0.5979 O.3            1 S1                 0.0000
     22 ****         3.7418   0.3469   3.4263 C.3            1 S1                 0.0000
     23 ****         3.5424   0.9884   4.7899 C.3            1 S1                 0.0000
     24 ****         4.7569   0.4885   5.5606 C.3            1 S1                 0.0000
     25 ****         4.9782  -0.8321   5.0850 O.3            1 S1                 0.0000
     26 ****         4.3132  -1.0181   3.8383 C.3            1 S1                 0.0000
     27 ****        -3.0821  -1.6696  -1.5111 N.4            1 S1                 1.0000
     28 ****        -2.8663  -2.0552  -0.0991 C.3            1 S1                 0.0000
     29 ****        -2.7826  -2.7505  -2.4807 C.3            1 S1                 0.0000
     30 ****        -0.7376  -2.3814  -3.1023 H              1 S1                 0.0000
     31 ****        -1.3933  -0.4516  -1.3751 H              1 S1                 0.0000
     32 ****        -1.6178  -4.3064  -5.9990 H              1 S1                 0.0000
     33 ****        -2.0369  -4.6969  -4.3323 H              1 S1                 0.0000
     34 ****        -0.4132  -4.1054  -4.7281 H              1 S1                 0.0000
     35 ****        -1.1531  -0.0981  -3.7455 H              1 S1                 0.0000
     36 ****        -2.8638  -0.4290  -4.0276 H              1 S1                 0.0000
     37 ****        -4.0593   0.8021  -2.2558 H              1 S1                 0.0000
     38 ****        -3.4646   0.8755  -0.6254 H              1 S1                 0.0000
     39 ****        -2.6451   4.0800  -2.5500 H              1 S1                 0.0000
     40 ****        -3.4130   3.6305  -1.0205 H              1 S1                 0.0000
     41 ****        -4.1332   3.1371  -2.5568 H              1 S1                 0.0000
     42 ****         1.7227   3.3019  -2.5500 H              1 S1                 0.0000
     43 ****        -0.7915   0.9598   2.8986 H              1 S1                 0.0000
     44 ****         2.6288   2.3543   1.8746 H              1 S1                 0.0000
     45 ****         1.6285   2.1596   3.2911 H              1 S1                 0.0000
     46 ****         1.7318  -0.3102   3.0841 H              1 S1                 0.0000
     47 ****         3.2764   0.2242   0.5052 H              1 S1                 0.0000
     48 ****         3.4173  -1.2997   1.3491 H              1 S1                 0.0000
     49 ****         1.0223  -0.2106   0.4017 H              1 S1                 0.0000
     50 ****         4.5200   0.9027   2.9001 H              1 S1                 0.0000
     51 ****         3.4982   2.0772   4.7529 H              1 S1                 0.0000
     52 ****         2.6264   0.6219   5.2563 H              1 S1                 0.0000
     53 ****         5.6320   1.0967   5.3283 H              1 S1                 0.0000
     54 ****         4.6067   0.5063   6.6404 H              1 S1                 0.0000
     55 ****         3.5158  -1.7477   3.9857 H              1 S1                 0.0000
     56 ****         5.0015  -1.4195   3.0940 H              1 S1                 0.0000
     57 ****        -1.8233  -2.3182   0.0829 H              1 S1                 0.0000
     58 ****        -3.4863  -2.9139   0.1598 H              1 S1                 0.0000
     59 ****        -3.1335  -1.2359   0.5686 H              1 S1                 0.0000
     60 ****        -3.7101  -2.9937  -3.0002 H              1 S1                 0.0000
     61 ****        -2.4249  -3.6643  -2.0037 H              1 S1                 0.0000
     62 ****        -4.0640  -1.4581  -1.6194 H              1 S1                 0.0000
     63 ****        -2.8837  -2.6203  -5.0272 LP             1 S1                 0.0000
     64 ****        -1.3901  -2.0814  -5.4083 LP             1 S1                 0.0000
     65 ****        -2.2322   1.8298  -2.9546 LP             1 S1                 0.0000
     66 ****        -0.4582   2.9849  -3.2248 LP             1 S1                 0.0000
     67 ****         2.4683   2.7667  -0.3633 LP             1 S1                 0.0000
     68 ****        -2.4618   1.1762   1.0521 LP             1 S1                 0.0000
     69 ****         1.1252  -1.5681   1.2261 LP             1 S1                 0.0000
     70 ****         1.8189  -1.4269  -0.2455 LP             1 S1                 0.0000
     71 ****         4.6230  -1.4880   5.7511 LP             1 S1                 0.0000
     72 ****         5.9596  -0.9799   4.9623 LP             1 S1                 0.0000
@<TRIPOS>BOND
    1    1    2 1     
    2    1   32 1     
    3    1   33 1     
    4    1   34 1     
    5    2    3 1     
    6    3   30 1     
    7    3   29 1     
    8    3    4 1     
    9    4    5 1     
   10    4   35 1     
   11    4   36 1     
   12    5   31 1     
   13    5    6 1     
   14    5   27 1     
   15    6    7 1     
   16    6   37 1     
   17    6   38 1     
   18    7    8 1     
   19    7    9 1     
   20    8   39 1     
   21    8   40 1     
   22    8   41 1     
   23    9   14 ar    
   24    9   10 ar    
   25   10   11 ar    
   26   11   12 ar    
   27   11   42 1     
   28   12   13 ar    
   29   13   17 1     
   30   13   14 ar    
   31   14   15 1     
   32   15   16 2     
   33   16   17 1     
   34   16   43 1     
   35   17   18 1     
   36   18   19 1     
   37   18   44 1     
   38   18   45 1     
   39   19   20 1     
   40   19   22 1     
   41   19   46 1     
   42   20   21 1     
   43   20   47 1     
   44   20   48 1     
   45   21   49 1     
   46   22   26 1     
   47   22   23 1     
   48   22   50 1     
   49   23   24 1     
   50   23   51 1     
   51   23   52 1     
   52   24   25 1     
   53   24   53 1     
   54   24   54 1     
   55   25   26 1     
   56   26   55 1     
   57   26   56 1     
   58   27   28 1     
   59   27   29 1     
   60   27   62 1     
   61   28   57 1     
   62   28   58 1     
   63   28   59 1     
   64   29   60 1     
   65   29   61 1     
   66    2   63 1     
   67    2   64 1     
   68    7   65 1     
   69   10   66 1     
   70   12   67 1     
   71   15   68 1     
   72   21   69 1     
   73   21   70 1     
   74   25   71 1     
   75   25   72 1     
@<TRIPOS>SUBSTRUCTURE
      1 S1             1
@<TRIPOS>SET
LONE_PAIRS      STATIC     ATOMS    <user>   **** ""
10 63 64 65 66 67 68 69 70 71 72
DONOR_HYDROGENS      STATIC     ATOMS    <user>   **** ""
2 49 62
ATOM$BLUE        STATIC     ATOMS    COLORGROUP SYSTEM
10 63 64 65 66 67 68 69 70 71 72
ATOM$RED        STATIC     ATOMS    COLORGROUP SYSTEM
2 49 62
