AV-unprocessed.smi:558|AV-procd|sdf|2922|dock1
  -GOLD-   2262023413D 1   1.00000     0.00000
 Structure written by MMmdl.
 36 37  0  0  0  0  0  0  0  0  1 V2000
  153.9771  141.3039  160.8530 C   0  0  0  0  0  0  0  0  0  0  0  0
  153.0831  142.3222  160.2092 C   0  0  0  0  0  0  0  0  0  0  0  0
  152.5498  143.5125  160.7774 C   0  0  0  0  0  0  0  0  0  0  0  0
  151.8054  144.0628  159.7725 C   0  0  0  0  0  0  0  0  0  0  0  0
  150.9957  145.3179  159.7546 C   0  0  0  0  0  0  0  0  0  0  0  0
  151.9141  143.2166  158.6822 N   0  0  0  0  0  0  0  0  0  0  0  0
  151.3028  143.3256  157.3642 C   0  0  0  0  0  0  0  0  0  0  0  0
  150.6678  142.0033  156.9233 C   0  0  0  0  0  0  0  0  0  0  0  0
  151.3468  140.9778  156.8839 O   0  0  0  0  0  0  0  0  0  0  0  0
  149.3674  142.0414  156.5964 N   0  0  0  0  0  0  0  0  0  0  0  0
  148.5493  140.8884  156.2468 C   0  0  0  0  0  0  0  0  0  0  0  0
  147.2848  141.3393  155.4975 C   0  0  2  0  0  0  0  0  0  0  0  0
  147.5414  141.9422  154.1292 C   0  0  0  0  0  0  0  0  0  0  0  0
  146.2435  142.7016  153.8717 C   0  0  0  0  0  0  0  0  0  0  0  0
  145.7610  143.0993  155.1530 O   0  0  0  0  0  0  0  0  0  0  0  0
  146.5253  142.4752  156.1806 C   0  0  0  0  0  0  0  0  0  0  0  0
  152.7003  142.1520  158.9549 N   0  0  0  0  0  0  0  0  0  0  0  0
  154.3368  141.6520  161.8214 H   0  0  0  0  0  0  0  0  0  0  0  0
  154.8482  141.0942  160.2316 H   0  0  0  0  0  0  0  0  0  0  0  0
  153.4472  140.3647  161.0141 H   0  0  0  0  0  0  0  0  0  0  0  0
  152.6917  143.9028  161.7743 H   0  0  0  0  0  0  0  0  0  0  0  0
  151.0184  145.8092  160.7274 H   0  0  0  0  0  0  0  0  0  0  0  0
  149.9543  145.1075  159.5118 H   0  0  0  0  0  0  0  0  0  0  0  0
  151.3832  146.0201  159.0162 H   0  0  0  0  0  0  0  0  0  0  0  0
  150.5456  144.1095  157.3757 H   0  0  0  0  0  0  0  0  0  0  0  0
  152.0650  143.6318  156.6457 H   0  0  0  0  0  0  0  0  0  0  0  0
  148.8952  142.9320  156.6501 H   0  0  0  0  0  0  0  0  0  0  0  0
  149.1376  140.2150  155.6224 H   0  0  0  0  0  0  0  0  0  0  0  0
  148.2697  140.3306  157.1424 H   0  0  0  0  0  0  0  0  0  0  0  0
  146.6085  140.4903  155.3823 H   0  0  0  0  0  0  0  0  0  0  0  0
  148.3804  142.6385  154.1711 H   0  0  0  0  0  0  0  0  0  0  0  0
  147.7560  141.1972  153.3619 H   0  0  0  0  0  0  0  0  0  0  0  0
  146.3877  143.5603  153.2156 H   0  0  0  0  0  0  0  0  0  0  0  0
  145.5038  142.0451  153.4122 H   0  0  0  0  0  0  0  0  0  0  0  0
  145.8886  142.1236  156.9927 H   0  0  0  0  0  0  0  0  0  0  0  0
  147.2169  143.2131  156.5893 H   0  0  0  0  0  0  0  0  0  0  0  0
  1  2  1  0  0  0  0
  1 18  1  0  0  0  0
  1 19  1  0  0  0  0
  1 20  1  0  0  0  0
  2 17  2  0  0  0  0
  2  3  1  0  0  0  0
  3  4  2  0  0  0  0
  3 21  1  0  0  0  0
  4  5  1  0  0  0  0
  4  6  1  0  0  0  0
  5 22  1  0  0  0  0
  5 23  1  0  0  0  0
  5 24  1  0  0  0  0
  6  7  1  0  0  0  0
  6 17  1  0  0  0  0
  7  8  1  0  0  0  0
  7 25  1  0  0  0  0
  7 26  1  0  0  0  0
  8  9  2  0  0  0  0
  8 10  1  0  0  0  0
 10 11  1  0  0  0  0
 10 27  1  0  0  0  0
 11 12  1  0  0  0  0
 11 28  1  0  0  0  0
 11 29  1  0  0  0  0
 12 16  1  0  0  0  0
 12 13  1  0  0  0  0
 12 30  1  0  0  0  0
 13 14  1  0  0  0  0
 13 31  1  0  0  0  0
 13 32  1  0  0  0  0
 14 15  1  0  0  0  0
 14 33  1  0  0  0  0
 14 34  1  0  0  0  0
 15 16  1  0  0  0  0
 16 35  1  0  0  0  0
 16 36  1  0  0  0  0
M  END
> <s_m_source_file>
AV-unprocessed.smi

> <i_m_source_file_index>
558

> <i_lp_mmshare_version>
43012

> <i_f3d_flags>
0

> <s_epik_input>
W0NIM11jMVtjSF1jKFtDSDNdKW4objEpW0NIMl1DKD1PKVtOSF1bQ0gyXVtDQEBIXTJbQ0gyXVtDSDJdT1tDSDJdMg==

> <s_epik_cmdline>
J2VwaWtfcHl0aG9uJywgJy1waCcsICc3LjAnLCAnLXRuJywgJzgnLCAnLW1hJywgJzIwMCcsICctbWV0YWxfYmluZGluZycsICctaW1hZScsICc8aW5maWxlLm1hZT4nLCAnLW9tYWUnLCAnPG91dGZpbGUubWFlPic=

> <r_lp_tautomer_probability>
1

> <r_epik_Ionization_Penalty>
0.000376629

> <r_epik_Ionization_Penalty_Charging>
0

> <r_epik_Ionization_Penalty_Neutral>
0.000376629

> <r_epik_State_Penalty>
-0

> <r_epik_Charging_Adjusted_Penalty>
0

> <i_epik_Tot_Q>
0

> <i_epik_Tot_abs_Q>
0

> <r_epik_Metal_State_Penalty>
-0

> <b_epik_Metal_Only>
0

> <s_lp_Force_Field>
OPLS_2005

> <r_lp_Energy>
17.1643

> <b_lp_Chiralities_Consistent>
1

> <s_lp_Variant>
AV-unprocessed.smi:558-1

> <Gold.Version>
5.8.1

> <Gold.Id.Protein>
6NUR|6NUR_protein|mol2

> <Gold.PLP.Fitness>
41.3778

> <Gold.PLP.PLP>
-39.6753

> <Gold.PLP.part.hbond>
-1.0000

> <Gold.PLP.part.metal>
0.0000

> <Gold.PLP.part.buried>
-6.1490

> <Gold.PLP.part.nonpolar>
-33.1585

> <Gold.PLP.part.repulsive>
0.2467

> <Gold.PLP.ligand.clash>
0.0000

> <Gold.PLP.ligand.torsion>
0.3363

> <Gold.PLP.Chemscore.Hbond>
0.7840

> <Gold.PLP.Chemscore.CHOScore>
0.0000

> <Gold.PLP.Chemscore.Metal>
0.0000

> <Gold.Chemscore.Hbonds>
donor molecule, donor type, donor heavy atom, donor atom, acceptor molecule, acceptor atom, score
      L1  H    10    27       P1  8028  0.76

> <Gold.PLP.Chemscore.Internal.Correction>
0.0231

> <Gold.Rescore>
     Score         DG    S(hbond)    S(metal)    S(lipo)     H(rot)  DE(clash)    DE(int)     intcor
     13.48     -15.35       0.88        0.00      92.98       1.54       0.20       1.67       ----

> <Gold.Chemscore.Fitness>
13.4796

> <Gold.Chemscore.DG>
-15.3538

> <Gold.Chemscore.ZeroCoef>
-5.4800

> <Gold.Chemscore.Hbond>
0.8785

> <Gold.Chemscore.Metal>
0.0000

> <Gold.Chemscore.Lipo>
92.9821

> <Gold.Chemscore.Internal_Hbond>
0.0000

> <Gold.Chemscore.DEClash>
0.2016

> <Gold.Chemscore.DEInternal>
1.6726

> <Gold.Chemscore.Rot>
1.5387

> <Gold.Chemscore.Internal.Correction>
   9.000000E+99

> <Gold.Chemscore.Hbonds>
donor molecule, donor type, donor heavy atom, donor atom, acceptor molecule, acceptor atom, score
      L1  H    10    27       P1  8028  0.70

> <Gold.Chemscore.Hbond.Weighted>
-2.9341

> <Gold.Chemscore.Metal.Weighted>
-0.0000

> <Gold.Chemscore.Lipo.Weighted>
-10.8789

> <Gold.Chemscore.Internal_Hbond.Weighted>
0.0000

> <Gold.Chemscore.DEClash.Weighted>
0.2016

> <Gold.Chemscore.DEInternal.Weighted>
1.6726

> <Gold.Chemscore.Rot.Weighted>
3.9392

> <Gold.Chemscore.Internal.Correction.Weighted>
   9.000000E+99

> <Gold.Protein.RotatedTorsions>
[ 6907 6896 6895 6894 ] final  -27.88 input  -60.11 | X-H torsion
[ 7974 7965 7964 7962 ] final   92.53 input  175.53 | X-H torsion
[ 8008 7997 7996 7995 ] final  -82.89 input   59.86 | X-H torsion
[ 10167 10162 10161 10158 ] final  -91.96 input  -65.29 | X-H torsion
[ 10718 10713 10712 10709 ] final  -75.38 input   66.30 | X-H torsion
[ 10763 10752 10751 10750 ] final  171.16 input  -60.55 | X-H torsion
[ 11005 11000 10999 10996 ] final  -63.12 input  -57.11 | X-H torsion

> <Gold.Protein.ActiveResidues>
 VAL166  LYS551  ARG553  GLY616  TRP617  ASP618  TYR619  PRO620  LYS621  CYS622 
 ASP623  PHE694  ASN695  SER759  ASP760  ASP761  ALA762  ILE779  LEU786  VAL792 
 PHE793  MET794  SER795  GLU796  ALA797  LYS798  CYS799  TRP800  GLU811  SER814 

> <Gold.Protein.RotatedAtoms>
  151.1407  135.0178  159.8623 H   0  0  0  0  0  0  0  0  0  0  0  0  # atno 6907 bound_to 6896
  152.5452  134.1503  159.8525 H   0  0  0  0  0  0  0  0  0  0  0  0  # atno 6908 bound_to 6896
  151.1578  133.4819  159.2627 H   0  0  0  0  0  0  0  0  0  0  0  0  # atno 6909 bound_to 6896
  145.4910  139.2276  143.2830 H   0  0  0  0  0  0  0  0  0  0  0  0  # atno 7974 bound_to 7965
  154.6133  140.0626  156.9522 H   0  0  0  0  0  0  0  0  0  0  0  0  # atno 8008 bound_to 7997
  155.1936  140.3309  155.4336 H   0  0  0  0  0  0  0  0  0  0  0  0  # atno 8009 bound_to 7997
  156.2390  140.1876  156.7025 H   0  0  0  0  0  0  0  0  0  0  0  0  # atno 8010 bound_to 7997
  140.3396  143.2949  151.9850 H   0  0  0  0  0  0  0  0  0  0  0  0  # atno 10167 bound_to 10162
  156.0209  130.4439  150.3035 H   0  0  0  0  0  0  0  0  0  0  0  0  # atno 10718 bound_to 10713
  154.4079  135.2756  155.2055 H   0  0  0  0  0  0  0  0  0  0  0  0  # atno 10763 bound_to 10752
  154.4053  135.6035  153.5924 H   0  0  0  0  0  0  0  0  0  0  0  0  # atno 10764 bound_to 10752
  152.9831  135.5936  154.4356 H   0  0  0  0  0  0  0  0  0  0  0  0  # atno 10765 bound_to 10752
  141.1382  133.6648  156.5631 H   0  0  0  0  0  0  0  0  0  0  0  0  # atno 11005 bound_to 11000
  146.2284  140.5704  142.8986 LP  0  0  0  0  0  0  0  0  0  0  0  0  # atno 17320 bound_to 7965
  144.7834  140.5886  143.6590 LP  0  0  0  0  0  0  0  0  0  0  0  0  # atno 17321 bound_to 7965
  139.4842  144.6168  151.7332 LP  0  0  0  0  0  0  0  0  0  0  0  0  # atno 17342 bound_to 10162
  140.5321  144.0713  150.6057 LP  0  0  0  0  0  0  0  0  0  0  0  0  # atno 17343 bound_to 10162
  157.1137  131.0228  151.3037 LP  0  0  0  0  0  0  0  0  0  0  0  0  # atno 17370 bound_to 10713
  157.4684  130.7694  149.7300 LP  0  0  0  0  0  0  0  0  0  0  0  0  # atno 17371 bound_to 10713
  140.3972  134.7388  157.4758 LP  0  0  0  0  0  0  0  0  0  0  0  0  # atno 17394 bound_to 11000
  140.0522  134.6114  155.8848 LP  0  0  0  0  0  0  0  0  0  0  0  0  # atno 17395 bound_to 11000

$$$$
