AV-unprocessed.smi:193|AV-procd|sdf|1500|dock2
  -GOLD-   2262019323D 1   1.00000     0.00000
 Structure written by MMmdl.
 62 66  0  0  0  0  0  0  0  0  2 V2000
  154.3935  141.1621  161.5253 C   0  0  0  0  0  0  0  0  0  0  0  0
  153.2915  141.1575  160.4536 C   0  0  2  0  0  0  0  0  0  0  0  0
  153.5563  140.0155  159.4498 C   0  0  0  0  0  0  0  0  0  0  0  0
  152.3708  139.5678  158.7151 N   0  0  0  0  0  0  0  0  0  0  0  0
  152.4331  138.3722  158.0718 C   0  0  0  0  0  0  0  0  0  0  0  0
  153.4632  137.5276  158.3445 N   0  0  0  0  0  0  0  0  0  0  0  0
  153.5608  136.3534  157.7145 C   0  0  0  0  0  0  0  0  0  0  0  0
  152.7511  135.8325  156.7914 N   0  0  0  0  0  0  0  0  0  0  0  0
  151.7086  136.6680  156.5191 C   0  0  0  0  0  0  0  0  0  0  0  0
  151.4712  137.9405  157.1124 C   0  0  0  0  0  0  0  0  0  0  0  0
  150.2976  138.4857  156.6028 N   0  0  0  0  0  0  0  0  0  0  0  0
  149.8750  137.5945  155.7485 C   0  0  0  0  0  0  0  0  0  0  0  0
  150.6706  136.4782  155.6234 N   0  0  0  0  0  0  0  0  0  0  0  0
  150.4444  135.3431  154.7415 C   0  0  0  0  0  0  0  0  0  0  0  0
  149.9620  134.0642  155.4719 C   0  0  0  0  0  0  0  0  0  0  0  0
  148.7907  134.3946  156.1975 O   0  0  0  0  0  0  0  0  0  0  0  0
  149.6055  132.9654  154.4505 C   0  0  0  0  0  0  0  0  0  0  0  0
  149.2873  131.6213  155.1294 C   0  0  0  0  0  0  0  0  0  0  0  0
  150.3748  131.2251  155.9563 O   0  0  0  0  0  0  0  0  0  0  0  0
  150.6128  132.1351  157.0229 C   0  0  0  0  0  0  0  0  0  0  0  0
  151.0093  133.5138  156.4654 C   0  0  0  0  0  0  0  0  0  0  0  0
  151.2999  140.4872  158.3307 C   0  0  0  0  0  0  0  0  0  0  0  0
  151.8115  141.8538  157.8578 C   0  0  0  0  0  0  0  0  0  0  0  0
  151.9935  142.7819  158.9991 N   0  3  2  0  0  0  0  0  0  0  0  0
  151.8871  144.2004  158.5832 C   0  0  1  0  0  0  0  0  0  0  0  0
  150.5591  144.8419  158.9202 C   0  0  0  0  0  0  0  0  0  0  0  0
  151.7909  145.2025  159.7205 C   0  0  1  0  0  0  0  0  0  0  0  0
  151.8829  144.8213  161.1869 C   0  0  0  0  0  0  0  0  0  0  0  0
  153.2434  142.5372  159.7600 C   0  0  0  0  0  0  0  0  0  0  0  0
  155.3752  141.3411  161.0851 H   0  0  0  0  0  0  0  0  0  0  0  0
  154.4348  140.2089  162.0536 H   0  0  0  0  0  0  0  0  0  0  0  0
  154.2169  141.9371  162.2718 H   0  0  0  0  0  0  0  0  0  0  0  0
  152.3488  140.9768  160.9729 H   0  0  0  0  0  0  0  0  0  0  0  0
  154.3405  140.3027  158.7479 H   0  0  0  0  0  0  0  0  0  0  0  0
  153.9383  139.1529  159.9986 H   0  0  0  0  0  0  0  0  0  0  0  0
  154.4108  135.7450  157.9867 H   0  0  0  0  0  0  0  0  0  0  0  0
  148.9696  137.7314  155.1750 H   0  0  0  0  0  0  0  0  0  0  0  0
  149.7246  135.6393  153.9769 H   0  0  0  0  0  0  0  0  0  0  0  0
  151.3780  135.1402  154.2147 H   0  0  0  0  0  0  0  0  0  0  0  0
  148.9199  135.2336  156.6126 H   0  0  0  0  0  0  0  0  0  0  0  0
  148.7661  133.2784  153.8280 H   0  0  0  0  0  0  0  0  0  0  0  0
  150.4473  132.8163  153.7728 H   0  0  0  0  0  0  0  0  0  0  0  0
  148.3706  131.6831  155.7178 H   0  0  0  0  0  0  0  0  0  0  0  0
  149.1246  130.8525  154.3741 H   0  0  0  0  0  0  0  0  0  0  0  0
  149.7294  132.2069  157.6592 H   0  0  0  0  0  0  0  0  0  0  0  0
  151.4164  131.7416  157.6457 H   0  0  0  0  0  0  0  0  0  0  0  0
  151.9702  133.4193  155.9580 H   0  0  0  0  0  0  0  0  0  0  0  0
  151.1654  134.2078  157.2918 H   0  0  0  0  0  0  0  0  0  0  0  0
  150.7326  140.0620  157.5026 H   0  0  0  0  0  0  0  0  0  0  0  0
  150.5939  140.5962  159.1546 H   0  0  0  0  0  0  0  0  0  0  0  0
  152.7177  141.7709  157.2555 H   0  0  0  0  0  0  0  0  0  0  0  0
  151.0495  142.2675  157.1962 H   0  0  0  0  0  0  0  0  0  0  0  0
  152.3932  144.4617  157.6552 H   0  0  0  0  0  0  0  0  0  0  0  0
  150.1756  145.5936  158.2332 H   0  0  0  0  0  0  0  0  0  0  0  0
  149.8007  144.2311  159.4071 H   0  0  0  0  0  0  0  0  0  0  0  0
  152.2207  146.1800  159.5094 H   0  0  0  0  0  0  0  0  0  0  0  0
  151.3744  143.8780  161.3871 H   0  0  0  0  0  0  0  0  0  0  0  0
  151.4175  145.5939  161.7992 H   0  0  0  0  0  0  0  0  0  0  0  0
  152.9267  144.7278  161.4866 H   0  0  0  0  0  0  0  0  0  0  0  0
  153.3202  143.3124  160.5232 H   0  0  0  0  0  0  0  0  0  0  0  0
  154.1084  142.6716  159.1086 H   0  0  0  0  0  0  0  0  0  0  0  0
  151.2232  142.6198  159.6320 H   0  0  0  0  0  0  0  0  0  0  0  0
  1  2  1  0  0  0  0
  1 30  1  0  0  0  0
  1 31  1  0  0  0  0
  1 32  1  0  0  0  0
  2 29  1  0  0  0  0
  2  3  1  0  0  0  0
  2 33  1  0  0  0  0
  3  4  1  0  0  0  0
  3 34  1  0  0  0  0
  3 35  1  0  0  0  0
  4  5  1  0  0  0  0
  4 22  1  0  0  0  0
  5 10  1  0  0  0  0
  5  6  2  0  0  0  0
  6  7  1  0  0  0  0
  7  8  2  0  0  0  0
  7 36  1  0  0  0  0
  8  9  1  0  0  0  0
  9 13  1  0  0  0  0
  9 10  2  0  0  0  0
 10 11  1  0  0  0  0
 11 12  2  0  0  0  0
 12 13  1  0  0  0  0
 12 37  1  0  0  0  0
 13 14  1  0  0  0  0
 14 15  1  0  0  0  0
 14 38  1  0  0  0  0
 14 39  1  0  0  0  0
 15 21  1  0  0  0  0
 15 16  1  0  0  0  0
 15 17  1  0  0  0  0
 16 40  1  0  0  0  0
 17 18  1  0  0  0  0
 17 41  1  0  0  0  0
 17 42  1  0  0  0  0
 18 19  1  0  0  0  0
 18 43  1  0  0  0  0
 18 44  1  0  0  0  0
 19 20  1  0  0  0  0
 20 21  1  0  0  0  0
 20 45  1  0  0  0  0
 20 46  1  0  0  0  0
 21 47  1  0  0  0  0
 21 48  1  0  0  0  0
 22 23  1  0  0  0  0
 22 49  1  0  0  0  0
 22 50  1  0  0  0  0
 23 24  1  0  0  0  0
 23 51  1  0  0  0  0
 23 52  1  0  0  0  0
 24 25  1  0  0  0  0
 24 29  1  0  0  0  0
 24 62  1  0  0  0  0
 25 27  1  0  0  0  0
 25 26  1  0  0  0  0
 25 53  1  0  0  0  0
 26 27  1  0  0  0  0
 26 54  1  0  0  0  0
 26 55  1  0  0  0  0
 27 28  1  0  0  0  0
 27 56  1  0  0  0  0
 28 57  1  0  0  0  0
 28 58  1  0  0  0  0
 28 59  1  0  0  0  0
 29 60  1  0  0  0  0
 29 61  1  0  0  0  0
M  CHG  1  24   1
M  END
> <s_m_source_file>
AV-unprocessed.smi

> <i_m_source_file_index>
193

> <i_lp_mmshare_version>
43012

> <i_f3d_flags>
0

> <s_epik_input>
W0NIM11bQ0BASF0xW0NIMl1bQ0BIXTFOKFtDSDJdMilbQ0gyXVtDSDJdTihbQ0gyXVtDQEhdMltDSDNdKWMobltjSF1uMyljKGMzNCluW2NIXW40W0NIMl1DNShbT0hdKVtDSDJdW0NIMl1PW0NIMl1bQ0gyXTU=

> <s_epik_cmdline>
J2VwaWtfcHl0aG9uJywgJy1waCcsICc3LjAnLCAnLXRuJywgJzgnLCAnLW1hJywgJzIwMCcsICctbWV0YWxfYmluZGluZycsICctaW1hZScsICc8aW5maWxlLm1hZT4nLCAnLW9tYWUnLCAnPG91dGZpbGUubWFlPic=

> <r_lp_tautomer_probability>
1

> <r_epik_Ionization_Penalty>
0.0540825

> <r_epik_Ionization_Penalty_Charging>
0.0538476

> <r_epik_Ionization_Penalty_Neutral>
0.000234891

> <r_epik_State_Penalty>
0.0200719

> <r_epik_Charging_Adjusted_Penalty>
0.0739194

> <i_epik_Tot_Q>
1

> <i_epik_Tot_abs_Q>
1

> <r_epik_Metal_State_Penalty>
0.0199414

> <b_epik_Metal_Only>
0

> <s_lp_Force_Field>
OPLS_2005

> <r_lp_Energy>
56.6778

> <b_lp_Chiralities_Consistent>
1

> <s_lp_Variant>
AV-unprocessed.smi:193-5

> <Gold.Version>
5.8.1

> <Gold.Id.Protein>
6NUR|6NUR_protein|mol2

> <Gold.PLP.Fitness>
51.3684

> <Gold.PLP.PLP>
-48.8075

> <Gold.PLP.part.hbond>
-1.0000

> <Gold.PLP.part.metal>
0.0000

> <Gold.PLP.part.buried>
-5.0759

> <Gold.PLP.part.nonpolar>
-43.2679

> <Gold.PLP.part.repulsive>
0.0559

> <Gold.PLP.ligand.clash>
0.0000

> <Gold.PLP.ligand.torsion>
0.9000

> <Gold.PLP.Chemscore.Hbond>
1.0000

> <Gold.PLP.Chemscore.CHOScore>
0.0000

> <Gold.PLP.Chemscore.Metal>
0.0000

> <Gold.Chemscore.Hbonds>
donor molecule, donor type, donor heavy atom, donor atom, acceptor molecule, acceptor atom, score
      P1  H 10752 10763       L1     8  1.00

> <Gold.PLP.Chemscore.Internal.Correction>
1.3610

> <Gold.Rescore>
     Score         DG    S(hbond)    S(metal)    S(lipo)     H(rot)  DE(clash)    DE(int)     intcor
     14.56     -17.80       0.61        0.00     130.13       1.93       0.04       3.20       ----

> <Gold.Chemscore.Fitness>
14.5597

> <Gold.Chemscore.DG>
-17.8032

> <Gold.Chemscore.ZeroCoef>
-5.4800

> <Gold.Chemscore.Hbond>
0.6097

> <Gold.Chemscore.Metal>
0.0000

> <Gold.Chemscore.Lipo>
130.1302

> <Gold.Chemscore.Internal_Hbond>
0.0000

> <Gold.Chemscore.DEClash>
0.0444

> <Gold.Chemscore.DEInternal>
3.1992

> <Gold.Chemscore.Rot>
1.9290

> <Gold.Chemscore.Internal.Correction>
   9.000000E+99

> <Gold.Chemscore.Hbonds>
donor molecule, donor type, donor heavy atom, donor atom, acceptor molecule, acceptor atom, score
      P1  H 10752 10763       L1     8  0.67

> <Gold.Chemscore.Hbond.Weighted>
-2.0363

> <Gold.Chemscore.Metal.Weighted>
-0.0000

> <Gold.Chemscore.Lipo.Weighted>
-15.2252

> <Gold.Chemscore.Internal_Hbond.Weighted>
0.0000

> <Gold.Chemscore.DEClash.Weighted>
0.0444

> <Gold.Chemscore.DEInternal.Weighted>
3.1992

> <Gold.Chemscore.Rot.Weighted>
4.9383

> <Gold.Chemscore.Internal.Correction.Weighted>
   9.000000E+99

> <Gold.Protein.RotatedTorsions>
[ 6907 6896 6895 6894 ] final   54.61 input  -60.11 | X-H torsion
[ 7974 7965 7964 7962 ] final  166.97 input  175.53 | X-H torsion
[ 8008 7997 7996 7995 ] final  -59.71 input   59.86 | X-H torsion
[ 10167 10162 10161 10158 ] final  -49.64 input  -65.29 | X-H torsion
[ 10718 10713 10712 10709 ] final -158.65 input   66.30 | X-H torsion
[ 10763 10752 10751 10750 ] final  125.26 input  -60.55 | X-H torsion
[ 11005 11000 10999 10996 ] final   73.41 input  -57.11 | X-H torsion

> <Gold.Protein.ActiveResidues>
 VAL166  LYS551  ARG553  GLY616  TRP617  ASP618  TYR619  PRO620  LYS621  CYS622 
 ASP623  PHE694  ASN695  SER759  ASP760  ASP761  ALA762  ILE779  LEU786  VAL792 
 PHE793  MET794  SER795  GLU796  ALA797  LYS798  CYS799  TRP800  GLU811  SER814 

> <Gold.Protein.RotatedAtoms>
  152.3456  134.7076  160.0251 H   0  0  0  0  0  0  0  0  0  0  0  0  # atno 6907 bound_to 6896
  151.7446  133.3318  159.3383 H   0  0  0  0  0  0  0  0  0  0  0  0  # atno 6908 bound_to 6896
  150.7507  134.6180  159.6165 H   0  0  0  0  0  0  0  0  0  0  0  0  # atno 6909 bound_to 6896
  144.7442  139.8693  143.6387 H   0  0  0  0  0  0  0  0  0  0  0  0  # atno 7974 bound_to 7965
  154.4365  140.1055  156.6159 H   0  0  0  0  0  0  0  0  0  0  0  0  # atno 8008 bound_to 7997
  155.5760  140.3490  155.4509 H   0  0  0  0  0  0  0  0  0  0  0  0  # atno 8009 bound_to 7997
  156.0354  140.1270  157.0202 H   0  0  0  0  0  0  0  0  0  0  0  0  # atno 8010 bound_to 7997
  140.6676  143.2690  151.4244 H   0  0  0  0  0  0  0  0  0  0  0  0  # atno 10167 bound_to 10162
  156.5571  130.8631  151.2798 H   0  0  0  0  0  0  0  0  0  0  0  0  # atno 10718 bound_to 10713
  153.6745  135.3325  155.3162 H   0  0  0  0  0  0  0  0  0  0  0  0  # atno 10763 bound_to 10752
  154.8482  135.4394  154.1670 H   0  0  0  0  0  0  0  0  0  0  0  0  # atno 10764 bound_to 10752
  153.2670  135.6997  153.7595 H   0  0  0  0  0  0  0  0  0  0  0  0  # atno 10765 bound_to 10752
  139.9441  134.7345  156.1023 H   0  0  0  0  0  0  0  0  0  0  0  0  # atno 11005 bound_to 11000
  146.1292  139.4324  143.0179 LP  0  0  0  0  0  0  0  0  0  0  0  0  # atno 17320 bound_to 7965
  145.7189  141.0082  143.1413 LP  0  0  0  0  0  0  0  0  0  0  0  0  # atno 17321 bound_to 7965
  139.5930  144.1457  152.2111 LP  0  0  0  0  0  0  0  0  0  0  0  0  # atno 17342 bound_to 10162
  140.0818  144.5694  150.7117 LP  0  0  0  0  0  0  0  0  0  0  0  0  # atno 17343 bound_to 10162
  157.7376  130.9798  150.2202 LP  0  0  0  0  0  0  0  0  0  0  0  0  # atno 17370 bound_to 10713
  156.2832  130.3736  149.7914 LP  0  0  0  0  0  0  0  0  0  0  0  0  # atno 17371 bound_to 10713
  141.1086  133.6651  156.2924 LP  0  0  0  0  0  0  0  0  0  0  0  0  # atno 17394 bound_to 11000
  140.5878  134.5681  157.5493 LP  0  0  0  0  0  0  0  0  0  0  0  0  # atno 17395 bound_to 11000

$$$$
