AV-unprocessed.smi:370|AV-procd|sdf|2440|dock9
  -GOLD-   2262022383D 1   1.00000     0.00000
 Structure written by MMmdl.
 42 43  0  0  0  0  0  0  0  0  3 V2000
  147.3684  135.1229  162.5524 C   0  0  0  0  0  0  0  0  0  0  0  0
  147.7461  135.5604  161.1792 C   0  0  0  0  0  0  0  0  0  0  0  0
  148.0652  134.8768  160.0400 C   0  0  0  0  0  0  0  0  0  0  0  0
  148.3200  135.9138  159.1036 C   0  0  0  0  0  0  0  0  0  0  0  0
  148.6902  135.6061  157.7678 N   0  0  0  0  0  0  0  0  0  0  0  0
  149.2625  134.4871  157.2875 C   0  0  0  0  0  0  0  0  0  0  0  0
  149.5214  133.5431  158.0430 O   0  0  0  0  0  0  0  0  0  0  0  0
  149.4840  134.5604  155.9470 N   0  5  0  0  0  0  0  0  0  0  0  0
  148.4766  134.9593  154.9587 C   0  0  0  0  0  0  0  0  0  0  0  0
  147.9762  133.7197  154.1359 C   0  0  0  0  0  0  0  0  0  0  0  0
  149.2079  132.8194  153.8050 C   0  0  0  0  0  0  0  0  0  0  0  0
  147.0331  132.8413  155.0050 C   0  0  0  0  0  0  0  0  0  0  0  0
  147.2657  134.2059  152.8877 N   0  3  0  0  0  0  0  0  0  0  0  0
  146.7361  133.1636  151.9629 C   0  0  0  0  0  0  0  0  0  0  0  0
  146.2350  133.8006  150.6545 C   0  0  0  0  0  0  0  0  0  0  0  0
  145.2547  134.7909  150.9298 O   0  0  0  0  0  0  0  0  0  0  0  0
  145.7819  135.8382  151.7312 C   0  0  0  0  0  0  0  0  0  0  0  0
  146.2241  135.2608  153.0834 C   0  0  0  0  0  0  0  0  0  0  0  0
  148.1686  137.1220  159.6253 N   0  0  0  0  0  0  0  0  0  0  0  0
  147.7997  136.9017  160.9576 O   0  0  0  0  0  0  0  0  0  0  0  0
  147.4336  134.0389  162.6477 H   0  0  0  0  0  0  0  0  0  0  0  0
  146.3465  135.4219  162.7853 H   0  0  0  0  0  0  0  0  0  0  0  0
  148.0302  135.5681  163.2953 H   0  0  0  0  0  0  0  0  0  0  0  0
  148.1093  133.8067  159.9012 H   0  0  0  0  0  0  0  0  0  0  0  0
  148.5012  136.3272  157.0880 H   0  0  0  0  0  0  0  0  0  0  0  0
  147.6209  135.4479  155.4264 H   0  0  0  0  0  0  0  0  0  0  0  0
  148.8849  135.6976  154.2678 H   0  0  0  0  0  0  0  0  0  0  0  0
  149.7552  132.5119  154.6994 H   0  0  0  0  0  0  0  0  0  0  0  0
  149.9275  133.3065  153.1433 H   0  0  0  0  0  0  0  0  0  0  0  0
  148.9051  131.8899  153.3220 H   0  0  0  0  0  0  0  0  0  0  0  0
  147.5525  132.4082  155.8624 H   0  0  0  0  0  0  0  0  0  0  0  0
  146.6418  132.0041  154.4258 H   0  0  0  0  0  0  0  0  0  0  0  0
  146.1726  133.3832  155.4025 H   0  0  0  0  0  0  0  0  0  0  0  0
  147.5041  132.4443  151.6839 H   0  0  0  0  0  0  0  0  0  0  0  0
  145.9313  132.6124  152.4511 H   0  0  0  0  0  0  0  0  0  0  0  0
  147.0640  134.2410  150.0978 H   0  0  0  0  0  0  0  0  0  0  0  0
  145.7932  133.0380  150.0130 H   0  0  0  0  0  0  0  0  0  0  0  0
  146.6131  136.3295  151.2224 H   0  0  0  0  0  0  0  0  0  0  0  0
  145.0075  136.5912  151.8793 H   0  0  0  0  0  0  0  0  0  0  0  0
  145.3554  134.8407  153.5919 H   0  0  0  0  0  0  0  0  0  0  0  0
  146.5923  136.0768  153.7046 H   0  0  0  0  0  0  0  0  0  0  0  0
  148.0094  134.6532  152.3679 H   0  0  0  0  0  0  0  0  0  0  0  0
  1  2  1  0  0  0  0
  1 21  1  0  0  0  0
  1 22  1  0  0  0  0
  1 23  1  0  0  0  0
  2 20  1  0  0  0  0
  2  3  2  0  0  0  0
  3  4  1  0  0  0  0
  3 24  1  0  0  0  0
  4  5  1  0  0  0  0
  4 19  2  0  0  0  0
  5  6  1  0  0  0  0
  5 25  1  0  0  0  0
  6  7  2  0  0  0  0
  6  8  1  0  0  0  0
  8  9  1  0  0  0  0
  9 10  1  0  0  0  0
  9 26  1  0  0  0  0
  9 27  1  0  0  0  0
 10 11  1  0  0  0  0
 10 12  1  0  0  0  0
 10 13  1  0  0  0  0
 11 28  1  0  0  0  0
 11 29  1  0  0  0  0
 11 30  1  0  0  0  0
 12 31  1  0  0  0  0
 12 32  1  0  0  0  0
 12 33  1  0  0  0  0
 13 18  1  0  0  0  0
 13 14  1  0  0  0  0
 13 42  1  0  0  0  0
 14 15  1  0  0  0  0
 14 34  1  0  0  0  0
 14 35  1  0  0  0  0
 15 16  1  0  0  0  0
 15 36  1  0  0  0  0
 15 37  1  0  0  0  0
 16 17  1  0  0  0  0
 17 18  1  0  0  0  0
 17 38  1  0  0  0  0
 17 39  1  0  0  0  0
 18 40  1  0  0  0  0
 18 41  1  0  0  0  0
 19 20  1  0  0  0  0
M  CHG  1   8  -1
M  CHG  1  13   1
M  END
> <s_m_source_file>
AV-unprocessed.smi

> <i_m_source_file_index>
370

> <i_lp_mmshare_version>
43012

> <i_f3d_flags>
0

> <s_epik_input>
W0NIM11jMVtjSF1jKG5vMSlbTkhdQyg9TylbTkhdW0NIMl1DKFtDSDNdKShbQ0gzXSlOMltDSDJdW0NIMl1PW0NIMl1bQ0gyXTI=

> <s_epik_cmdline>
J2VwaWtfcHl0aG9uJywgJy1waCcsICc3LjAnLCAnLXRuJywgJzgnLCAnLW1hJywgJzIwMCcsICctbWV0YWxfYmluZGluZycsICctaW1hZScsICc8aW5maWxlLm1hZT4nLCAnLW9tYWUnLCAnPG91dGZpbGUubWFlPic=

> <r_epik_Ionization_Penalty>
6.79272

> <r_epik_Ionization_Penalty_Charging>
6.79272

> <r_epik_Ionization_Penalty_Neutral>
5.6208e-06

> <r_epik_State_Penalty>
7.45901

> <r_epik_Charging_Adjusted_Penalty>
14.2517

> <i_epik_Tot_Q>
0

> <i_epik_Tot_abs_Q>
2

> <r_epik_Metal_State_Penalty>
3.38639

> <b_epik_Metal_Only>
1

> <s_lp_Force_Field>
OPLS_2005

> <r_lp_Energy>
23.8333

> <b_lp_Chiralities_Consistent>
1

> <s_lp_Variant>
AV-unprocessed.smi:370-5

> <Gold.Version>
5.8.1

> <Gold.Id.Protein>
6NUR|6NUR_protein|mol2

> <Gold.PLP.Fitness>
40.7044

> <Gold.PLP.PLP>
-30.1081

> <Gold.PLP.part.hbond>
-5.2920

> <Gold.PLP.part.metal>
0.0000

> <Gold.PLP.part.buried>
-4.0178

> <Gold.PLP.part.nonpolar>
-20.9995

> <Gold.PLP.part.repulsive>
0.2793

> <Gold.PLP.ligand.clash>
0.0000

> <Gold.PLP.ligand.torsion>
0.9308

> <Gold.PLP.Chemscore.Hbond>
4.1160

> <Gold.PLP.Chemscore.CHOScore>
0.0000

> <Gold.PLP.Chemscore.Metal>
0.0000

> <Gold.Chemscore.Hbonds>
donor molecule, donor type, donor heavy atom, donor atom, acceptor molecule, acceptor atom, score
      L1  H    13    42       P1  7948  2.00
      P1  H  6896  6908       L1     7  1.00
      P1  H  6931  6943       L1    20  0.93
      P1  H  6934  6947       L1    20  0.13

> <Gold.PLP.Chemscore.Internal.Correction>
0.1099

> <Gold.Rescore>
     Score         DG    S(hbond)    S(metal)    S(lipo)     H(rot)  DE(clash)    DE(int)     intcor
     14.81     -17.03       2.72        0.00      55.52       1.57       0.05       2.17       ----

> <Gold.Chemscore.Fitness>
14.8095

> <Gold.Chemscore.DG>
-17.0338

> <Gold.Chemscore.ZeroCoef>
-5.4800

> <Gold.Chemscore.Hbond>
2.7176

> <Gold.Chemscore.Metal>
0.0000

> <Gold.Chemscore.Lipo>
55.5244

> <Gold.Chemscore.Internal_Hbond>
0.0000

> <Gold.Chemscore.DEClash>
0.0504

> <Gold.Chemscore.DEInternal>
2.1739

> <Gold.Chemscore.Rot>
1.5701

> <Gold.Chemscore.Internal.Correction>
   9.000000E+99

> <Gold.Chemscore.Hbonds>
donor molecule, donor type, donor heavy atom, donor atom, acceptor molecule, acceptor atom, score
      L1  H    13    42       P1  7948  0.48
      P1  H  6896  6908       L1     7  0.78
      P1  H  6931  6943       L1    20  0.22

> <Gold.Chemscore.Hbond.Weighted>
-9.0768

> <Gold.Chemscore.Metal.Weighted>
-0.0000

> <Gold.Chemscore.Lipo.Weighted>
-6.4964

> <Gold.Chemscore.Internal_Hbond.Weighted>
0.0000

> <Gold.Chemscore.DEClash.Weighted>
0.0504

> <Gold.Chemscore.DEInternal.Weighted>
2.1739

> <Gold.Chemscore.Rot.Weighted>
4.0194

> <Gold.Chemscore.Internal.Correction.Weighted>
   9.000000E+99

> <Gold.Protein.RotatedTorsions>
[ 6907 6896 6895 6894 ] final  137.45 input  -60.11 | X-H torsion
[ 7974 7965 7964 7962 ] final   31.92 input  175.53 | X-H torsion
[ 8008 7997 7996 7995 ] final -105.27 input   59.86 | X-H torsion
[ 10167 10162 10161 10158 ] final  103.23 input  -65.29 | X-H torsion
[ 10718 10713 10712 10709 ] final  121.35 input   66.30 | X-H torsion
[ 10763 10752 10751 10750 ] final  177.77 input  -60.55 | X-H torsion
[ 11005 11000 10999 10996 ] final -130.02 input  -57.11 | X-H torsion

> <Gold.Protein.ActiveResidues>
 VAL166  LYS551  ARG553  GLY616  TRP617  ASP618  TYR619  PRO620  LYS621  CYS622 
 ASP623  PHE694  ASN695  SER759  ASP760  ASP761  ALA762  ILE779  LEU786  VAL792 
 PHE793  MET794  SER795  GLU796  ALA797  LYS798  CYS799  TRP800  GLU811  SER814 

> <Gold.Protein.RotatedAtoms>
  152.2779  133.5443  159.5479 H   0  0  0  0  0  0  0  0  0  0  0  0  # atno 6907 bound_to 6896
  150.7184  134.0606  159.3839 H   0  0  0  0  0  0  0  0  0  0  0  0  # atno 6908 bound_to 6896
  151.8518  135.0555  160.0510 H   0  0  0  0  0  0  0  0  0  0  0  0  # atno 6909 bound_to 6896
  146.1519  139.6593  142.9093 H   0  0  0  0  0  0  0  0  0  0  0  0  # atno 7974 bound_to 7965
  154.8974  140.0414  157.1873 H   0  0  0  0  0  0  0  0  0  0  0  0  # atno 8008 bound_to 7997
  154.8479  140.2924  155.5596 H   0  0  0  0  0  0  0  0  0  0  0  0  # atno 8009 bound_to 7997
  156.2995  140.2470  156.3432 H   0  0  0  0  0  0  0  0  0  0  0  0  # atno 8010 bound_to 7997
  139.7281  144.7042  151.0766 H   0  0  0  0  0  0  0  0  0  0  0  0  # atno 10167 bound_to 10162
  157.5824  131.1073  150.8162 H   0  0  0  0  0  0  0  0  0  0  0  0  # atno 10718 bound_to 10713
  154.4988  135.2782  155.1437 H   0  0  0  0  0  0  0  0  0  0  0  0  # atno 10763 bound_to 10752
  154.3079  135.6235  153.5456 H   0  0  0  0  0  0  0  0  0  0  0  0  # atno 10764 bound_to 10752
  152.9899  135.5712  154.5426 H   0  0  0  0  0  0  0  0  0  0  0  0  # atno 10765 bound_to 10752
  140.9381  134.1229  157.4175 H   0  0  0  0  0  0  0  0  0  0  0  0  # atno 11005 bound_to 11000
  145.4802  141.0438  143.2650 LP  0  0  0  0  0  0  0  0  0  0  0  0  # atno 17320 bound_to 7965
  144.7915  139.6319  143.7111 LP  0  0  0  0  0  0  0  0  0  0  0  0  # atno 17321 bound_to 7965
  140.7766  143.5079  150.9689 LP  0  0  0  0  0  0  0  0  0  0  0  0  # atno 17342 bound_to 10162
  139.8767  143.7124  152.3161 LP  0  0  0  0  0  0  0  0  0  0  0  0  # atno 17343 bound_to 10162
  156.8605  130.5111  149.5304 LP  0  0  0  0  0  0  0  0  0  0  0  0  # atno 17370 bound_to 10713
  156.0870  130.5866  150.9666 LP  0  0  0  0  0  0  0  0  0  0  0  0  # atno 17371 bound_to 10713
  139.8813  135.0028  156.6146 LP  0  0  0  0  0  0  0  0  0  0  0  0  # atno 17394 bound_to 11000
  140.7771  133.8690  155.8538 LP  0  0  0  0  0  0  0  0  0  0  0  0  # atno 17395 bound_to 11000

$$$$
