AV-unprocessed.smi:828|AV-procd|sdf|3864|dock8
  -GOLD-   22720 1313D 1   1.00000     0.00000
 Structure written by MMmdl.
 34 35  0  0  0  0  0  0  0  0  3 V2000
  151.1388  141.0709  156.4874 C   0  0  0  0  0  0  0  0  0  0  0  0
  151.4356  139.8166  155.7394 C   0  0  0  0  0  0  0  0  0  0  0  0
  152.2499  139.7809  154.6817 N   0  0  0  0  0  0  0  0  0  0  0  0
  152.3703  138.5021  154.1574 N   0  0  0  0  0  0  0  0  0  0  0  0
  151.6567  137.5887  154.8308 C   0  0  0  0  0  0  0  0  0  0  0  0
  151.6374  136.2912  154.4838 N   0  5  0  0  0  0  0  0  0  0  0  0
  150.7961  135.4381  155.1094 C   0  0  0  0  0  0  0  0  0  0  0  0
  151.0552  134.7420  156.0933 O   0  0  0  0  0  0  0  0  0  0  0  0
  149.5794  135.3844  154.5525 N   0  0  0  0  0  0  0  0  0  0  0  0
  148.4801  134.5296  154.9878 C   0  0  0  0  0  0  0  0  0  0  0  0
  147.1941  134.8200  154.1852 C   0  0  2  0  0  0  0  0  0  0  0  0
  145.9293  134.2245  154.8026 C   0  0  0  0  0  0  0  0  0  0  0  0
  144.9272  134.3407  153.6627 C   0  0  0  0  0  0  0  0  0  0  0  0
  145.7713  134.0385  152.4220 C   0  0  0  0  0  0  0  0  0  0  0  0
  147.1740  134.4008  152.7519 N   0  3  2  0  0  0  0  0  0  0  0  0
  148.1318  133.3444  152.3405 C   0  0  0  0  0  0  0  0  0  0  0  0
  150.7453  138.2640  156.1810 S   0  0  0  0  0  0  0  0  0  0  0  0
  151.9249  141.2628  157.2178 H   0  0  0  0  0  0  0  0  0  0  0  0
  150.1871  140.9822  157.0116 H   0  0  0  0  0  0  0  0  0  0  0  0
  151.0811  141.9166  155.8015 H   0  0  0  0  0  0  0  0  0  0  0  0
  149.4105  135.9829  153.7572 H   0  0  0  0  0  0  0  0  0  0  0  0
  148.7449  133.4734  154.9193 H   0  0  0  0  0  0  0  0  0  0  0  0
  148.3032  134.7319  156.0448 H   0  0  0  0  0  0  0  0  0  0  0  0
  147.0549  135.9027  154.1716 H   0  0  0  0  0  0  0  0  0  0  0  0
  146.0870  133.1757  155.0592 H   0  0  0  0  0  0  0  0  0  0  0  0
  145.6088  134.7509  155.7021 H   0  0  0  0  0  0  0  0  0  0  0  0
  144.0780  133.6658  153.7726 H   0  0  0  0  0  0  0  0  0  0  0  0
  144.5422  135.3603  153.6116 H   0  0  0  0  0  0  0  0  0  0  0  0
  145.6947  132.9745  152.1906 H   0  0  0  0  0  0  0  0  0  0  0  0
  145.4218  134.5885  151.5477 H   0  0  0  0  0  0  0  0  0  0  0  0
  148.0058  132.4406  152.9380 H   0  0  0  0  0  0  0  0  0  0  0  0
  149.1652  133.6770  152.4230 H   0  0  0  0  0  0  0  0  0  0  0  0
  147.9713  133.0804  151.2944 H   0  0  0  0  0  0  0  0  0  0  0  0
  147.4114  135.2215  152.2130 H   0  0  0  0  0  0  0  0  0  0  0  0
  1  2  1  0  0  0  0
  1 18  1  0  0  0  0
  1 19  1  0  0  0  0
  1 20  1  0  0  0  0
  2 17  1  0  0  0  0
  2  3  2  0  0  0  0
  3  4  1  0  0  0  0
  4  5  2  0  0  0  0
  5  6  1  0  0  0  0
  5 17  1  0  0  0  0
  6  7  1  0  0  0  0
  7  8  2  0  0  0  0
  7  9  1  0  0  0  0
  9 10  1  0  0  0  0
  9 21  1  0  0  0  0
 10 11  1  0  0  0  0
 10 22  1  0  0  0  0
 10 23  1  0  0  0  0
 11 15  1  0  0  0  0
 11 12  1  0  0  0  0
 11 24  1  0  0  0  0
 12 13  1  0  0  0  0
 12 25  1  0  0  0  0
 12 26  1  0  0  0  0
 13 14  1  0  0  0  0
 13 27  1  0  0  0  0
 13 28  1  0  0  0  0
 14 15  1  0  0  0  0
 14 29  1  0  0  0  0
 14 30  1  0  0  0  0
 15 16  1  0  0  0  0
 15 34  1  0  0  0  0
 16 31  1  0  0  0  0
 16 32  1  0  0  0  0
 16 33  1  0  0  0  0
M  CHG  1   6  -1
M  CHG  1  15   1
M  END
> <s_m_source_file>
AV-unprocessed.smi

> <i_m_source_file_index>
828

> <i_lp_mmshare_version>
43012

> <i_f3d_flags>
0

> <s_epik_input>
W0NIM11jMW5uYyhzMSlbTkhdQyg9TylbTkhdW0NIMl1bQ0BASF0yW0NIMl1bQ0gyXVtDSDJdTjJbQ0gzXQ==

> <s_epik_cmdline>
J2VwaWtfcHl0aG9uJywgJy1waCcsICc3LjAnLCAnLXRuJywgJzgnLCAnLW1hJywgJzIwMCcsICctbWV0YWxfYmluZGluZycsICctaW1hZScsICc8aW5maWxlLm1hZT4nLCAnLW9tYWUnLCAnPG91dGZpbGUubWFlPic=

> <r_lp_tautomer_probability>
1

> <r_epik_Ionization_Penalty>
3.94379

> <r_epik_Ionization_Penalty_Charging>
3.83377

> <r_epik_Ionization_Penalty_Neutral>
0.110023

> <r_epik_State_Penalty>
3.83036

> <r_epik_Charging_Adjusted_Penalty>
7.66413

> <i_epik_Tot_Q>
0

> <i_epik_Tot_abs_Q>
2

> <r_epik_Metal_State_Penalty>
0.575095

> <b_epik_Metal_Only>
1

> <s_lp_Force_Field>
OPLS_2005

> <r_lp_Energy>
28.5427

> <b_lp_Chiralities_Consistent>
1

> <s_lp_Variant>
AV-unprocessed.smi:828-7

> <Gold.Version>
5.8.1

> <Gold.Id.Protein>
6NUR|6NUR_protein|mol2

> <Gold.PLP.Fitness>
38.3302

> <Gold.PLP.PLP>
-22.7068

> <Gold.PLP.part.hbond>
-4.0000

> <Gold.PLP.part.metal>
0.0000

> <Gold.PLP.part.buried>
-3.0131

> <Gold.PLP.part.nonpolar>
-15.6241

> <Gold.PLP.part.repulsive>
0.3187

> <Gold.PLP.ligand.clash>
0.0000

> <Gold.PLP.ligand.torsion>
0.8454

> <Gold.PLP.Chemscore.Hbond>
5.7680

> <Gold.PLP.Chemscore.CHOScore>
0.0000

> <Gold.PLP.Chemscore.Metal>
0.0000

> <Gold.Chemscore.Hbonds>
donor molecule, donor type, donor heavy atom, donor atom, acceptor molecule, acceptor atom, score
      L1  H     9    21       P1  7948  1.00
      L1  H    15    34       P1  7948  1.47
      P1  H  7989  7998       L1     3  0.74
      P1  H 10752 10764       L1     6  1.66

> <Gold.PLP.Chemscore.Internal.Correction>
0.0102

> <Gold.Rescore>
     Score         DG    S(hbond)    S(metal)    S(lipo)     H(rot)  DE(clash)    DE(int)     intcor
     16.56     -17.60       3.37        0.00      36.07       1.31       0.02       1.02       ----

> <Gold.Chemscore.Fitness>
16.5580

> <Gold.Chemscore.DG>
-17.5999

> <Gold.Chemscore.ZeroCoef>
-5.4800

> <Gold.Chemscore.Hbond>
3.3731

> <Gold.Chemscore.Metal>
0.0000

> <Gold.Chemscore.Lipo>
36.0681

> <Gold.Chemscore.Internal_Hbond>
0.0000

> <Gold.Chemscore.DEClash>
0.0176

> <Gold.Chemscore.DEInternal>
1.0244

> <Gold.Chemscore.Rot>
1.3149

> <Gold.Chemscore.Internal.Correction>
   9.000000E+99

> <Gold.Chemscore.Hbonds>
donor molecule, donor type, donor heavy atom, donor atom, acceptor molecule, acceptor atom, score
      L1  H     9    21       P1  7948  0.61
      L1  H    15    34       P1  7948  0.74
      P1  H  7989  7998       L1     3  0.42
      P1  H 10752 10764       L1     6  0.56

> <Gold.Chemscore.Hbond.Weighted>
-11.2662

> <Gold.Chemscore.Metal.Weighted>
-0.0000

> <Gold.Chemscore.Lipo.Weighted>
-4.2200

> <Gold.Chemscore.Internal_Hbond.Weighted>
0.0000

> <Gold.Chemscore.DEClash.Weighted>
0.0176

> <Gold.Chemscore.DEInternal.Weighted>
1.0244

> <Gold.Chemscore.Rot.Weighted>
3.3662

> <Gold.Chemscore.Internal.Correction.Weighted>
   9.000000E+99

> <Gold.Protein.RotatedTorsions>
[ 6907 6896 6895 6894 ] final  114.46 input  -60.11 | X-H torsion
[ 7974 7965 7964 7962 ] final  -54.64 input  175.53 | X-H torsion
[ 8008 7997 7996 7995 ] final   45.84 input   59.86 | X-H torsion
[ 10167 10162 10161 10158 ] final -136.09 input  -65.29 | X-H torsion
[ 10718 10713 10712 10709 ] final   71.40 input   66.30 | X-H torsion
[ 10763 10752 10751 10750 ] final  -78.74 input  -60.55 | X-H torsion
[ 11005 11000 10999 10996 ] final  -24.22 input  -57.11 | X-H torsion

> <Gold.Protein.ActiveResidues>
 VAL166  LYS551  ARG553  GLY616  TRP617  ASP618  TYR619  PRO620  LYS621  CYS622 
 ASP623  PHE694  ASN695  SER759  ASP760  ASP761  ALA762  ILE779  LEU786  VAL792 
 PHE793  MET794  SER795  GLU796  ALA797  LYS798  CYS799  TRP800  GLU811  SER814 

> <Gold.Protein.RotatedAtoms>
  152.4801  133.8233  159.7064 H   0  0  0  0  0  0  0  0  0  0  0  0  # atno 6907 bound_to 6896
  150.8845  133.7317  159.2929 H   0  0  0  0  0  0  0  0  0  0  0  0  # atno 6908 bound_to 6896
  151.4811  135.1056  159.9830 H   0  0  0  0  0  0  0  0  0  0  0  0  # atno 6909 bound_to 6896
  145.8832  140.8128  142.9829 H   0  0  0  0  0  0  0  0  0  0  0  0  # atno 7974 bound_to 7965
  155.3426  140.3409  155.4239 H   0  0  0  0  0  0  0  0  0  0  0  0  # atno 8008 bound_to 7997
  156.1805  140.1662  156.8318 H   0  0  0  0  0  0  0  0  0  0  0  0  # atno 8009 bound_to 7997
  154.5329  140.0741  156.8359 H   0  0  0  0  0  0  0  0  0  0  0  0  # atno 8010 bound_to 7997
  139.8713  143.6954  152.2639 H   0  0  0  0  0  0  0  0  0  0  0  0  # atno 10167 bound_to 10162
  157.6449  130.9526  150.0783 H   0  0  0  0  0  0  0  0  0  0  0  0  # atno 10718 bound_to 10713
  154.5297  135.5719  153.6749 H   0  0  0  0  0  0  0  0  0  0  0  0  # atno 10763 bound_to 10752
  152.9936  135.6202  154.2644 H   0  0  0  0  0  0  0  0  0  0  0  0  # atno 10764 bound_to 10752
  154.2570  135.2857  155.2773 H   0  0  0  0  0  0  0  0  0  0  0  0  # atno 10765 bound_to 10752
  140.8825  133.7644  156.0320 H   0  0  0  0  0  0  0  0  0  0  0  0  # atno 11005 bound_to 11000
  144.6728  140.1416  143.7436 LP  0  0  0  0  0  0  0  0  0  0  0  0  # atno 17320 bound_to 7965
  145.8998  139.2424  143.1500 LP  0  0  0  0  0  0  0  0  0  0  0  0  # atno 17321 bound_to 7965
  139.7282  144.7588  151.0845 LP  0  0  0  0  0  0  0  0  0  0  0  0  # atno 17342 bound_to 10162
  140.7760  143.5122  150.9639 LP  0  0  0  0  0  0  0  0  0  0  0  0  # atno 17343 bound_to 10162
  156.1767  130.3648  149.9091 LP  0  0  0  0  0  0  0  0  0  0  0  0  # atno 17370 bound_to 10713
  156.7053  130.8949  151.3604 LP  0  0  0  0  0  0  0  0  0  0  0  0  # atno 17371 bound_to 10713
  140.8444  134.3028  157.5301 LP  0  0  0  0  0  0  0  0  0  0  0  0  # atno 17394 bound_to 11000
  139.8721  134.9434  156.3851 LP  0  0  0  0  0  0  0  0  0  0  0  0  # atno 17395 bound_to 11000

$$$$
