AV-unprocessed.smi:2491|AV-procd|sdf|9810|dock4
  -GOLD-   2272013443D 1   1.00000     0.00000
 Structure written by MMmdl.
 27 28  0  0  0  0  0  0  0  0  1 V2000
  149.6479  137.7143  158.6372 N   0  0  0  0  0  0  0  0  0  0  0  0
  150.9640  137.5178  158.5031 C   0  0  0  0  0  0  0  0  0  0  0  0
  151.6549  137.1276  159.4416 O   0  0  0  0  0  0  0  0  0  0  0  0
  151.6178  137.8009  157.1335 C   0  0  1  0  0  0  0  0  0  0  0  0
  151.2145  136.6417  156.1888 C   0  0  0  0  0  0  0  0  0  0  0  0
  151.7632  136.8225  154.8912 O   0  0  0  0  0  0  0  0  0  0  0  0
  151.2739  138.0103  154.2895 C   0  0  0  0  0  0  0  0  0  0  0  0
  151.7408  139.2113  155.1207 C   0  0  0  0  0  0  0  0  0  0  0  0
  151.3031  139.1029  156.5127 N   0  0  0  0  0  0  0  0  0  0  0  0
  151.4678  140.2852  157.2327 C   0  0  0  0  0  0  0  0  0  0  0  0
  152.1379  140.2309  158.3922 N   0  0  0  0  0  0  0  0  0  0  0  0
  152.3008  141.3887  159.0682 C   0  0  0  0  0  0  0  0  0  0  0  0
  151.7938  142.6069  158.5751 C   0  0  0  0  0  0  0  0  0  0  0  0
  151.9998  144.0897  159.4322 Cl  0  0  0  0  0  0  0  0  0  0  0  0
  151.1108  142.5510  157.3443 C   0  0  0  0  0  0  0  0  0  0  0  0
  150.9521  141.3879  156.6759 N   0  0  0  0  0  0  0  0  0  0  0  0
  149.2013  137.5319  159.5242 H   0  0  0  0  0  0  0  0  0  0  0  0
  149.1058  138.0413  157.8504 H   0  0  0  0  0  0  0  0  0  0  0  0
  152.6999  137.7595  157.2718 H   0  0  0  0  0  0  0  0  0  0  0  0
  151.5786  135.6898  156.5783 H   0  0  0  0  0  0  0  0  0  0  0  0
  150.1286  136.5532  156.1134 H   0  0  0  0  0  0  0  0  0  0  0  0
  151.6659  138.0806  153.2748 H   0  0  0  0  0  0  0  0  0  0  0  0
  150.1857  137.9823  154.2113 H   0  0  0  0  0  0  0  0  0  0  0  0
  152.8296  139.2780  155.0966 H   0  0  0  0  0  0  0  0  0  0  0  0
  151.3603  140.1260  154.6640 H   0  0  0  0  0  0  0  0  0  0  0  0
  152.8388  141.3411  160.0035 H   0  0  0  0  0  0  0  0  0  0  0  0
  150.6918  143.4386  156.8936 H   0  0  0  0  0  0  0  0  0  0  0  0
  1  2  1  0  0  0  0
  1 17  1  0  0  0  0
  1 18  1  0  0  0  0
  2  3  2  0  0  0  0
  2  4  1  0  0  0  0
  4  9  1  0  0  0  0
  4  5  1  0  0  0  0
  4 19  1  0  0  0  0
  5  6  1  0  0  0  0
  5 20  1  0  0  0  0
  5 21  1  0  0  0  0
  6  7  1  0  0  0  0
  7  8  1  0  0  0  0
  7 22  1  0  0  0  0
  7 23  1  0  0  0  0
  8  9  1  0  0  0  0
  8 24  1  0  0  0  0
  8 25  1  0  0  0  0
  9 10  1  0  0  0  0
 10 16  1  0  0  0  0
 10 11  2  0  0  0  0
 11 12  1  0  0  0  0
 12 13  2  0  0  0  0
 12 26  1  0  0  0  0
 13 14  1  0  0  0  0
 13 15  1  0  0  0  0
 15 16  2  0  0  0  0
 15 27  1  0  0  0  0
M  END
> <s_m_source_file>
AV-unprocessed.smi

> <i_m_source_file_index>
2491

> <i_lp_mmshare_version>
43012

> <i_f3d_flags>
0

> <s_epik_input>
W05IMl1DKD1PKVtDQEBIXTFbQ0gyXU9bQ0gyXVtDSDJdTjFjMm5bY0hdYyhDbClbY0hdbjI=

> <s_epik_cmdline>
J2VwaWtfcHl0aG9uJywgJy1waCcsICc3LjAnLCAnLXRuJywgJzgnLCAnLW1hJywgJzIwMCcsICctbWV0YWxfYmluZGluZycsICctaW1hZScsICc8aW5maWxlLm1hZT4nLCAnLW9tYWUnLCAnPG91dGZpbGUubWFlPic=

> <r_lp_tautomer_probability>
1

> <r_epik_Ionization_Penalty>
2.68452e-07

> <r_epik_Ionization_Penalty_Charging>
0

> <r_epik_Ionization_Penalty_Neutral>
2.68452e-07

> <r_epik_State_Penalty>
-0

> <r_epik_Charging_Adjusted_Penalty>
0

> <i_epik_Tot_Q>
0

> <i_epik_Tot_abs_Q>
0

> <r_epik_Metal_State_Penalty>
-0

> <b_epik_Metal_Only>
0

> <s_lp_Force_Field>
OPLS_2005

> <r_lp_Energy>
11.1739

> <b_lp_Chiralities_Consistent>
1

> <s_lp_Variant>
AV-unprocessed.smi:2491-2

> <Gold.Version>
5.8.1

> <Gold.Id.Protein>
6NUR|6NUR_protein|mol2

> <Gold.PLP.Fitness>
33.9754

> <Gold.PLP.PLP>
-25.5298

> <Gold.PLP.part.hbond>
-2.0000

> <Gold.PLP.part.metal>
0.0000

> <Gold.PLP.part.buried>
-5.4438

> <Gold.PLP.part.nonpolar>
-19.3644

> <Gold.PLP.part.repulsive>
0.3377

> <Gold.PLP.ligand.clash>
0.0000

> <Gold.PLP.ligand.torsion>
0.4465

> <Gold.PLP.Chemscore.Hbond>
1.9913

> <Gold.PLP.Chemscore.CHOScore>
1.0000

> <Gold.PLP.Chemscore.Metal>
0.0000

> <Gold.Chemscore.Hbonds>
donor molecule, donor type, donor heavy atom, donor atom, acceptor molecule, acceptor atom, score
      P1  H  6896  6907       L1     3  0.99
      P1  H 10752 10763       L1     6  1.00
      L1  C    15    27       P1  8028  1.00

> <Gold.PLP.Chemscore.Internal.Correction>
0.3648

> <Gold.Rescore>
     Score         DG    S(hbond)    S(metal)    S(lipo)     H(rot)  DE(clash)    DE(int)     intcor
     15.06     -15.79       1.98        0.00      64.11       1.49       0.01       0.72       ----

> <Gold.Chemscore.Fitness>
15.0582

> <Gold.Chemscore.DG>
-15.7880

> <Gold.Chemscore.ZeroCoef>
-5.4800

> <Gold.Chemscore.Hbond>
1.9806

> <Gold.Chemscore.Metal>
0.0000

> <Gold.Chemscore.Lipo>
64.1063

> <Gold.Chemscore.Internal_Hbond>
0.0000

> <Gold.Chemscore.DEClash>
0.0126

> <Gold.Chemscore.DEInternal>
0.7172

> <Gold.Chemscore.Rot>
1.4874

> <Gold.Chemscore.Internal.Correction>
   9.000000E+99

> <Gold.Chemscore.Hbonds>
donor molecule, donor type, donor heavy atom, donor atom, acceptor molecule, acceptor atom, score
      P1  H  6896  6907       L1     3  0.85
      P1  H 10752 10763       L1     6  0.48

> <Gold.Chemscore.Hbond.Weighted>
-6.6153

> <Gold.Chemscore.Metal.Weighted>
-0.0000

> <Gold.Chemscore.Lipo.Weighted>
-7.5004

> <Gold.Chemscore.Internal_Hbond.Weighted>
0.0000

> <Gold.Chemscore.DEClash.Weighted>
0.0126

> <Gold.Chemscore.DEInternal.Weighted>
0.7172

> <Gold.Chemscore.Rot.Weighted>
3.8077

> <Gold.Chemscore.Internal.Correction.Weighted>
   9.000000E+99

> <Gold.Protein.RotatedTorsions>
[ 6907 6896 6895 6894 ] final   -6.91 input  -60.11 | X-H torsion
[ 7974 7965 7964 7962 ] final -152.13 input  175.53 | X-H torsion
[ 8008 7997 7996 7995 ] final   44.59 input   59.86 | X-H torsion
[ 10167 10162 10161 10158 ] final  151.91 input  -65.29 | X-H torsion
[ 10718 10713 10712 10709 ] final  127.94 input   66.30 | X-H torsion
[ 10763 10752 10751 10750 ] final   69.66 input  -60.55 | X-H torsion
[ 11005 11000 10999 10996 ] final   83.28 input  -57.11 | X-H torsion

> <Gold.Protein.ActiveResidues>
 VAL166  LYS551  ARG553  GLY616  TRP617  ASP618  TYR619  PRO620  LYS621  CYS622 
 ASP623  PHE694  ASN695  SER759  ASP760  ASP761  ALA762  ILE779  LEU786  VAL792 
 PHE793  MET794  SER795  GLU796  ALA797  LYS798  CYS799  TRP800  GLU811  SER814 

> <Gold.Protein.RotatedAtoms>
  151.4579  135.1036  159.9716 H   0  0  0  0  0  0  0  0  0  0  0  0  # atno 6907 bound_to 6896
  152.4864  133.8379  159.7148 H   0  0  0  0  0  0  0  0  0  0  0  0  # atno 6908 bound_to 6896
  150.8977  133.7099  159.2914 H   0  0  0  0  0  0  0  0  0  0  0  0  # atno 6909 bound_to 6896
  144.7811  140.4704  143.5838 H   0  0  0  0  0  0  0  0  0  0  0  0  # atno 7974 bound_to 7965
  155.3218  140.3397  155.4241 H   0  0  0  0  0  0  0  0  0  0  0  0  # atno 8008 bound_to 7997
  156.1905  140.1696  156.8138 H   0  0  0  0  0  0  0  0  0  0  0  0  # atno 8009 bound_to 7997
  154.5437  140.0719  156.8536 H   0  0  0  0  0  0  0  0  0  0  0  0  # atno 8010 bound_to 7997
  139.4837  144.5402  151.7578 H   0  0  0  0  0  0  0  0  0  0  0  0  # atno 10167 bound_to 10162
  157.5289  131.1098  150.9040 H   0  0  0  0  0  0  0  0  0  0  0  0  # atno 10718 bound_to 10713
  153.0299  135.5202  154.7323 H   0  0  0  0  0  0  0  0  0  0  0  0  # atno 10763 bound_to 10752
  154.6347  135.2904  155.0177 H   0  0  0  0  0  0  0  0  0  0  0  0  # atno 10764 bound_to 10752
  154.1117  135.6621  153.4939 H   0  0  0  0  0  0  0  0  0  0  0  0  # atno 10765 bound_to 10752
  139.9036  134.8133  156.2287 H   0  0  0  0  0  0  0  0  0  0  0  0  # atno 11005 bound_to 11000
  145.6048  139.1507  143.3109 LP  0  0  0  0  0  0  0  0  0  0  0  0  # atno 17320 bound_to 7965
  146.2020  140.6167  142.9098 LP  0  0  0  0  0  0  0  0  0  0  0  0  # atno 17321 bound_to 7965
  140.4940  144.1268  150.5956 LP  0  0  0  0  0  0  0  0  0  0  0  0  # atno 17342 bound_to 10162
  140.4138  143.2644  151.9799 LP  0  0  0  0  0  0  0  0  0  0  0  0  # atno 17343 bound_to 10162
  156.9628  130.5461  149.5286 LP  0  0  0  0  0  0  0  0  0  0  0  0  # atno 17370 bound_to 10713
  156.0407  130.5490  150.8764 LP  0  0  0  0  0  0  0  0  0  0  0  0  # atno 17371 bound_to 10713
  141.0359  133.6963  156.1512 LP  0  0  0  0  0  0  0  0  0  0  0  0  # atno 17394 bound_to 11000
  140.7028  134.4546  157.5585 LP  0  0  0  0  0  0  0  0  0  0  0  0  # atno 17395 bound_to 11000

$$$$
