AV-unprocessed.smi:1809|AV-procd|sdf|7321|dock3
  -GOLD-   22720 8573D 1   1.00000     0.00000
 Structure written by MMmdl.
 39 41  0  0  0  0  0  0  0  0  3 V2000
  149.0304  141.2627  154.6193 C   0  0  0  0  0  0  0  0  0  0  0  0
  149.8847  140.0427  154.5666 C   0  0  0  0  0  0  0  0  0  0  0  0
  151.2149  140.0881  154.6718 N   0  0  0  0  0  0  0  0  0  0  0  0
  151.7884  138.8270  154.5975 N   0  0  0  0  0  0  0  0  0  0  0  0
  150.8864  137.8468  154.4483 C   0  0  0  0  0  0  0  0  0  0  0  0
  151.2392  136.5539  154.3530 N   0  5  0  0  0  0  0  0  0  0  0  0
  150.5634  135.6149  155.0522 C   0  0  0  0  0  0  0  0  0  0  0  0
  150.3591  135.6138  156.2684 O   0  0  0  0  0  0  0  0  0  0  0  0
  150.0889  134.6164  154.2943 N   0  0  0  0  0  0  0  0  0  0  0  0
  149.3119  133.4792  154.7750 C   0  0  0  0  0  0  0  0  0  0  0  0
  148.7650  132.6333  153.6126 C   0  0  2  0  0  0  0  0  0  0  0  0
  147.8192  133.4487  152.7006 C   0  0  0  0  0  0  0  0  0  0  0  0
  147.2650  132.5368  151.6836 N   0  3  2  0  0  0  0  0  0  0  0  0
  146.3472  133.0888  150.6730 C   0  0  0  0  0  0  0  0  0  0  0  0
  145.5213  131.8794  150.1903 C   0  0  0  0  0  0  0  0  0  0  0  0
  145.9097  130.7110  151.1156 C   0  0  0  0  0  0  0  0  0  0  0  0
  146.5599  131.4130  152.3037 C   0  0  1  0  0  0  0  0  0  0  0  0
  147.5478  130.6179  153.1672 C   0  0  0  0  0  0  0  0  0  0  0  0
  148.0642  131.5084  154.1574 O   0  0  0  0  0  0  0  0  0  0  0  0
  149.2234  138.4286  154.3673 S   0  0  0  0  0  0  0  0  0  0  0  0
  148.8932  141.5759  155.6542 H   0  0  0  0  0  0  0  0  0  0  0  0
  148.0531  141.0596  154.1813 H   0  0  0  0  0  0  0  0  0  0  0  0
  149.4982  142.0764  154.0645 H   0  0  0  0  0  0  0  0  0  0  0  0
  150.2808  134.6547  153.3037 H   0  0  0  0  0  0  0  0  0  0  0  0
  149.9513  132.8706  155.4148 H   0  0  0  0  0  0  0  0  0  0  0  0
  148.4948  133.8360  155.4044 H   0  0  0  0  0  0  0  0  0  0  0  0
  149.5981  132.2662  153.0105 H   0  0  0  0  0  0  0  0  0  0  0  0
  147.0121  133.8978  153.2815 H   0  0  0  0  0  0  0  0  0  0  0  0
  148.3612  134.2587  152.2114 H   0  0  0  0  0  0  0  0  0  0  0  0
  145.6923  133.8320  151.1306 H   0  0  0  0  0  0  0  0  0  0  0  0
  146.8982  133.5709  149.8651 H   0  0  0  0  0  0  0  0  0  0  0  0
  144.4554  132.0980  150.2657 H   0  0  0  0  0  0  0  0  0  0  0  0
  145.7334  131.6364  149.1485 H   0  0  0  0  0  0  0  0  0  0  0  0
  145.0558  130.0972  151.4043 H   0  0  0  0  0  0  0  0  0  0  0  0
  146.6344  130.0665  150.6156 H   0  0  0  0  0  0  0  0  0  0  0  0
  145.7678  131.8085  152.9439 H   0  0  0  0  0  0  0  0  0  0  0  0
  147.0441  129.7859  153.6594 H   0  0  0  0  0  0  0  0  0  0  0  0
  148.3600  130.2019  152.5689 H   0  0  0  0  0  0  0  0  0  0  0  0
  148.0453  132.1411  151.1783 H   0  0  0  0  0  0  0  0  0  0  0  0
  1  2  1  0  0  0  0
  1 21  1  0  0  0  0
  1 22  1  0  0  0  0
  1 23  1  0  0  0  0
  2 20  1  0  0  0  0
  2  3  2  0  0  0  0
  3  4  1  0  0  0  0
  4  5  2  0  0  0  0
  5  6  1  0  0  0  0
  5 20  1  0  0  0  0
  6  7  1  0  0  0  0
  7  8  2  0  0  0  0
  7  9  1  0  0  0  0
  9 10  1  0  0  0  0
  9 24  1  0  0  0  0
 10 11  1  0  0  0  0
 10 25  1  0  0  0  0
 10 26  1  0  0  0  0
 11 19  1  0  0  0  0
 11 12  1  0  0  0  0
 11 27  1  0  0  0  0
 12 13  1  0  0  0  0
 12 28  1  0  0  0  0
 12 29  1  0  0  0  0
 13 17  1  0  0  0  0
 13 14  1  0  0  0  0
 13 39  1  0  0  0  0
 14 15  1  0  0  0  0
 14 30  1  0  0  0  0
 14 31  1  0  0  0  0
 15 16  1  0  0  0  0
 15 32  1  0  0  0  0
 15 33  1  0  0  0  0
 16 17  1  0  0  0  0
 16 34  1  0  0  0  0
 16 35  1  0  0  0  0
 17 18  1  0  0  0  0
 17 36  1  0  0  0  0
 18 19  1  0  0  0  0
 18 37  1  0  0  0  0
 18 38  1  0  0  0  0
M  CHG  1   6  -1
M  CHG  1  13   1
M  END
> <s_m_source_file>
AV-unprocessed.smi

> <i_m_source_file_index>
1809

> <i_lp_mmshare_version>
43012

> <i_f3d_flags>
0

> <s_epik_input>
W0NIM11jMW5uYyhzMSlbTkhdQyg9TylbTkhdW0NIMl1bQ0BIXShbQ0gyXTIpT1tDSDJdW0NAQEhdKE4yMylbQ0gyXVtDSDJdW0NIMl0z

> <s_epik_cmdline>
J2VwaWtfcHl0aG9uJywgJy1waCcsICc3LjAnLCAnLXRuJywgJzgnLCAnLW1hJywgJzIwMCcsICctbWV0YWxfYmluZGluZycsICctaW1hZScsICc8aW5maWxlLm1hZT4nLCAnLW9tYWUnLCAnPG91dGZpbGUubWFlPic=

> <r_lp_tautomer_probability>
1

> <r_epik_Ionization_Penalty>
3.2601

> <r_epik_Ionization_Penalty_Charging>
3.1406

> <r_epik_Ionization_Penalty_Neutral>
0.119497

> <r_epik_State_Penalty>
3.08894

> <r_epik_Charging_Adjusted_Penalty>
6.22954

> <i_epik_Tot_Q>
0

> <i_epik_Tot_abs_Q>
2

> <r_epik_Metal_State_Penalty>
0.510807

> <b_epik_Metal_Only>
1

> <s_lp_Force_Field>
OPLS_2005

> <r_lp_Energy>
28.6606

> <b_lp_Chiralities_Consistent>
1

> <s_lp_Variant>
AV-unprocessed.smi:1809-13

> <Gold.Version>
5.8.1

> <Gold.Id.Protein>
6NUR|6NUR_protein|mol2

> <Gold.PLP.Fitness>
46.7177

> <Gold.PLP.PLP>
-36.5119

> <Gold.PLP.part.hbond>
-3.5920

> <Gold.PLP.part.metal>
0.0000

> <Gold.PLP.part.buried>
-3.3206

> <Gold.PLP.part.nonpolar>
-30.0427

> <Gold.PLP.part.repulsive>
1.1999

> <Gold.PLP.ligand.clash>
0.0000

> <Gold.PLP.ligand.torsion>
0.9022

> <Gold.PLP.Chemscore.Hbond>
4.0000

> <Gold.PLP.Chemscore.CHOScore>
0.0000

> <Gold.PLP.Chemscore.Metal>
0.0000

> <Gold.Chemscore.Hbonds>
donor molecule, donor type, donor heavy atom, donor atom, acceptor molecule, acceptor atom, score
      L1  H    13    39       P1 10747  1.00
      P1  H  7989  7998       L1     3  0.84
      P1  H 10752 10763       L1     6  1.70

> <Gold.PLP.Chemscore.Internal.Correction>
0.0103

> <Gold.Rescore>
     Score         DG    S(hbond)    S(metal)    S(lipo)     H(rot)  DE(clash)    DE(int)     intcor
     18.01     -19.50       2.39        0.00      80.65       1.32       0.54       0.94       ----

> <Gold.Chemscore.Fitness>
18.0148

> <Gold.Chemscore.DG>
-19.4993

> <Gold.Chemscore.ZeroCoef>
-5.4800

> <Gold.Chemscore.Hbond>
2.3873

> <Gold.Chemscore.Metal>
0.0000

> <Gold.Chemscore.Lipo>
80.6544

> <Gold.Chemscore.Internal_Hbond>
0.0000

> <Gold.Chemscore.DEClash>
0.5419

> <Gold.Chemscore.DEInternal>
0.9426

> <Gold.Chemscore.Rot>
1.3246

> <Gold.Chemscore.Internal.Correction>
   9.000000E+99

> <Gold.Chemscore.Hbonds>
donor molecule, donor type, donor heavy atom, donor atom, acceptor molecule, acceptor atom, score
      L1  H    13    39       P1 10747  0.99
      P1  H  7989  7998       L1     3  0.26
      P1  H 10752 10763       L1     6  0.15

> <Gold.Chemscore.Hbond.Weighted>
-7.9737

> <Gold.Chemscore.Metal.Weighted>
-0.0000

> <Gold.Chemscore.Lipo.Weighted>
-9.4366

> <Gold.Chemscore.Internal_Hbond.Weighted>
0.0000

> <Gold.Chemscore.DEClash.Weighted>
0.5419

> <Gold.Chemscore.DEInternal.Weighted>
0.9426

> <Gold.Chemscore.Rot.Weighted>
3.3910

> <Gold.Chemscore.Internal.Correction.Weighted>
   9.000000E+99

> <Gold.Protein.RotatedTorsions>
[ 6907 6896 6895 6894 ] final   46.13 input  -60.11 | X-H torsion
[ 7974 7965 7964 7962 ] final  135.77 input  175.53 | X-H torsion
[ 8008 7997 7996 7995 ] final  -48.27 input   59.86 | X-H torsion
[ 10167 10162 10161 10158 ] final  -89.00 input  -65.29 | X-H torsion
[ 10718 10713 10712 10709 ] final -158.55 input   66.30 | X-H torsion
[ 10763 10752 10751 10750 ] final   43.16 input  -60.55 | X-H torsion
[ 11005 11000 10999 10996 ] final -144.11 input  -57.11 | X-H torsion

> <Gold.Protein.ActiveResidues>
 VAL166  LYS551  ARG553  GLY616  TRP617  ASP618  TYR619  PRO620  LYS621  CYS622 
 ASP623  PHE694  ASN695  SER759  ASP760  ASP761  ALA762  ILE779  LEU786  VAL792 
 PHE793  MET794  SER795  GLU796  ALA797  LYS798  CYS799  TRP800  GLU811  SER814 

> <Gold.Protein.RotatedAtoms>
  152.2528  134.8115  160.0443 H   0  0  0  0  0  0  0  0  0  0  0  0  # atno 6907 bound_to 6896
  151.8790  133.3486  159.3768 H   0  0  0  0  0  0  0  0  0  0  0  0  # atno 6908 bound_to 6896
  150.7089  134.4965  159.5585 H   0  0  0  0  0  0  0  0  0  0  0  0  # atno 6909 bound_to 6896
  144.9631  139.4688  143.5470 H   0  0  0  0  0  0  0  0  0  0  0  0  # atno 7974 bound_to 7965
  154.4027  140.1326  156.4311 H   0  0  0  0  0  0  0  0  0  0  0  0  # atno 8008 bound_to 7997
  155.7550  140.3487  155.5149 H   0  0  0  0  0  0  0  0  0  0  0  0  # atno 8009 bound_to 7997
  155.8913  140.1004  157.1406 H   0  0  0  0  0  0  0  0  0  0  0  0  # atno 8010 bound_to 7997
  140.3691  143.2803  151.9522 H   0  0  0  0  0  0  0  0  0  0  0  0  # atno 10167 bound_to 10162
  156.5557  130.8625  151.2794 H   0  0  0  0  0  0  0  0  0  0  0  0  # atno 10718 bound_to 10713
  152.9867  135.6110  154.3066 H   0  0  0  0  0  0  0  0  0  0  0  0  # atno 10763 bound_to 10752
  154.2783  135.2777  155.2710 H   0  0  0  0  0  0  0  0  0  0  0  0  # atno 10764 bound_to 10752
  154.5060  135.5854  153.6624 H   0  0  0  0  0  0  0  0  0  0  0  0  # atno 10765 bound_to 10752
  140.8057  134.2804  157.4961 H   0  0  0  0  0  0  0  0  0  0  0  0  # atno 11005 bound_to 11000
  146.3359  139.8793  142.8827 LP  0  0  0  0  0  0  0  0  0  0  0  0  # atno 17320 bound_to 7965
  145.2671  141.0096  143.3793 LP  0  0  0  0  0  0  0  0  0  0  0  0  # atno 17321 bound_to 7965
  139.4805  144.5923  151.7750 LP  0  0  0  0  0  0  0  0  0  0  0  0  # atno 17342 bound_to 10162
  140.5051  144.1110  150.5980 LP  0  0  0  0  0  0  0  0  0  0  0  0  # atno 17343 bound_to 10162
  157.7379  130.9803  150.2218 LP  0  0  0  0  0  0  0  0  0  0  0  0  # atno 17370 bound_to 10713
  156.2844  130.3737  149.7903 LP  0  0  0  0  0  0  0  0  0  0  0  0  # atno 17371 bound_to 10713
  139.8718  134.9455  156.3911 LP  0  0  0  0  0  0  0  0  0  0  0  0  # atno 17394 bound_to 11000
  140.9249  133.7619  155.9952 LP  0  0  0  0  0  0  0  0  0  0  0  0  # atno 17395 bound_to 11000

$$$$
