AV-unprocessed.smi:1796|AV-procd|sdf|7251|dock10
  -GOLD-   22720 8503D 1   1.00000     0.00000
 Structure written by MMmdl.
 42 43  0  0  0  0  0  0  0  0  1 V2000
  152.9045  143.6773  162.4845 C   0  0  0  0  0  0  0  0  0  0  0  0
  153.1737  142.6650  161.3681 C   0  0  0  0  0  0  0  0  0  0  0  0
  153.6983  141.5938  161.6732 O   0  0  0  0  0  0  0  0  0  0  0  0
  152.8338  142.9772  160.0945 N   0  0  0  0  0  0  0  0  0  0  0  0
  152.1435  144.2228  159.7359 C   0  0  0  0  0  0  0  0  0  0  0  0
  150.7068  143.8891  159.2924 C   0  0  0  0  0  0  0  0  0  0  0  0
  150.7041  142.8628  158.1429 C   0  0  0  0  0  0  0  0  0  0  0  0
  151.5699  141.6295  158.4851 C   0  0  1  0  0  0  0  0  0  0  0  0
  151.6702  140.6627  157.3001 C   0  0  0  0  0  0  0  0  0  0  0  0
  152.7725  140.3047  156.8848 O   0  0  0  0  0  0  0  0  0  0  0  0
  150.5075  140.2177  156.7974 N   0  0  0  0  0  0  0  0  0  0  0  0
  150.3592  139.1578  155.8010 C   0  0  2  0  0  0  0  0  0  0  0  0
  151.1269  139.5448  154.5300 C   0  0  0  0  0  0  0  0  0  0  0  0
  148.8639  138.9113  155.5096 C   0  0  0  0  0  0  0  0  0  0  0  0
  148.2789  139.9486  154.6767 N   0  0  0  0  0  0  0  0  0  0  0  0
  147.6494  139.8121  153.4568 C   0  0  0  0  0  0  0  0  0  0  0  0
  147.2934  141.0628  153.0411 C   0  0  0  0  0  0  0  0  0  0  0  0
  147.7476  141.9090  154.0911 C   0  0  0  0  0  0  0  0  0  0  0  0
  148.3350  141.2390  155.0698 N   0  0  0  0  0  0  0  0  0  0  0  0
  152.9758  142.0841  158.9377 C   0  0  0  0  0  0  0  0  0  0  0  0
  153.4148  144.6200  162.2852 H   0  0  0  0  0  0  0  0  0  0  0  0
  153.2665  143.2990  163.4412 H   0  0  0  0  0  0  0  0  0  0  0  0
  151.8354  143.8668  162.5850 H   0  0  0  0  0  0  0  0  0  0  0  0
  152.1200  144.9441  160.5538 H   0  0  0  0  0  0  0  0  0  0  0  0
  152.6824  144.7126  158.9237 H   0  0  0  0  0  0  0  0  0  0  0  0
  150.1499  143.4879  160.1401 H   0  0  0  0  0  0  0  0  0  0  0  0
  150.1881  144.7971  158.9835 H   0  0  0  0  0  0  0  0  0  0  0  0
  149.6804  142.5586  157.9218 H   0  0  0  0  0  0  0  0  0  0  0  0
  151.0840  143.3445  157.2405 H   0  0  0  0  0  0  0  0  0  0  0  0
  151.1001  141.1032  159.3185 H   0  0  0  0  0  0  0  0  0  0  0  0
  149.6550  140.5830  157.1966 H   0  0  0  0  0  0  0  0  0  0  0  0
  150.7940  138.2275  156.1708 H   0  0  0  0  0  0  0  0  0  0  0  0
  151.0505  138.7629  153.7738 H   0  0  0  0  0  0  0  0  0  0  0  0
  152.1862  139.6949  154.7410 H   0  0  0  0  0  0  0  0  0  0  0  0
  150.7389  140.4668  154.0955 H   0  0  0  0  0  0  0  0  0  0  0  0
  148.7258  137.9503  155.0121 H   0  0  0  0  0  0  0  0  0  0  0  0
  148.3002  138.8626  156.4426 H   0  0  0  0  0  0  0  0  0  0  0  0
  147.5190  138.8486  152.9865 H   0  0  0  0  0  0  0  0  0  0  0  0
  146.7879  141.3321  152.1256 H   0  0  0  0  0  0  0  0  0  0  0  0
  147.6687  142.9832  154.1702 H   0  0  0  0  0  0  0  0  0  0  0  0
  153.4771  142.6291  158.1359 H   0  0  0  0  0  0  0  0  0  0  0  0
  153.6094  141.2196  159.1329 H   0  0  0  0  0  0  0  0  0  0  0  0
  1  2  1  0  0  0  0
  1 21  1  0  0  0  0
  1 22  1  0  0  0  0
  1 23  1  0  0  0  0
  2  3  2  0  0  0  0
  2  4  1  0  0  0  0
  4 20  1  0  0  0  0
  4  5  1  0  0  0  0
  5  6  1  0  0  0  0
  5 24  1  0  0  0  0
  5 25  1  0  0  0  0
  6  7  1  0  0  0  0
  6 26  1  0  0  0  0
  6 27  1  0  0  0  0
  7  8  1  0  0  0  0
  7 28  1  0  0  0  0
  7 29  1  0  0  0  0
  8  9  1  0  0  0  0
  8 20  1  0  0  0  0
  8 30  1  0  0  0  0
  9 10  2  0  0  0  0
  9 11  1  0  0  0  0
 11 12  1  0  0  0  0
 11 31  1  0  0  0  0
 12 13  1  0  0  0  0
 12 14  1  0  0  0  0
 12 32  1  0  0  0  0
 13 33  1  0  0  0  0
 13 34  1  0  0  0  0
 13 35  1  0  0  0  0
 14 15  1  0  0  0  0
 14 36  1  0  0  0  0
 14 37  1  0  0  0  0
 15 19  1  0  0  0  0
 15 16  1  0  0  0  0
 16 17  2  0  0  0  0
 16 38  1  0  0  0  0
 17 18  1  0  0  0  0
 17 39  1  0  0  0  0
 18 19  2  0  0  0  0
 18 40  1  0  0  0  0
 20 41  1  0  0  0  0
 20 42  1  0  0  0  0
M  END
> <s_m_source_file>
AV-unprocessed.smi

> <i_m_source_file_index>
1796

> <i_lp_mmshare_version>
43012

> <i_f3d_flags>
0

> <s_epik_input>
W0NIM11DKD1PKU4xW0NIMl1bQ0gyXVtDSDJdW0NASF0oW0NIMl0xKUMoPU8pW05IXVtDQEhdKFtDSDNdKVtDSDJdbjJbY0hdW2NIXVtjSF1uMg==

> <s_epik_cmdline>
J2VwaWtfcHl0aG9uJywgJy1waCcsICc3LjAnLCAnLXRuJywgJzgnLCAnLW1hJywgJzIwMCcsICctbWV0YWxfYmluZGluZycsICctaW1hZScsICc8aW5maWxlLm1hZT4nLCAnLW9tYWUnLCAnPG91dGZpbGUubWFlPic=

> <r_lp_tautomer_probability>
1

> <r_epik_Ionization_Penalty>
0.000315051

> <r_epik_Ionization_Penalty_Charging>
0

> <r_epik_Ionization_Penalty_Neutral>
0.000315051

> <r_epik_State_Penalty>
-0

> <r_epik_Charging_Adjusted_Penalty>
0

> <i_epik_Tot_Q>
0

> <i_epik_Tot_abs_Q>
0

> <r_epik_Metal_State_Penalty>
-0

> <b_epik_Metal_Only>
0

> <s_lp_Force_Field>
OPLS_2005

> <r_lp_Energy>
23.171

> <b_lp_Chiralities_Consistent>
1

> <s_lp_Variant>
AV-unprocessed.smi:1796-1

> <Gold.Version>
5.8.1

> <Gold.Id.Protein>
6NUR|6NUR_protein|mol2

> <Gold.PLP.Fitness>
45.1111

> <Gold.PLP.PLP>
-39.3841

> <Gold.PLP.part.hbond>
-1.0000

> <Gold.PLP.part.metal>
0.0000

> <Gold.PLP.part.buried>
-5.5428

> <Gold.PLP.part.nonpolar>
-32.0421

> <Gold.PLP.part.repulsive>
0.1359

> <Gold.PLP.ligand.clash>
0.0000

> <Gold.PLP.ligand.torsion>
0.1533

> <Gold.PLP.Chemscore.Hbond>
1.0000

> <Gold.PLP.Chemscore.CHOScore>
1.0000

> <Gold.PLP.Chemscore.Metal>
0.0000

> <Gold.Chemscore.Hbonds>
donor molecule, donor type, donor heavy atom, donor atom, acceptor molecule, acceptor atom, score
      P1  H  7997  8009       L1    10  0.98
      L1  C    18    40       P1  8028  0.96

> <Gold.PLP.Chemscore.Internal.Correction>
0.0334

> <Gold.Rescore>
     Score         DG    S(hbond)    S(metal)    S(lipo)     H(rot)  DE(clash)    DE(int)     intcor
     14.61     -15.11       1.00        0.00      89.61       1.63       0.01       0.49       ----

> <Gold.Chemscore.Fitness>
14.6055

> <Gold.Chemscore.DG>
-15.1091

> <Gold.Chemscore.ZeroCoef>
-5.4800

> <Gold.Chemscore.Hbond>
0.9961

> <Gold.Chemscore.Metal>
0.0000

> <Gold.Chemscore.Lipo>
89.6102

> <Gold.Chemscore.Internal_Hbond>
0.0000

> <Gold.Chemscore.DEClash>
0.0130

> <Gold.Chemscore.DEInternal>
0.4906

> <Gold.Chemscore.Rot>
1.6336

> <Gold.Chemscore.Internal.Correction>
   9.000000E+99

> <Gold.Chemscore.Hbonds>
donor molecule, donor type, donor heavy atom, donor atom, acceptor molecule, acceptor atom, score
      P1  H  7997  8009       L1    10  0.93

> <Gold.Chemscore.Hbond.Weighted>
-3.3268

> <Gold.Chemscore.Metal.Weighted>
-0.0000

> <Gold.Chemscore.Lipo.Weighted>
-10.4844

> <Gold.Chemscore.Internal_Hbond.Weighted>
0.0000

> <Gold.Chemscore.DEClash.Weighted>
0.0130

> <Gold.Chemscore.DEInternal.Weighted>
0.4906

> <Gold.Chemscore.Rot.Weighted>
4.1821

> <Gold.Chemscore.Internal.Correction.Weighted>
   9.000000E+99

> <Gold.Protein.RotatedTorsions>
[ 6907 6896 6895 6894 ] final   92.78 input  -60.11 | X-H torsion
[ 7974 7965 7964 7962 ] final -133.62 input  175.53 | X-H torsion
[ 8008 7997 7996 7995 ] final -171.64 input   59.86 | X-H torsion
[ 10167 10162 10161 10158 ] final  142.56 input  -65.29 | X-H torsion
[ 10718 10713 10712 10709 ] final  -53.25 input   66.30 | X-H torsion
[ 10763 10752 10751 10750 ] final   14.74 input  -60.55 | X-H torsion
[ 11005 11000 10999 10996 ] final -115.08 input  -57.11 | X-H torsion

> <Gold.Protein.ActiveResidues>
 VAL166  LYS551  ARG553  GLY616  TRP617  ASP618  TYR619  PRO620  LYS621  CYS622 
 ASP623  PHE694  ASN695  SER759  ASP760  ASP761  ALA762  ILE779  LEU786  VAL792 
 PHE793  MET794  SER795  GLU796  ALA797  LYS798  CYS799  TRP800  GLU811  SER814 

> <Gold.Protein.RotatedAtoms>
  152.5453  134.1450  159.8494 H   0  0  0  0  0  0  0  0  0  0  0  0  # atno 6907 bound_to 6896
  151.1482  133.4918  159.2603 H   0  0  0  0  0  0  0  0  0  0  0  0  # atno 6908 bound_to 6896
  151.1500  135.0233  159.8719 H   0  0  0  0  0  0  0  0  0  0  0  0  # atno 6909 bound_to 6896
  144.9176  140.6974  143.4985 H   0  0  0  0  0  0  0  0  0  0  0  0  # atno 7974 bound_to 7965
  155.9343  140.1097  157.1107 H   0  0  0  0  0  0  0  0  0  0  0  0  # atno 8008 bound_to 7997
  154.4076  140.1231  156.4909 H   0  0  0  0  0  0  0  0  0  0  0  0  # atno 8009 bound_to 7997
  155.7042  140.3471  155.4948 H   0  0  0  0  0  0  0  0  0  0  0  0  # atno 8010 bound_to 7997
  139.4991  144.6098  151.6296 H   0  0  0  0  0  0  0  0  0  0  0  0  # atno 10167 bound_to 10162
  156.1551  130.4150  149.9882 H   0  0  0  0  0  0  0  0  0  0  0  0  # atno 10718 bound_to 10713
  153.1593  135.6793  153.8766 H   0  0  0  0  0  0  0  0  0  0  0  0  # atno 10763 bound_to 10752
  153.8167  135.3135  155.3407 H   0  0  0  0  0  0  0  0  0  0  0  0  # atno 10764 bound_to 10752
  154.7921  135.4829  154.0164 H   0  0  0  0  0  0  0  0  0  0  0  0  # atno 10765 bound_to 10752
  141.0511  133.9686  157.2835 H   0  0  0  0  0  0  0  0  0  0  0  0  # atno 11005 bound_to 11000
  145.3349  139.1749  143.4517 LP  0  0  0  0  0  0  0  0  0  0  0  0  # atno 17320 bound_to 7965
  146.3189  140.3383  142.8646 LP  0  0  0  0  0  0  0  0  0  0  0  0  # atno 17321 bound_to 7965
  140.5770  144.0011  150.6247 LP  0  0  0  0  0  0  0  0  0  0  0  0  # atno 17342 bound_to 10162
  140.3148  143.3175  152.0843 LP  0  0  0  0  0  0  0  0  0  0  0  0  # atno 17343 bound_to 10162
  156.7728  130.9192  151.3644 LP  0  0  0  0  0  0  0  0  0  0  0  0  # atno 17370 bound_to 10713
  157.6689  130.9032  149.9994 LP  0  0  0  0  0  0  0  0  0  0  0  0  # atno 17371 bound_to 10713
  139.9351  135.0197  156.8529 LP  0  0  0  0  0  0  0  0  0  0  0  0  # atno 17394 bound_to 11000
  140.6053  134.0133  155.7554 LP  0  0  0  0  0  0  0  0  0  0  0  0  # atno 17395 bound_to 11000

$$$$
