AV-unprocessed.smi:1288|AV-procd|sdf|5382|dock10
  -GOLD-   22720 4533D 1   1.00000     0.00000
 Structure written by MMmdl.
 42 44  0  0  0  0  0  0  0  0  1 V2000
  152.7078  138.7837  159.4370 C   0  0  0  0  0  0  0  0  0  0  0  0
  152.4795  140.2480  159.2327 C   0  0  0  0  0  0  0  0  0  0  0  0
  153.0949  141.1731  159.9694 N   0  0  0  0  0  0  0  0  0  0  0  0
  152.6051  142.3535  159.4444 C   0  0  0  0  0  0  0  0  0  0  0  0
  152.8734  143.6960  159.7957 C   0  0  0  0  0  0  0  0  0  0  0  0
  152.2430  144.7535  159.1077 C   0  0  0  0  0  0  0  0  0  0  0  0
  151.3376  144.4847  158.0608 C   0  0  0  0  0  0  0  0  0  0  0  0
  151.0565  143.1545  157.6943 C   0  0  0  0  0  0  0  0  0  0  0  0
  151.6882  142.1022  158.3843 C   0  0  0  0  0  0  0  0  0  0  0  0
  151.6338  140.7152  158.2814 N   0  0  0  0  0  0  0  0  0  0  0  0
  150.8326  139.9446  157.3395 C   0  0  0  0  0  0  0  0  0  0  0  0
  149.6229  139.2583  158.0057 C   0  0  1  0  0  0  0  0  0  0  0  0
  148.5857  139.1249  157.0535 O   0  0  0  0  0  0  0  0  0  0  0  0
  149.9789  137.8614  158.5389 C   0  0  0  0  0  0  0  0  0  0  0  0
  148.9338  137.4074  159.3834 O   0  0  0  0  0  0  0  0  0  0  0  0
  148.6148  136.0414  159.1801 C   0  0  0  0  0  0  0  0  0  0  0  0
  147.8899  135.4634  160.3797 C   0  0  0  0  0  0  0  0  0  0  0  0
  147.6533  136.2696  161.5131 C   0  0  0  0  0  0  0  0  0  0  0  0
  146.9739  135.7423  162.6286 C   0  0  0  0  0  0  0  0  0  0  0  0
  146.5286  134.4066  162.6152 C   0  0  0  0  0  0  0  0  0  0  0  0
  146.7614  133.5991  161.4852 C   0  0  0  0  0  0  0  0  0  0  0  0
  147.4389  134.1252  160.3676 C   0  0  0  0  0  0  0  0  0  0  0  0
  147.6511  133.3403  159.2840 F   0  0  0  0  0  0  0  0  0  0  0  0
  153.4071  138.6168  160.2569 H   0  0  0  0  0  0  0  0  0  0  0  0
  153.1262  138.3368  158.5351 H   0  0  0  0  0  0  0  0  0  0  0  0
  151.7711  138.2824  159.6796 H   0  0  0  0  0  0  0  0  0  0  0  0
  153.5649  143.9124  160.5965 H   0  0  0  0  0  0  0  0  0  0  0  0
  152.4550  145.7758  159.3848 H   0  0  0  0  0  0  0  0  0  0  0  0
  150.8581  145.3004  157.5397 H   0  0  0  0  0  0  0  0  0  0  0  0
  150.3615  142.9457  156.8946 H   0  0  0  0  0  0  0  0  0  0  0  0
  150.4982  140.6093  156.5417 H   0  0  0  0  0  0  0  0  0  0  0  0
  151.4732  139.2031  156.8618 H   0  0  0  0  0  0  0  0  0  0  0  0
  149.2667  139.8799  158.8277 H   0  0  0  0  0  0  0  0  0  0  0  0
  148.2892  139.9886  156.8103 H   0  0  0  0  0  0  0  0  0  0  0  0
  150.1656  137.1621  157.7216 H   0  0  0  0  0  0  0  0  0  0  0  0
  150.8937  137.9170  159.1311 H   0  0  0  0  0  0  0  0  0  0  0  0
  147.9918  135.9290  158.2914 H   0  0  0  0  0  0  0  0  0  0  0  0
  149.5265  135.4686  159.0019 H   0  0  0  0  0  0  0  0  0  0  0  0
  147.9902  137.2958  161.5294 H   0  0  0  0  0  0  0  0  0  0  0  0
  146.7938  136.3633  163.4938 H   0  0  0  0  0  0  0  0  0  0  0  0
  146.0075  134.0018  163.4701 H   0  0  0  0  0  0  0  0  0  0  0  0
  146.4185  132.5749  161.4745 H   0  0  0  0  0  0  0  0  0  0  0  0
  1  2  1  0  0  0  0
  1 24  1  0  0  0  0
  1 25  1  0  0  0  0
  1 26  1  0  0  0  0
  2 10  1  0  0  0  0
  2  3  2  0  0  0  0
  3  4  1  0  0  0  0
  4  9  2  0  0  0  0
  4  5  1  0  0  0  0
  5  6  2  0  0  0  0
  5 27  1  0  0  0  0
  6  7  1  0  0  0  0
  6 28  1  0  0  0  0
  7  8  2  0  0  0  0
  7 29  1  0  0  0  0
  8  9  1  0  0  0  0
  8 30  1  0  0  0  0
  9 10  1  0  0  0  0
 10 11  1  0  0  0  0
 11 12  1  0  0  0  0
 11 31  1  0  0  0  0
 11 32  1  0  0  0  0
 12 13  1  0  0  0  0
 12 14  1  0  0  0  0
 12 33  1  0  0  0  0
 13 34  1  0  0  0  0
 14 15  1  0  0  0  0
 14 35  1  0  0  0  0
 14 36  1  0  0  0  0
 15 16  1  0  0  0  0
 16 17  1  0  0  0  0
 16 37  1  0  0  0  0
 16 38  1  0  0  0  0
 17 22  1  0  0  0  0
 17 18  2  0  0  0  0
 18 19  1  0  0  0  0
 18 39  1  0  0  0  0
 19 20  2  0  0  0  0
 19 40  1  0  0  0  0
 20 21  1  0  0  0  0
 20 41  1  0  0  0  0
 21 22  2  0  0  0  0
 21 42  1  0  0  0  0
 22 23  1  0  0  0  0
M  END
> <s_m_source_file>
AV-unprocessed.smi

> <i_m_source_file_index>
1288

> <i_lp_mmshare_version>
43012

> <i_f3d_flags>
0

> <s_epik_input>
W2NIXTFbY0hdW2NIXVtjSF1jKGMxMiluKGMobjIpW0NIM10pW0NIMl1bQ0BIXShbT0hdKVtDSDJdT1tDSDJdYzNbY0hdW2NIXVtjSF1bY0hdYzNG

> <s_epik_cmdline>
J2VwaWtfcHl0aG9uJywgJy1waCcsICc3LjAnLCAnLXRuJywgJzgnLCAnLW1hJywgJzIwMCcsICctbWV0YWxfYmluZGluZycsICctaW1hZScsICc8aW5maWxlLm1hZT4nLCAnLW9tYWUnLCAnPG91dGZpbGUubWFlPic=

> <r_epik_Ionization_Penalty>
0.132603

> <r_epik_Ionization_Penalty_Charging>
0

> <r_epik_Ionization_Penalty_Neutral>
0.132603

> <r_epik_State_Penalty>
0.121982

> <r_epik_Charging_Adjusted_Penalty>
0.121982

> <i_epik_Tot_Q>
0

> <i_epik_Tot_abs_Q>
0

> <r_epik_Metal_State_Penalty>
0.000135431

> <b_epik_Metal_Only>
0

> <s_lp_Force_Field>
OPLS_2005

> <r_lp_Energy>
16.0492

> <b_lp_Chiralities_Consistent>
1

> <s_lp_Variant>
AV-unprocessed.smi:1288-2

> <Gold.Version>
5.8.1

> <Gold.Id.Protein>
6NUR|6NUR_protein|mol2

> <Gold.PLP.Fitness>
49.6521

> <Gold.PLP.PLP>
-51.5245

> <Gold.PLP.part.hbond>
-0.9699

> <Gold.PLP.part.metal>
0.0000

> <Gold.PLP.part.buried>
-6.3668

> <Gold.PLP.part.nonpolar>
-45.6045

> <Gold.PLP.part.repulsive>
0.0000

> <Gold.PLP.ligand.clash>
0.0000

> <Gold.PLP.ligand.torsion>
0.9898

> <Gold.PLP.Chemscore.Hbond>
0.0000

> <Gold.PLP.Chemscore.CHOScore>
0.0000

> <Gold.PLP.Chemscore.Metal>
0.0000

> <Gold.PLP.Chemscore.Internal.Correction>
0.1072

> <Gold.Rescore>
     Score         DG    S(hbond)    S(metal)    S(lipo)     H(rot)  DE(clash)    DE(int)     intcor
     15.50     -16.69       0.12        0.00     142.42       2.29       0.14       1.06       ----

> <Gold.Chemscore.Fitness>
15.4953

> <Gold.Chemscore.DG>
-16.6923

> <Gold.Chemscore.ZeroCoef>
-5.4800

> <Gold.Chemscore.Hbond>
0.1204

> <Gold.Chemscore.Metal>
0.0000

> <Gold.Chemscore.Lipo>
142.4200

> <Gold.Chemscore.Internal_Hbond>
0.0000

> <Gold.Chemscore.DEClash>
0.1381

> <Gold.Chemscore.DEInternal>
1.0590

> <Gold.Chemscore.Rot>
2.2863

> <Gold.Chemscore.Internal.Correction>
   9.000000E+99

> <Gold.Chemscore.Hbond.Weighted>
-0.4022

> <Gold.Chemscore.Metal.Weighted>
-0.0000

> <Gold.Chemscore.Lipo.Weighted>
-16.6631

> <Gold.Chemscore.Internal_Hbond.Weighted>
0.0000

> <Gold.Chemscore.DEClash.Weighted>
0.1381

> <Gold.Chemscore.DEInternal.Weighted>
1.0590

> <Gold.Chemscore.Rot.Weighted>
5.8530

> <Gold.Chemscore.Internal.Correction.Weighted>
   9.000000E+99

> <Gold.Protein.RotatedTorsions>
[ 6907 6896 6895 6894 ] final -149.76 input  -60.11 | X-H torsion
[ 7974 7965 7964 7962 ] final -167.00 input  175.53 | X-H torsion
[ 8008 7997 7996 7995 ] final  163.92 input   59.86 | X-H torsion
[ 10167 10162 10161 10158 ] final -171.18 input  -65.29 | X-H torsion
[ 10718 10713 10712 10709 ] final  -82.63 input   66.30 | X-H torsion
[ 10763 10752 10751 10750 ] final   71.30 input  -60.55 | X-H torsion
[ 11005 11000 10999 10996 ] final   40.67 input  -57.11 | X-H torsion

> <Gold.Protein.ActiveResidues>
 VAL166  LYS551  ARG553  GLY616  TRP617  ASP618  TYR619  PRO620  LYS621  CYS622 
 ASP623  PHE694  ASN695  SER759  ASP760  ASP761  ALA762  ILE779  LEU786  VAL792 
 PHE793  MET794  SER795  GLU796  ALA797  LYS798  CYS799  TRP800  GLU811  SER814 

> <Gold.Protein.RotatedAtoms>
  151.1887  133.4680  159.2594 H   0  0  0  0  0  0  0  0  0  0  0  0  # atno 6907 bound_to 6896
  151.1185  135.0066  159.8537 H   0  0  0  0  0  0  0  0  0  0  0  0  # atno 6908 bound_to 6896
  152.5454  134.1801  159.8685 H   0  0  0  0  0  0  0  0  0  0  0  0  # atno 6909 bound_to 6896
  144.7232  140.2583  143.6268 H   0  0  0  0  0  0  0  0  0  0  0  0  # atno 7974 bound_to 7965
  156.1920  140.1710  156.8073 H   0  0  0  0  0  0  0  0  0  0  0  0  # atno 8008 bound_to 7997
  154.5483  140.0723  156.8657 H   0  0  0  0  0  0  0  0  0  0  0  0  # atno 8009 bound_to 7997
  155.3079  140.3365  155.4247 H   0  0  0  0  0  0  0  0  0  0  0  0  # atno 8010 bound_to 7997
  139.5817  144.1407  152.1524 H   0  0  0  0  0  0  0  0  0  0  0  0  # atno 10167 bound_to 10162
  156.0030  130.4640  150.4134 H   0  0  0  0  0  0  0  0  0  0  0  0  # atno 10718 bound_to 10713
  153.0391  135.5142  154.7572 H   0  0  0  0  0  0  0  0  0  0  0  0  # atno 10763 bound_to 10752
  154.6524  135.2927  154.9972 H   0  0  0  0  0  0  0  0  0  0  0  0  # atno 10764 bound_to 10752
  154.0851  135.6658  153.4896 H   0  0  0  0  0  0  0  0  0  0  0  0  # atno 10765 bound_to 10752
  140.1908  134.3989  155.8148 H   0  0  0  0  0  0  0  0  0  0  0  0  # atno 11005 bound_to 11000
  145.8160  139.2023  143.1965 LP  0  0  0  0  0  0  0  0  0  0  0  0  # atno 17320 bound_to 7965
  146.0555  140.8025  142.9761 LP  0  0  0  0  0  0  0  0  0  0  0  0  # atno 17321 bound_to 7965
  140.0962  144.5578  150.7020 LP  0  0  0  0  0  0  0  0  0  0  0  0  # atno 17342 bound_to 10162
  140.7095  143.2493  151.4625 LP  0  0  0  0  0  0  0  0  0  0  0  0  # atno 17343 bound_to 10162
  157.2195  131.0479  151.2554 LP  0  0  0  0  0  0  0  0  0  0  0  0  # atno 17370 bound_to 10713
  157.3814  130.7233  149.6632 LP  0  0  0  0  0  0  0  0  0  0  0  0  # atno 17371 bound_to 10713
  141.2226  133.7045  156.8091 LP  0  0  0  0  0  0  0  0  0  0  0  0  # atno 17394 bound_to 11000
  140.2162  134.8791  157.3328 LP  0  0  0  0  0  0  0  0  0  0  0  0  # atno 17395 bound_to 11000

$$$$
