#       Name:                AV-unprocessed.smi:3287
#       Creating user name   scv26
#       Creation time:       Fri Mar 27 18:53:23 2020


#       File generated by GOLD software.
#

@<TRIPOS>MOLECULE
AV-unprocessed.smi:3287
    46    47     1
SMALL
NO_CHARGES


@<TRIPOS>ATOM
      1 ****        -3.2553   3.9389  -0.8243 C.3            1 S1                 0.0000
      2 ****        -2.7101   2.4997  -0.8066 C.3            1 S1                 0.0000
      3 ****        -1.2340   2.4962  -1.2534 C.3            1 S1                 0.0000
      4 ****        -0.6307   1.0848  -1.2589 C.3            1 S1                 0.0000
      5 ****        -0.7624   0.4228   0.1252 C.3            1 S1                 0.0000
      6 ****        -0.2185  -0.9533   0.1298 N.4            1 S1                 1.0000
      7 ****         1.2571  -1.0502   0.0939 C.3            1 S1                 0.0000
      8 ****         1.7299  -2.5070   0.2393 C.3            1 S1                 0.0000
      9 ****         1.2502  -3.2544  -0.8616 O.3            1 S1                 0.0000
     10 ****         3.2443  -2.5804   0.3566 C.ar           1 S1                 0.0000
     11 ****         4.0740  -2.4596  -0.7796 C.ar           1 S1                 0.0000
     12 ****         5.4708  -2.5246  -0.6041 C.ar           1 S1                 0.0000
     13 ****         6.0594  -2.6942   0.5990 N.ar           1 S1                 0.0000
     14 ****         5.2618  -2.8070   1.6824 C.ar           1 S1                 0.0000
     15 ****         3.8550  -2.7559   1.6162 C.ar           1 S1                 0.0000
     16 ****        -2.2394   0.4010   0.5545 C.3            1 S1                 0.0000
     17 ****        -2.8650   1.8114   0.5755 C.3            1 S1                 0.0000
     18 ****        -4.3293   1.7272   1.0425 C.3            1 S1                 0.0000
     19 ****        -2.7804   4.5526  -0.0581 H              1 S1                 0.0000
     20 ****        -4.3318   3.9674  -0.6584 H              1 S1                 0.0000
     21 ****        -3.0725   4.4145  -1.7883 H              1 S1                 0.0000
     22 ****        -3.2783   1.9240  -1.5388 H              1 S1                 0.0000
     23 ****        -1.1469   2.9279  -2.2512 H              1 S1                 0.0000
     24 ****        -0.6484   3.1358  -0.5914 H              1 S1                 0.0000
     25 ****        -1.1310   0.4761  -2.0134 H              1 S1                 0.0000
     26 ****         0.4152   1.1521  -1.5578 H              1 S1                 0.0000
     27 ****        -0.2065   1.0098   0.8582 H              1 S1                 0.0000
     28 ****        -0.5272  -1.4002   0.9812 H              1 S1                 0.0000
     29 ****         1.6405  -0.6237  -0.8332 H              1 S1                 0.0000
     30 ****         1.6638  -0.4542   0.9121 H              1 S1                 0.0000
     31 ****         1.2935  -2.9395   1.1410 H              1 S1                 0.0000
     32 ****         1.5103  -4.1563  -0.7473 H              1 S1                 0.0000
     33 ****         3.6550  -2.3180  -1.7651 H              1 S1                 0.0000
     34 ****         6.1329  -2.4356  -1.4526 H              1 S1                 0.0000
     35 ****         5.7597  -2.9397   2.6315 H              1 S1                 0.0000
     36 ****         3.2640  -2.8487   2.5156 H              1 S1                 0.0000
     37 ****        -2.8090  -0.2395  -0.1212 H              1 S1                 0.0000
     38 ****        -2.3215  -0.0494   1.5447 H              1 S1                 0.0000
     39 ****        -2.3206   2.4036   1.3128 H              1 S1                 0.0000
     40 ****        -4.9494   1.2039   0.3141 H              1 S1                 0.0000
     41 ****        -4.7610   2.7147   1.2028 H              1 S1                 0.0000
     42 ****        -4.4083   1.1922   1.9893 H              1 S1                 0.0000
     43 ****        -0.6013  -1.4633  -0.6538 H              1 S1                 0.0000
     44 ****         1.6409  -2.8954  -1.7092 LP             1 S1                 0.0000
     45 ****         0.2529  -3.1934  -0.9021 LP             1 S1                 0.0000
     46 ****         7.0549  -2.7350   0.6850 LP             1 S1                 0.0000
@<TRIPOS>BOND
    1    1    2 1     
    2    1   19 1     
    3    1   20 1     
    4    1   21 1     
    5    2   17 1     
    6    2    3 1     
    7    2   22 1     
    8    3    4 1     
    9    3   23 1     
   10    3   24 1     
   11    4    5 1     
   12    4   25 1     
   13    4   26 1     
   14    5    6 1     
   15    5   16 1     
   16    5   27 1     
   17    6    7 1     
   18    6   28 1     
   19    6   43 1     
   20    7    8 1     
   21    7   29 1     
   22    7   30 1     
   23    8    9 1     
   24    8   10 1     
   25    8   31 1     
   26    9   32 1     
   27   10   15 ar    
   28   10   11 ar    
   29   11   12 ar    
   30   11   33 1     
   31   12   13 ar    
   32   12   34 1     
   33   13   14 ar    
   34   14   15 ar    
   35   14   35 1     
   36   15   36 1     
   37   16   17 1     
   38   16   37 1     
   39   16   38 1     
   40   17   18 1     
   41   17   39 1     
   42   18   40 1     
   43   18   41 1     
   44   18   42 1     
   45    9   44 1     
   46    9   45 1     
   47   13   46 1     
@<TRIPOS>SUBSTRUCTURE
      1 S1             1
@<TRIPOS>SET
LONE_PAIRS      STATIC     ATOMS    <user>   **** ""
3 44 45 46
DONOR_HYDROGENS      STATIC     ATOMS    <user>   **** ""
3 28 43 32
ATOM$BLUE        STATIC     ATOMS    COLORGROUP SYSTEM
3 44 45 46
ATOM$RED        STATIC     ATOMS    COLORGROUP SYSTEM
3 28 43 32
