#       Name:                AV-unprocessed.smi:45
#       Creating user name   scv26
#       Creation time:       Thu Mar 26 16:28:15 2020


#       File generated by GOLD software.
#

@<TRIPOS>MOLECULE
AV-unprocessed.smi:45
    71    74     1
SMALL
NO_CHARGES


@<TRIPOS>ATOM
      1 ****        -7.8105   0.3614  -2.9398 C.3            1 S1                 0.0000
      2 ****        -7.4140   0.9291  -1.7001 O.3            1 S1                 0.0000
      3 ****        -6.0646   1.0539  -1.4409 C.ar           1 S1                 0.0000
      4 ****        -5.0471   0.6260  -2.3314 C.ar           1 S1                 0.0000
      5 ****        -3.6888   0.7880  -1.9974 C.ar           1 S1                 0.0000
      6 ****        -3.3238   1.3791  -0.7717 C.ar           1 S1                 0.0000
      7 ****        -1.8618   1.5556  -0.4136 C.3            1 S1                 0.0000
      8 ****        -1.1418   0.2951  -0.3134 N.pl3          1 S1                 0.0000
      9 ****         0.2263   0.2575   0.0050 C.ar           1 S1                 0.0000
     10 ****         0.8596   1.4391   0.2017 N.ar           1 S1                 0.0000
     11 ****         2.1551   1.4096   0.5187 C.ar           1 S1                 0.0000
     12 ****         2.7672   2.6422   0.6845 N.3            1 S1                 0.0000
     13 ****         3.5299   2.9042   1.9030 C.3            1 S1                 0.0000
     14 ****         4.7435   3.7527   1.5021 C.3            1 S1                 0.0000
     15 ****         4.3488   4.3413   0.1525 C.3            1 S1                 0.0000
     16 ****         3.5000   3.2149  -0.4397 C.3            1 S1                 0.0000
     17 ****         2.6151   3.6017  -1.6434 C.3            1 S1                 0.0000
     18 ****         1.7678   4.6921  -1.3436 O.3            1 S1                 0.0000
     19 ****         2.9087   0.3162   0.6598 N.ar           1 S1                 0.0000
     20 ****         2.2972  -0.8725   0.4703 C.ar           1 S1                 0.0000
     21 ****         0.9253  -0.9744   0.1351 C.ar           1 S1                 0.0000
     22 ****         0.2840  -2.3177  -0.1074 C.2            1 S1                 0.0000
     23 ****        -0.4359  -2.4557  -1.1028 O.2            1 S1                 0.0000
     24 ****         0.5942  -3.2105   0.8724 N.pl3          1 S1                -1.0000
     25 ****         0.1295  -4.5972   0.8997 C.3            1 S1                 0.0000
     26 ****         1.1669  -5.5204   1.5230 C.ar           1 S1                 0.0000
     27 ****         2.0967  -6.0261   0.7027 N.ar           1 S1                 0.0000
     28 ****         3.0360  -6.8222   1.2570 C.ar           1 S1                 0.0000
     29 ****         3.0416  -7.1140   2.6356 C.ar           1 S1                 0.0000
     30 ****         2.0117  -6.5303   3.4003 C.ar           1 S1                 0.0000
     31 ****         1.0743  -5.7349   2.8415 N.ar           1 S1                 0.0000
     32 ****        -4.3284   1.8067   0.1180 C.ar           1 S1                 0.0000
     33 ****        -5.6877   1.6439  -0.2134 C.ar           1 S1                 0.0000
     34 ****        -6.8944   2.1770   0.9019 Cl             1 S1                 0.0000
     35 ****         4.1838   2.4367  -0.7836 H              1 S1                 0.0000
     36 ****        -8.8989   0.3425  -2.9940 H              1 S1                 0.0000
     37 ****        -7.4578  -0.6660  -3.0398 H              1 S1                 0.0000
     38 ****        -7.4488   0.9522  -3.7823 H              1 S1                 0.0000
     39 ****        -5.2821   0.1684  -3.2803 H              1 S1                 0.0000
     40 ****        -2.9253   0.4562  -2.6859 H              1 S1                 0.0000
     41 ****        -1.3926   2.1792  -1.1755 H              1 S1                 0.0000
     42 ****        -1.7799   2.0908   0.5332 H              1 S1                 0.0000
     43 ****        -1.6409  -0.5709  -0.4617 H              1 S1                 0.0000
     44 ****         2.8892   3.4652   2.5837 H              1 S1                 0.0000
     45 ****         3.8362   1.9939   2.4194 H              1 S1                 0.0000
     46 ****         4.9923   4.5132   2.2424 H              1 S1                 0.0000
     47 ****         5.6145   3.1079   1.3781 H              1 S1                 0.0000
     48 ****         3.7564   5.2442   0.3059 H              1 S1                 0.0000
     49 ****         5.2079   4.5976  -0.4679 H              1 S1                 0.0000
     50 ****         3.2476   3.8902  -2.4832 H              1 S1                 0.0000
     51 ****         2.0152   2.7573  -1.9830 H              1 S1                 0.0000
     52 ****         1.2275   4.8675  -2.0986 H              1 S1                 0.0000
     53 ****         2.9207  -1.7486   0.5749 H              1 S1                 0.0000
     54 ****        -0.8009  -4.6897   1.4623 H              1 S1                 0.0000
     55 ****        -0.1045  -4.9792  -0.0959 H              1 S1                 0.0000
     56 ****         3.7881  -7.2283   0.5970 H              1 S1                 0.0000
     57 ****         3.7924  -7.7492   3.0809 H              1 S1                 0.0000
     58 ****         1.9402  -6.7018   4.4640 H              1 S1                 0.0000
     59 ****        -4.0586   2.2598   1.0609 H              1 S1                 0.0000
     60 ****        -7.8035   0.3603  -0.9756 LP             1 S1                 0.0000
     61 ****        -7.8107   1.8459  -1.6536 LP             1 S1                 0.0000
     62 ****         0.3707   2.3068   0.1120 LP             1 S1                 0.0000
     63 ****         1.8921   3.1189   0.7690 LP             1 S1                 0.0000
     64 ****         2.3187   5.4984  -1.1282 LP             1 S1                 0.0000
     65 ****         1.1894   4.4646  -0.5601 LP             1 S1                 0.0000
     66 ****         3.8790   0.3750   0.8945 LP             1 S1                 0.0000
     67 ****        -0.5816  -1.6865  -1.7250 LP             1 S1                 0.0000
     68 ****        -0.8726  -3.3365  -1.2858 LP             1 S1                 0.0000
     69 ****         1.1776  -2.8980   1.6221 LP             1 S1                 0.0000
     70 ****         2.0954  -5.8233  -0.2765 LP             1 S1                 0.0000
     71 ****         0.3439  -5.3246   3.3877 LP             1 S1                 0.0000
@<TRIPOS>BOND
    1    1    2 1     
    2    1   36 1     
    3    1   37 1     
    4    1   38 1     
    5    2    3 1     
    6    3   33 ar    
    7    3    4 ar    
    8    4    5 ar    
    9    4   39 1     
   10    5    6 ar    
   11    5   40 1     
   12    6    7 1     
   13    6   32 ar    
   14    7    8 1     
   15    7   41 1     
   16    7   42 1     
   17    8    9 1     
   18    8   43 1     
   19    9   21 ar    
   20    9   10 ar    
   21   10   11 ar    
   22   11   12 1     
   23   11   19 ar    
   24   12   16 1     
   25   12   13 1     
   26   13   14 1     
   27   13   44 1     
   28   13   45 1     
   29   14   15 1     
   30   14   46 1     
   31   14   47 1     
   32   15   16 1     
   33   15   48 1     
   34   15   49 1     
   35   16   35 1     
   36   16   17 1     
   37   17   18 1     
   38   17   50 1     
   39   17   51 1     
   40   18   52 1     
   41   19   20 ar    
   42   20   21 ar    
   43   20   53 1     
   44   21   22 1     
   45   22   23 2     
   46   22   24 1     
   47   24   25 1     
   48   25   26 1     
   49   25   54 1     
   50   25   55 1     
   51   26   31 ar    
   52   26   27 ar    
   53   27   28 ar    
   54   28   29 ar    
   55   28   56 1     
   56   29   30 ar    
   57   29   57 1     
   58   30   31 ar    
   59   30   58 1     
   60   32   33 ar    
   61   32   59 1     
   62   33   34 1     
   63    2   60 1     
   64    2   61 1     
   65   10   62 1     
   66   12   63 1     
   67   18   64 1     
   68   18   65 1     
   69   19   66 1     
   70   23   67 1     
   71   23   68 1     
   72   24   69 1     
   73   27   70 1     
   74   31   71 1     
@<TRIPOS>SUBSTRUCTURE
      1 S1             1
@<TRIPOS>SET
LONE_PAIRS      STATIC     ATOMS    <user>   **** ""
12 60 61 62 63 64 65 66 67 68 69 70 71
DONOR_HYDROGENS      STATIC     ATOMS    <user>   **** ""
2 43 52
ATOM$BLUE        STATIC     ATOMS    COLORGROUP SYSTEM
12 60 61 62 63 64 65 66 67 68 69 70 71
ATOM$RED        STATIC     ATOMS    COLORGROUP SYSTEM
2 43 52
