AV-unprocessed.smi:3165|AV-procd|sdf|12087|dock6
  -GOLD-   2272017513D 1   1.00000     0.00000
 Structure written by MMmdl.
 38 39  0  0  0  0  0  0  0  0  2 V2000
  148.0251  142.0594  154.0556 C   0  0  0  0  0  0  0  0  0  0  0  0
  149.2650  141.4160  154.6907 C   0  0  2  0  0  0  0  0  0  0  0  0
  149.1078  139.8825  154.7631 C   0  0  0  0  0  0  0  0  0  0  0  0
  150.3700  139.1777  154.6295 N   0  0  0  0  0  0  0  0  0  0  0  0
  150.5888  137.8817  154.2120 C   0  0  0  0  0  0  0  0  0  0  0  0
  151.9374  137.6695  154.2387 C   0  0  0  0  0  0  0  0  0  0  0  0
  152.4667  138.9093  154.6945 C   0  0  0  0  0  0  0  0  0  0  0  0
  151.5260  139.8104  154.9271 N   0  0  0  0  0  0  0  0  0  0  0  0
  149.4846  141.9964  156.0350 N   0  3  0  0  0  0  0  0  0  0  0  0
  150.8863  141.9724  156.5039 C   0  0  0  0  0  0  0  0  0  0  0  0
  151.0069  142.5812  157.9070 C   0  0  1  0  0  0  0  0  0  0  0  0
  152.1949  141.9879  158.6894 C   0  0  0  0  0  0  0  0  0  0  0  0
  152.3493  142.6841  160.0463 C   0  0  0  0  0  0  0  0  0  0  0  0
  152.4255  144.2009  159.8429 C   0  0  0  0  0  0  0  0  0  0  0  0
  151.2350  144.6865  159.0012 C   0  0  0  0  0  0  0  0  0  0  0  0
  151.2013  143.9866  157.7609 O   0  0  0  0  0  0  0  0  0  0  0  0
  147.8575  141.6790  153.0475 H   0  0  0  0  0  0  0  0  0  0  0  0
  148.1378  143.1416  153.9819 H   0  0  0  0  0  0  0  0  0  0  0  0
  147.1270  141.8568  154.6407 H   0  0  0  0  0  0  0  0  0  0  0  0
  150.1170  141.6553  154.0518 H   0  0  0  0  0  0  0  0  0  0  0  0
  148.6339  139.5878  155.7012 H   0  0  0  0  0  0  0  0  0  0  0  0
  148.4496  139.5386  153.9643 H   0  0  0  0  0  0  0  0  0  0  0  0
  149.7767  137.2268  153.9323 H   0  0  0  0  0  0  0  0  0  0  0  0
  152.4659  136.7653  153.9748 H   0  0  0  0  0  0  0  0  0  0  0  0
  153.4991  139.1792  154.8615 H   0  0  0  0  0  0  0  0  0  0  0  0
  149.1897  142.9622  156.0145 H   0  0  0  0  0  0  0  0  0  0  0  0
  151.2410  140.9419  156.5230 H   0  0  0  0  0  0  0  0  0  0  0  0
  151.5182  142.5139  155.7986 H   0  0  0  0  0  0  0  0  0  0  0  0
  150.0826  142.3952  158.4572 H   0  0  0  0  0  0  0  0  0  0  0  0
  152.0556  140.9163  158.8358 H   0  0  0  0  0  0  0  0  0  0  0  0
  153.1132  142.1078  158.1126 H   0  0  0  0  0  0  0  0  0  0  0  0
  151.4981  142.4406  160.6834 H   0  0  0  0  0  0  0  0  0  0  0  0
  153.2403  142.3236  160.5609 H   0  0  0  0  0  0  0  0  0  0  0  0
  152.4418  144.7110  160.8066 H   0  0  0  0  0  0  0  0  0  0  0  0
  153.3574  144.4570  159.3373 H   0  0  0  0  0  0  0  0  0  0  0  0
  150.2950  144.5445  159.5365 H   0  0  0  0  0  0  0  0  0  0  0  0
  151.3284  145.7540  158.8007 H   0  0  0  0  0  0  0  0  0  0  0  0
  148.9052  141.4994  156.6969 H   0  0  0  0  0  0  0  0  0  0  0  0
  1  2  1  0  0  0  0
  1 17  1  0  0  0  0
  1 18  1  0  0  0  0
  1 19  1  0  0  0  0
  2  3  1  0  0  0  0
  2  9  1  0  0  0  0
  2 20  1  0  0  0  0
  3  4  1  0  0  0  0
  3 21  1  0  0  0  0
  3 22  1  0  0  0  0
  4  8  1  0  0  0  0
  4  5  1  0  0  0  0
  5  6  2  0  0  0  0
  5 23  1  0  0  0  0
  6  7  1  0  0  0  0
  6 24  1  0  0  0  0
  7  8  2  0  0  0  0
  7 25  1  0  0  0  0
  9 10  1  0  0  0  0
  9 26  1  0  0  0  0
  9 38  1  0  0  0  0
 10 11  1  0  0  0  0
 10 27  1  0  0  0  0
 10 28  1  0  0  0  0
 11 16  1  0  0  0  0
 11 12  1  0  0  0  0
 11 29  1  0  0  0  0
 12 13  1  0  0  0  0
 12 30  1  0  0  0  0
 12 31  1  0  0  0  0
 13 14  1  0  0  0  0
 13 32  1  0  0  0  0
 13 33  1  0  0  0  0
 14 15  1  0  0  0  0
 14 34  1  0  0  0  0
 14 35  1  0  0  0  0
 15 16  1  0  0  0  0
 15 36  1  0  0  0  0
 15 37  1  0  0  0  0
M  CHG  1   9   1
M  END
> <s_m_source_file>
AV-unprocessed.smi

> <i_m_source_file_index>
3165

> <i_lp_mmshare_version>
43012

> <i_f3d_flags>
0

> <s_epik_input>
bjFbY0hdW2NIXVtjSF1uMVtDSDJdW0NAQEhdKFtDSDNdKVtOSF1bQ0gyXVtDQEBIXTJbQ0gyXVtDSDJdW0NIMl1bQ0gyXU8y

> <s_epik_cmdline>
J2VwaWtfcHl0aG9uJywgJy1waCcsICc3LjAnLCAnLXRuJywgJzgnLCAnLW1hJywgJzIwMCcsICctbWV0YWxfYmluZGluZycsICctaW1hZScsICc8aW5maWxlLm1hZT4nLCAnLW9tYWUnLCAnPG91dGZpbGUubWFlPic=

> <r_lp_tautomer_probability>
1

> <r_epik_Ionization_Penalty>
0.00849196

> <r_epik_Ionization_Penalty_Charging>
0.00848754

> <r_epik_Ionization_Penalty_Neutral>
4.42049e-06

> <r_epik_State_Penalty>
0.00639836

> <r_epik_Charging_Adjusted_Penalty>
0.0148859

> <i_epik_Tot_Q>
1

> <i_epik_Tot_abs_Q>
1

> <r_epik_Metal_State_Penalty>
0.00639878

> <b_epik_Metal_Only>
0

> <s_lp_Force_Field>
OPLS_2005

> <r_lp_Energy>
13.1527

> <b_lp_Chiralities_Consistent>
1

> <s_lp_Variant>
AV-unprocessed.smi:3165-3

> <Gold.Version>
5.8.1

> <Gold.Id.Protein>
6NUR|6NUR_protein|mol2

> <Gold.PLP.Fitness>
50.6976

> <Gold.PLP.PLP>
-41.3819

> <Gold.PLP.part.hbond>
-2.0000

> <Gold.PLP.part.metal>
0.0000

> <Gold.PLP.part.buried>
-3.5732

> <Gold.PLP.part.nonpolar>
-36.2071

> <Gold.PLP.part.repulsive>
0.5054

> <Gold.PLP.ligand.clash>
0.0000

> <Gold.PLP.ligand.torsion>
1.3543

> <Gold.PLP.Chemscore.Hbond>
3.0000

> <Gold.PLP.Chemscore.CHOScore>
0.9984

> <Gold.PLP.Chemscore.Metal>
0.0000

> <Gold.Chemscore.Hbonds>
donor molecule, donor type, donor heavy atom, donor atom, acceptor molecule, acceptor atom, score
      L1  H     9    26       P1  8028  2.00
      P1  H  7989  7998       L1     8  0.95
      L1  C     5    23       P1  7948  1.00

> <Gold.PLP.Chemscore.Internal.Correction>
0.0290

> <Gold.Rescore>
     Score         DG    S(hbond)    S(metal)    S(lipo)     H(rot)  DE(clash)    DE(int)     intcor
     17.11     -19.30       1.82        0.00     102.20       1.64       0.12       2.07       ----

> <Gold.Chemscore.Fitness>
17.1105

> <Gold.Chemscore.DG>
-19.2991

> <Gold.Chemscore.ZeroCoef>
-5.4800

> <Gold.Chemscore.Hbond>
1.8179

> <Gold.Chemscore.Metal>
0.0000

> <Gold.Chemscore.Lipo>
102.1976

> <Gold.Chemscore.Internal_Hbond>
0.0000

> <Gold.Chemscore.DEClash>
0.1195

> <Gold.Chemscore.DEInternal>
2.0691

> <Gold.Chemscore.Rot>
1.6444

> <Gold.Chemscore.Internal.Correction>
   9.000000E+99

> <Gold.Chemscore.Hbonds>
donor molecule, donor type, donor heavy atom, donor atom, acceptor molecule, acceptor atom, score
      L1  H     9    26       P1  8028  1.00
      P1  H  7989  7998       L1     8  0.07

> <Gold.Chemscore.Hbond.Weighted>
-6.0717

> <Gold.Chemscore.Metal.Weighted>
-0.0000

> <Gold.Chemscore.Lipo.Weighted>
-11.9571

> <Gold.Chemscore.Internal_Hbond.Weighted>
0.0000

> <Gold.Chemscore.DEClash.Weighted>
0.1195

> <Gold.Chemscore.DEInternal.Weighted>
2.0691

> <Gold.Chemscore.Rot.Weighted>
4.2097

> <Gold.Chemscore.Internal.Correction.Weighted>
   9.000000E+99

> <Gold.Protein.RotatedTorsions>
[ 6907 6896 6895 6894 ] final  -10.85 input  -60.11 | X-H torsion
[ 7974 7965 7964 7962 ] final   89.24 input  175.53 | X-H torsion
[ 8008 7997 7996 7995 ] final   -8.19 input   59.86 | X-H torsion
[ 10167 10162 10161 10158 ] final   34.64 input  -65.29 | X-H torsion
[ 10718 10713 10712 10709 ] final    5.95 input   66.30 | X-H torsion
[ 10763 10752 10751 10750 ] final -100.00 input  -60.55 | X-H torsion
[ 11005 11000 10999 10996 ] final  173.97 input  -57.11 | X-H torsion

> <Gold.Protein.ActiveResidues>
 VAL166  LYS551  ARG553  GLY616  TRP617  ASP618  TYR619  PRO620  LYS621  CYS622 
 ASP623  PHE694  ASN695  SER759  ASP760  ASP761  ALA762  ILE779  LEU786  VAL792 
 PHE793  MET794  SER795  GLU796  ALA797  LYS798  CYS799  TRP800  GLU811  SER814 

> <Gold.Protein.RotatedAtoms>
  151.3955  135.0963  159.9539 H   0  0  0  0  0  0  0  0  0  0  0  0  # atno 6907 bound_to 6896
  152.5067  133.8939  159.7418 H   0  0  0  0  0  0  0  0  0  0  0  0  # atno 6908 bound_to 6896
  150.9401  133.6610  159.2821 H   0  0  0  0  0  0  0  0  0  0  0  0  # atno 6909 bound_to 6896
  145.5350  139.2285  143.2597 H   0  0  0  0  0  0  0  0  0  0  0  0  # atno 7974 bound_to 7965
  154.5765  140.2387  155.8115 H   0  0  0  0  0  0  0  0  0  0  0  0  # atno 8008 bound_to 7997
  156.2147  140.3015  155.9769 H   0  0  0  0  0  0  0  0  0  0  0  0  # atno 8009 bound_to 7997
  155.2617  140.0414  157.2988 H   0  0  0  0  0  0  0  0  0  0  0  0  # atno 8010 bound_to 7997
  140.4296  144.1344  150.6157 H   0  0  0  0  0  0  0  0  0  0  0  0  # atno 10167 bound_to 10162
  156.9150  130.5770  149.5647 H   0  0  0  0  0  0  0  0  0  0  0  0  # atno 10718 bound_to 10713
  154.7544  135.4951  153.9347 H   0  0  0  0  0  0  0  0  0  0  0  0  # atno 10763 bound_to 10752
  153.1179  135.6725  153.9394 H   0  0  0  0  0  0  0  0  0  0  0  0  # atno 10764 bound_to 10752
  153.9134  135.3096  155.3427 H   0  0  0  0  0  0  0  0  0  0  0  0  # atno 10765 bound_to 10752
  140.3462  134.7234  157.4237 H   0  0  0  0  0  0  0  0  0  0  0  0  # atno 11005 bound_to 11000
  146.2019  140.6168  142.9098 LP  0  0  0  0  0  0  0  0  0  0  0  0  # atno 17320 bound_to 7965
  144.7606  140.5413  143.6738 LP  0  0  0  0  0  0  0  0  0  0  0  0  # atno 17321 bound_to 7965
  140.4442  143.2513  151.9433 LP  0  0  0  0  0  0  0  0  0  0  0  0  # atno 17342 bound_to 10162
  139.4784  144.5625  151.8217 LP  0  0  0  0  0  0  0  0  0  0  0  0  # atno 17343 bound_to 10162
  156.0518  130.5586  150.9005 LP  0  0  0  0  0  0  0  0  0  0  0  0  # atno 17370 bound_to 10713
  157.5944  131.0943  150.9066 LP  0  0  0  0  0  0  0  0  0  0  0  0  # atno 17371 bound_to 10713
  140.0740  134.5823  155.8611 LP  0  0  0  0  0  0  0  0  0  0  0  0  # atno 17394 bound_to 11000
  141.2025  133.6625  156.6008 LP  0  0  0  0  0  0  0  0  0  0  0  0  # atno 17395 bound_to 11000

$$$$
