AV-unprocessed.smi:2190|AV-procd|sdf|8889|dock2
  -GOLD-   2272012 93D 1   1.00000     0.00000
 Structure written by MMmdl.
 46 48  0  0  0  0  0  0  0  0  1 V2000
  154.5434  140.7699  162.8910 C   0  0  0  0  0  0  0  0  0  0  0  0
  153.5548  141.7494  162.2923 C   0  0  0  0  0  0  0  0  0  0  0  0
  153.0828  142.8373  163.0519 C   0  0  0  0  0  0  0  0  0  0  0  0
  152.1634  143.7407  162.4892 C   0  0  0  0  0  0  0  0  0  0  0  0
  151.7091  143.5620  161.1661 C   0  0  0  0  0  0  0  0  0  0  0  0
  150.7177  144.5462  160.5738 C   0  0  0  0  0  0  0  0  0  0  0  0
  152.1731  142.4725  160.3932 C   0  0  0  0  0  0  0  0  0  0  0  0
  151.6842  142.3540  159.1089 O   0  0  0  0  0  0  0  0  0  0  0  0
  151.9275  141.1496  158.3933 C   0  0  0  0  0  0  0  0  0  0  0  0
  150.8710  140.9776  157.2892 C   0  0  1  0  0  0  0  0  0  0  0  0
  150.1882  142.2017  157.1038 O   0  0  0  0  0  0  0  0  0  0  0  0
  151.4439  140.4393  155.9616 C   0  0  0  0  0  0  0  0  0  0  0  0
  150.5524  139.4844  155.3168 N   0  0  0  0  0  0  0  0  0  0  0  0
  150.7302  138.1501  155.1410 C   0  0  0  0  0  0  0  0  0  0  0  0
  151.9645  137.4501  155.6366 C   0  0  0  0  0  0  0  0  0  0  0  0
  152.0007  136.0688  155.3392 O   0  0  0  0  0  0  0  0  0  0  0  0
  149.7367  137.5152  154.5135 N   0  0  0  0  0  0  0  0  0  0  0  0
  148.8361  138.5301  154.2581 C   0  0  0  0  0  0  0  0  0  0  0  0
  147.5777  138.5019  153.6154 C   0  0  0  0  0  0  0  0  0  0  0  0
  146.8235  139.6850  153.4705 C   0  0  0  0  0  0  0  0  0  0  0  0
  147.3155  140.9103  153.9654 C   0  0  0  0  0  0  0  0  0  0  0  0
  148.5671  140.9601  154.6090 C   0  0  0  0  0  0  0  0  0  0  0  0
  149.3159  139.7763  154.7502 C   0  0  0  0  0  0  0  0  0  0  0  0
  153.1019  141.5688  160.9698 C   0  0  0  0  0  0  0  0  0  0  0  0
  154.9321  141.1300  163.8441 H   0  0  0  0  0  0  0  0  0  0  0  0
  155.3868  140.6201  162.2165 H   0  0  0  0  0  0  0  0  0  0  0  0
  154.0627  139.8061  163.0601 H   0  0  0  0  0  0  0  0  0  0  0  0
  153.4223  142.9832  164.0670 H   0  0  0  0  0  0  0  0  0  0  0  0
  151.8079  144.5724  163.0797 H   0  0  0  0  0  0  0  0  0  0  0  0
  151.1142  144.9782  159.6544 H   0  0  0  0  0  0  0  0  0  0  0  0
  150.5024  145.3617  161.2649 H   0  0  0  0  0  0  0  0  0  0  0  0
  149.7796  144.0421  160.3401 H   0  0  0  0  0  0  0  0  0  0  0  0
  152.9140  141.2065  157.9302 H   0  0  0  0  0  0  0  0  0  0  0  0
  151.9222  140.2854  159.0600 H   0  0  0  0  0  0  0  0  0  0  0  0
  150.1244  140.2721  157.6556 H   0  0  0  0  0  0  0  0  0  0  0  0
  149.7587  142.1824  156.2622 H   0  0  0  0  0  0  0  0  0  0  0  0
  151.6619  141.2542  155.2714 H   0  0  0  0  0  0  0  0  0  0  0  0
  152.3959  139.9401  156.1463 H   0  0  0  0  0  0  0  0  0  0  0  0
  152.8476  137.9141  155.1979 H   0  0  0  0  0  0  0  0  0  0  0  0
  152.0321  137.5759  156.7175 H   0  0  0  0  0  0  0  0  0  0  0  0
  151.5547  135.6017  156.0286 H   0  0  0  0  0  0  0  0  0  0  0  0
  147.1923  137.5680  153.2337 H   0  0  0  0  0  0  0  0  0  0  0  0
  145.8627  139.6517  152.9781 H   0  0  0  0  0  0  0  0  0  0  0  0
  146.7313  141.8115  153.8509 H   0  0  0  0  0  0  0  0  0  0  0  0
  148.9472  141.8965  154.9893 H   0  0  0  0  0  0  0  0  0  0  0  0
  153.4814  140.7242  160.4152 H   0  0  0  0  0  0  0  0  0  0  0  0
  1  2  1  0  0  0  0
  1 25  1  0  0  0  0
  1 26  1  0  0  0  0
  1 27  1  0  0  0  0
  2 24  1  0  0  0  0
  2  3  2  0  0  0  0
  3  4  1  0  0  0  0
  3 28  1  0  0  0  0
  4  5  2  0  0  0  0
  4 29  1  0  0  0  0
  5  6  1  0  0  0  0
  5  7  1  0  0  0  0
  6 30  1  0  0  0  0
  6 31  1  0  0  0  0
  6 32  1  0  0  0  0
  7  8  1  0  0  0  0
  7 24  2  0  0  0  0
  8  9  1  0  0  0  0
  9 10  1  0  0  0  0
  9 33  1  0  0  0  0
  9 34  1  0  0  0  0
 10 11  1  0  0  0  0
 10 12  1  0  0  0  0
 10 35  1  0  0  0  0
 11 36  1  0  0  0  0
 12 13  1  0  0  0  0
 12 37  1  0  0  0  0
 12 38  1  0  0  0  0
 13 23  1  0  0  0  0
 13 14  1  0  0  0  0
 14 15  1  0  0  0  0
 14 17  2  0  0  0  0
 15 16  1  0  0  0  0
 15 39  1  0  0  0  0
 15 40  1  0  0  0  0
 16 41  1  0  0  0  0
 17 18  1  0  0  0  0
 18 23  2  0  0  0  0
 18 19  1  0  0  0  0
 19 20  2  0  0  0  0
 19 42  1  0  0  0  0
 20 21  1  0  0  0  0
 20 43  1  0  0  0  0
 21 22  2  0  0  0  0
 21 44  1  0  0  0  0
 22 23  1  0  0  0  0
 22 45  1  0  0  0  0
 24 46  1  0  0  0  0
M  END
> <s_m_source_file>
AV-unprocessed.smi

> <i_m_source_file_index>
2190

> <i_lp_mmshare_version>
43012

> <i_f3d_flags>
0

> <s_epik_input>
W0NIM11jMVtjSF1bY0hdYyhbQ0gzXSljKFtjSF0xKU9bQ0gyXVtDQEhdKFtPSF0pW0NIMl1uKGMobjIpW0NIMl1bT0hdKWMoYzIzKVtjSF1bY0hdW2NIXVtjSF0z

> <s_epik_cmdline>
J2VwaWtfcHl0aG9uJywgJy1waCcsICc3LjAnLCAnLXRuJywgJzgnLCAnLW1hJywgJzIwMCcsICctbWV0YWxfYmluZGluZycsICctaW1hZScsICc8aW5maWxlLm1hZT4nLCAnLW9tYWUnLCAnPG91dGZpbGUubWFlPic=

> <r_lp_tautomer_probability>
1

> <r_epik_Ionization_Penalty>
0.0555874

> <r_epik_Ionization_Penalty_Charging>
0

> <r_epik_Ionization_Penalty_Neutral>
0.0555874

> <r_epik_State_Penalty>
0.0478234

> <r_epik_Charging_Adjusted_Penalty>
0.0478234

> <i_epik_Tot_Q>
0

> <i_epik_Tot_abs_Q>
0

> <r_epik_Metal_State_Penalty>
4.98044e-05

> <b_epik_Metal_Only>
0

> <s_lp_Force_Field>
OPLS_2005

> <r_lp_Energy>
17.5395

> <b_lp_Chiralities_Consistent>
1

> <s_lp_Variant>
AV-unprocessed.smi:2190-2

> <Gold.Version>
5.8.1

> <Gold.Id.Protein>
6NUR|6NUR_protein|mol2

> <Gold.PLP.Fitness>
56.2780

> <Gold.PLP.PLP>
-55.8295

> <Gold.PLP.part.hbond>
-2.0000

> <Gold.PLP.part.metal>
0.0000

> <Gold.PLP.part.buried>
-2.8165

> <Gold.PLP.part.nonpolar>
-50.7393

> <Gold.PLP.part.repulsive>
0.6102

> <Gold.PLP.ligand.clash>
0.0000

> <Gold.PLP.ligand.torsion>
1.4299

> <Gold.PLP.Chemscore.Hbond>
1.0749

> <Gold.PLP.Chemscore.CHOScore>
0.0000

> <Gold.PLP.Chemscore.Metal>
0.0000

> <Gold.Chemscore.Hbonds>
donor molecule, donor type, donor heavy atom, donor atom, acceptor molecule, acceptor atom, score
      P1  H 10752 10763       L1    16  0.29

> <Gold.PLP.Chemscore.Internal.Correction>
0.0836

> <Gold.Rescore>
     Score         DG    S(hbond)    S(metal)    S(lipo)     H(rot)  DE(clash)    DE(int)     intcor
     18.16     -20.38       1.22        0.00     157.31       2.96       0.51       1.72       ----

> <Gold.Chemscore.Fitness>
18.1590

> <Gold.Chemscore.DG>
-20.3829

> <Gold.Chemscore.ZeroCoef>
-5.4800

> <Gold.Chemscore.Hbond>
1.2172

> <Gold.Chemscore.Metal>
0.0000

> <Gold.Chemscore.Lipo>
157.3092

> <Gold.Chemscore.Internal_Hbond>
0.0000

> <Gold.Chemscore.DEClash>
0.5071

> <Gold.Chemscore.DEInternal>
1.7168

> <Gold.Chemscore.Rot>
2.9561

> <Gold.Chemscore.Internal.Correction>
   9.000000E+99

> <Gold.Chemscore.Hbonds>
donor molecule, donor type, donor heavy atom, donor atom, acceptor molecule, acceptor atom, score
      P1  H 10752 10763       L1    16  0.27

> <Gold.Chemscore.Hbond.Weighted>
-4.0654

> <Gold.Chemscore.Metal.Weighted>
-0.0000

> <Gold.Chemscore.Lipo.Weighted>
-18.4052

> <Gold.Chemscore.Internal_Hbond.Weighted>
0.0000

> <Gold.Chemscore.DEClash.Weighted>
0.5071

> <Gold.Chemscore.DEInternal.Weighted>
1.7168

> <Gold.Chemscore.Rot.Weighted>
7.5677

> <Gold.Chemscore.Internal.Correction.Weighted>
   9.000000E+99

> <Gold.Protein.RotatedTorsions>
[ 6907 6896 6895 6894 ] final  -58.28 input  -60.11 | X-H torsion
[ 7974 7965 7964 7962 ] final   40.46 input  175.53 | X-H torsion
[ 8008 7997 7996 7995 ] final -163.81 input   59.86 | X-H torsion
[ 10167 10162 10161 10158 ] final -127.43 input  -65.29 | X-H torsion
[ 10718 10713 10712 10709 ] final  -71.80 input   66.30 | X-H torsion
[ 10763 10752 10751 10750 ] final   74.85 input  -60.55 | X-H torsion
[ 11005 11000 10999 10996 ] final   11.63 input  -57.11 | X-H torsion

> <Gold.Protein.ActiveResidues>
 VAL166  LYS551  ARG553  GLY616  TRP617  ASP618  TYR619  PRO620  LYS621  CYS622 
 ASP623  PHE694  ASN695  SER759  ASP760  ASP761  ALA762  ILE779  LEU786  VAL792 
 PHE793  MET794  SER795  GLU796  ALA797  LYS798  CYS799  TRP800  GLU811  SER814 

> <Gold.Protein.RotatedAtoms>
  150.8019  134.7119  159.6608 H   0  0  0  0  0  0  0  0  0  0  0  0  # atno 6907 bound_to 6896
  152.4137  134.6076  160.0027 H   0  0  0  0  0  0  0  0  0  0  0  0  # atno 6908 bound_to 6896
  151.6312  133.3295  159.3145 H   0  0  0  0  0  0  0  0  0  0  0  0  # atno 6909 bound_to 6896
  146.0903  139.5530  142.9480 H   0  0  0  0  0  0  0  0  0  0  0  0  # atno 7974 bound_to 7965
  155.8266  140.0927  157.1818 H   0  0  0  0  0  0  0  0  0  0  0  0  # atno 8008 bound_to 7997
  154.3979  140.1427  156.3624 H   0  0  0  0  0  0  0  0  0  0  0  0  # atno 8009 bound_to 7997
  155.8210  140.3446  155.5517 H   0  0  0  0  0  0  0  0  0  0  0  0  # atno 8010 bound_to 7997
  139.9610  143.5950  152.2445 H   0  0  0  0  0  0  0  0  0  0  0  0  # atno 10167 bound_to 10162
  156.0347  130.4359  150.2498 H   0  0  0  0  0  0  0  0  0  0  0  0  # atno 10718 bound_to 10713
  153.0615  135.5010  154.8104 H   0  0  0  0  0  0  0  0  0  0  0  0  # atno 10763 bound_to 10752
  154.6889  135.2981  154.9510 H   0  0  0  0  0  0  0  0  0  0  0  0  # atno 10764 bound_to 10752
  154.0271  135.6734  153.4830 H   0  0  0  0  0  0  0  0  0  0  0  0  # atno 10765 bound_to 10752
  140.5010  134.0746  155.7794 H   0  0  0  0  0  0  0  0  0  0  0  0  # atno 11005 bound_to 11000
  145.6052  141.0349  143.1996 LP  0  0  0  0  0  0  0  0  0  0  0  0  # atno 17320 bound_to 7965
  144.7355  139.7599  143.7331 LP  0  0  0  0  0  0  0  0  0  0  0  0  # atno 17321 bound_to 7965
  139.6554  144.7662  151.2066 LP  0  0  0  0  0  0  0  0  0  0  0  0  # atno 17342 bound_to 10162
  140.7553  143.6094  150.8620 LP  0  0  0  0  0  0  0  0  0  0  0  0  # atno 17343 bound_to 10162
  157.0598  131.0086  151.3226 LP  0  0  0  0  0  0  0  0  0  0  0  0  # atno 17370 bound_to 10713
  157.5079  130.7920  149.7673 LP  0  0  0  0  0  0  0  0  0  0  0  0  # atno 17371 bound_to 10713
  141.1435  133.9096  157.2270 LP  0  0  0  0  0  0  0  0  0  0  0  0  # atno 17394 bound_to 11000
  139.9713  135.0127  156.9519 LP  0  0  0  0  0  0  0  0  0  0  0  0  # atno 17395 bound_to 11000

$$$$
