AV-unprocessed.smi:3083|AV-procd|sdf|11745|dock1
  -GOLD-   2272017133D 1   1.00000     0.00000
 Structure written by MMmdl.
 28 29  0  0  0  0  0  0  0  0  2 V2000
  148.7113  142.9037  157.4707 N   0  3  0  0  0  0  0  0  0  0  0  0
  149.5024  141.6747  157.2733 C   0  0  1  0  0  0  0  0  0  0  0  0
  150.0018  141.5622  155.8157 C   0  0  0  0  0  0  0  0  0  0  0  0
  150.8595  140.3041  155.6060 C   0  0  0  0  0  0  0  0  0  0  0  0
  152.0152  140.2327  156.6157 C   0  0  0  0  0  0  0  0  0  0  0  0
  151.4875  140.2819  158.0594 C   0  0  0  0  0  0  0  0  0  0  0  0
  150.6302  141.5355  158.3365 C   0  0  1  0  0  0  0  0  0  0  0  0
  151.4675  142.7226  158.5268 N   0  0  0  0  0  0  0  0  0  0  0  0
  151.5657  143.8129  157.6851 C   0  0  0  0  0  0  0  0  0  0  0  0
  152.4234  144.7065  158.2591 C   0  0  0  0  0  0  0  0  0  0  0  0
  152.7937  144.0794  159.4799 C   0  0  0  0  0  0  0  0  0  0  0  0
  152.2166  142.9001  159.6389 N   0  0  0  0  0  0  0  0  0  0  0  0
  148.8957  143.2720  158.3935 H   0  0  0  0  0  0  0  0  0  0  0  0
  147.7277  142.6915  157.3840 H   0  0  0  0  0  0  0  0  0  0  0  0
  148.8097  140.8473  157.4335 H   0  0  0  0  0  0  0  0  0  0  0  0
  149.1489  141.5315  155.1366 H   0  0  0  0  0  0  0  0  0  0  0  0
  150.5742  142.4425  155.5267 H   0  0  0  0  0  0  0  0  0  0  0  0
  150.2344  139.4158  155.7073 H   0  0  0  0  0  0  0  0  0  0  0  0
  151.2528  140.2887  154.5891 H   0  0  0  0  0  0  0  0  0  0  0  0
  152.5814  139.3134  156.4624 H   0  0  0  0  0  0  0  0  0  0  0  0
  152.7130  141.0522  156.4413 H   0  0  0  0  0  0  0  0  0  0  0  0
  150.8846  139.3913  158.2418 H   0  0  0  0  0  0  0  0  0  0  0  0
  152.3196  140.2293  158.7626 H   0  0  0  0  0  0  0  0  0  0  0  0
  150.1367  141.3739  159.2963 H   0  0  0  0  0  0  0  0  0  0  0  0
  151.0209  143.8632  156.7538 H   0  0  0  0  0  0  0  0  0  0  0  0
  152.7317  145.6659  157.8703 H   0  0  0  0  0  0  0  0  0  0  0  0
  153.4563  144.4444  160.2508 H   0  0  0  0  0  0  0  0  0  0  0  0
  148.9716  143.5893  156.7764 H   0  0  0  0  0  0  0  0  0  0  0  0
  1  2  1  0  0  0  0
  1 13  1  0  0  0  0
  1 14  1  0  0  0  0
  1 28  1  0  0  0  0
  2  7  1  0  0  0  0
  2  3  1  0  0  0  0
  2 15  1  0  0  0  0
  3  4  1  0  0  0  0
  3 16  1  0  0  0  0
  3 17  1  0  0  0  0
  4  5  1  0  0  0  0
  4 18  1  0  0  0  0
  4 19  1  0  0  0  0
  5  6  1  0  0  0  0
  5 20  1  0  0  0  0
  5 21  1  0  0  0  0
  6  7  1  0  0  0  0
  6 22  1  0  0  0  0
  6 23  1  0  0  0  0
  7  8  1  0  0  0  0
  7 24  1  0  0  0  0
  8 12  1  0  0  0  0
  8  9  1  0  0  0  0
  9 10  2  0  0  0  0
  9 25  1  0  0  0  0
 10 11  1  0  0  0  0
 10 26  1  0  0  0  0
 11 12  2  0  0  0  0
 11 27  1  0  0  0  0
M  CHG  1   1   1
M  END
> <s_m_source_file>
AV-unprocessed.smi

> <i_m_source_file_index>
3083

> <i_lp_mmshare_version>
43012

> <i_f3d_flags>
0

> <s_epik_input>
W05IMl1bQ0BASF0xW0NIMl1bQ0gyXVtDSDJdW0NIMl1bQ0BIXTFuMltjSF1bY0hdW2NIXW4y

> <s_epik_cmdline>
J2VwaWtfcHl0aG9uJywgJy1waCcsICc3LjAnLCAnLXRuJywgJzgnLCAnLW1hJywgJzIwMCcsICctbWV0YWxfYmluZGluZycsICctaW1hZScsICc8aW5maWxlLm1hZT4nLCAnLW9tYWUnLCAnPG91dGZpbGUubWFlPic=

> <r_lp_tautomer_probability>
1

> <r_epik_Ionization_Penalty>
0.00385053

> <r_epik_Ionization_Penalty_Charging>
0.0038389

> <r_epik_Ionization_Penalty_Neutral>
1.16305e-05

> <r_epik_State_Penalty>
-0

> <r_epik_Charging_Adjusted_Penalty>
0.0038389

> <i_epik_Tot_Q>
1

> <i_epik_Tot_abs_Q>
1

> <r_epik_Metal_State_Penalty>
-0

> <b_epik_Metal_Only>
0

> <s_lp_Force_Field>
OPLS_2005

> <r_lp_Energy>
16.3847

> <b_lp_Chiralities_Consistent>
1

> <s_lp_Variant>
AV-unprocessed.smi:3083-2

> <Gold.Version>
5.8.1

> <Gold.Id.Protein>
6NUR|6NUR_protein|mol2

> <Gold.PLP.Fitness>
36.4304

> <Gold.PLP.PLP>
-28.0308

> <Gold.PLP.part.hbond>
-1.6523

> <Gold.PLP.part.metal>
0.0000

> <Gold.PLP.part.buried>
-1.9329

> <Gold.PLP.part.nonpolar>
-24.2304

> <Gold.PLP.part.repulsive>
0.0386

> <Gold.PLP.ligand.clash>
0.0000

> <Gold.PLP.ligand.torsion>
0.3326

> <Gold.PLP.Chemscore.Hbond>
2.0000

> <Gold.PLP.Chemscore.CHOScore>
1.0000

> <Gold.PLP.Chemscore.Metal>
0.0000

> <Gold.Chemscore.Hbonds>
donor molecule, donor type, donor heavy atom, donor atom, acceptor molecule, acceptor atom, score
      L1  H     1    28       P1  8028  2.00
      L1  C     9    25       P1  8028  1.00

> <Gold.PLP.Chemscore.Internal.Correction>
0.0648

> <Gold.Rescore>
     Score         DG    S(hbond)    S(metal)    S(lipo)     H(rot)  DE(clash)    DE(int)     intcor
     13.18     -14.52       0.93        0.00      72.50       1.00       0.02       1.33       ----

> <Gold.Chemscore.Fitness>
13.1783

> <Gold.Chemscore.DG>
-14.5228

> <Gold.Chemscore.ZeroCoef>
-5.4800

> <Gold.Chemscore.Hbond>
0.9342

> <Gold.Chemscore.Metal>
0.0000

> <Gold.Chemscore.Lipo>
72.5020

> <Gold.Chemscore.Internal_Hbond>
0.0000

> <Gold.Chemscore.DEClash>
0.0189

> <Gold.Chemscore.DEInternal>
1.3256

> <Gold.Chemscore.Rot>
1.0000

> <Gold.Chemscore.Internal.Correction>
   9.000000E+99

> <Gold.Chemscore.Hbonds>
donor molecule, donor type, donor heavy atom, donor atom, acceptor molecule, acceptor atom, score
      L1  H     1    28       P1  8028  0.73

> <Gold.Chemscore.Hbond.Weighted>
-3.1201

> <Gold.Chemscore.Metal.Weighted>
-0.0000

> <Gold.Chemscore.Lipo.Weighted>
-8.4827

> <Gold.Chemscore.Internal_Hbond.Weighted>
0.0000

> <Gold.Chemscore.DEClash.Weighted>
0.0189

> <Gold.Chemscore.DEInternal.Weighted>
1.3256

> <Gold.Chemscore.Rot.Weighted>
2.5600

> <Gold.Chemscore.Internal.Correction.Weighted>
   9.000000E+99

> <Gold.Protein.RotatedTorsions>
[ 6907 6896 6895 6894 ] final   82.78 input  -60.11 | X-H torsion
[ 7974 7965 7964 7962 ] final -110.43 input  175.53 | X-H torsion
[ 8008 7997 7996 7995 ] final -100.13 input   59.86 | X-H torsion
[ 10167 10162 10161 10158 ] final  137.30 input  -65.29 | X-H torsion
[ 10718 10713 10712 10709 ] final   -2.62 input   66.30 | X-H torsion
[ 10763 10752 10751 10750 ] final   82.70 input  -60.55 | X-H torsion
[ 11005 11000 10999 10996 ] final   44.76 input  -57.11 | X-H torsion

> <Gold.Protein.ActiveResidues>
 VAL166  LYS551  ARG553  GLY616  TRP617  ASP618  TYR619  PRO620  LYS621  CYS622 
 ASP623  PHE694  ASN695  SER759  ASP760  ASP761  ALA762  ILE779  LEU786  VAL792 
 PHE793  MET794  SER795  GLU796  ALA797  LYS798  CYS799  TRP800  GLU811  SER814 

> <Gold.Protein.RotatedAtoms>
  152.5309  134.2997  159.9073 H   0  0  0  0  0  0  0  0  0  0  0  0  # atno 6907 bound_to 6896
  151.2948  133.4142  159.2643 H   0  0  0  0  0  0  0  0  0  0  0  0  # atno 6908 bound_to 6896
  151.0170  134.9456  159.8095 H   0  0  0  0  0  0  0  0  0  0  0  0  # atno 6909 bound_to 6896
  145.1684  140.8913  143.3550 H   0  0  0  0  0  0  0  0  0  0  0  0  # atno 7974 bound_to 7965
  154.8244  140.0443  157.1433 H   0  0  0  0  0  0  0  0  0  0  0  0  # atno 8008 bound_to 7997
  154.9223  140.3028  155.5190 H   0  0  0  0  0  0  0  0  0  0  0  0  # atno 8009 bound_to 7997
  156.2982  140.2338  156.4274 H   0  0  0  0  0  0  0  0  0  0  0  0  # atno 8010 bound_to 7997
  139.5149  144.6417  151.5550 H   0  0  0  0  0  0  0  0  0  0  0  0  # atno 10167 bound_to 10162
  156.7881  130.5353  149.5740 H   0  0  0  0  0  0  0  0  0  0  0  0  # atno 10718 bound_to 10713
  153.1226  135.4718  154.9220 H   0  0  0  0  0  0  0  0  0  0  0  0  # atno 10763 bound_to 10752
  154.7590  135.3126  154.8418 H   0  0  0  0  0  0  0  0  0  0  0  0  # atno 10764 bound_to 10752
  153.8979  135.6878  153.4810 H   0  0  0  0  0  0  0  0  0  0  0  0  # atno 10765 bound_to 10752
  140.1522  134.4447  155.8374 H   0  0  0  0  0  0  0  0  0  0  0  0  # atno 11005 bound_to 11000
  145.0258  139.3384  143.6049 LP  0  0  0  0  0  0  0  0  0  0  0  0  # atno 17320 bound_to 7965
  146.3472  139.9577  142.8721 LP  0  0  0  0  0  0  0  0  0  0  0  0  # atno 17321 bound_to 7965
  140.6186  143.9301  150.6508 LP  0  0  0  0  0  0  0  0  0  0  0  0  # atno 17342 bound_to 10162
  140.2567  143.3554  152.1359 LP  0  0  0  0  0  0  0  0  0  0  0  0  # atno 17343 bound_to 10162
  156.1176  130.6086  151.0144 LP  0  0  0  0  0  0  0  0  0  0  0  0  # atno 17370 bound_to 10713
  157.6614  131.0880  150.7830 LP  0  0  0  0  0  0  0  0  0  0  0  0  # atno 17371 bound_to 10713
  141.2200  133.6877  156.7443 LP  0  0  0  0  0  0  0  0  0  0  0  0  # atno 17394 bound_to 11000
  140.2590  134.8481  157.3741 LP  0  0  0  0  0  0  0  0  0  0  0  0  # atno 17395 bound_to 11000

$$$$
