#       Name:                AV-unprocessed.smi:3219
#       Creating user name   scv26
#       Creation time:       Fri Mar 27 18:13:47 2020


#       File generated by GOLD software.
#

@<TRIPOS>MOLECULE
AV-unprocessed.smi:3219
    42    43     1
SMALL
NO_CHARGES


@<TRIPOS>ATOM
      1 ****        -2.9947   0.2007  -0.5716 C.3            1 S1                 0.0000
      2 ****        -2.8916   0.5254   0.8841 C.2            1 S1                 0.0000
      3 ****        -2.4096  -0.2084   1.9356 C.2            1 S1                 0.0000
      4 ****        -1.8237  -1.5966   1.9425 C.3            1 S1                 0.0000
      5 ****        -0.2882  -1.5781   1.9092 C.3            1 S1                 0.0000
      6 ****         0.2201  -0.9466   0.6751 N.4            1 S1                 1.0000
      7 ****         1.6923  -0.8897   0.5870 C.3            1 S1                 0.0000
      8 ****         2.1538  -0.2196  -0.7199 C.3            1 S1                 0.0000
      9 ****         1.7531  -1.0449  -1.9660 C.3            1 S1                 0.0000
     10 ****         2.4388  -0.5652  -3.2330 C.2            1 S1                 0.0000
     11 ****         3.5005   0.2577  -3.2338 C.2            1 S1                 0.0000
     12 ****         4.1383   0.7953  -1.9668 C.3            1 S1                 0.0000
     13 ****         3.6742   0.0321  -0.7122 C.3            1 S1                 0.0000
     14 ****        -2.5867   0.6521   3.0556 C.2            1 S1                 0.0000
     15 ****        -3.1230   1.8143   2.7305 N.2            1 S1                 0.0000
     16 ****        -3.3146   1.7371   1.3978 N.pl3          1 S1                 0.0000
     17 ****        -3.9053   2.8617   0.6984 C.3            1 S1                 0.0000
     18 ****        -2.5145  -0.7498  -0.8022 H              1 S1                 0.0000
     19 ****        -2.5148   0.9701  -1.1768 H              1 S1                 0.0000
     20 ****        -4.0384   0.1312  -0.8785 H              1 S1                 0.0000
     21 ****        -2.1456  -2.1347   2.8347 H              1 S1                 0.0000
     22 ****        -2.1968  -2.1843   1.1033 H              1 S1                 0.0000
     23 ****         0.0974  -1.0421   2.7776 H              1 S1                 0.0000
     24 ****         0.0918  -2.5988   1.9681 H              1 S1                 0.0000
     25 ****        -0.1287  -1.4652  -0.1182 H              1 S1                 0.0000
     26 ****         2.0662  -0.3274   1.4438 H              1 S1                 0.0000
     27 ****         2.1039  -1.8972   0.6625 H              1 S1                 0.0000
     28 ****         1.6681   0.7556  -0.7870 H              1 S1                 0.0000
     29 ****         2.0096  -2.0961  -1.8290 H              1 S1                 0.0000
     30 ****         0.6739  -0.9985  -2.1154 H              1 S1                 0.0000
     31 ****         2.0410  -0.9280  -4.1696 H              1 S1                 0.0000
     32 ****         3.9353   0.5741  -4.1708 H              1 S1                 0.0000
     33 ****         5.2232   0.7355  -2.0569 H              1 S1                 0.0000
     34 ****         3.8845   1.8524  -1.8823 H              1 S1                 0.0000
     35 ****         3.9668   0.5892   0.1787 H              1 S1                 0.0000
     36 ****         4.1956  -0.9247  -0.6591 H              1 S1                 0.0000
     37 ****        -2.3386   0.4670   4.0904 H              1 S1                 0.0000
     38 ****        -4.8030   2.5356   0.1726 H              1 S1                 0.0000
     39 ****        -3.1927   3.2595  -0.0243 H              1 S1                 0.0000
     40 ****        -4.1764   3.6532   1.3985 H              1 S1                 0.0000
     41 ****        -0.1407  -0.0044   0.6284 H              1 S1                 0.0000
     42 ****        -3.3387   2.5799   3.3366 LP             1 S1                 0.0000
@<TRIPOS>BOND
    1    1    2 1     
    2    1   18 1     
    3    1   19 1     
    4    1   20 1     
    5    2   16 1     
    6    2    3 2     
    7    3    4 1     
    8    3   14 1     
    9    4    5 1     
   10    4   21 1     
   11    4   22 1     
   12    5    6 1     
   13    5   23 1     
   14    5   24 1     
   15    6    7 1     
   16    6   25 1     
   17    6   41 1     
   18    7    8 1     
   19    7   26 1     
   20    7   27 1     
   21    8   13 1     
   22    8    9 1     
   23    8   28 1     
   24    9   10 1     
   25    9   29 1     
   26    9   30 1     
   27   10   11 2     
   28   10   31 1     
   29   11   12 1     
   30   11   32 1     
   31   12   13 1     
   32   12   33 1     
   33   12   34 1     
   34   13   35 1     
   35   13   36 1     
   36   14   15 2     
   37   14   37 1     
   38   15   16 1     
   39   16   17 1     
   40   17   38 1     
   41   17   39 1     
   42   17   40 1     
   43   15   42 1     
@<TRIPOS>SUBSTRUCTURE
      1 S1             1
@<TRIPOS>SET
LONE_PAIRS      STATIC     ATOMS    <user>   **** ""
1 42
DONOR_HYDROGENS      STATIC     ATOMS    <user>   **** ""
2 25 41
ATOM$BLUE        STATIC     ATOMS    COLORGROUP SYSTEM
1 42
ATOM$RED        STATIC     ATOMS    COLORGROUP SYSTEM
2 25 41
