#       Name:                AV-unprocessed.smi:648
#       Creating user name   scv26
#       Creation time:       Fri Mar 27 00:10:22 2020


#       File generated by GOLD software.
#

@<TRIPOS>MOLECULE
AV-unprocessed.smi:648
    50    51     1
SMALL
NO_CHARGES


@<TRIPOS>ATOM
      1 ****        -1.7937  -0.4725  -2.9914 C.3            1 S1                 0.0000
      2 ****        -1.1683   0.2379  -1.7819 C.3            1 S1                 0.0000
      3 ****        -1.5832   1.7191  -1.7333 C.3            1 S1                 0.0000
      4 ****        -0.9773   2.4882  -0.5376 C.3            1 S1                 0.0000
      5 ****         0.5315   2.7466  -0.7548 C.3            1 S1                 0.0000
      6 ****        -1.6594   3.8691  -0.4491 C.3            1 S1                 0.0000
      7 ****        -1.2575   1.7188   0.7855 C.3            1 S1                 0.0000
      8 ****        -0.9379   0.1944   0.7999 C.3            1 S1                 0.0000
      9 ****        -1.5792  -0.3930   2.0937 C.3            1 S1                 0.0000
     10 ****        -1.7826  -1.7924   2.0487 O.3            1 S1                 0.0000
     11 ****         0.5290   0.0438   0.8792 N.3            1 S1                 0.0000
     12 ****         1.0990  -1.3044   0.8458 C.3            1 S1                 0.0000
     13 ****         2.6285  -1.2395   0.9445 C.3            1 S1                 0.0000
     14 ****         3.2277  -2.5557   0.8556 N.pl3          1 S1                 0.0000
     15 ****         3.9159  -3.1304  -0.1320 C.2            1 S1                 0.0000
     16 ****         4.3219  -4.3619   0.1448 N.2            1 S1                 0.0000
     17 ****         3.8140  -4.4910   1.4067 C.2            1 S1                 0.0000
     18 ****         3.1520  -3.4357   1.8814 N.2            1 S1                 0.0000
     19 ****        -1.5465  -0.4685  -0.4677 C.3            1 S1                 0.0000
     20 ****        -2.8830  -0.4575  -2.9421 H              1 S1                 0.0000
     21 ****        -1.4774  -1.5148  -3.0411 H              1 S1                 0.0000
     22 ****        -1.4957   0.0057  -3.9248 H              1 S1                 0.0000
     23 ****        -0.0873   0.1768  -1.9055 H              1 S1                 0.0000
     24 ****        -1.3071   2.2111  -2.6670 H              1 S1                 0.0000
     25 ****        -2.6719   1.7704  -1.6804 H              1 S1                 0.0000
     26 ****         0.9714   3.2560   0.1031 H              1 S1                 0.0000
     27 ****         0.7000   3.3781  -1.6275 H              1 S1                 0.0000
     28 ****         1.1020   1.8348  -0.9185 H              1 S1                 0.0000
     29 ****        -1.2689   4.4521   0.3859 H              1 S1                 0.0000
     30 ****        -2.7372   3.7783  -0.3079 H              1 S1                 0.0000
     31 ****        -1.5005   4.4510  -1.3577 H              1 S1                 0.0000
     32 ****        -0.7515   2.2143   1.6159 H              1 S1                 0.0000
     33 ****        -2.3220   1.8360   0.9943 H              1 S1                 0.0000
     34 ****        -0.9875  -0.1416   2.9752 H              1 S1                 0.0000
     35 ****        -2.5669   0.0378   2.2602 H              1 S1                 0.0000
     36 ****        -2.1834  -2.0643   2.8602 H              1 S1                 0.0000
     37 ****         0.8726   0.5327   1.6994 H              1 S1                 0.0000
     38 ****         0.7192  -1.9044   1.6715 H              1 S1                 0.0000
     39 ****         0.8258  -1.8150  -0.0770 H              1 S1                 0.0000
     40 ****         3.0338  -0.6210   0.1424 H              1 S1                 0.0000
     41 ****         2.9346  -0.7813   1.8860 H              1 S1                 0.0000
     42 ****         4.1241  -2.6393  -1.0713 H              1 S1                 0.0000
     43 ****         3.9370  -5.3895   1.9936 H              1 S1                 0.0000
     44 ****        -2.6338  -0.4541  -0.3762 H              1 S1                 0.0000
     45 ****        -1.2821  -1.5238  -0.5305 H              1 S1                 0.0000
     46 ****        -0.9046  -2.2572   1.9341 LP             1 S1                 0.0000
     47 ****        -2.3833  -2.0213   1.2828 LP             1 S1                 0.0000
     48 ****         0.8420   0.4411   0.0166 LP             1 S1                 0.0000
     49 ****         4.8471  -5.0082  -0.4088 LP             1 S1                 0.0000
     50 ****         2.7105  -3.3227   2.7715 LP             1 S1                 0.0000
@<TRIPOS>BOND
    1    1    2 1     
    2    1   20 1     
    3    1   21 1     
    4    1   22 1     
    5    2   19 1     
    6    2    3 1     
    7    2   23 1     
    8    3    4 1     
    9    3   24 1     
   10    3   25 1     
   11    4    5 1     
   12    4    6 1     
   13    4    7 1     
   14    5   26 1     
   15    5   27 1     
   16    5   28 1     
   17    6   29 1     
   18    6   30 1     
   19    6   31 1     
   20    7    8 1     
   21    7   32 1     
   22    7   33 1     
   23    8    9 1     
   24    8   11 1     
   25    8   19 1     
   26    9   10 1     
   27    9   34 1     
   28    9   35 1     
   29   10   36 1     
   30   11   12 1     
   31   11   37 1     
   32   12   13 1     
   33   12   38 1     
   34   12   39 1     
   35   13   14 1     
   36   13   40 1     
   37   13   41 1     
   38   14   18 1     
   39   14   15 1     
   40   15   16 2     
   41   15   42 1     
   42   16   17 1     
   43   17   18 2     
   44   17   43 1     
   45   19   44 1     
   46   19   45 1     
   47   10   46 1     
   48   10   47 1     
   49   11   48 1     
   50   16   49 1     
   51   18   50 1     
@<TRIPOS>SUBSTRUCTURE
      1 S1             1
@<TRIPOS>SET
LONE_PAIRS      STATIC     ATOMS    <user>   **** ""
5 46 47 48 49 50
DONOR_HYDROGENS      STATIC     ATOMS    <user>   **** ""
2 36 37
ATOM$BLUE        STATIC     ATOMS    COLORGROUP SYSTEM
5 46 47 48 49 50
ATOM$RED        STATIC     ATOMS    COLORGROUP SYSTEM
2 36 37
