AV-unprocessed.smi:1413|AV-procd|sdf|5758|dock10
  -GOLD-   22720 5393D 1   1.00000     0.00000
 Structure written by MMmdl.
 53 55  0  0  0  0  0  0  0  0  1 V2000
  152.0759  144.1662  157.3171 C   0  0  0  0  0  0  0  0  0  0  0  0
  151.2039  143.4762  158.3813 C   0  0  1  0  0  0  0  0  0  0  0  0
  150.4645  142.2309  157.8538 C   0  0  0  0  0  0  0  0  0  0  0  0
  151.3780  141.1008  157.7094 N   0  0  0  0  0  0  0  0  0  0  0  0
  150.8885  140.0097  156.9594 C   0  0  0  0  0  0  0  0  0  0  0  0
  151.5099  139.6480  155.7412 C   0  0  0  0  0  0  0  0  0  0  0  0
  151.0005  138.5603  155.0074 C   0  0  0  0  0  0  0  0  0  0  0  0
  149.8821  137.8593  155.4982 C   0  0  0  0  0  0  0  0  0  0  0  0
  149.4013  136.7587  154.7372 N   0  0  0  0  0  0  0  0  0  0  0  0
  148.8521  135.6108  155.1698 C   0  0  0  0  0  0  0  0  0  0  0  0
  148.6494  135.3156  156.3472 O   0  0  0  0  0  0  0  0  0  0  0  0
  148.5292  134.8134  154.1418 N   0  0  0  0  0  0  0  0  0  0  0  0
  147.8870  133.5059  154.2545 C   0  0  2  0  0  0  0  0  0  0  0  0
  148.9060  132.4006  153.9265 C   0  0  0  0  0  0  0  0  0  0  0  0
  146.6583  133.4632  153.3257 C   0  0  1  0  0  0  0  0  0  0  0  0
  146.9891  133.4416  151.8322 C   0  0  0  0  0  0  0  0  0  0  0  0
  145.7492  132.8025  151.2514 C   0  0  0  0  0  0  0  0  0  0  0  0
  145.4152  131.7543  152.3078 C   0  0  0  0  0  0  0  0  0  0  0  0
  145.9101  132.2674  153.5423 O   0  0  0  0  0  0  0  0  0  0  0  0
  149.3383  138.2802  156.7352 C   0  0  0  0  0  0  0  0  0  0  0  0
  149.8249  139.3221  157.4423 N   0  0  0  0  0  0  0  0  0  0  0  0
  152.1370  140.8176  158.9247 C   0  0  0  0  0  0  0  0  0  0  0  0
  152.8764  142.0802  159.4020 C   0  0  2  0  0  0  0  0  0  0  0  0
  153.5757  141.8592  160.7474 C   0  0  0  0  0  0  0  0  0  0  0  0
  151.9450  143.1501  159.5592 O   0  0  0  0  0  0  0  0  0  0  0  0
  151.4625  144.5253  156.4905 H   0  0  0  0  0  0  0  0  0  0  0  0
  152.8229  143.4945  156.8949 H   0  0  0  0  0  0  0  0  0  0  0  0
  152.5973  145.0257  157.7386 H   0  0  0  0  0  0  0  0  0  0  0  0
  150.4508  144.2020  158.6888 H   0  0  0  0  0  0  0  0  0  0  0  0
  149.6822  141.9455  158.5583 H   0  0  0  0  0  0  0  0  0  0  0  0
  149.9639  142.4780  156.9187 H   0  0  0  0  0  0  0  0  0  0  0  0
  152.3739  140.1792  155.3708 H   0  0  0  0  0  0  0  0  0  0  0  0
  151.4670  138.2709  154.0770 H   0  0  0  0  0  0  0  0  0  0  0  0
  149.4359  136.8799  153.7357 H   0  0  0  0  0  0  0  0  0  0  0  0
  148.7235  135.1410  153.2072 H   0  0  0  0  0  0  0  0  0  0  0  0
  147.5407  133.3672  155.2804 H   0  0  0  0  0  0  0  0  0  0  0  0
  148.4705  131.4090  154.0501 H   0  0  0  0  0  0  0  0  0  0  0  0
  149.7736  132.4545  154.5852 H   0  0  0  0  0  0  0  0  0  0  0  0
  149.2629  132.4821  152.8993 H   0  0  0  0  0  0  0  0  0  0  0  0
  145.9977  134.3073  153.5322 H   0  0  0  0  0  0  0  0  0  0  0  0
  147.1868  134.4332  151.4240 H   0  0  0  0  0  0  0  0  0  0  0  0
  147.8581  132.8112  151.6380 H   0  0  0  0  0  0  0  0  0  0  0  0
  144.9464  133.5377  151.1832 H   0  0  0  0  0  0  0  0  0  0  0  0
  145.9082  132.3757  150.2608 H   0  0  0  0  0  0  0  0  0  0  0  0
  144.3462  131.5481  152.3624 H   0  0  0  0  0  0  0  0  0  0  0  0
  145.9299  130.8173  152.0930 H   0  0  0  0  0  0  0  0  0  0  0  0
  148.5059  137.7762  157.2001 H   0  0  0  0  0  0  0  0  0  0  0  0
  151.4545  140.4633  159.6986 H   0  0  0  0  0  0  0  0  0  0  0  0
  152.8626  140.0239  158.7411 H   0  0  0  0  0  0  0  0  0  0  0  0
  153.6350  142.3576  158.6702 H   0  0  0  0  0  0  0  0  0  0  0  0
  154.3109  141.0569  160.6805 H   0  0  0  0  0  0  0  0  0  0  0  0
  152.8597  141.5940  161.5257 H   0  0  0  0  0  0  0  0  0  0  0  0
  154.0970  142.7614  161.0681 H   0  0  0  0  0  0  0  0  0  0  0  0
  1  2  1  0  0  0  0
  1 26  1  0  0  0  0
  1 27  1  0  0  0  0
  1 28  1  0  0  0  0
  2 25  1  0  0  0  0
  2  3  1  0  0  0  0
  2 29  1  0  0  0  0
  3  4  1  0  0  0  0
  3 30  1  0  0  0  0
  3 31  1  0  0  0  0
  4  5  1  0  0  0  0
  4 22  1  0  0  0  0
  5 21  1  0  0  0  0
  5  6  2  0  0  0  0
  6  7  1  0  0  0  0
  6 32  1  0  0  0  0
  7  8  2  0  0  0  0
  7 33  1  0  0  0  0
  8  9  1  0  0  0  0
  8 20  1  0  0  0  0
  9 10  1  0  0  0  0
  9 34  1  0  0  0  0
 10 11  2  0  0  0  0
 10 12  1  0  0  0  0
 12 13  1  0  0  0  0
 12 35  1  0  0  0  0
 13 14  1  0  0  0  0
 13 15  1  0  0  0  0
 13 36  1  0  0  0  0
 14 37  1  0  0  0  0
 14 38  1  0  0  0  0
 14 39  1  0  0  0  0
 15 19  1  0  0  0  0
 15 16  1  0  0  0  0
 15 40  1  0  0  0  0
 16 17  1  0  0  0  0
 16 41  1  0  0  0  0
 16 42  1  0  0  0  0
 17 18  1  0  0  0  0
 17 43  1  0  0  0  0
 17 44  1  0  0  0  0
 18 19  1  0  0  0  0
 18 45  1  0  0  0  0
 18 46  1  0  0  0  0
 20 21  2  0  0  0  0
 20 47  1  0  0  0  0
 22 23  1  0  0  0  0
 22 48  1  0  0  0  0
 22 49  1  0  0  0  0
 23 24  1  0  0  0  0
 23 25  1  0  0  0  0
 23 50  1  0  0  0  0
 24 51  1  0  0  0  0
 24 52  1  0  0  0  0
 24 53  1  0  0  0  0
M  END
> <s_m_source_file>
AV-unprocessed.smi

> <i_m_source_file_index>
1413

> <i_lp_mmshare_version>
43012

> <i_f3d_flags>
0

> <s_epik_input>
W0NIM11bQ0BASF0xW0NIMl1OKFtDSDJdW0NASF0oTzEpW0NIM10pYzJbY0hdW2NIXWMoW2NIXW4yKVtOSF1DKD1PKVtOSF1bQ0BIXShbQ0gzXSlbQ0BASF0zW0NIMl1bQ0gyXVtDSDJdTzM=

> <s_epik_cmdline>
J2VwaWtfcHl0aG9uJywgJy1waCcsICc3LjAnLCAnLXRuJywgJzgnLCAnLW1hJywgJzIwMCcsICctbWV0YWxfYmluZGluZycsICctaW1hZScsICc8aW5maWxlLm1hZT4nLCAnLW9tYWUnLCAnPG91dGZpbGUubWFlPic=

> <r_lp_tautomer_probability>
1

> <r_epik_Ionization_Penalty>
0.00271172

> <r_epik_Ionization_Penalty_Charging>
0

> <r_epik_Ionization_Penalty_Neutral>
0.00271172

> <r_epik_State_Penalty>
0.00186503

> <r_epik_Charging_Adjusted_Penalty>
0.00186503

> <i_epik_Tot_Q>
0

> <i_epik_Tot_abs_Q>
0

> <r_epik_Metal_State_Penalty>
-0

> <b_epik_Metal_Only>
0

> <s_lp_Force_Field>
OPLS_2005

> <r_lp_Energy>
37.0266

> <b_lp_Chiralities_Consistent>
1

> <s_lp_Variant>
AV-unprocessed.smi:1413-11

> <Gold.Version>
5.8.1

> <Gold.Id.Protein>
6NUR|6NUR_protein|mol2

> <Gold.PLP.Fitness>
47.2312

> <Gold.PLP.PLP>
-42.1298

> <Gold.PLP.part.hbond>
-2.0000

> <Gold.PLP.part.metal>
0.0000

> <Gold.PLP.part.buried>
-6.8004

> <Gold.PLP.part.nonpolar>
-34.3625

> <Gold.PLP.part.repulsive>
0.1900

> <Gold.PLP.ligand.clash>
0.0000

> <Gold.PLP.ligand.torsion>
0.5880

> <Gold.PLP.Chemscore.Hbond>
1.9760

> <Gold.PLP.Chemscore.CHOScore>
0.0000

> <Gold.PLP.Chemscore.Metal>
0.0000

> <Gold.Chemscore.Hbonds>
donor molecule, donor type, donor heavy atom, donor atom, acceptor molecule, acceptor atom, score
      L1  H     9    34       P1  7948  1.00
      L1  H    12    35       P1  7948  1.00

> <Gold.PLP.Chemscore.Internal.Correction>
0.3495

> <Gold.Rescore>
     Score         DG    S(hbond)    S(metal)    S(lipo)     H(rot)  DE(clash)    DE(int)     intcor
     20.07     -20.91       1.72        0.00     112.23       1.35       0.04       0.79       ----

> <Gold.Chemscore.Fitness>
20.0742

> <Gold.Chemscore.DG>
-20.9132

> <Gold.Chemscore.ZeroCoef>
-5.4800

> <Gold.Chemscore.Hbond>
1.7217

> <Gold.Chemscore.Metal>
0.0000

> <Gold.Chemscore.Lipo>
112.2325

> <Gold.Chemscore.Internal_Hbond>
0.0000

> <Gold.Chemscore.DEClash>
0.0441

> <Gold.Chemscore.DEInternal>
0.7949

> <Gold.Chemscore.Rot>
1.3471

> <Gold.Chemscore.Internal.Correction>
   9.000000E+99

> <Gold.Chemscore.Hbonds>
donor molecule, donor type, donor heavy atom, donor atom, acceptor molecule, acceptor atom, score
      L1  H     9    34       P1  7948  0.83
      L1  H    12    35       P1  7948  0.65

> <Gold.Chemscore.Hbond.Weighted>
-5.7505

> <Gold.Chemscore.Metal.Weighted>
-0.0000

> <Gold.Chemscore.Lipo.Weighted>
-13.1312

> <Gold.Chemscore.Internal_Hbond.Weighted>
0.0000

> <Gold.Chemscore.DEClash.Weighted>
0.0441

> <Gold.Chemscore.DEInternal.Weighted>
0.7949

> <Gold.Chemscore.Rot.Weighted>
3.4485

> <Gold.Chemscore.Internal.Correction.Weighted>
   9.000000E+99

> <Gold.Protein.RotatedTorsions>
[ 6907 6896 6895 6894 ] final   30.70 input  -60.11 | X-H torsion
[ 7974 7965 7964 7962 ] final  -53.39 input  175.53 | X-H torsion
[ 8008 7997 7996 7995 ] final  116.33 input   59.86 | X-H torsion
[ 10167 10162 10161 10158 ] final -116.57 input  -65.29 | X-H torsion
[ 10718 10713 10712 10709 ] final    8.92 input   66.30 | X-H torsion
[ 10763 10752 10751 10750 ] final  162.21 input  -60.55 | X-H torsion
[ 11005 11000 10999 10996 ] final -143.34 input  -57.11 | X-H torsion

> <Gold.Protein.ActiveResidues>
 VAL166  LYS551  ARG553  GLY616  TRP617  ASP618  TYR619  PRO620  LYS621  CYS622 
 ASP623  PHE694  ASN695  SER759  ASP760  ASP761  ALA762  ILE779  LEU786  VAL792 
 PHE793  MET794  SER795  GLU796  ALA797  LYS798  CYS799  TRP800  GLU811  SER814 

> <Gold.Protein.RotatedAtoms>
  152.0497  134.9661  160.0574 H   0  0  0  0  0  0  0  0  0  0  0  0  # atno 6907 bound_to 6896
  152.1067  133.4274  159.4620 H   0  0  0  0  0  0  0  0  0  0  0  0  # atno 6908 bound_to 6896
  150.6841  134.2616  159.4595 H   0  0  0  0  0  0  0  0  0  0  0  0  # atno 6909 bound_to 6896
  145.8973  140.8023  142.9761 H   0  0  0  0  0  0  0  0  0  0  0  0  # atno 7974 bound_to 7965
  156.2433  140.2920  156.0506 H   0  0  0  0  0  0  0  0  0  0  0  0  # atno 8008 bound_to 7997
  155.1885  140.0406  157.2913 H   0  0  0  0  0  0  0  0  0  0  0  0  # atno 8009 bound_to 7997
  154.6211  140.2476  155.7556 H   0  0  0  0  0  0  0  0  0  0  0  0  # atno 8010 bound_to 7997
  140.0777  143.4817  152.1943 H   0  0  0  0  0  0  0  0  0  0  0  0  # atno 10167 bound_to 10162
  156.9587  130.5924  149.5661 H   0  0  0  0  0  0  0  0  0  0  0  0  # atno 10718 bound_to 10713
  154.2749  135.2764  155.2722 H   0  0  0  0  0  0  0  0  0  0  0  0  # atno 10763 bound_to 10752
  154.5269  135.5740  153.6730 H   0  0  0  0  0  0  0  0  0  0  0  0  # atno 10764 bound_to 10752
  152.9939  135.6218  154.2906 H   0  0  0  0  0  0  0  0  0  0  0  0  # atno 10765 bound_to 10752
  140.8135  134.2717  157.4931 H   0  0  0  0  0  0  0  0  0  0  0  0  # atno 11005 bound_to 11000
  144.6733  140.1622  143.7421 LP  0  0  0  0  0  0  0  0  0  0  0  0  # atno 17320 bound_to 7965
  145.8834  139.2336  143.1591 LP  0  0  0  0  0  0  0  0  0  0  0  0  # atno 17321 bound_to 7965
  139.5798  144.7505  151.3670 LP  0  0  0  0  0  0  0  0  0  0  0  0  # atno 17342 bound_to 10162
  140.7093  143.7431  150.7538 LP  0  0  0  0  0  0  0  0  0  0  0  0  # atno 17343 bound_to 10162
  156.0331  130.5421  150.8586 LP  0  0  0  0  0  0  0  0  0  0  0  0  # atno 17370 bound_to 10713
  157.5672  131.0946  150.9471 LP  0  0  0  0  0  0  0  0  0  0  0  0  # atno 17371 bound_to 10713
  139.8712  134.9496  156.4030 LP  0  0  0  0  0  0  0  0  0  0  0  0  # atno 17394 bound_to 11000
  140.9174  133.7669  155.9864 LP  0  0  0  0  0  0  0  0  0  0  0  0  # atno 17395 bound_to 11000

$$$$
