AV-unprocessed.smi:522|AV-procd|sdf|2801|dock2
  -GOLD-   2262023273D 1   1.00000     0.00000
 Structure written by MMmdl.
 41 42  0  0  0  0  0  0  0  0  1 V2000
  148.5014  140.9729  154.1775 C   0  0  0  0  0  0  0  0  0  0  0  0
  149.8858  140.6715  154.1771 O   0  0  0  0  0  0  0  0  0  0  0  0
  150.2875  139.9998  155.3603 C   0  0  0  0  0  0  0  0  0  0  0  0
  149.7989  140.7661  156.5968 C   0  0  0  0  0  0  0  0  0  0  0  0
  150.7134  140.6290  157.7209 N   0  0  0  0  0  0  0  0  0  0  0  0
  151.1209  139.4936  158.3409 C   0  0  0  0  0  0  0  0  0  0  0  0
  150.5568  137.8992  157.8254 S   0  0  0  0  0  0  0  0  0  0  0  0
  149.3395  137.5555  159.1334 C   0  0  0  0  0  0  0  0  0  0  0  0
  149.0512  136.0570  159.2504 C   0  0  0  0  0  0  0  0  0  0  0  0
  149.5244  135.3169  158.3873 O   0  0  0  0  0  0  0  0  0  0  0  0
  148.2182  135.6011  160.3975 C   0  0  0  0  0  0  0  0  0  0  0  0
  147.7879  136.5182  161.4049 C   0  0  0  0  0  0  0  0  0  0  0  0
  147.4409  137.2748  162.2098 N   0  0  0  0  0  0  0  0  0  0  0  0
  147.8268  134.3065  160.5401 C   0  0  0  0  0  0  0  0  0  0  0  0
  146.9765  133.8456  161.7143 C   0  0  0  0  0  0  0  0  0  0  0  0
  148.1332  133.2693  159.6744 N   0  0  0  0  0  0  0  0  0  0  0  0
  151.9792  139.6666  159.3478 N   0  0  0  0  0  0  0  0  0  0  0  0
  152.1250  141.0384  159.3974 C   0  0  0  0  0  0  0  0  0  0  0  0
  152.8965  141.8503  160.2592 C   0  0  0  0  0  0  0  0  0  0  0  0
  152.8853  143.2534  160.1168 C   0  0  0  0  0  0  0  0  0  0  0  0
  152.1059  143.8629  159.1122 C   0  0  0  0  0  0  0  0  0  0  0  0
  151.3309  143.0715  158.2426 C   0  0  0  0  0  0  0  0  0  0  0  0
  151.3450  141.6716  158.3903 C   0  0  0  0  0  0  0  0  0  0  0  0
  148.2372  141.5001  153.2624 H   0  0  0  0  0  0  0  0  0  0  0  0
  148.2369  141.6132  155.0196 H   0  0  0  0  0  0  0  0  0  0  0  0
  147.9006  140.0637  154.2253 H   0  0  0  0  0  0  0  0  0  0  0  0
  149.8786  138.9884  155.3710 H   0  0  0  0  0  0  0  0  0  0  0  0
  151.3748  139.9103  155.3863 H   0  0  0  0  0  0  0  0  0  0  0  0
  149.6572  141.8204  156.3609 H   0  0  0  0  0  0  0  0  0  0  0  0
  148.8213  140.3913  156.9014 H   0  0  0  0  0  0  0  0  0  0  0  0
  149.7304  137.9206  160.0831 H   0  0  0  0  0  0  0  0  0  0  0  0
  148.4170  138.1039  158.9431 H   0  0  0  0  0  0  0  0  0  0  0  0
  147.4924  134.0375  162.6558 H   0  0  0  0  0  0  0  0  0  0  0  0
  146.7574  132.7777  161.6678 H   0  0  0  0  0  0  0  0  0  0  0  0
  146.0256  134.3796  161.7290 H   0  0  0  0  0  0  0  0  0  0  0  0
  148.6913  133.4107  158.8445 H   0  0  0  0  0  0  0  0  0  0  0  0
  147.7977  132.3291  159.8343 H   0  0  0  0  0  0  0  0  0  0  0  0
  153.4972  141.3931  161.0313 H   0  0  0  0  0  0  0  0  0  0  0  0
  153.4778  143.8648  160.7814 H   0  0  0  0  0  0  0  0  0  0  0  0
  152.1032  144.9383  159.0100 H   0  0  0  0  0  0  0  0  0  0  0  0
  150.7322  143.5347  157.4724 H   0  0  0  0  0  0  0  0  0  0  0  0
  1  2  1  0  0  0  0
  1 24  1  0  0  0  0
  1 25  1  0  0  0  0
  1 26  1  0  0  0  0
  2  3  1  0  0  0  0
  3  4  1  0  0  0  0
  3 27  1  0  0  0  0
  3 28  1  0  0  0  0
  4  5  1  0  0  0  0
  4 29  1  0  0  0  0
  4 30  1  0  0  0  0
  5 23  1  0  0  0  0
  5  6  1  0  0  0  0
  6  7  1  0  0  0  0
  6 17  2  0  0  0  0
  7  8  1  0  0  0  0
  8  9  1  0  0  0  0
  8 31  1  0  0  0  0
  8 32  1  0  0  0  0
  9 10  2  0  0  0  0
  9 11  1  0  0  0  0
 11 12  1  0  0  0  0
 11 14  2  0  0  0  0
 12 13  3  0  0  0  0
 14 15  1  0  0  0  0
 14 16  1  0  0  0  0
 15 33  1  0  0  0  0
 15 34  1  0  0  0  0
 15 35  1  0  0  0  0
 16 36  1  0  0  0  0
 16 37  1  0  0  0  0
 17 18  1  0  0  0  0
 18 23  2  0  0  0  0
 18 19  1  0  0  0  0
 19 20  2  0  0  0  0
 19 38  1  0  0  0  0
 20 21  1  0  0  0  0
 20 39  1  0  0  0  0
 21 22  2  0  0  0  0
 21 40  1  0  0  0  0
 22 23  1  0  0  0  0
 22 41  1  0  0  0  0
M  END
> <s_m_source_file>
AV-unprocessed.smi

> <i_m_source_file_index>
522

> <i_lp_mmshare_version>
43012

> <i_f3d_flags>
0

> <s_epik_input>
W2NIXTFbY0hdW2NIXVtjSF1jKGMxMiluKFtDSDJdW0NIMl1PW0NIM10pYyhuMilTW0NIMl1DKD1PKS9DKEMjTik9QygvW0NIM10pW05IMl0=

> <s_epik_cmdline>
J2VwaWtfcHl0aG9uJywgJy1waCcsICc3LjAnLCAnLXRuJywgJzgnLCAnLW1hJywgJzIwMCcsICctbWV0YWxfYmluZGluZycsICctaW1hZScsICc8aW5maWxlLm1hZT4nLCAnLW9tYWUnLCAnPG91dGZpbGUubWFlPic=

> <r_lp_tautomer_probability>
0.5

> <r_epik_Ionization_Penalty>
0.0129021

> <r_epik_Ionization_Penalty_Charging>
0

> <r_epik_Ionization_Penalty_Neutral>
0.0129021

> <r_epik_State_Penalty>
0.42069

> <r_epik_Charging_Adjusted_Penalty>
0.42069

> <i_epik_Tot_Q>
0

> <i_epik_Tot_abs_Q>
0

> <r_epik_Metal_State_Penalty>
0.41068

> <b_epik_Metal_Only>
0

> <s_lp_Force_Field>
OPLS_2005

> <r_lp_Energy>
14.5632

> <b_lp_Chiralities_Consistent>
1

> <s_lp_Variant>
AV-unprocessed.smi:522-1

> <Gold.Version>
5.8.1

> <Gold.Id.Protein>
6NUR|6NUR_protein|mol2

> <Gold.PLP.Fitness>
50.3926

> <Gold.PLP.PLP>
-43.2190

> <Gold.PLP.part.hbond>
-3.9459

> <Gold.PLP.part.metal>
0.0000

> <Gold.PLP.part.buried>
-3.9268

> <Gold.PLP.part.nonpolar>
-36.7207

> <Gold.PLP.part.repulsive>
0.7870

> <Gold.PLP.ligand.clash>
0.0000

> <Gold.PLP.ligand.torsion>
0.6318

> <Gold.PLP.Chemscore.Hbond>
2.7376

> <Gold.PLP.Chemscore.CHOScore>
0.0000

> <Gold.PLP.Chemscore.Metal>
0.0000

> <Gold.Chemscore.Hbonds>
donor molecule, donor type, donor heavy atom, donor atom, acceptor molecule, acceptor atom, score
      P1  H  6896  6907       L1    10  0.99
      P1  H  6931  6943       L1    13  0.42
      P1  H  6934  6947       L1    13  0.41
      P1  H  7989  7998       L1     2  0.54

> <Gold.PLP.Chemscore.Internal.Correction>
0.2244

> <Gold.Rescore>
     Score         DG    S(hbond)    S(metal)    S(lipo)     H(rot)  DE(clash)    DE(int)     intcor
     18.92     -19.70       2.45        0.00     102.62       2.33       0.05       0.72       ----

> <Gold.Chemscore.Fitness>
18.9206

> <Gold.Chemscore.DG>
-19.6954

> <Gold.Chemscore.ZeroCoef>
-5.4800

> <Gold.Chemscore.Hbond>
2.4458

> <Gold.Chemscore.Metal>
0.0000

> <Gold.Chemscore.Lipo>
102.6181

> <Gold.Chemscore.Internal_Hbond>
0.0000

> <Gold.Chemscore.DEClash>
0.0521

> <Gold.Chemscore.DEInternal>
0.7226

> <Gold.Chemscore.Rot>
2.3280

> <Gold.Chemscore.Internal.Correction>
   9.000000E+99

> <Gold.Chemscore.Hbonds>
donor molecule, donor type, donor heavy atom, donor atom, acceptor molecule, acceptor atom, score
      P1  H  6896  6907       L1    10  0.28
      P1  H  6931  6943       L1    13  0.02
      P1  H  6934  6947       L1    13  0.10
      P1  H  7989  7998       L1     2  0.08

> <Gold.Chemscore.Hbond.Weighted>
-8.1688

> <Gold.Chemscore.Metal.Weighted>
-0.0000

> <Gold.Chemscore.Lipo.Weighted>
-12.0063

> <Gold.Chemscore.Internal_Hbond.Weighted>
0.0000

> <Gold.Chemscore.DEClash.Weighted>
0.0521

> <Gold.Chemscore.DEInternal.Weighted>
0.7226

> <Gold.Chemscore.Rot.Weighted>
5.9598

> <Gold.Chemscore.Internal.Correction.Weighted>
   9.000000E+99

> <Gold.Protein.RotatedTorsions>
[ 6907 6896 6895 6894 ] final  -92.57 input  -60.11 | X-H torsion
[ 7974 7965 7964 7962 ] final  -55.76 input  175.53 | X-H torsion
[ 8008 7997 7996 7995 ] final  -34.71 input   59.86 | X-H torsion
[ 10167 10162 10161 10158 ] final -106.31 input  -65.29 | X-H torsion
[ 10718 10713 10712 10709 ] final  -79.20 input   66.30 | X-H torsion
[ 10763 10752 10751 10750 ] final -152.83 input  -60.55 | X-H torsion
[ 11005 11000 10999 10996 ] final -124.28 input  -57.11 | X-H torsion

> <Gold.Protein.ActiveResidues>
 VAL166  LYS551  ARG553  GLY616  TRP617  ASP618  TYR619  PRO620  LYS621  CYS622 
 ASP623  PHE694  ASN695  SER759  ASP760  ASP761  ALA762  ILE779  LEU786  VAL792 
 PHE793  MET794  SER795  GLU796  ALA797  LYS798  CYS799  TRP800  GLU811  SER814 

> <Gold.Protein.RotatedAtoms>
  150.6908  134.2101  159.4355 H   0  0  0  0  0  0  0  0  0  0  0  0  # atno 6907 bound_to 6896
  152.0063  134.9898  160.0576 H   0  0  0  0  0  0  0  0  0  0  0  0  # atno 6908 bound_to 6896
  152.1531  133.4499  159.4860 H   0  0  0  0  0  0  0  0  0  0  0  0  # atno 6909 bound_to 6896
  145.8705  140.8220  142.9891 H   0  0  0  0  0  0  0  0  0  0  0  0  # atno 7974 bound_to 7965
  154.4113  140.1676  156.2094 H   0  0  0  0  0  0  0  0  0  0  0  0  # atno 8008 bound_to 7997
  155.9457  140.3405  155.6341 H   0  0  0  0  0  0  0  0  0  0  0  0  # atno 8009 bound_to 7997
  155.6933  140.0736  157.2430 H   0  0  0  0  0  0  0  0  0  0  0  0  # atno 8010 bound_to 7997
  140.1892  143.3905  152.1220 H   0  0  0  0  0  0  0  0  0  0  0  0  # atno 10167 bound_to 10162
  156.0098  130.4539  150.3612 H   0  0  0  0  0  0  0  0  0  0  0  0  # atno 10718 bound_to 10713
  154.7968  135.3227  154.7647 H   0  0  0  0  0  0  0  0  0  0  0  0  # atno 10763 bound_to 10752
  153.8324  135.6878  153.4817 H   0  0  0  0  0  0  0  0  0  0  0  0  # atno 10764 bound_to 10752
  153.1663  135.4640  154.9784 H   0  0  0  0  0  0  0  0  0  0  0  0  # atno 10765 bound_to 10752
  140.9854  134.0615  157.3717 H   0  0  0  0  0  0  0  0  0  0  0  0  # atno 11005 bound_to 11000
  144.6726  140.1231  143.7448 LP  0  0  0  0  0  0  0  0  0  0  0  0  # atno 17320 bound_to 7965
  145.9143  139.2506  143.1419 LP  0  0  0  0  0  0  0  0  0  0  0  0  # atno 17321 bound_to 7965
  139.5263  144.7106  151.5217 LP  0  0  0  0  0  0  0  0  0  0  0  0  # atno 17342 bound_to 10162
  140.6467  143.8779  150.6745 LP  0  0  0  0  0  0  0  0  0  0  0  0  # atno 17343 bound_to 10162
  157.1701  131.0366  151.2799 LP  0  0  0  0  0  0  0  0  0  0  0  0  # atno 17370 bound_to 10713
  157.4236  130.7451  149.6933 LP  0  0  0  0  0  0  0  0  0  0  0  0  # atno 17371 bound_to 10713
  139.8968  135.0147  156.7069 LP  0  0  0  0  0  0  0  0  0  0  0  0  # atno 17394 bound_to 11000
  140.7123  133.9212  155.8092 LP  0  0  0  0  0  0  0  0  0  0  0  0  # atno 17395 bound_to 11000

$$$$
