#       Name:                AV-unprocessed.smi:651
#       Creating user name   scv26
#       Creation time:       Fri Mar 27 00:11:19 2020


#       File generated by GOLD software.
#

@<TRIPOS>MOLECULE
AV-unprocessed.smi:651
    43    44     1
SMALL
NO_CHARGES


@<TRIPOS>ATOM
      1 ****        -4.0415   4.2578   0.9465 C.3            1 S1                 0.0000
      2 ****        -3.4532   2.8625   0.9205 C.ar           1 S1                 0.0000
      3 ****        -3.4979   2.0813  -0.2534 C.ar           1 S1                 0.0000
      4 ****        -2.9341   0.7917  -0.2225 C.ar           1 S1                 0.0000
      5 ****        -2.3469   0.3338   0.9753 C.ar           1 S1                 0.0000
      6 ****        -1.7233  -1.0483   1.0618 C.3            1 S1                 0.0000
      7 ****        -0.2102  -0.9745   0.8505 C.2            1 S1                 0.0000
      8 ****         0.5509  -1.2328   1.7822 O.2            1 S1                 0.0000
      9 ****         0.2043  -0.6277  -0.3810 N.am           1 S1                 0.0000
     10 ****         1.5833  -0.4761  -0.8545 C.3            1 S1                 0.0000
     11 ****         2.4131   0.5468  -0.0497 C.3            1 S1                 0.0000
     12 ****         3.5766  -0.2397   0.5562 C.3            1 S1                 0.0000
     13 ****         3.7968  -1.4087  -0.4016 C.3            1 S1                 0.0000
     14 ****         2.3845  -1.8048  -0.8576 C.3            1 S1                 0.0000
     15 ****         2.3675  -2.5171  -2.2184 C.2            1 S1                 0.0000
     16 ****         1.8473  -3.7465  -2.2533 N.am           1 S1                 0.0000
     17 ****         2.8157  -1.9692  -3.2241 O.2            1 S1                 0.0000
     18 ****        -2.3544   1.1950   2.0935 C.ar           1 S1                 0.0000
     19 ****        -2.8930   2.4333   2.0729 N.ar           1 S1                 0.0000
     20 ****        -4.6754   4.4338   0.0770 H              1 S1                 0.0000
     21 ****        -3.2451   5.0024   0.9459 H              1 S1                 0.0000
     22 ****        -4.6477   4.4029   1.8413 H              1 S1                 0.0000
     23 ****        -3.9521   2.4587  -1.1579 H              1 S1                 0.0000
     24 ****        -2.9502   0.1685  -1.1045 H              1 S1                 0.0000
     25 ****        -1.9414  -1.4866   2.0368 H              1 S1                 0.0000
     26 ****        -2.1645  -1.7078   0.3136 H              1 S1                 0.0000
     27 ****        -0.5148  -0.4374  -1.0639 H              1 S1                 0.0000
     28 ****         1.4965  -0.0876  -1.8706 H              1 S1                 0.0000
     29 ****         2.8056   1.3046  -0.7290 H              1 S1                 0.0000
     30 ****         1.8397   1.0743   0.7135 H              1 S1                 0.0000
     31 ****         4.4707   0.3703   0.6868 H              1 S1                 0.0000
     32 ****         3.2905  -0.6215   1.5370 H              1 S1                 0.0000
     33 ****         4.4063  -1.0780  -1.2442 H              1 S1                 0.0000
     34 ****         4.3210  -2.2340   0.0810 H              1 S1                 0.0000
     35 ****         1.9835  -2.4819  -0.1019 H              1 S1                 0.0000
     36 ****         1.8106  -4.2546  -3.1251 H              1 S1                 0.0000
     37 ****         1.4889  -4.1627  -1.4059 H              1 S1                 0.0000
     38 ****        -1.9151   0.8829   3.0295 H              1 S1                 0.0000
     39 ****         0.1798  -1.4901   2.6744 LP             1 S1                 0.0000
     40 ****         1.5406  -1.1854   1.6472 LP             1 S1                 0.0000
     41 ****         3.1981  -1.0473  -3.1628 LP             1 S1                 0.0000
     42 ****         2.7977  -2.4457  -4.1031 LP             1 S1                 0.0000
     43 ****        -2.8777   3.0151   2.8861 LP             1 S1                 0.0000
@<TRIPOS>BOND
    1    1    2 1     
    2    1   20 1     
    3    1   21 1     
    4    1   22 1     
    5    2   19 ar    
    6    2    3 ar    
    7    3    4 ar    
    8    3   23 1     
    9    4    5 ar    
   10    4   24 1     
   11    5    6 1     
   12    5   18 ar    
   13    6    7 1     
   14    6   25 1     
   15    6   26 1     
   16    7    8 2     
   17    7    9 am    
   18    9   10 1     
   19    9   27 1     
   20   10   14 1     
   21   10   11 1     
   22   10   28 1     
   23   11   12 1     
   24   11   29 1     
   25   11   30 1     
   26   12   13 1     
   27   12   31 1     
   28   12   32 1     
   29   13   14 1     
   30   13   33 1     
   31   13   34 1     
   32   14   15 1     
   33   14   35 1     
   34   15   16 am    
   35   15   17 2     
   36   16   36 1     
   37   16   37 1     
   38   18   19 ar    
   39   18   38 1     
   40    8   39 1     
   41    8   40 1     
   42   17   41 1     
   43   17   42 1     
   44   19   43 1     
@<TRIPOS>SUBSTRUCTURE
      1 S1             1
@<TRIPOS>SET
LONE_PAIRS      STATIC     ATOMS    <user>   **** ""
5 39 40 41 42 43
DONOR_HYDROGENS      STATIC     ATOMS    <user>   **** ""
3 27 36 37
ATOM$BLUE        STATIC     ATOMS    COLORGROUP SYSTEM
5 39 40 41 42 43
ATOM$RED        STATIC     ATOMS    COLORGROUP SYSTEM
3 27 36 37
