AV-unprocessed.smi:1952|AV-procd|sdf|7887|dock8
  -GOLD-   2272010 43D 1   1.00000     0.00000
 Structure written by MMmdl.
 38 39  0  0  0  0  0  0  0  0  2 V2000
  145.5381  134.0102  162.1233 C   0  0  0  0  0  0  0  0  0  0  0  0
  146.6121  134.2267  161.1126 C   0  0  0  0  0  0  0  0  0  0  0  0
  147.4603  135.2696  160.8702 C   0  0  0  0  0  0  0  0  0  0  0  0
  148.2205  134.8187  159.7566 C   0  0  0  0  0  0  0  0  0  0  0  0
  149.2059  135.4962  159.1479 N   0  5  0  0  0  0  0  0  0  0  0  0
  149.2075  136.8494  159.1559 C   0  0  0  0  0  0  0  0  0  0  0  0
  148.3503  137.5774  159.6620 O   0  0  0  0  0  0  0  0  0  0  0  0
  150.2690  137.3912  158.5410 N   0  0  0  0  0  0  0  0  0  0  0  0
  150.5591  138.8186  158.4118 C   0  0  2  0  0  0  0  0  0  0  0  0
  149.5371  139.4785  157.4740 C   0  0  0  0  0  0  0  0  0  0  0  0
  152.0005  139.0189  157.8995 C   0  0  0  0  0  0  0  0  0  0  0  0
  152.6687  140.2432  158.3449 N   0  0  0  0  0  0  0  0  0  0  0  0
  153.0588  140.1983  159.7522 C   0  0  0  0  0  0  0  0  0  0  0  0
  153.7409  141.5030  160.1994 C   0  0  0  0  0  0  0  0  0  0  0  0
  152.8803  142.6081  159.9423 O   0  0  0  0  0  0  0  0  0  0  0  0
  152.5185  142.7118  158.5692 C   0  0  0  0  0  0  0  0  0  0  0  0
  151.8271  141.4130  158.1207 C   0  0  0  0  0  0  0  0  0  0  0  0
  147.8761  133.6020  159.3690 N   0  0  0  0  0  0  0  0  0  0  0  0
  146.8399  133.2182  160.2288 O   0  0  0  0  0  0  0  0  0  0  0  0
  145.9350  134.1085  163.1338 H   0  0  0  0  0  0  0  0  0  0  0  0
  145.1011  133.0159  162.0276 H   0  0  0  0  0  0  0  0  0  0  0  0
  144.7404  134.7427  162.0003 H   0  0  0  0  0  0  0  0  0  0  0  0
  147.5242  136.2081  161.3998 H   0  0  0  0  0  0  0  0  0  0  0  0
  150.9461  136.7555  158.1459 H   0  0  0  0  0  0  0  0  0  0  0  0
  150.4670  139.3008  159.3856 H   0  0  0  0  0  0  0  0  0  0  0  0
  149.7340  140.5458  157.3703 H   0  0  0  0  0  0  0  0  0  0  0  0
  148.5219  139.3677  157.8570 H   0  0  0  0  0  0  0  0  0  0  0  0
  149.5671  139.0353  156.4781 H   0  0  0  0  0  0  0  0  0  0  0  0
  152.5910  138.1619  158.2269 H   0  0  0  0  0  0  0  0  0  0  0  0
  152.0023  138.9804  156.8092 H   0  0  0  0  0  0  0  0  0  0  0  0
  152.1812  140.0157  160.3742 H   0  0  0  0  0  0  0  0  0  0  0  0
  153.7472  139.3723  159.9286 H   0  0  0  0  0  0  0  0  0  0  0  0
  153.9676  141.4666  161.2650 H   0  0  0  0  0  0  0  0  0  0  0  0
  154.6877  141.6411  159.6748 H   0  0  0  0  0  0  0  0  0  0  0  0
  151.8495  143.5625  158.4389 H   0  0  0  0  0  0  0  0  0  0  0  0
  153.4062  142.9055  157.9649 H   0  0  0  0  0  0  0  0  0  0  0  0
  151.5719  141.4884  157.0632 H   0  0  0  0  0  0  0  0  0  0  0  0
  150.8861  141.3011  158.6618 H   0  0  0  0  0  0  0  0  0  0  0  0
  1  2  1  0  0  0  0
  1 20  1  0  0  0  0
  1 21  1  0  0  0  0
  1 22  1  0  0  0  0
  2 19  1  0  0  0  0
  2  3  2  0  0  0  0
  3  4  1  0  0  0  0
  3 23  1  0  0  0  0
  4  5  1  0  0  0  0
  4 18  2  0  0  0  0
  5  6  1  0  0  0  0
  6  7  2  0  0  0  0
  6  8  1  0  0  0  0
  8  9  1  0  0  0  0
  8 24  1  0  0  0  0
  9 10  1  0  0  0  0
  9 11  1  0  0  0  0
  9 25  1  0  0  0  0
 10 26  1  0  0  0  0
 10 27  1  0  0  0  0
 10 28  1  0  0  0  0
 11 12  1  0  0  0  0
 11 29  1  0  0  0  0
 11 30  1  0  0  0  0
 12 17  1  0  0  0  0
 12 13  1  0  0  0  0
 13 14  1  0  0  0  0
 13 31  1  0  0  0  0
 13 32  1  0  0  0  0
 14 15  1  0  0  0  0
 14 33  1  0  0  0  0
 14 34  1  0  0  0  0
 15 16  1  0  0  0  0
 16 17  1  0  0  0  0
 16 35  1  0  0  0  0
 16 36  1  0  0  0  0
 17 37  1  0  0  0  0
 17 38  1  0  0  0  0
 18 19  1  0  0  0  0
M  CHG  1   5  -1
M  END
> <s_m_source_file>
AV-unprocessed.smi

> <i_m_source_file_index>
1952

> <i_lp_mmshare_version>
43012

> <i_f3d_flags>
0

> <s_epik_input>
W0NIM11jMVtjSF1jKG5vMSlbTkhdQyg9TylbTkhdW0NASF0oW0NIM10pW0NIMl1OMltDSDJdW0NIMl1PW0NIMl1bQ0gyXTI=

> <s_epik_cmdline>
J2VwaWtfcHl0aG9uJywgJy1waCcsICc3LjAnLCAnLXRuJywgJzgnLCAnLW1hJywgJzIwMCcsICctbWV0YWxfYmluZGluZycsICctaW1hZScsICc8aW5maWxlLm1hZT4nLCAnLW9tYWUnLCAnPG91dGZpbGUubWFlPic=

> <r_epik_Ionization_Penalty>
6.81701

> <r_epik_Ionization_Penalty_Charging>
6.50532

> <r_epik_Ionization_Penalty_Neutral>
0.311686

> <r_epik_State_Penalty>
6.70952

> <r_epik_Charging_Adjusted_Penalty>
13.2148

> <i_epik_Tot_Q>
-1

> <i_epik_Tot_abs_Q>
1

> <r_epik_Metal_State_Penalty>
2.64135

> <b_epik_Metal_Only>
1

> <s_lp_Force_Field>
OPLS_2005

> <r_lp_Energy>
18.9741

> <b_lp_Chiralities_Consistent>
1

> <s_lp_Variant>
AV-unprocessed.smi:1952-5

> <Gold.Version>
5.8.1

> <Gold.Id.Protein>
6NUR|6NUR_protein|mol2

> <Gold.PLP.Fitness>
35.8857

> <Gold.PLP.PLP>
-28.6801

> <Gold.PLP.part.hbond>
-3.3215

> <Gold.PLP.part.metal>
0.0000

> <Gold.PLP.part.buried>
-3.9908

> <Gold.PLP.part.nonpolar>
-20.6900

> <Gold.PLP.part.repulsive>
0.1507

> <Gold.PLP.ligand.clash>
0.0000

> <Gold.PLP.ligand.torsion>
0.6790

> <Gold.PLP.Chemscore.Hbond>
2.8359

> <Gold.PLP.Chemscore.CHOScore>
0.0000

> <Gold.PLP.Chemscore.Metal>
0.0000

> <Gold.Chemscore.Hbonds>
donor molecule, donor type, donor heavy atom, donor atom, acceptor molecule, acceptor atom, score
      P1  H  6896  6907       L1     5  2.00
      P1  H  6931  6943       L1     7  0.01
      P1  H  6934  6947       L1     7  0.22
      P1  H  7997  8008       L1    12  0.22

> <Gold.PLP.Chemscore.Internal.Correction>
0.0559

> <Gold.Rescore>
     Score         DG    S(hbond)    S(metal)    S(lipo)     H(rot)  DE(clash)    DE(int)     intcor
     13.39     -15.66       1.78        0.00      69.72       1.53       0.15       2.11       ----

> <Gold.Chemscore.Fitness>
13.3921

> <Gold.Chemscore.DG>
-15.6595

> <Gold.Chemscore.ZeroCoef>
-5.4800

> <Gold.Chemscore.Hbond>
1.7793

> <Gold.Chemscore.Metal>
0.0000

> <Gold.Chemscore.Lipo>
69.7240

> <Gold.Chemscore.Internal_Hbond>
0.0000

> <Gold.Chemscore.DEClash>
0.1549

> <Gold.Chemscore.DEInternal>
2.1125

> <Gold.Chemscore.Rot>
1.5317

> <Gold.Chemscore.Internal.Correction>
   9.000000E+99

> <Gold.Chemscore.Hbonds>
donor molecule, donor type, donor heavy atom, donor atom, acceptor molecule, acceptor atom, score
      P1  H  6896  6907       L1     5  0.56
      P1  H  6931  6943       L1     7  0.02
      P1  H  6934  6947       L1     7  0.22
      P1  H  7997  8008       L1    12  0.03

> <Gold.Chemscore.Hbond.Weighted>
-5.9429

> <Gold.Chemscore.Metal.Weighted>
-0.0000

> <Gold.Chemscore.Lipo.Weighted>
-8.1577

> <Gold.Chemscore.Internal_Hbond.Weighted>
0.0000

> <Gold.Chemscore.DEClash.Weighted>
0.1549

> <Gold.Chemscore.DEInternal.Weighted>
2.1125

> <Gold.Chemscore.Rot.Weighted>
3.9211

> <Gold.Chemscore.Internal.Correction.Weighted>
   9.000000E+99

> <Gold.Protein.RotatedTorsions>
[ 6907 6896 6895 6894 ] final  -59.52 input  -60.11 | X-H torsion
[ 7974 7965 7964 7962 ] final -166.16 input  175.53 | X-H torsion
[ 8008 7997 7996 7995 ] final  -79.99 input   59.86 | X-H torsion
[ 10167 10162 10161 10158 ] final  -52.41 input  -65.29 | X-H torsion
[ 10718 10713 10712 10709 ] final  -35.67 input   66.30 | X-H torsion
[ 10763 10752 10751 10750 ] final  -43.07 input  -60.55 | X-H torsion
[ 11005 11000 10999 10996 ] final -143.61 input  -57.11 | X-H torsion

> <Gold.Protein.ActiveResidues>
 VAL166  LYS551  ARG553  GLY616  TRP617  ASP618  TYR619  PRO620  LYS621  CYS622 
 ASP623  PHE694  ASN695  SER759  ASP760  ASP761  ALA762  ILE779  LEU786  VAL792 
 PHE793  MET794  SER795  GLU796  ALA797  LYS798  CYS799  TRP800  GLU811  SER814 

> <Gold.Protein.RotatedAtoms>
  150.7924  134.6958  159.6522 H   0  0  0  0  0  0  0  0  0  0  0  0  # atno 6907 bound_to 6896
  152.4032  134.6248  160.0070 H   0  0  0  0  0  0  0  0  0  0  0  0  # atno 6908 bound_to 6896
  151.6513  133.3284  159.3189 H   0  0  0  0  0  0  0  0  0  0  0  0  # atno 6909 bound_to 6896
  144.7252  140.2707  143.6251 H   0  0  0  0  0  0  0  0  0  0  0  0  # atno 7974 bound_to 7965
  154.5839  140.0670  156.9143 H   0  0  0  0  0  0  0  0  0  0  0  0  # atno 8008 bound_to 7997
  155.2414  140.3345  155.4273 H   0  0  0  0  0  0  0  0  0  0  0  0  # atno 8009 bound_to 7997
  156.2209  140.1798  156.7464 H   0  0  0  0  0  0  0  0  0  0  0  0  # atno 8010 bound_to 7997
  140.6539  143.2585  151.4643 H   0  0  0  0  0  0  0  0  0  0  0  0  # atno 10167 bound_to 10162
  156.3358  130.4286  149.7831 H   0  0  0  0  0  0  0  0  0  0  0  0  # atno 10718 bound_to 10713
  153.9896  135.6707  153.4753 H   0  0  0  0  0  0  0  0  0  0  0  0  # atno 10763 bound_to 10752
  153.0711  135.4974  154.8303 H   0  0  0  0  0  0  0  0  0  0  0  0  # atno 10764 bound_to 10752
  154.7117  135.3099  154.9149 H   0  0  0  0  0  0  0  0  0  0  0  0  # atno 10765 bound_to 10752
  140.8107  134.2747  157.4942 H   0  0  0  0  0  0  0  0  0  0  0  0  # atno 11005 bound_to 11000
  145.8045  139.1978  143.2028 LP  0  0  0  0  0  0  0  0  0  0  0  0  # atno 17320 bound_to 7965
  146.0648  140.7932  142.9717 LP  0  0  0  0  0  0  0  0  0  0  0  0  # atno 17321 bound_to 7965
  139.5758  144.1823  152.1901 LP  0  0  0  0  0  0  0  0  0  0  0  0  # atno 17342 bound_to 10162
  140.1133  144.5438  150.6911 LP  0  0  0  0  0  0  0  0  0  0  0  0  # atno 17343 bound_to 10162
  156.5086  130.8162  151.3160 LP  0  0  0  0  0  0  0  0  0  0  0  0  # atno 17370 bound_to 10713
  157.7438  130.9921  150.2625 LP  0  0  0  0  0  0  0  0  0  0  0  0  # atno 17371 bound_to 10713
  139.8714  134.9481  156.3988 LP  0  0  0  0  0  0  0  0  0  0  0  0  # atno 17394 bound_to 11000
  140.9200  133.7651  155.9895 LP  0  0  0  0  0  0  0  0  0  0  0  0  # atno 17395 bound_to 11000

$$$$
