AV-unprocessed.smi:1066|AV-procd|sdf|4669|dock1
  -GOLD-   22720 3183D 1   1.00000     0.00000
 Structure written by MMmdl.
 38 40  0  0  0  0  0  0  0  0  2 V2000
  149.4800  130.7645  155.1309 C   0  0  0  0  0  0  0  0  0  0  0  0
  149.9197  131.9402  155.9555 C   0  0  0  0  0  0  0  0  0  0  0  0
  150.3530  131.7340  157.1922 N   0  0  0  0  0  0  0  0  0  0  0  0
  150.6787  132.9920  157.7120 O   0  0  0  0  0  0  0  0  0  0  0  0
  150.4200  133.8992  156.7431 C   0  0  0  0  0  0  0  0  0  0  0  0
  150.6615  135.5857  156.9739 Cl  0  0  0  0  0  0  0  0  0  0  0  0
  149.9390  133.3224  155.6031 C   0  0  0  0  0  0  0  0  0  0  0  0
  149.5217  133.9691  154.3062 C   0  0  0  0  0  0  0  0  0  0  0  0
  148.0158  133.7971  154.1106 C   0  0  0  0  0  0  0  0  0  0  0  0
  147.3941  132.9827  154.7920 O   0  0  0  0  0  0  0  0  0  0  0  0
  147.4389  134.5784  153.1847 N   0  0  0  0  0  0  0  0  0  0  0  0
  146.0111  134.6033  152.8909 C   0  0  1  0  0  0  0  0  0  0  0  0
  145.6042  135.6317  151.8319 C   0  0  0  0  0  0  0  0  0  0  0  0
  144.3755  135.0138  151.1436 C   0  0  0  0  0  0  0  0  0  0  0  0
  144.2475  133.6289  151.6540 N   0  3  1  0  0  0  0  0  0  0  0  0
  143.7861  132.6514  150.6458 C   0  0  0  0  0  0  0  0  0  0  0  0
  144.3023  131.2522  150.8826 C   0  0  0  0  0  0  0  0  0  0  0  0
  144.8965  132.1037  149.7818 C   0  0  0  0  0  0  0  0  0  0  0  0
  145.5380  133.2885  152.2785 C   0  0  0  0  0  0  0  0  0  0  0  0
  149.0843  131.0778  154.1650 H   0  0  0  0  0  0  0  0  0  0  0  0
  148.6967  130.2007  155.6381 H   0  0  0  0  0  0  0  0  0  0  0  0
  150.3116  130.0851  154.9430 H   0  0  0  0  0  0  0  0  0  0  0  0
  149.7631  135.0325  154.2907 H   0  0  0  0  0  0  0  0  0  0  0  0
  150.0473  133.5301  153.4576 H   0  0  0  0  0  0  0  0  0  0  0  0
  148.0284  135.2162  152.6688 H   0  0  0  0  0  0  0  0  0  0  0  0
  145.4493  134.7862  153.8093 H   0  0  0  0  0  0  0  0  0  0  0  0
  145.3919  136.6092  152.2663 H   0  0  0  0  0  0  0  0  0  0  0  0
  146.4033  135.7624  151.1002 H   0  0  0  0  0  0  0  0  0  0  0  0
  143.4649  135.5681  151.3726 H   0  0  0  0  0  0  0  0  0  0  0  0
  144.5079  135.0261  150.0605 H   0  0  0  0  0  0  0  0  0  0  0  0
  142.7906  132.8099  150.2347 H   0  0  0  0  0  0  0  0  0  0  0  0
  144.9149  131.0708  151.7641 H   0  0  0  0  0  0  0  0  0  0  0  0
  143.6641  130.4237  150.5820 H   0  0  0  0  0  0  0  0  0  0  0  0
  144.6492  131.8353  148.7567 H   0  0  0  0  0  0  0  0  0  0  0  0
  145.9044  132.4875  149.9319 H   0  0  0  0  0  0  0  0  0  0  0  0
  146.2390  132.9472  151.5140 H   0  0  0  0  0  0  0  0  0  0  0  0
  145.4283  132.4957  153.0195 H   0  0  0  0  0  0  0  0  0  0  0  0
  143.5649  133.6563  152.3980 H   0  0  0  0  0  0  0  0  0  0  0  0
  1  2  1  0  0  0  0
  1 20  1  0  0  0  0
  1 21  1  0  0  0  0
  1 22  1  0  0  0  0
  2  7  1  0  0  0  0
  2  3  2  0  0  0  0
  3  4  1  0  0  0  0
  4  5  1  0  0  0  0
  5  6  1  0  0  0  0
  5  7  2  0  0  0  0
  7  8  1  0  0  0  0
  8  9  1  0  0  0  0
  8 23  1  0  0  0  0
  8 24  1  0  0  0  0
  9 10  2  0  0  0  0
  9 11  1  0  0  0  0
 11 12  1  0  0  0  0
 11 25  1  0  0  0  0
 12 19  1  0  0  0  0
 12 13  1  0  0  0  0
 12 26  1  0  0  0  0
 13 14  1  0  0  0  0
 13 27  1  0  0  0  0
 13 28  1  0  0  0  0
 14 15  1  0  0  0  0
 14 29  1  0  0  0  0
 14 30  1  0  0  0  0
 15 16  1  0  0  0  0
 15 19  1  0  0  0  0
 15 38  1  0  0  0  0
 16 18  1  0  0  0  0
 16 17  1  0  0  0  0
 16 31  1  0  0  0  0
 17 18  1  0  0  0  0
 17 32  1  0  0  0  0
 17 33  1  0  0  0  0
 18 34  1  0  0  0  0
 18 35  1  0  0  0  0
 19 36  1  0  0  0  0
 19 37  1  0  0  0  0
M  CHG  1  15   1
M  END
> <s_m_source_file>
AV-unprocessed.smi

> <i_m_source_file_index>
1066

> <i_lp_mmshare_version>
43012

> <i_f3d_flags>
0

> <s_epik_input>
W0NIM11jMW5vYyhDbCljMVtDSDJdQyg9TylbTkhdW0NAQEhdMltDSDJdW0NIMl1OKFtDSDJdMilbQ0hdM1tDSDJdW0NIMl0z

> <s_epik_cmdline>
J2VwaWtfcHl0aG9uJywgJy1waCcsICc3LjAnLCAnLXRuJywgJzgnLCAnLW1hJywgJzIwMCcsICctbWV0YWxfYmluZGluZycsICctaW1hZScsICc8aW5maWxlLm1hZT4nLCAnLW9tYWUnLCAnPG91dGZpbGUubWFlPic=

> <r_epik_Ionization_Penalty>
0.00108138

> <r_epik_Ionization_Penalty_Charging>
0.00108128

> <r_epik_Ionization_Penalty_Neutral>
9.66632e-08

> <r_epik_State_Penalty>
0.000708577

> <r_epik_Charging_Adjusted_Penalty>
0.00178986

> <i_epik_Tot_Q>
1

> <i_epik_Tot_abs_Q>
1

> <r_epik_Metal_State_Penalty>
-0

> <b_epik_Metal_Only>
0

> <s_lp_Force_Field>
OPLS_2005

> <r_lp_Energy>
30.6816

> <b_lp_Chiralities_Consistent>
1

> <s_lp_Variant>
AV-unprocessed.smi:1066-2

> <Gold.Version>
5.8.1

> <Gold.Id.Protein>
6NUR|6NUR_protein|mol2

> <Gold.PLP.Fitness>
37.0364

> <Gold.PLP.PLP>
-31.5602

> <Gold.PLP.part.hbond>
-2.0000

> <Gold.PLP.part.metal>
0.0000

> <Gold.PLP.part.buried>
-4.8068

> <Gold.PLP.part.nonpolar>
-25.7071

> <Gold.PLP.part.repulsive>
0.0208

> <Gold.PLP.ligand.clash>
0.0000

> <Gold.PLP.ligand.torsion>
0.8870

> <Gold.PLP.Chemscore.Hbond>
1.9913

> <Gold.PLP.Chemscore.CHOScore>
0.0000

> <Gold.PLP.Chemscore.Metal>
0.0000

> <Gold.Chemscore.Hbonds>
donor molecule, donor type, donor heavy atom, donor atom, acceptor molecule, acceptor atom, score
      L1  H    11    25       P1  7948  1.00
      P1  H  6896  6909       L1     4  0.88

> <Gold.PLP.Chemscore.Internal.Correction>
1.2764

> <Gold.Rescore>
     Score         DG    S(hbond)    S(metal)    S(lipo)     H(rot)  DE(clash)    DE(int)     intcor
     15.87     -17.11       1.93        0.00      78.79       1.57       0.11       1.13       ----

> <Gold.Chemscore.Fitness>
15.8684

> <Gold.Chemscore.DG>
-17.1091

> <Gold.Chemscore.ZeroCoef>
-5.4800

> <Gold.Chemscore.Hbond>
1.9261

> <Gold.Chemscore.Metal>
0.0000

> <Gold.Chemscore.Lipo>
78.7877

> <Gold.Chemscore.Internal_Hbond>
0.0000

> <Gold.Chemscore.DEClash>
0.1081

> <Gold.Chemscore.DEInternal>
1.1327

> <Gold.Chemscore.Rot>
1.5711

> <Gold.Chemscore.Internal.Correction>
   9.000000E+99

> <Gold.Chemscore.Hbonds>
donor molecule, donor type, donor heavy atom, donor atom, acceptor molecule, acceptor atom, score
      L1  H    11    25       P1  7948  0.95
      P1  H  6896  6909       L1     4  0.86

> <Gold.Chemscore.Hbond.Weighted>
-6.4330

> <Gold.Chemscore.Metal.Weighted>
-0.0000

> <Gold.Chemscore.Lipo.Weighted>
-9.2182

> <Gold.Chemscore.Internal_Hbond.Weighted>
0.0000

> <Gold.Chemscore.DEClash.Weighted>
0.1081

> <Gold.Chemscore.DEInternal.Weighted>
1.1327

> <Gold.Chemscore.Rot.Weighted>
4.0221

> <Gold.Chemscore.Internal.Correction.Weighted>
   9.000000E+99

> <Gold.Protein.RotatedTorsions>
[ 6907 6896 6895 6894 ] final  -44.39 input  -60.11 | X-H torsion
[ 7974 7965 7964 7962 ] final   56.39 input  175.53 | X-H torsion
[ 8008 7997 7996 7995 ] final    1.03 input   59.86 | X-H torsion
[ 10167 10162 10161 10158 ] final -131.29 input  -65.29 | X-H torsion
[ 10718 10713 10712 10709 ] final  114.14 input   66.30 | X-H torsion
[ 10763 10752 10751 10750 ] final    7.35 input  -60.55 | X-H torsion
[ 11005 11000 10999 10996 ] final  -45.62 input  -57.11 | X-H torsion

> <Gold.Protein.ActiveResidues>
 VAL166  LYS551  ARG553  GLY616  TRP617  ASP618  TYR619  PRO620  LYS621  CYS622 
 ASP623  PHE694  ASN695  SER759  ASP760  ASP761  ALA762  ILE779  LEU786  VAL792 
 PHE793  MET794  SER795  GLU796  ALA797  LYS798  CYS799  TRP800  GLU811  SER814 

> <Gold.Protein.RotatedAtoms>
  150.9333  134.8747  159.7565 H   0  0  0  0  0  0  0  0  0  0  0  0  # atno 6907 bound_to 6896
  152.5048  134.4047  159.9438 H   0  0  0  0  0  0  0  0  0  0  0  0  # atno 6908 bound_to 6896
  151.4072  133.3699  159.2774 H   0  0  0  0  0  0  0  0  0  0  0  0  # atno 6909 bound_to 6896
  145.9403  139.3882  143.0368 H   0  0  0  0  0  0  0  0  0  0  0  0  # atno 7974 bound_to 7965
  154.6749  140.2620  155.6968 H   0  0  0  0  0  0  0  0  0  0  0  0  # atno 8008 bound_to 7997
  156.2674  140.2822  156.1194 H   0  0  0  0  0  0  0  0  0  0  0  0  # atno 8009 bound_to 7997
  155.1115  140.0375  157.2715 H   0  0  0  0  0  0  0  0  0  0  0  0  # atno 8010 bound_to 7997
  139.9204  143.6389  152.2555 H   0  0  0  0  0  0  0  0  0  0  0  0  # atno 10167 bound_to 10162
  157.6298  131.0994  150.7143 H   0  0  0  0  0  0  0  0  0  0  0  0  # atno 10718 bound_to 10713
  153.2373  135.6899  153.7822 H   0  0  0  0  0  0  0  0  0  0  0  0  # atno 10763 bound_to 10752
  153.6965  135.3304  155.3215 H   0  0  0  0  0  0  0  0  0  0  0  0  # atno 10764 bound_to 10752
  154.8340  135.4557  154.1282 H   0  0  0  0  0  0  0  0  0  0  0  0  # atno 10765 bound_to 10752
  141.0527  133.6737  156.3038 H   0  0  0  0  0  0  0  0  0  0  0  0  # atno 11005 bound_to 11000
  145.8309  140.9631  143.0849 LP  0  0  0  0  0  0  0  0  0  0  0  0  # atno 17320 bound_to 7965
  144.6778  140.0161  143.7484 LP  0  0  0  0  0  0  0  0  0  0  0  0  # atno 17321 bound_to 7965
  139.6866  144.7651  151.1512 LP  0  0  0  0  0  0  0  0  0  0  0  0  # atno 17342 bound_to 10162
  140.7663  143.5648  150.9059 LP  0  0  0  0  0  0  0  0  0  0  0  0  # atno 17343 bound_to 10162
  156.7484  130.4761  149.5462 LP  0  0  0  0  0  0  0  0  0  0  0  0  # atno 17370 bound_to 10713
  156.1494  130.6299  151.0575 LP  0  0  0  0  0  0  0  0  0  0  0  0  # atno 17371 bound_to 10713
  140.6024  134.5541  157.5520 LP  0  0  0  0  0  0  0  0  0  0  0  0  # atno 17394 bound_to 11000
  139.9364  134.7868  156.0793 LP  0  0  0  0  0  0  0  0  0  0  0  0  # atno 17395 bound_to 11000

$$$$
