AV-unprocessed.smi:2655|AV-procd|sdf|10303|dock7
  -GOLD-   2272014313D 1   1.00000     0.00000
 Structure written by MMmdl.
 33 34  0  0  0  0  0  0  0  0  2 V2000
  151.5559  140.7725  158.9741 C   0  0  0  0  0  0  0  0  0  0  0  0
  151.0638  140.9938  157.5602 C   0  0  0  0  0  0  0  0  0  0  0  0
  150.5357  142.1897  157.1678 N   0  0  0  0  0  0  0  0  0  0  0  0
  150.1201  142.0755  155.8653 N   0  0  0  0  0  0  0  0  0  0  0  0
  150.3973  140.8448  155.4046 C   0  0  0  0  0  0  0  0  0  0  0  0
  150.1614  140.4301  154.2719 O   0  0  0  0  0  0  0  0  0  0  0  0
  151.0174  140.1450  156.5246 C   0  0  0  0  0  0  0  0  0  0  0  0
  151.4499  138.6916  156.4815 C   0  0  0  0  0  0  0  0  0  0  0  0
  150.2752  137.7469  156.1794 C   0  0  0  0  0  0  0  0  0  0  0  0
  149.2173  137.8725  157.1756 N   0  0  0  0  0  0  0  0  0  0  0  0
  149.2337  137.3451  158.4082 C   0  0  0  0  0  0  0  0  0  0  0  0
  150.2082  136.6890  158.7835 O   0  0  0  0  0  0  0  0  0  0  0  0
  148.1185  137.6083  159.1285 N   0  5  0  0  0  0  0  0  0  0  0  0
  147.6914  136.7353  160.0538 C   0  0  0  0  0  0  0  0  0  0  0  0
  147.7370  135.3179  159.9509 C   0  0  0  0  0  0  0  0  0  0  0  0
  147.1808  134.9013  161.1268 C   0  0  0  0  0  0  0  0  0  0  0  0
  146.9147  133.5503  161.6976 C   0  0  0  0  0  0  0  0  0  0  0  0
  146.8145  135.9723  161.8812 O   0  0  0  0  0  0  0  0  0  0  0  0
  147.1393  137.1424  161.1847 N   0  0  0  0  0  0  0  0  0  0  0  0
  152.6044  140.4740  158.9648 H   0  0  0  0  0  0  0  0  0  0  0  0
  150.9774  139.9845  159.4563 H   0  0  0  0  0  0  0  0  0  0  0  0
  151.4623  141.6814  159.5692 H   0  0  0  0  0  0  0  0  0  0  0  0
  149.6944  142.8640  155.3999 H   0  0  0  0  0  0  0  0  0  0  0  0
  151.9135  138.4358  157.4352 H   0  0  0  0  0  0  0  0  0  0  0  0
  152.2221  138.5717  155.7211 H   0  0  0  0  0  0  0  0  0  0  0  0
  149.8742  137.9335  155.1815 H   0  0  0  0  0  0  0  0  0  0  0  0
  150.6214  136.7130  156.1858 H   0  0  0  0  0  0  0  0  0  0  0  0
  148.4011  138.4041  156.9103 H   0  0  0  0  0  0  0  0  0  0  0  0
  148.1206  134.7082  159.1467 H   0  0  0  0  0  0  0  0  0  0  0  0
  146.1819  133.0151  161.0941 H   0  0  0  0  0  0  0  0  0  0  0  0
  146.5279  133.6215  162.7144 H   0  0  0  0  0  0  0  0  0  0  0  0
  147.8290  132.9573  161.7254 H   0  0  0  0  0  0  0  0  0  0  0  0
  150.2912  142.9763  157.7522 H   0  0  0  0  0  0  0  0  0  0  0  0
  1 20  1  0  0  0  0
  1 21  1  0  0  0  0
  1 22  1  0  0  0  0
  1  2  1  0  0  0  0
  2  7  2  0  0  0  0
  2  3  1  0  0  0  0
  3  4  1  0  0  0  0
  3 33  1  0  0  0  0
  4 23  1  0  0  0  0
  4  5  1  0  0  0  0
  5  7  1  0  0  0  0
  5  6  2  0  0  0  0
  7  8  1  0  0  0  0
  8  9  1  0  0  0  0
  8 24  1  0  0  0  0
  8 25  1  0  0  0  0
  9 10  1  0  0  0  0
  9 26  1  0  0  0  0
  9 27  1  0  0  0  0
 10 11  1  0  0  0  0
 10 28  1  0  0  0  0
 11 12  2  0  0  0  0
 11 13  1  0  0  0  0
 13 14  1  0  0  0  0
 14 19  2  0  0  0  0
 14 15  1  0  0  0  0
 15 16  2  0  0  0  0
 15 29  1  0  0  0  0
 16 17  1  0  0  0  0
 16 18  1  0  0  0  0
 17 30  1  0  0  0  0
 17 31  1  0  0  0  0
 17 32  1  0  0  0  0
 18 19  1  0  0  0  0
M  CHG  1  13  -1
M  END
> <s_m_source_file>
AV-unprocessed.smi

> <i_m_source_file_index>
2655

> <i_lp_mmshare_version>
43012

> <i_f3d_flags>
0

> <s_epik_input>
W0NIM11DMT1OW05IXUMoPU8pW0NASF0xW0NIMl1bQ0gyXVtOSF1DKD1PKVtOSF1jMltjSF1jKFtDSDNdKW9uMg==

> <s_epik_cmdline>
J2VwaWtfcHl0aG9uJywgJy1waCcsICc3LjAnLCAnLXRuJywgJzgnLCAnLW1hJywgJzIwMCcsICctbWV0YWxfYmluZGluZycsICctaW1hZScsICc8aW5maWxlLm1hZT4nLCAnLW9tYWUnLCAnPG91dGZpbGUubWFlPic=

> <r_lp_tautomer_probability>
0.00220696

> <r_epik_Ionization_Penalty>
6.47655

> <r_epik_Ionization_Penalty_Charging>
6.44485

> <r_epik_Ionization_Penalty_Neutral>
0.0316949

> <r_epik_State_Penalty>
7.07162

> <r_epik_Charging_Adjusted_Penalty>
13.5165

> <i_epik_Tot_Q>
-1

> <i_epik_Tot_abs_Q>
1

> <r_epik_Metal_State_Penalty>
4.39363

> <b_epik_Metal_Only>
1

> <s_lp_Force_Field>
OPLS_2005

> <r_lp_Energy>
11.561

> <b_lp_Chiralities_Consistent>
1

> <s_lp_Variant>
AV-unprocessed.smi:2655-6

> <Gold.Version>
5.8.1

> <Gold.Id.Protein>
6NUR|6NUR_protein|mol2

> <Gold.PLP.Fitness>
41.1696

> <Gold.PLP.PLP>
-29.5612

> <Gold.PLP.part.hbond>
-6.6998

> <Gold.PLP.part.metal>
0.0000

> <Gold.PLP.part.buried>
-4.9803

> <Gold.PLP.part.nonpolar>
-18.2857

> <Gold.PLP.part.repulsive>
0.2796

> <Gold.PLP.ligand.clash>
0.0000

> <Gold.PLP.ligand.torsion>
0.5819

> <Gold.PLP.Chemscore.Hbond>
4.2400

> <Gold.PLP.Chemscore.CHOScore>
0.0000

> <Gold.PLP.Chemscore.Metal>
0.0000

> <Gold.Chemscore.Hbonds>
donor molecule, donor type, donor heavy atom, donor atom, acceptor molecule, acceptor atom, score
      L1  H     4    23       P1  8028  0.90
      P1  H  6896  6909       L1    12  0.80
      P1  H  6931  6943       L1    19  0.18
      P1  H  6934  6947       L1    19  1.00
      P1  H  7989  7998       L1     6  0.90

> <Gold.PLP.Chemscore.Internal.Correction>
0.0523

> <Gold.Rescore>
     Score         DG    S(hbond)    S(metal)    S(lipo)     H(rot)  DE(clash)    DE(int)     intcor
     15.82     -17.55       3.39        0.00      47.14       1.86       0.04       1.69       ----

> <Gold.Chemscore.Fitness>
15.8158

> <Gold.Chemscore.DG>
-17.5475

> <Gold.Chemscore.ZeroCoef>
-5.4800

> <Gold.Chemscore.Hbond>
3.3904

> <Gold.Chemscore.Metal>
0.0000

> <Gold.Chemscore.Lipo>
47.1412

> <Gold.Chemscore.Internal_Hbond>
0.0000

> <Gold.Chemscore.DEClash>
0.0417

> <Gold.Chemscore.DEInternal>
1.6900

> <Gold.Chemscore.Rot>
1.8640

> <Gold.Chemscore.Internal.Correction>
   9.000000E+99

> <Gold.Chemscore.Hbonds>
donor molecule, donor type, donor heavy atom, donor atom, acceptor molecule, acceptor atom, score
      L1  H     4    23       P1  8028  0.83
      P1  H  6896  6909       L1    12  0.78
      P1  H  6931  6943       L1    19  0.02
      P1  H  6934  6947       L1    19  0.30
      P1  H  7989  7998       L1     6  0.22

> <Gold.Chemscore.Hbond.Weighted>
-11.3239

> <Gold.Chemscore.Metal.Weighted>
-0.0000

> <Gold.Chemscore.Lipo.Weighted>
-5.5155

> <Gold.Chemscore.Internal_Hbond.Weighted>
0.0000

> <Gold.Chemscore.DEClash.Weighted>
0.0417

> <Gold.Chemscore.DEInternal.Weighted>
1.6900

> <Gold.Chemscore.Rot.Weighted>
4.7719

> <Gold.Chemscore.Internal.Correction.Weighted>
   9.000000E+99

> <Gold.Protein.RotatedTorsions>
[ 6907 6896 6895 6894 ] final   82.36 input  -60.11 | X-H torsion
[ 7974 7965 7964 7962 ] final -159.42 input  175.53 | X-H torsion
[ 8008 7997 7996 7995 ] final   41.69 input   59.86 | X-H torsion
[ 10167 10162 10161 10158 ] final  -10.25 input  -65.29 | X-H torsion
[ 10718 10713 10712 10709 ] final -129.19 input   66.30 | X-H torsion
[ 10763 10752 10751 10750 ] final  136.14 input  -60.55 | X-H torsion
[ 11005 11000 10999 10996 ] final  -91.90 input  -57.11 | X-H torsion

> <Gold.Protein.ActiveResidues>
 VAL166  LYS551  ARG553  GLY616  TRP617  ASP618  TYR619  PRO620  LYS621  CYS622 
 ASP623  PHE694  ASN695  SER759  ASP760  ASP761  ALA762  ILE779  LEU786  VAL792 
 PHE793  MET794  SER795  GLU796  ALA797  LYS798  CYS799  TRP800  GLU811  SER814 

> <Gold.Protein.RotatedAtoms>
  152.5297  134.3061  159.9096 H   0  0  0  0  0  0  0  0  0  0  0  0  # atno 6907 bound_to 6896
  151.3012  133.4115  159.2647 H   0  0  0  0  0  0  0  0  0  0  0  0  # atno 6908 bound_to 6896
  151.0118  134.9418  159.8068 H   0  0  0  0  0  0  0  0  0  0  0  0  # atno 6909 bound_to 6896
  144.7466  140.3687  143.6080 H   0  0  0  0  0  0  0  0  0  0  0  0  # atno 7974 bound_to 7965
  155.2739  140.3368  155.4263 H   0  0  0  0  0  0  0  0  0  0  0  0  # atno 8008 bound_to 7997
  156.2120  140.1774  156.7714 H   0  0  0  0  0  0  0  0  0  0  0  0  # atno 8009 bound_to 7997
  154.5700  140.0672  156.8935 H   0  0  0  0  0  0  0  0  0  0  0  0  # atno 8010 bound_to 7997
  140.7109  143.5769  150.9033 H   0  0  0  0  0  0  0  0  0  0  0  0  # atno 10167 bound_to 10162
  156.2022  130.6865  151.0553 H   0  0  0  0  0  0  0  0  0  0  0  0  # atno 10718 bound_to 10713
  153.8517  135.3078  155.3433 H   0  0  0  0  0  0  0  0  0  0  0  0  # atno 10763 bound_to 10752
  154.7888  135.4794  154.0009 H   0  0  0  0  0  0  0  0  0  0  0  0  # atno 10764 bound_to 10752
  153.1514  135.6844  153.8969 H   0  0  0  0  0  0  0  0  0  0  0  0  # atno 10765 bound_to 10752
  141.1534  133.7786  156.9945 H   0  0  0  0  0  0  0  0  0  0  0  0  # atno 11005 bound_to 11000
  145.7101  139.1682  143.2544 LP  0  0  0  0  0  0  0  0  0  0  0  0  # atno 17320 bound_to 7965
  146.1353  140.7131  142.9392 LP  0  0  0  0  0  0  0  0  0  0  0  0  # atno 17321 bound_to 7965
  139.9495  143.6289  152.3033 LP  0  0  0  0  0  0  0  0  0  0  0  0  # atno 17342 bound_to 10162
  139.6802  144.7656  151.1622 LP  0  0  0  0  0  0  0  0  0  0  0  0  # atno 17343 bound_to 10162
  157.6992  131.0782  150.6873 LP  0  0  0  0  0  0  0  0  0  0  0  0  # atno 17370 bound_to 10713
  156.6931  130.4601  149.5594 LP  0  0  0  0  0  0  0  0  0  0  0  0  # atno 17371 bound_to 10713
  140.0981  134.9552  157.1880 LP  0  0  0  0  0  0  0  0  0  0  0  0  # atno 17394 bound_to 11000
  140.3355  134.2762  155.7220 LP  0  0  0  0  0  0  0  0  0  0  0  0  # atno 17395 bound_to 11000

$$$$
