AV-unprocessed.smi:1641|AV-procd|sdf|6559|dock3
  -GOLD-   22720 7243D 1   1.00000     0.00000
 Structure written by MMmdl.
 42 43  0  0  0  0  0  0  0  0  2 V2000
  153.7574  137.5719  157.1011 C   0  0  0  0  0  0  0  0  0  0  0  0
  152.7901  138.1664  156.1356 C   0  0  0  0  0  0  0  0  0  0  0  0
  152.8745  139.4336  155.7127 N   0  0  0  0  0  0  0  0  0  0  0  0
  151.8631  139.7587  154.8193 N   0  0  0  0  0  0  0  0  0  0  0  0
  151.0421  138.7233  154.5962 C   0  0  0  0  0  0  0  0  0  0  0  0
  149.9203  138.7791  153.7270 N   0  0  0  0  0  0  0  0  0  0  0  0
  148.6558  138.3954  153.9751 C   0  0  0  0  0  0  0  0  0  0  0  0
  148.2473  137.9282  155.0385 O   0  0  0  0  0  0  0  0  0  0  0  0
  147.8702  138.5824  152.9045 N   0  0  0  0  0  0  0  0  0  0  0  0
  146.4468  138.2688  152.8532 C   0  0  0  0  0  0  0  0  0  0  0  0
  145.9685  138.0380  151.4064 C   0  0  0  0  0  0  0  0  0  0  0  0
  144.9903  136.9269  151.3024 N   0  3  1  0  0  0  0  0  0  0  0  0
  145.6271  135.6502  150.9002 C   0  0  0  0  0  0  0  0  0  0  0  0
  144.5684  134.5415  150.7464 C   0  0  1  0  0  0  0  0  0  0  0  0
  145.1942  133.1842  150.4079 C   0  0  0  0  0  0  0  0  0  0  0  0
  143.8569  134.4065  151.9713 O   0  0  0  0  0  0  0  0  0  0  0  0
  143.1631  135.5946  152.3348 C   0  0  1  0  0  0  0  0  0  0  0  0
  142.3624  135.3074  153.6094 C   0  0  0  0  0  0  0  0  0  0  0  0
  144.1821  136.7327  152.5317 C   0  0  0  0  0  0  0  0  0  0  0  0
  151.4420  137.2536  155.4686 S   0  0  0  0  0  0  0  0  0  0  0  0
  154.7021  138.1160  157.0801 H   0  0  0  0  0  0  0  0  0  0  0  0
  153.9506  136.5301  156.8454 H   0  0  0  0  0  0  0  0  0  0  0  0
  153.3491  137.6157  158.1110 H   0  0  0  0  0  0  0  0  0  0  0  0
  150.1051  139.1517  152.8074 H   0  0  0  0  0  0  0  0  0  0  0  0
  148.2831  138.9759  152.0711 H   0  0  0  0  0  0  0  0  0  0  0  0
  146.2538  137.3996  153.4823 H   0  0  0  0  0  0  0  0  0  0  0  0
  145.8998  139.1011  153.2971 H   0  0  0  0  0  0  0  0  0  0  0  0
  145.5016  138.9593  151.0544 H   0  0  0  0  0  0  0  0  0  0  0  0
  146.8095  137.8453  150.7384 H   0  0  0  0  0  0  0  0  0  0  0  0
  146.1567  135.7839  149.9560 H   0  0  0  0  0  0  0  0  0  0  0  0
  146.3694  135.3640  151.6471 H   0  0  0  0  0  0  0  0  0  0  0  0
  143.8687  134.8081  149.9523 H   0  0  0  0  0  0  0  0  0  0  0  0
  145.7429  133.2274  149.4669 H   0  0  0  0  0  0  0  0  0  0  0  0
  144.4263  132.4167  150.3084 H   0  0  0  0  0  0  0  0  0  0  0  0
  145.8874  132.8629  151.1859 H   0  0  0  0  0  0  0  0  0  0  0  0
  142.4642  135.8603  151.5394 H   0  0  0  0  0  0  0  0  0  0  0  0
  141.8035  136.1870  153.9294 H   0  0  0  0  0  0  0  0  0  0  0  0
  143.0176  135.0102  154.4289 H   0  0  0  0  0  0  0  0  0  0  0  0
  141.6472  134.5008  153.4463 H   0  0  0  0  0  0  0  0  0  0  0  0
  144.8434  136.5044  153.3694 H   0  0  0  0  0  0  0  0  0  0  0  0
  143.6510  137.6494  152.7861 H   0  0  0  0  0  0  0  0  0  0  0  0
  144.3504  137.1708  150.5599 H   0  0  0  0  0  0  0  0  0  0  0  0
  1  2  1  0  0  0  0
  1 21  1  0  0  0  0
  1 22  1  0  0  0  0
  1 23  1  0  0  0  0
  2 20  1  0  0  0  0
  2  3  2  0  0  0  0
  3  4  1  0  0  0  0
  4  5  2  0  0  0  0
  5  6  1  0  0  0  0
  5 20  1  0  0  0  0
  6  7  1  0  0  0  0
  6 24  1  0  0  0  0
  7  8  2  0  0  0  0
  7  9  1  0  0  0  0
  9 10  1  0  0  0  0
  9 25  1  0  0  0  0
 10 11  1  0  0  0  0
 10 26  1  0  0  0  0
 10 27  1  0  0  0  0
 11 12  1  0  0  0  0
 11 28  1  0  0  0  0
 11 29  1  0  0  0  0
 12 19  1  0  0  0  0
 12 13  1  0  0  0  0
 12 42  1  0  0  0  0
 13 14  1  0  0  0  0
 13 30  1  0  0  0  0
 13 31  1  0  0  0  0
 14 15  1  0  0  0  0
 14 16  1  0  0  0  0
 14 32  1  0  0  0  0
 15 33  1  0  0  0  0
 15 34  1  0  0  0  0
 15 35  1  0  0  0  0
 16 17  1  0  0  0  0
 17 18  1  0  0  0  0
 17 19  1  0  0  0  0
 17 36  1  0  0  0  0
 18 37  1  0  0  0  0
 18 38  1  0  0  0  0
 18 39  1  0  0  0  0
 19 40  1  0  0  0  0
 19 41  1  0  0  0  0
M  CHG  1  12   1
M  END
> <s_m_source_file>
AV-unprocessed.smi

> <i_m_source_file_index>
1641

> <i_lp_mmshare_version>
43012

> <i_f3d_flags>
0

> <s_epik_input>
W0NIM11jMW5uYyhzMSlbTkhdQyg9TylbTkhdW0NIMl1bQ0gyXU4yW0NIMl1bQ0BASF0oW0NIM10pT1tDQEBIXShbQ0gzXSlbQ0gyXTI=

> <s_epik_cmdline>
J2VwaWtfcHl0aG9uJywgJy1waCcsICc3LjAnLCAnLXRuJywgJzgnLCAnLW1hJywgJzIwMCcsICctbWV0YWxfYmluZGluZycsICctaW1hZScsICc8aW5maWxlLm1hZT4nLCAnLW9tYWUnLCAnPG91dGZpbGUubWFlPic=

> <r_lp_tautomer_probability>
1

> <r_epik_Ionization_Penalty>
0.700114

> <r_epik_Ionization_Penalty_Charging>
0.695697

> <r_epik_Ionization_Penalty_Neutral>
0.00441638

> <r_epik_State_Penalty>
0.717972

> <r_epik_Charging_Adjusted_Penalty>
1.41367

> <i_epik_Tot_Q>
1

> <i_epik_Tot_abs_Q>
1

> <r_epik_Metal_State_Penalty>
1.06958

> <b_epik_Metal_Only>
0

> <s_lp_Force_Field>
OPLS_2005

> <r_lp_Energy>
12.6792

> <b_lp_Chiralities_Consistent>
1

> <s_lp_Variant>
AV-unprocessed.smi:1641-4

> <Gold.Version>
5.8.1

> <Gold.Id.Protein>
6NUR|6NUR_protein|mol2

> <Gold.PLP.Fitness>
44.9524

> <Gold.PLP.PLP>
-33.4953

> <Gold.PLP.part.hbond>
-5.9189

> <Gold.PLP.part.metal>
0.0000

> <Gold.PLP.part.buried>
-2.2438

> <Gold.PLP.part.nonpolar>
-26.1319

> <Gold.PLP.part.repulsive>
0.4901

> <Gold.PLP.ligand.clash>
0.0000

> <Gold.PLP.ligand.torsion>
1.3311

> <Gold.PLP.Chemscore.Hbond>
4.6960

> <Gold.PLP.Chemscore.CHOScore>
0.0000

> <Gold.PLP.Chemscore.Metal>
0.0000

> <Gold.Chemscore.Hbonds>
donor molecule, donor type, donor heavy atom, donor atom, acceptor molecule, acceptor atom, score
      L1  H     6    24       P1  7957  1.00
      L1  H     9    25       P1  7957  1.00
      L1  H    12    42       P1 10171  0.74
      P1  H  7989  7998       L1     4  0.98
      P1  H  7997  8009       L1     3  1.00

> <Gold.PLP.Chemscore.Internal.Correction>
0.0313

> <Gold.Rescore>
     Score         DG    S(hbond)    S(metal)    S(lipo)     H(rot)  DE(clash)    DE(int)     intcor
     20.16     -23.28       4.29        0.00      65.54       1.64       1.85       1.26       ----

> <Gold.Chemscore.Fitness>
20.1619

> <Gold.Chemscore.DG>
-23.2754

> <Gold.Chemscore.ZeroCoef>
-5.4800

> <Gold.Chemscore.Hbond>
4.2858

> <Gold.Chemscore.Metal>
0.0000

> <Gold.Chemscore.Lipo>
65.5437

> <Gold.Chemscore.Internal_Hbond>
0.0000

> <Gold.Chemscore.DEClash>
1.8495

> <Gold.Chemscore.DEInternal>
1.2640

> <Gold.Chemscore.Rot>
1.6358

> <Gold.Chemscore.Internal.Correction>
   9.000000E+99

> <Gold.Chemscore.Hbonds>
donor molecule, donor type, donor heavy atom, donor atom, acceptor molecule, acceptor atom, score
      L1  H     6    24       P1  7957  0.80
      L1  H     9    25       P1  7957  0.96
      L1  H    12    42       P1 10171  0.74
      P1  H  7989  7998       L1     4  0.56
      P1  H  7997  8009       L1     3  0.88

> <Gold.Chemscore.Hbond.Weighted>
-14.3145

> <Gold.Chemscore.Metal.Weighted>
-0.0000

> <Gold.Chemscore.Lipo.Weighted>
-7.6686

> <Gold.Chemscore.Internal_Hbond.Weighted>
0.0000

> <Gold.Chemscore.DEClash.Weighted>
1.8495

> <Gold.Chemscore.DEInternal.Weighted>
1.2640

> <Gold.Chemscore.Rot.Weighted>
4.1878

> <Gold.Chemscore.Internal.Correction.Weighted>
   9.000000E+99

> <Gold.Protein.RotatedTorsions>
[ 6907 6896 6895 6894 ] final  142.54 input  -60.11 | X-H torsion
[ 7974 7965 7964 7962 ] final   27.07 input  175.53 | X-H torsion
[ 8008 7997 7996 7995 ] final -142.82 input   59.86 | X-H torsion
[ 10167 10162 10161 10158 ] final   87.71 input  -65.29 | X-H torsion
[ 10718 10713 10712 10709 ] final -124.69 input   66.30 | X-H torsion
[ 10763 10752 10751 10750 ] final   22.79 input  -60.55 | X-H torsion
[ 11005 11000 10999 10996 ] final -135.04 input  -57.11 | X-H torsion

> <Gold.Protein.ActiveResidues>
 VAL166  LYS551  ARG553  GLY616  TRP617  ASP618  TYR619  PRO620  LYS621  CYS622 
 ASP623  PHE694  ASN695  SER759  ASP760  ASP761  ALA762  ILE779  LEU786  VAL792 
 PHE793  MET794  SER795  GLU796  ALA797  LYS798  CYS799  TRP800  GLU811  SER814 

> <Gold.Protein.RotatedAtoms>
  152.2174  133.4957  159.5143 H   0  0  0  0  0  0  0  0  0  0  0  0  # atno 6907 bound_to 6896
  150.7004  134.1387  159.4106 H   0  0  0  0  0  0  0  0  0  0  0  0  # atno 6908 bound_to 6896
  151.9307  135.0257  160.0579 H   0  0  0  0  0  0  0  0  0  0  0  0  # atno 6909 bound_to 6896
  146.1804  139.7241  142.8905 H   0  0  0  0  0  0  0  0  0  0  0  0  # atno 7974 bound_to 7965
  155.5006  140.0575  157.2940 H   0  0  0  0  0  0  0  0  0  0  0  0  # atno 8008 bound_to 7997
  154.4589  140.1986  156.0251 H   0  0  0  0  0  0  0  0  0  0  0  0  # atno 8009 bound_to 7997
  156.0852  140.3241  155.7748 H   0  0  0  0  0  0  0  0  0  0  0  0  # atno 8010 bound_to 7997
  139.8746  144.6474  150.8911 H   0  0  0  0  0  0  0  0  0  0  0  0  # atno 10167 bound_to 10162
  156.1609  130.6601  151.0048 H   0  0  0  0  0  0  0  0  0  0  0  0  # atno 10718 bound_to 10713
  153.0888  135.6640  153.9896 H   0  0  0  0  0  0  0  0  0  0  0  0  # atno 10763 bound_to 10752
  153.9498  135.2985  155.3440 H   0  0  0  0  0  0  0  0  0  0  0  0  # atno 10764 bound_to 10752
  154.7300  135.5127  153.9020 H   0  0  0  0  0  0  0  0  0  0  0  0  # atno 10765 bound_to 10752
  140.8934  134.1782  157.4511 H   0  0  0  0  0  0  0  0  0  0  0  0  # atno 11005 bound_to 11000
  145.4093  141.0394  143.3026 LP  0  0  0  0  0  0  0  0  0  0  0  0  # atno 17320 bound_to 7965
  144.8305  139.5637  143.6946 LP  0  0  0  0  0  0  0  0  0  0  0  0  # atno 17321 bound_to 7965
  140.7755  143.3635  151.1782 LP  0  0  0  0  0  0  0  0  0  0  0  0  # atno 17342 bound_to 10162
  139.7252  143.9160  152.3000 LP  0  0  0  0  0  0  0  0  0  0  0  0  # atno 17343 bound_to 10162
  157.6732  131.0856  150.7561 LP  0  0  0  0  0  0  0  0  0  0  0  0  # atno 17370 bound_to 10713
  156.7624  130.4803  149.5434 LP  0  0  0  0  0  0  0  0  0  0  0  0  # atno 17371 bound_to 10713
  139.8732  134.9868  156.5341 LP  0  0  0  0  0  0  0  0  0  0  0  0  # atno 17394 bound_to 11000
  140.8319  133.8272  155.8992 LP  0  0  0  0  0  0  0  0  0  0  0  0  # atno 17395 bound_to 11000

$$$$
