AV-unprocessed.smi:2356|AV-procd|sdf|9394|dock4
  -GOLD-   2272013 23D 1   1.00000     0.00000
 Structure written by MMmdl.
 53 56  0  0  0  0  0  0  0  0  1 V2000
  151.5091  139.0117  154.7722 C   0  0  0  0  0  0  0  0  0  0  0  0
  150.6119  139.9744  155.5316 C   0  0  0  0  0  0  0  0  0  0  0  0
  151.2499  140.8198  156.3694 N   0  0  0  0  0  0  0  0  0  0  0  0
  150.5276  141.7083  157.0908 C   0  0  0  0  0  0  0  0  0  0  0  0
  151.2387  142.5681  157.9518 N   0  0  0  0  0  0  0  0  0  0  0  0
  152.3454  142.0991  158.7699 C   0  0  0  0  0  0  0  0  0  0  0  0
  152.9224  143.3624  159.4075 C   0  0  0  0  0  0  0  0  0  0  0  0
  152.6633  144.4352  158.3503 C   0  0  0  0  0  0  0  0  0  0  0  0
  151.3503  143.9982  157.6915 C   0  0  0  0  0  0  0  0  0  0  0  0
  149.1188  141.7781  156.9841 C   0  0  0  0  0  0  0  0  0  0  0  0
  148.4522  140.8987  156.1104 C   0  0  0  0  0  0  0  0  0  0  0  0
  149.2086  139.9747  155.3531 C   0  0  0  0  0  0  0  0  0  0  0  0
  148.6293  139.0284  154.4643 N   0  0  0  0  0  0  0  0  0  0  0  0
  147.3602  138.9449  154.0200 C   0  0  0  0  0  0  0  0  0  0  0  0
  146.4497  139.7008  154.3519 O   0  0  0  0  0  0  0  0  0  0  0  0
  147.1555  137.9526  153.1337 N   0  0  0  0  0  0  0  0  0  0  0  0
  145.9067  137.5865  152.4601 C   0  0  1  0  0  0  0  0  0  0  0  0
  146.1380  136.3885  151.5281 C   0  0  0  0  0  0  0  0  0  0  0  0
  144.8092  135.9254  150.9064 C   0  0  0  0  0  0  0  0  0  0  0  0
  143.8658  135.6217  151.9300 O   0  0  0  0  0  0  0  0  0  0  0  0
  143.5420  136.7442  152.7456 C   0  0  1  0  0  0  0  0  0  0  0  0
  142.4543  136.3375  153.7195 C   0  0  0  0  0  0  0  0  0  0  0  0
  141.5005  135.2112  153.3946 C   0  0  0  0  0  0  0  0  0  0  0  0
  141.0045  136.6365  153.4132 C   0  0  0  0  0  0  0  0  0  0  0  0
  144.8102  137.2196  153.4750 C   0  0  0  0  0  0  0  0  0  0  0  0
  151.4644  139.2183  153.7029 H   0  0  0  0  0  0  0  0  0  0  0  0
  151.1938  137.9812  154.9385 H   0  0  0  0  0  0  0  0  0  0  0  0
  152.5495  139.0990  155.0879 H   0  0  0  0  0  0  0  0  0  0  0  0
  152.0158  141.3852  159.5253 H   0  0  0  0  0  0  0  0  0  0  0  0
  153.0877  141.6155  158.1338 H   0  0  0  0  0  0  0  0  0  0  0  0
  152.3712  143.6027  160.3178 H   0  0  0  0  0  0  0  0  0  0  0  0
  153.9764  143.2626  159.6673 H   0  0  0  0  0  0  0  0  0  0  0  0
  152.6133  145.4415  158.7666 H   0  0  0  0  0  0  0  0  0  0  0  0
  153.4655  144.4179  157.6113 H   0  0  0  0  0  0  0  0  0  0  0  0
  151.3539  144.2304  156.6260 H   0  0  0  0  0  0  0  0  0  0  0  0
  150.5002  144.5053  158.1488 H   0  0  0  0  0  0  0  0  0  0  0  0
  148.5396  142.4844  157.5596 H   0  0  0  0  0  0  0  0  0  0  0  0
  147.3759  140.9410  156.0520 H   0  0  0  0  0  0  0  0  0  0  0  0
  149.2804  138.3821  154.0430 H   0  0  0  0  0  0  0  0  0  0  0  0
  147.9637  137.3997  152.8868 H   0  0  0  0  0  0  0  0  0  0  0  0
  145.5665  138.4242  151.8483 H   0  0  0  0  0  0  0  0  0  0  0  0
  146.8476  136.6495  150.7420 H   0  0  0  0  0  0  0  0  0  0  0  0
  146.5791  135.5616  152.0866 H   0  0  0  0  0  0  0  0  0  0  0  0
  144.4045  136.6905  150.2420 H   0  0  0  0  0  0  0  0  0  0  0  0
  144.9703  135.0334  150.3009 H   0  0  0  0  0  0  0  0  0  0  0  0
  143.1579  137.5485  152.1153 H   0  0  0  0  0  0  0  0  0  0  0  0
  142.7424  136.4343  154.7648 H   0  0  0  0  0  0  0  0  0  0  0  0
  141.5973  134.7266  152.4251 H   0  0  0  0  0  0  0  0  0  0  0  0
  141.1948  134.5610  154.2117 H   0  0  0  0  0  0  0  0  0  0  0  0
  140.3692  136.9393  154.2430 H   0  0  0  0  0  0  0  0  0  0  0  0
  140.7739  137.1011  152.4562 H   0  0  0  0  0  0  0  0  0  0  0  0
  145.1686  136.4317  154.1392 H   0  0  0  0  0  0  0  0  0  0  0  0
  144.5711  138.0731  154.1089 H   0  0  0  0  0  0  0  0  0  0  0  0
  1  2  1  0  0  0  0
  1 26  1  0  0  0  0
  1 27  1  0  0  0  0
  1 28  1  0  0  0  0
  2 12  1  0  0  0  0
  2  3  2  0  0  0  0
  3  4  1  0  0  0  0
  4  5  1  0  0  0  0
  4 10  2  0  0  0  0
  5  9  1  0  0  0  0
  5  6  1  0  0  0  0
  6  7  1  0  0  0  0
  6 29  1  0  0  0  0
  6 30  1  0  0  0  0
  7  8  1  0  0  0  0
  7 31  1  0  0  0  0
  7 32  1  0  0  0  0
  8  9  1  0  0  0  0
  8 33  1  0  0  0  0
  8 34  1  0  0  0  0
  9 35  1  0  0  0  0
  9 36  1  0  0  0  0
 10 11  1  0  0  0  0
 10 37  1  0  0  0  0
 11 12  2  0  0  0  0
 11 38  1  0  0  0  0
 12 13  1  0  0  0  0
 13 14  1  0  0  0  0
 13 39  1  0  0  0  0
 14 15  2  0  0  0  0
 14 16  1  0  0  0  0
 16 17  1  0  0  0  0
 16 40  1  0  0  0  0
 17 25  1  0  0  0  0
 17 18  1  0  0  0  0
 17 41  1  0  0  0  0
 18 19  1  0  0  0  0
 18 42  1  0  0  0  0
 18 43  1  0  0  0  0
 19 20  1  0  0  0  0
 19 44  1  0  0  0  0
 19 45  1  0  0  0  0
 20 21  1  0  0  0  0
 21 22  1  0  0  0  0
 21 25  1  0  0  0  0
 21 46  1  0  0  0  0
 22 24  1  0  0  0  0
 22 23  1  0  0  0  0
 22 47  1  0  0  0  0
 23 24  1  0  0  0  0
 23 48  1  0  0  0  0
 23 49  1  0  0  0  0
 24 50  1  0  0  0  0
 24 51  1  0  0  0  0
 25 52  1  0  0  0  0
 25 53  1  0  0  0  0
M  END
> <s_m_source_file>
AV-unprocessed.smi

> <i_m_source_file_index>
2356

> <i_lp_mmshare_version>
43012

> <i_f3d_flags>
0

> <s_epik_input>
W0NIMl0xW0NIMl1bQ0gyXVtDSDJdTjFjKG5jMltDSDNdKVtjSF1bY0hdYzJbTkhdQyg9TylbTkhdW0NAQEhdM1tDSDJdW0NIMl1PW0NASF0oW0NIMl0zKVtDSF00W0NIMl1bQ0gyXTQ=

> <s_epik_cmdline>
J2VwaWtfcHl0aG9uJywgJy1waCcsICc3LjAnLCAnLXRuJywgJzgnLCAnLW1hJywgJzIwMCcsICctbWV0YWxfYmluZGluZycsICctaW1hZScsICc8aW5maWxlLm1hZT4nLCAnLW9tYWUnLCAnPG91dGZpbGUubWFlPic=

> <r_lp_tautomer_probability>
1

> <r_epik_Ionization_Penalty>
0.308781

> <r_epik_Ionization_Penalty_Charging>
0

> <r_epik_Ionization_Penalty_Neutral>
0.308781

> <r_epik_State_Penalty>
0.302092

> <r_epik_Charging_Adjusted_Penalty>
0.302092

> <i_epik_Tot_Q>
0

> <i_epik_Tot_abs_Q>
0

> <r_epik_Metal_State_Penalty>
0.197467

> <b_epik_Metal_Only>
0

> <s_lp_Force_Field>
OPLS_2005

> <r_lp_Energy>
52.5469

> <b_lp_Chiralities_Consistent>
1

> <s_lp_Variant>
AV-unprocessed.smi:2356-2

> <Gold.Version>
5.8.1

> <Gold.Id.Protein>
6NUR|6NUR_protein|mol2

> <Gold.PLP.Fitness>
44.8042

> <Gold.PLP.PLP>
-44.4770

> <Gold.PLP.part.hbond>
-1.0000

> <Gold.PLP.part.metal>
0.0000

> <Gold.PLP.part.buried>
-2.4423

> <Gold.PLP.part.nonpolar>
-41.7850

> <Gold.PLP.part.repulsive>
0.3301

> <Gold.PLP.ligand.clash>
0.0000

> <Gold.PLP.ligand.torsion>
1.9731

> <Gold.PLP.Chemscore.Hbond>
1.0000

> <Gold.PLP.Chemscore.CHOScore>
0.0000

> <Gold.PLP.Chemscore.Metal>
0.0000

> <Gold.Chemscore.Hbonds>
donor molecule, donor type, donor heavy atom, donor atom, acceptor molecule, acceptor atom, score
      L1  H    16    40       P1  7948  1.00

> <Gold.PLP.Chemscore.Internal.Correction>
1.2734

> <Gold.Rescore>
     Score         DG    S(hbond)    S(metal)    S(lipo)     H(rot)  DE(clash)    DE(int)     intcor
     15.51     -20.06       0.99        0.00     121.21       1.14       1.16       3.39       ----

> <Gold.Chemscore.Fitness>
15.5097

> <Gold.Chemscore.DG>
-20.0560

> <Gold.Chemscore.ZeroCoef>
-5.4800

> <Gold.Chemscore.Hbond>
0.9915

> <Gold.Chemscore.Metal>
0.0000

> <Gold.Chemscore.Lipo>
121.2103

> <Gold.Chemscore.Internal_Hbond>
0.0000

> <Gold.Chemscore.DEClash>
1.1607

> <Gold.Chemscore.DEInternal>
3.3856

> <Gold.Chemscore.Rot>
1.1395

> <Gold.Chemscore.Internal.Correction>
   9.000000E+99

> <Gold.Chemscore.Hbonds>
donor molecule, donor type, donor heavy atom, donor atom, acceptor molecule, acceptor atom, score
      L1  H    16    40       P1  7948  0.99

> <Gold.Chemscore.Hbond.Weighted>
-3.3115

> <Gold.Chemscore.Metal.Weighted>
-0.0000

> <Gold.Chemscore.Lipo.Weighted>
-14.1816

> <Gold.Chemscore.Internal_Hbond.Weighted>
0.0000

> <Gold.Chemscore.DEClash.Weighted>
1.1607

> <Gold.Chemscore.DEInternal.Weighted>
3.3856

> <Gold.Chemscore.Rot.Weighted>
2.9171

> <Gold.Chemscore.Internal.Correction.Weighted>
   9.000000E+99

> <Gold.Protein.RotatedTorsions>
[ 6907 6896 6895 6894 ] final  148.71 input  -60.11 | X-H torsion
[ 7974 7965 7964 7962 ] final   23.06 input  175.53 | X-H torsion
[ 8008 7997 7996 7995 ] final  -40.21 input   59.86 | X-H torsion
[ 10167 10162 10161 10158 ] final  -97.97 input  -65.29 | X-H torsion
[ 10718 10713 10712 10709 ] final  -52.12 input   66.30 | X-H torsion
[ 10763 10752 10751 10750 ] final    3.56 input  -60.55 | X-H torsion
[ 11005 11000 10999 10996 ] final -160.68 input  -57.11 | X-H torsion

> <Gold.Protein.ActiveResidues>
 VAL166  LYS551  ARG553  GLY616  TRP617  ASP618  TYR619  PRO620  LYS621  CYS622 
 ASP623  PHE694  ASN695  SER759  ASP760  ASP761  ALA762  ILE779  LEU786  VAL792 
 PHE793  MET794  SER795  GLU796  ALA797  LYS798  CYS799  TRP800  GLU811  SER814 

> <Gold.Protein.RotatedAtoms>
  152.1379  133.4446  159.4752 H   0  0  0  0  0  0  0  0  0  0  0  0  # atno 6907 bound_to 6896
  150.6883  134.2341  159.4455 H   0  0  0  0  0  0  0  0  0  0  0  0  # atno 6908 bound_to 6896
  152.0230  134.9811  160.0621 H   0  0  0  0  0  0  0  0  0  0  0  0  # atno 6909 bound_to 6896
  146.2001  139.7797  142.8768 H   0  0  0  0  0  0  0  0  0  0  0  0  # atno 7974 bound_to 7965
  154.4014  140.1531  156.2990 H   0  0  0  0  0  0  0  0  0  0  0  0  # atno 8008 bound_to 7997
  155.8718  140.3448  155.5804 H   0  0  0  0  0  0  0  0  0  0  0  0  # atno 8009 bound_to 7997
  155.7766  140.0837  157.2071 H   0  0  0  0  0  0  0  0  0  0  0  0  # atno 8010 bound_to 7997
  140.2779  143.3301  152.0470 H   0  0  0  0  0  0  0  0  0  0  0  0  # atno 10167 bound_to 10162
  156.1649  130.4149  149.9736 H   0  0  0  0  0  0  0  0  0  0  0  0  # atno 10718 bound_to 10713
  153.2819  135.6941  153.7377 H   0  0  0  0  0  0  0  0  0  0  0  0  # atno 10763 bound_to 10752
  153.6361  135.3401  155.3058 H   0  0  0  0  0  0  0  0  0  0  0  0  # atno 10764 bound_to 10752
  154.8497  135.4420  154.1875 H   0  0  0  0  0  0  0  0  0  0  0  0  # atno 10765 bound_to 10752
  140.6288  134.4673  157.5228 H   0  0  0  0  0  0  0  0  0  0  0  0  # atno 11005 bound_to 11000
  145.3513  141.0308  143.3337 LP  0  0  0  0  0  0  0  0  0  0  0  0  # atno 17320 bound_to 7965
  144.8665  139.5101  143.6788 LP  0  0  0  0  0  0  0  0  0  0  0  0  # atno 17321 bound_to 7965
  139.4970  144.6612  151.6460 LP  0  0  0  0  0  0  0  0  0  0  0  0  # atno 17342 bound_to 10162
  140.5836  143.9903  150.6282 LP  0  0  0  0  0  0  0  0  0  0  0  0  # atno 17343 bound_to 10162
  156.7554  130.9131  151.3639 LP  0  0  0  0  0  0  0  0  0  0  0  0  # atno 17370 bound_to 10713
  157.6760  130.9095  150.0152 LP  0  0  0  0  0  0  0  0  0  0  0  0  # atno 17371 bound_to 10713
  139.9124  134.8317  156.1482 LP  0  0  0  0  0  0  0  0  0  0  0  0  # atno 17394 bound_to 11000
  141.0690  133.6806  156.2102 LP  0  0  0  0  0  0  0  0  0  0  0  0  # atno 17395 bound_to 11000

$$$$
