#       Name:                AV-unprocessed.smi:1044
#       Creating user name   scv26
#       Creation time:       Fri Mar 27 02:56:59 2020


#       File generated by GOLD software.
#

@<TRIPOS>MOLECULE
AV-unprocessed.smi:1044
    50    51     1
SMALL
NO_CHARGES


@<TRIPOS>ATOM
      1 ****        -2.4988  -5.1100   1.7041 C.3            1 S1                 0.0000
      2 ****        -3.5415  -4.0025   1.5336 C.3            1 S1                 0.0000
      3 ****        -2.8659  -2.7778   1.2649 O.3            1 S1                 0.0000
      4 ****        -3.6162  -1.6342   1.0671 C.ar           1 S1                 0.0000
      5 ****        -4.9678  -1.7292   1.1359 N.ar           1 S1                 0.0000
      6 ****        -5.7013  -0.6131   0.9490 C.ar           1 S1                 0.0000
      7 ****        -5.1327   0.6476   0.6920 C.ar           1 S1                 0.0000
      8 ****        -3.7308   0.7489   0.6190 C.ar           1 S1                 0.0000
      9 ****        -2.9472  -0.4169   0.7996 C.ar           1 S1                 0.0000
     10 ****        -1.5248  -0.4284   0.7679 N.am           1 S1                 0.0000
     11 ****        -0.6859   0.4611   0.2103 C.2            1 S1                 0.0000
     12 ****        -1.0228   1.4637  -0.4192 O.2            1 S1                 0.0000
     13 ****         0.5920   0.1084   0.4098 N.am           1 S1                 0.0000
     14 ****         1.7542   0.8527  -0.0647 C.3            1 S1                 0.0000
     15 ****         2.9644   0.5547   0.8313 C.3            1 S1                 0.0000
     16 ****         4.1896   1.3159   0.3133 C.3            1 S1                 0.0000
     17 ****         4.4786   0.9721  -1.1581 C.3            1 S1                 0.0000
     18 ****         3.2892   1.1736  -2.0113 N.pl3          1 S1                 0.0000
     19 ****         3.1595   2.5961  -3.0053 S.o2           1 S1                 0.0000
     20 ****         2.6476   3.9175  -1.8331 C.3            1 S1                 0.0000
     21 ****         4.5041   2.9203  -3.5057 O.2            1 S1                 0.0000
     22 ****         2.0603   2.3791  -3.9582 O.2            1 S1                 0.0000
     23 ****         2.0655   0.4975  -1.5350 C.3            1 S1                 0.0000
     24 ****        -2.9781  -6.0668   1.9122 H              1 S1                 0.0000
     25 ****        -1.8227  -4.8879   2.5302 H              1 S1                 0.0000
     26 ****        -1.8994  -5.2256   0.8007 H              1 S1                 0.0000
     27 ****        -4.2129  -4.2565   0.7117 H              1 S1                 0.0000
     28 ****        -4.1370  -3.9171   2.4440 H              1 S1                 0.0000
     29 ****        -6.7733  -0.7274   1.0124 H              1 S1                 0.0000
     30 ****        -5.7571   1.5185   0.5583 H              1 S1                 0.0000
     31 ****        -3.2894   1.7173   0.4422 H              1 S1                 0.0000
     32 ****        -1.0951  -1.2454   1.1769 H              1 S1                 0.0000
     33 ****         0.7757  -0.7360   0.9316 H              1 S1                 0.0000
     34 ****         1.5361   1.9179   0.0137 H              1 S1                 0.0000
     35 ****         2.7554   0.8441   1.8618 H              1 S1                 0.0000
     36 ****         3.1727  -0.5162   0.8407 H              1 S1                 0.0000
     37 ****         4.0299   2.3877   0.4238 H              1 S1                 0.0000
     38 ****         5.0592   1.0738   0.9248 H              1 S1                 0.0000
     39 ****         5.3175   1.5614  -1.5273 H              1 S1                 0.0000
     40 ****         4.7817  -0.0726  -1.2341 H              1 S1                 0.0000
     41 ****         2.5693   4.8604  -2.3733 H              1 S1                 0.0000
     42 ****         3.3891   4.0226  -1.0432 H              1 S1                 0.0000
     43 ****         1.6758   3.6763  -1.4048 H              1 S1                 0.0000
     44 ****         2.2101  -0.5792  -1.6328 H              1 S1                 0.0000
     45 ****         1.2236   0.7526  -2.1788 H              1 S1                 0.0000
     46 ****        -2.3202  -2.9180   0.4388 LP             1 S1                 0.0000
     47 ****        -2.2586  -2.6008   2.0395 LP             1 S1                 0.0000
     48 ****        -5.4101  -2.6068   1.3210 LP             1 S1                 0.0000
     49 ****        -1.9926   1.6699  -0.5493 LP             1 S1                 0.0000
     50 ****        -0.3267   2.0721  -0.8004 LP             1 S1                 0.0000
@<TRIPOS>BOND
    1    1    2 1     
    2    1   24 1     
    3    1   25 1     
    4    1   26 1     
    5    2    3 1     
    6    2   27 1     
    7    2   28 1     
    8    3    4 1     
    9    4    9 ar    
   10    4    5 ar    
   11    5    6 ar    
   12    6    7 ar    
   13    6   29 1     
   14    7    8 ar    
   15    7   30 1     
   16    8    9 ar    
   17    8   31 1     
   18    9   10 1     
   19   10   11 am    
   20   10   32 1     
   21   11   12 2     
   22   11   13 am    
   23   13   14 1     
   24   13   33 1     
   25   14   23 1     
   26   14   15 1     
   27   14   34 1     
   28   15   16 1     
   29   15   35 1     
   30   15   36 1     
   31   16   17 1     
   32   16   37 1     
   33   16   38 1     
   34   17   18 1     
   35   17   39 1     
   36   17   40 1     
   37   18   19 1     
   38   18   23 1     
   39   19   20 1     
   40   19   21 2     
   41   19   22 2     
   42   20   41 1     
   43   20   42 1     
   44   20   43 1     
   45   23   44 1     
   46   23   45 1     
   47    3   46 1     
   48    3   47 1     
   49    5   48 1     
   50   12   49 1     
   51   12   50 1     
@<TRIPOS>SUBSTRUCTURE
      1 S1             1
@<TRIPOS>SET
LONE_PAIRS      STATIC     ATOMS    <user>   **** ""
7 46 47 48 49 50 21 22
DONOR_HYDROGENS      STATIC     ATOMS    <user>   **** ""
2 32 33
ATOM$BLUE        STATIC     ATOMS    COLORGROUP SYSTEM
7 46 47 48 49 50 21 22
ATOM$RED        STATIC     ATOMS    COLORGROUP SYSTEM
2 32 33
