AV-unprocessed.smi:876|AV-procd|sdf|4026|dock1
  -GOLD-   22720 1513D 1   1.00000     0.00000
 Structure written by MMmdl.
 40 41  0  0  0  0  0  0  0  0  1 V2000
  151.5232  139.4512  156.2790 C   0  0  0  0  0  0  0  0  0  0  0  0
  150.4402  140.4225  156.1861 N   0  0  0  0  0  0  0  0  0  0  0  0
  150.5819  141.7325  156.8136 C   0  0  0  0  0  0  0  0  0  0  0  0
  149.2612  140.1081  155.4719 C   0  0  0  0  0  0  0  0  0  0  0  0
  148.2981  141.0995  155.1596 C   0  0  0  0  0  0  0  0  0  0  0  0
  147.1384  140.7377  154.4472 C   0  0  0  0  0  0  0  0  0  0  0  0
  146.9674  139.3907  154.0524 C   0  0  0  0  0  0  0  0  0  0  0  0
  145.8388  138.8915  153.3461 N   0  0  0  0  0  0  0  0  0  0  0  0
  145.5700  137.6302  152.9665 C   0  0  0  0  0  0  0  0  0  0  0  0
  146.2802  136.6495  153.1869 O   0  0  0  0  0  0  0  0  0  0  0  0
  144.3991  137.5607  152.3175 N   0  0  0  0  0  0  0  0  0  0  0  0
  143.8094  136.3342  151.7918 C   0  0  1  0  0  0  0  0  0  0  0  0
  144.7397  135.6796  150.8076 C   0  0  0  0  0  0  0  0  0  0  0  0
  145.0022  134.4111  151.1142 C   0  0  0  0  0  0  0  0  0  0  0  0
  144.3062  133.9577  152.3721 C   0  0  1  0  0  0  0  0  0  0  0  0
  145.2675  133.3407  153.4028 C   0  0  0  0  0  0  0  0  0  0  0  0
  144.6284  133.1943  154.6539 O   0  0  0  0  0  0  0  0  0  0  0  0
  143.6092  135.2460  152.8797 C   0  0  0  0  0  0  0  0  0  0  0  0
  147.9732  138.4745  154.4167 C   0  0  0  0  0  0  0  0  0  0  0  0
  149.0850  138.8166  155.0997 N   0  0  0  0  0  0  0  0  0  0  0  0
  142.8704  136.5526  151.2806 H   0  0  0  0  0  0  0  0  0  0  0  0
  143.5505  133.2236  152.0887 H   0  0  0  0  0  0  0  0  0  0  0  0
  151.9091  139.2109  155.2880 H   0  0  0  0  0  0  0  0  0  0  0  0
  151.1748  138.5321  156.7513 H   0  0  0  0  0  0  0  0  0  0  0  0
  152.3515  139.8361  156.8739 H   0  0  0  0  0  0  0  0  0  0  0  0
  149.8039  141.8857  157.5621 H   0  0  0  0  0  0  0  0  0  0  0  0
  150.5059  142.5245  156.0678 H   0  0  0  0  0  0  0  0  0  0  0  0
  151.5471  141.8342  157.3098 H   0  0  0  0  0  0  0  0  0  0  0  0
  148.4211  142.1300  155.4567 H   0  0  0  0  0  0  0  0  0  0  0  0
  146.4046  141.4985  154.2337 H   0  0  0  0  0  0  0  0  0  0  0  0
  145.1219  139.5735  153.1463 H   0  0  0  0  0  0  0  0  0  0  0  0
  143.8760  138.4132  152.1812 H   0  0  0  0  0  0  0  0  0  0  0  0
  145.1241  136.2011  149.9433 H   0  0  0  0  0  0  0  0  0  0  0  0
  145.6317  133.7511  150.5355 H   0  0  0  0  0  0  0  0  0  0  0  0
  145.6268  132.3674  153.0665 H   0  0  0  0  0  0  0  0  0  0  0  0
  146.1408  133.9800  153.5342 H   0  0  0  0  0  0  0  0  0  0  0  0
  143.7463  132.8887  154.5070 H   0  0  0  0  0  0  0  0  0  0  0  0
  144.0438  135.5637  153.8291 H   0  0  0  0  0  0  0  0  0  0  0  0
  142.5491  135.0710  153.0666 H   0  0  0  0  0  0  0  0  0  0  0  0
  147.8872  137.4313  154.1495 H   0  0  0  0  0  0  0  0  0  0  0  0
  1  2  1  0  0  0  0
  1 23  1  0  0  0  0
  1 24  1  0  0  0  0
  1 25  1  0  0  0  0
  2  3  1  0  0  0  0
  2  4  1  0  0  0  0
  3 26  1  0  0  0  0
  3 27  1  0  0  0  0
  3 28  1  0  0  0  0
  4 20  1  0  0  0  0
  4  5  2  0  0  0  0
  5  6  1  0  0  0  0
  5 29  1  0  0  0  0
  6  7  2  0  0  0  0
  6 30  1  0  0  0  0
  7  8  1  0  0  0  0
  7 19  1  0  0  0  0
  8  9  1  0  0  0  0
  8 31  1  0  0  0  0
  9 10  2  0  0  0  0
  9 11  1  0  0  0  0
 11 12  1  0  0  0  0
 11 32  1  0  0  0  0
 12 21  1  0  0  0  0
 12 18  1  0  0  0  0
 12 13  1  0  0  0  0
 13 14  2  0  0  0  0
 13 33  1  0  0  0  0
 14 15  1  0  0  0  0
 14 34  1  0  0  0  0
 15 22  1  0  0  0  0
 15 16  1  0  0  0  0
 15 18  1  0  0  0  0
 16 17  1  0  0  0  0
 16 35  1  0  0  0  0
 16 36  1  0  0  0  0
 17 37  1  0  0  0  0
 18 38  1  0  0  0  0
 18 39  1  0  0  0  0
 19 20  2  0  0  0  0
 19 40  1  0  0  0  0
M  END
> <s_m_source_file>
AV-unprocessed.smi

> <i_m_source_file_index>
876

> <i_lp_mmshare_version>
43012

> <i_f3d_flags>
0

> <s_epik_input>
W0NIM11OKFtDSDNdKWMxW2NIXVtjSF1jKFtjSF1uMSlbTkhdQyg9TylbTkhdW0NAQEhdMltDSF09W0NIXVtDQEBIXShbQ0gyXTIpW0NIMl1bT0hd

> <s_epik_cmdline>
J2VwaWtfcHl0aG9uJywgJy1waCcsICc3LjAnLCAnLXRuJywgJzgnLCAnLW1hJywgJzIwMCcsICctbWV0YWxfYmluZGluZycsICctaW1hZScsICc8aW5maWxlLm1hZT4nLCAnLW9tYWUnLCAnPG91dGZpbGUubWFlPic=

> <r_lp_tautomer_probability>
1

> <r_epik_Ionization_Penalty>
0.617998

> <r_epik_Ionization_Penalty_Charging>
0

> <r_epik_Ionization_Penalty_Neutral>
0.617998

> <r_epik_State_Penalty>
0.632637

> <r_epik_Charging_Adjusted_Penalty>
0.632637

> <i_epik_Tot_Q>
0

> <i_epik_Tot_abs_Q>
0

> <r_epik_Metal_State_Penalty>
0.305596

> <b_epik_Metal_Only>
0

> <s_lp_Force_Field>
OPLS_2005

> <r_lp_Energy>
21.5566

> <b_lp_Chiralities_Consistent>
1

> <s_lp_Variant>
AV-unprocessed.smi:876-8

> <Gold.Version>
5.8.1

> <Gold.Id.Protein>
6NUR|6NUR_protein|mol2

> <Gold.PLP.Fitness>
43.8981

> <Gold.PLP.PLP>
-32.1224

> <Gold.PLP.part.hbond>
-4.0000

> <Gold.PLP.part.metal>
0.0000

> <Gold.PLP.part.buried>
-3.2125

> <Gold.PLP.part.nonpolar>
-26.6100

> <Gold.PLP.part.repulsive>
2.2358

> <Gold.PLP.ligand.clash>
0.0000

> <Gold.PLP.ligand.torsion>
0.1232

> <Gold.PLP.Chemscore.Hbond>
3.0000

> <Gold.PLP.Chemscore.CHOScore>
1.0000

> <Gold.PLP.Chemscore.Metal>
0.0000

> <Gold.Chemscore.Hbonds>
donor molecule, donor type, donor heavy atom, donor atom, acceptor molecule, acceptor atom, score
      L1  H     8    31       P1 10175  1.00
      L1  H    11    32       P1 10175  0.96
      L1  H    17    37       P1 10957  0.93
      L1  C    19    40       P1  7948  0.32

> <Gold.PLP.Chemscore.Internal.Correction>
0.0221

> <Gold.Rescore>
     Score         DG    S(hbond)    S(metal)    S(lipo)     H(rot)  DE(clash)    DE(int)     intcor
     13.91     -16.81       2.90        0.00      53.32       1.80       0.06       2.84       ----

> <Gold.Chemscore.Fitness>
13.9098

> <Gold.Chemscore.DG>
-16.8054

> <Gold.Chemscore.ZeroCoef>
-5.4800

> <Gold.Chemscore.Hbond>
2.9011

> <Gold.Chemscore.Metal>
0.0000

> <Gold.Chemscore.Lipo>
53.3202

> <Gold.Chemscore.Internal_Hbond>
0.0000

> <Gold.Chemscore.DEClash>
0.0580

> <Gold.Chemscore.DEInternal>
2.8377

> <Gold.Chemscore.Rot>
1.7980

> <Gold.Chemscore.Internal.Correction>
   9.000000E+99

> <Gold.Chemscore.Hbonds>
donor molecule, donor type, donor heavy atom, donor atom, acceptor molecule, acceptor atom, score
      L1  H     8    31       P1 10175  1.00
      L1  H    11    32       P1 10175  0.86
      L1  H    17    37       P1 10957  0.88

> <Gold.Chemscore.Hbond.Weighted>
-9.6898

> <Gold.Chemscore.Metal.Weighted>
-0.0000

> <Gold.Chemscore.Lipo.Weighted>
-6.2385

> <Gold.Chemscore.Internal_Hbond.Weighted>
0.0000

> <Gold.Chemscore.DEClash.Weighted>
0.0580

> <Gold.Chemscore.DEInternal.Weighted>
2.8377

> <Gold.Chemscore.Rot.Weighted>
4.6029

> <Gold.Chemscore.Internal.Correction.Weighted>
   9.000000E+99

> <Gold.Protein.RotatedTorsions>
[ 6907 6896 6895 6894 ] final  -47.69 input  -60.11 | X-H torsion
[ 7974 7965 7964 7962 ] final  -93.49 input  175.53 | X-H torsion
[ 8008 7997 7996 7995 ] final   23.00 input   59.86 | X-H torsion
[ 10167 10162 10161 10158 ] final  -33.59 input  -65.29 | X-H torsion
[ 10718 10713 10712 10709 ] final -170.36 input   66.30 | X-H torsion
[ 10763 10752 10751 10750 ] final -142.03 input  -60.55 | X-H torsion
[ 11005 11000 10999 10996 ] final   12.63 input  -57.11 | X-H torsion

> <Gold.Protein.ActiveResidues>
 VAL166  LYS551  ARG553  GLY616  TRP617  ASP618  TYR619  PRO620  LYS621  CYS622 
 ASP623  PHE694  ASN695  SER759  ASP760  ASP761  ALA762  ILE779  LEU786  VAL792 
 PHE793  MET794  SER795  GLU796  ALA797  LYS798  CYS799  TRP800  GLU811  SER814 

> <Gold.Protein.RotatedAtoms>
  150.8982  134.8392  159.7340 H   0  0  0  0  0  0  0  0  0  0  0  0  # atno 6907 bound_to 6896
  152.4877  134.4544  159.9595 H   0  0  0  0  0  0  0  0  0  0  0  0  # atno 6908 bound_to 6896
  151.4599  133.3556  159.2843 H   0  0  0  0  0  0  0  0  0  0  0  0  # atno 6909 bound_to 6896
  145.3858  140.9523  143.2368 H   0  0  0  0  0  0  0  0  0  0  0  0  # atno 7974 bound_to 7965
  154.9742  140.3094  155.4974 H   0  0  0  0  0  0  0  0  0  0  0  0  # atno 8008 bound_to 7997
  156.2962  140.2278  156.4776 H   0  0  0  0  0  0  0  0  0  0  0  0  # atno 8009 bound_to 7997
  154.7849  140.0443  157.1144 H   0  0  0  0  0  0  0  0  0  0  0  0  # atno 8010 bound_to 7997
  140.7201  143.3609  151.1964 H   0  0  0  0  0  0  0  0  0  0  0  0  # atno 10167 bound_to 10162
  156.7250  130.9285  151.3100 H   0  0  0  0  0  0  0  0  0  0  0  0  # atno 10718 bound_to 10713
  154.8524  135.3507  154.5962 H   0  0  0  0  0  0  0  0  0  0  0  0  # atno 10763 bound_to 10752
  153.6571  135.6991  153.5194 H   0  0  0  0  0  0  0  0  0  0  0  0  # atno 10764 bound_to 10752
  153.2847  135.4253  155.1069 H   0  0  0  0  0  0  0  0  0  0  0  0  # atno 10765 bound_to 10752
  140.4898  134.0852  155.7768 H   0  0  0  0  0  0  0  0  0  0  0  0  # atno 11005 bound_to 11000
  144.8475  139.5374  143.6872 LP  0  0  0  0  0  0  0  0  0  0  0  0  # atno 17320 bound_to 7965
  146.2820  139.6904  142.9222 LP  0  0  0  0  0  0  0  0  0  0  0  0  # atno 17321 bound_to 7965
  139.7161  143.9298  152.2967 LP  0  0  0  0  0  0  0  0  0  0  0  0  # atno 17342 bound_to 10162
  139.9039  144.6896  150.8635 LP  0  0  0  0  0  0  0  0  0  0  0  0  # atno 17343 bound_to 10162
  157.6882  130.9207  150.0443 LP  0  0  0  0  0  0  0  0  0  0  0  0  # atno 17370 bound_to 10713
  156.1568  130.3643  149.9357 LP  0  0  0  0  0  0  0  0  0  0  0  0  # atno 17371 bound_to 10713
  141.1490  133.9003  157.2145 LP  0  0  0  0  0  0  0  0  0  0  0  0  # atno 17394 bound_to 11000
  139.9776  135.0109  156.9670 LP  0  0  0  0  0  0  0  0  0  0  0  0  # atno 17395 bound_to 11000

$$$$
