AV-unprocessed.smi:1196|AV-procd|sdf|4999|dock3
  -GOLD-   22720 4 03D 1   1.00000     0.00000
 Structure written by MMmdl.
 37 38  0  0  0  0  0  0  0  0  1 V2000
  151.7345  144.1567  158.0514 C   0  0  0  0  0  0  0  0  0  0  0  0
  151.7140  142.7087  157.5379 C   0  0  1  0  0  0  0  0  0  0  0  0
  151.4340  141.7090  158.6766 C   0  0  0  0  0  0  0  0  0  0  0  0
  152.1856  142.0211  159.8799 N   0  0  0  0  0  0  0  0  0  0  0  0
  153.4579  141.6149  160.2226 C   0  0  0  0  0  0  0  0  0  0  0  0
  153.7364  142.1443  161.4499 C   0  0  0  0  0  0  0  0  0  0  0  0
  152.5568  142.8678  161.7816 C   0  0  0  0  0  0  0  0  0  0  0  0
  151.6309  142.7938  160.8393 N   0  0  0  0  0  0  0  0  0  0  0  0
  150.7076  142.5650  156.4881 N   0  0  0  0  0  0  0  0  0  0  0  0
  150.4774  141.4542  155.7724 C   0  0  0  0  0  0  0  0  0  0  0  0
  151.1372  140.4217  155.8958 O   0  0  0  0  0  0  0  0  0  0  0  0
  149.3241  141.5347  154.7678 C   0  0  0  0  0  0  0  0  0  0  0  0
  148.3917  140.3081  154.8055 C   0  0  0  0  0  0  0  0  0  0  0  0
  147.2359  140.4013  153.7905 C   0  0  1  0  0  0  0  0  0  0  0  0
  147.6232  139.9735  152.4570 N   0  0  0  0  0  0  0  0  0  0  0  0
  146.8920  138.9404  152.0177 C   0  0  0  0  0  0  0  0  0  0  0  0
  147.0067  138.3873  150.9267 O   0  0  0  0  0  0  0  0  0  0  0  0
  146.0165  138.6172  152.9759 N   0  0  0  0  0  0  0  0  0  0  0  0
  146.1338  139.3904  154.0540 C   0  0  0  0  0  0  0  0  0  0  0  0
  145.4784  139.3182  155.0917 O   0  0  0  0  0  0  0  0  0  0  0  0
  152.4948  144.2873  158.8220 H   0  0  0  0  0  0  0  0  0  0  0  0
  150.7732  144.4396  158.4815 H   0  0  0  0  0  0  0  0  0  0  0  0
  151.9605  144.8582  157.2476 H   0  0  0  0  0  0  0  0  0  0  0  0
  152.6990  142.4812  157.1258 H   0  0  0  0  0  0  0  0  0  0  0  0
  150.3741  141.7213  158.9331 H   0  0  0  0  0  0  0  0  0  0  0  0
  151.6652  140.6895  158.3628 H   0  0  0  0  0  0  0  0  0  0  0  0
  154.0507  140.9876  159.5733 H   0  0  0  0  0  0  0  0  0  0  0  0
  154.6439  142.0303  162.0241 H   0  0  0  0  0  0  0  0  0  0  0  0
  152.3471  143.4408  162.6727 H   0  0  0  0  0  0  0  0  0  0  0  0
  150.1149  143.3649  156.3195 H   0  0  0  0  0  0  0  0  0  0  0  0
  148.7435  142.4353  154.9743 H   0  0  0  0  0  0  0  0  0  0  0  0
  149.7485  141.6560  153.7706 H   0  0  0  0  0  0  0  0  0  0  0  0
  148.9711  139.4012  154.6222 H   0  0  0  0  0  0  0  0  0  0  0  0
  147.9736  140.2049  155.8084 H   0  0  0  0  0  0  0  0  0  0  0  0
  146.8182  141.4082  153.7535 H   0  0  0  0  0  0  0  0  0  0  0  0
  148.3610  140.4175  151.9298 H   0  0  0  0  0  0  0  0  0  0  0  0
  145.3485  137.8647  152.8948 H   0  0  0  0  0  0  0  0  0  0  0  0
  1  2  1  0  0  0  0
  1 21  1  0  0  0  0
  1 22  1  0  0  0  0
  1 23  1  0  0  0  0
  2  3  1  0  0  0  0
  2  9  1  0  0  0  0
  2 24  1  0  0  0  0
  3  4  1  0  0  0  0
  3 25  1  0  0  0  0
  3 26  1  0  0  0  0
  4  8  1  0  0  0  0
  4  5  1  0  0  0  0
  5  6  2  0  0  0  0
  5 27  1  0  0  0  0
  6  7  1  0  0  0  0
  6 28  1  0  0  0  0
  7  8  2  0  0  0  0
  7 29  1  0  0  0  0
  9 10  1  0  0  0  0
  9 30  1  0  0  0  0
 10 11  2  0  0  0  0
 10 12  1  0  0  0  0
 12 13  1  0  0  0  0
 12 31  1  0  0  0  0
 12 32  1  0  0  0  0
 13 14  1  0  0  0  0
 13 33  1  0  0  0  0
 13 34  1  0  0  0  0
 14 19  1  0  0  0  0
 14 15  1  0  0  0  0
 14 35  1  0  0  0  0
 15 16  1  0  0  0  0
 15 36  1  0  0  0  0
 16 17  2  0  0  0  0
 16 18  1  0  0  0  0
 18 19  1  0  0  0  0
 18 37  1  0  0  0  0
 19 20  2  0  0  0  0
M  END
> <s_m_source_file>
AV-unprocessed.smi

> <i_m_source_file_index>
1196

> <i_lp_mmshare_version>
43012

> <i_f3d_flags>
0

> <s_epik_input>
bjFbY0hdW2NIXVtjSF1uMVtDSDJdW0NAQEhdKFtDSDNdKVtOSF1DKD1PKVtDSDJdW0NIMl1bQ0BASF0yW05IXUMoPU8pW05IXUMyPU8=

> <s_epik_cmdline>
J2VwaWtfcHl0aG9uJywgJy1waCcsICc3LjAnLCAnLXRuJywgJzgnLCAnLW1hJywgJzIwMCcsICctbWV0YWxfYmluZGluZycsICctaW1hZScsICc8aW5maWxlLm1hZT4nLCAnLW9tYWUnLCAnPG91dGZpbGUubWFlPic=

> <r_lp_tautomer_probability>
1

> <r_epik_Ionization_Penalty>
0.00815973

> <r_epik_Ionization_Penalty_Charging>
0

> <r_epik_Ionization_Penalty_Neutral>
0.00815973

> <r_epik_State_Penalty>
0.00583796

> <r_epik_Charging_Adjusted_Penalty>
0.00583796

> <i_epik_Tot_Q>
0

> <i_epik_Tot_abs_Q>
0

> <r_epik_Metal_State_Penalty>
0.409204

> <b_epik_Metal_Only>
0

> <s_lp_Force_Field>
OPLS_2005

> <r_lp_Energy>
17.2443

> <b_lp_Chiralities_Consistent>
1

> <s_lp_Variant>
AV-unprocessed.smi:1196-4

> <Gold.Version>
5.8.1

> <Gold.Id.Protein>
6NUR|6NUR_protein|mol2

> <Gold.PLP.Fitness>
48.6849

> <Gold.PLP.PLP>
-41.6267

> <Gold.PLP.part.hbond>
-4.9895

> <Gold.PLP.part.metal>
0.0000

> <Gold.PLP.part.buried>
-5.8903

> <Gold.PLP.part.nonpolar>
-31.4586

> <Gold.PLP.part.repulsive>
0.9074

> <Gold.PLP.ligand.clash>
0.0000

> <Gold.PLP.ligand.torsion>
0.8380

> <Gold.PLP.Chemscore.Hbond>
2.8905

> <Gold.PLP.Chemscore.CHOScore>
0.0000

> <Gold.PLP.Chemscore.Metal>
0.0000

> <Gold.Chemscore.Hbonds>
donor molecule, donor type, donor heavy atom, donor atom, acceptor molecule, acceptor atom, score
      L1  H     9    30       P1  8028  1.00
      L1  H    15    36       P1  7957  0.73
      P1  H  6933  6945       L1     8  0.05
      P1  H  7954  7966       L1    17  1.00

> <Gold.PLP.Chemscore.Internal.Correction>
0.0626

> <Gold.Rescore>
     Score         DG    S(hbond)    S(metal)    S(lipo)     H(rot)  DE(clash)    DE(int)     intcor
     14.89     -17.50       2.97        0.00      82.52       2.96       1.92       0.68       ----

> <Gold.Chemscore.Fitness>
14.8916

> <Gold.Chemscore.DG>
-17.4955

> <Gold.Chemscore.ZeroCoef>
-5.4800

> <Gold.Chemscore.Hbond>
2.9737

> <Gold.Chemscore.Metal>
0.0000

> <Gold.Chemscore.Lipo>
82.5176

> <Gold.Chemscore.Internal_Hbond>
0.0000

> <Gold.Chemscore.DEClash>
1.9222

> <Gold.Chemscore.DEInternal>
0.6817

> <Gold.Chemscore.Rot>
2.9575

> <Gold.Chemscore.Internal.Correction>
   9.000000E+99

> <Gold.Chemscore.Hbonds>
donor molecule, donor type, donor heavy atom, donor atom, acceptor molecule, acceptor atom, score
      L1  H     9    30       P1  8028  0.99
      L1  H    15    36       P1  7957  0.69
      P1  H  6933  6945       L1     8  0.01
      P1  H  7954  7966       L1    17  0.97

> <Gold.Chemscore.Hbond.Weighted>
-9.9323

> <Gold.Chemscore.Metal.Weighted>
-0.0000

> <Gold.Chemscore.Lipo.Weighted>
-9.6546

> <Gold.Chemscore.Internal_Hbond.Weighted>
0.0000

> <Gold.Chemscore.DEClash.Weighted>
1.9222

> <Gold.Chemscore.DEInternal.Weighted>
0.6817

> <Gold.Chemscore.Rot.Weighted>
7.5713

> <Gold.Chemscore.Internal.Correction.Weighted>
   9.000000E+99

> <Gold.Protein.RotatedTorsions>
[ 6907 6896 6895 6894 ] final   91.36 input  -60.11 | X-H torsion
[ 7974 7965 7964 7962 ] final   93.88 input  175.53 | X-H torsion
[ 8008 7997 7996 7995 ] final  -13.86 input   59.86 | X-H torsion
[ 10167 10162 10161 10158 ] final    9.06 input  -65.29 | X-H torsion
[ 10718 10713 10712 10709 ] final  156.66 input   66.30 | X-H torsion
[ 10763 10752 10751 10750 ] final -123.44 input  -60.55 | X-H torsion
[ 11005 11000 10999 10996 ] final  128.65 input  -57.11 | X-H torsion

> <Gold.Protein.ActiveResidues>
 VAL166  LYS551  ARG553  GLY616  TRP617  ASP618  TYR619  PRO620  LYS621  CYS622 
 ASP623  PHE694  ASN695  SER759  ASP760  ASP761  ALA762  ILE779  LEU786  VAL792 
 PHE793  MET794  SER795  GLU796  ALA797  LYS798  CYS799  TRP800  GLU811  SER814 

> <Gold.Protein.RotatedAtoms>
  152.5449  134.1668  159.8580 H   0  0  0  0  0  0  0  0  0  0  0  0  # atno 6907 bound_to 6896
  151.1682  133.4794  159.2601 H   0  0  0  0  0  0  0  0  0  0  0  0  # atno 6908 bound_to 6896
  151.1303  135.0138  159.8634 H   0  0  0  0  0  0  0  0  0  0  0  0  # atno 6909 bound_to 6896
  145.4730  139.2281  143.2924 H   0  0  0  0  0  0  0  0  0  0  0  0  # atno 7974 bound_to 7965
  154.5257  140.2238  155.8894 H   0  0  0  0  0  0  0  0  0  0  0  0  # atno 8008 bound_to 7997
  156.1711  140.3121  155.8939 H   0  0  0  0  0  0  0  0  0  0  0  0  # atno 8009 bound_to 7997
  155.3557  140.0458  157.3037 H   0  0  0  0  0  0  0  0  0  0  0  0  # atno 8010 bound_to 7997
  140.6277  143.8063  150.7255 H   0  0  0  0  0  0  0  0  0  0  0  0  # atno 10167 bound_to 10162
  157.2020  131.0678  151.2019 H   0  0  0  0  0  0  0  0  0  0  0  0  # atno 10718 bound_to 10713
  154.8708  135.4098  154.2944 H   0  0  0  0  0  0  0  0  0  0  0  0  # atno 10763 bound_to 10752
  153.3814  135.7011  153.6568 H   0  0  0  0  0  0  0  0  0  0  0  0  # atno 10764 bound_to 10752
  153.5388  135.3652  155.2681 H   0  0  0  0  0  0  0  0  0  0  0  0  # atno 10765 bound_to 10752
  139.9572  134.9610  156.9033 H   0  0  0  0  0  0  0  0  0  0  0  0  # atno 11005 bound_to 11000
  146.2385  140.5510  142.8944 LP  0  0  0  0  0  0  0  0  0  0  0  0  # atno 17320 bound_to 7965
  144.7934  140.6075  143.6526 LP  0  0  0  0  0  0  0  0  0  0  0  0  # atno 17321 bound_to 7965
  140.1667  143.4229  152.2029 LP  0  0  0  0  0  0  0  0  0  0  0  0  # atno 17342 bound_to 10162
  139.5495  144.7326  151.4478 LP  0  0  0  0  0  0  0  0  0  0  0  0  # atno 17343 bound_to 10162
  157.3757  130.7205  149.6595 LP  0  0  0  0  0  0  0  0  0  0  0  0  # atno 17370 bound_to 10713
  155.9699  130.4186  150.4336 LP  0  0  0  0  0  0  0  0  0  0  0  0  # atno 17371 bound_to 10713
  140.5582  134.0561  155.7390 LP  0  0  0  0  0  0  0  0  0  0  0  0  # atno 17394 bound_to 11000
  141.1245  133.9406  157.2663 LP  0  0  0  0  0  0  0  0  0  0  0  0  # atno 17395 bound_to 11000

$$$$
