AV-unprocessed.smi:1278|AV-procd|sdf|5350|dock8
  -GOLD-   22720 4483D 1   1.00000     0.00000
 Structure written by MMmdl.
 39 40  0  0  0  0  0  0  0  0  2 V2000
  150.6549  141.8734  156.2741 C   0  0  0  0  0  0  0  0  0  0  0  0
  150.3304  140.8682  155.1601 C   0  0  1  0  0  0  0  0  0  0  0  0
  151.0660  139.5350  155.3760 C   0  0  0  0  0  0  0  0  0  0  0  0
  150.7028  138.5420  154.2653 C   0  0  0  0  0  0  0  0  0  0  0  0
  149.1803  138.3595  154.1675 C   0  0  0  0  0  0  0  0  0  0  0  0
  148.4972  139.6616  153.9536 N   0  3  1  0  0  0  0  0  0  0  0  0
  147.0410  139.4962  153.7172 C   0  0  0  0  0  0  0  0  0  0  0  0
  146.7175  139.1487  152.2507 C   0  0  0  0  0  0  0  0  0  0  0  0
  146.8779  137.7227  151.9897 N   0  0  0  0  0  0  0  0  0  0  0  0
  145.8684  136.8677  151.7704 C   0  0  0  0  0  0  0  0  0  0  0  0
  144.6853  137.2095  151.7608 O   0  0  0  0  0  0  0  0  0  0  0  0
  146.3197  135.6179  151.5648 N   0  0  0  0  0  0  0  0  0  0  0  0
  145.5644  134.4486  151.2850 C   0  0  0  0  0  0  0  0  0  0  0  0
  144.2467  134.4398  151.0528 N   0  0  0  0  0  0  0  0  0  0  0  0
  143.7664  133.1516  150.8042 C   0  0  0  0  0  0  0  0  0  0  0  0
  144.7394  132.1846  150.8508 C   0  0  0  0  0  0  0  0  0  0  0  0
  146.3073  132.8575  151.2102 S   0  0  0  0  0  0  0  0  0  0  0  0
  148.8118  140.6281  155.0402 C   0  0  0  0  0  0  0  0  0  0  0  0
  150.3324  141.5044  157.2483 H   0  0  0  0  0  0  0  0  0  0  0  0
  150.1591  142.8286  156.0992 H   0  0  0  0  0  0  0  0  0  0  0  0
  151.7270  142.0648  156.3294 H   0  0  0  0  0  0  0  0  0  0  0  0
  150.6789  141.2976  154.2193 H   0  0  0  0  0  0  0  0  0  0  0  0
  152.1447  139.6952  155.3917 H   0  0  0  0  0  0  0  0  0  0  0  0
  150.7988  139.1133  156.3460 H   0  0  0  0  0  0  0  0  0  0  0  0
  151.0920  138.8999  153.3110 H   0  0  0  0  0  0  0  0  0  0  0  0
  151.1823  137.5809  154.4539 H   0  0  0  0  0  0  0  0  0  0  0  0
  148.9566  137.6832  153.3415 H   0  0  0  0  0  0  0  0  0  0  0  0
  148.7968  137.8903  155.0749 H   0  0  0  0  0  0  0  0  0  0  0  0
  146.6727  138.6880  154.3504 H   0  0  0  0  0  0  0  0  0  0  0  0
  146.5090  140.3965  154.0294 H   0  0  0  0  0  0  0  0  0  0  0  0
  145.6875  139.4064  152.0071 H   0  0  0  0  0  0  0  0  0  0  0  0
  147.3510  139.7234  151.5726 H   0  0  0  0  0  0  0  0  0  0  0  0
  147.8206  137.3608  151.9841 H   0  0  0  0  0  0  0  0  0  0  0  0
  147.3195  135.4866  151.6086 H   0  0  0  0  0  0  0  0  0  0  0  0
  142.7145  133.0137  150.6022 H   0  0  0  0  0  0  0  0  0  0  0  0
  144.6288  131.1216  150.6955 H   0  0  0  0  0  0  0  0  0  0  0  0
  148.4127  140.2540  155.9847 H   0  0  0  0  0  0  0  0  0  0  0  0
  148.3198  141.5806  154.8471 H   0  0  0  0  0  0  0  0  0  0  0  0
  148.8817  140.0407  153.0999 H   0  0  0  0  0  0  0  0  0  0  0  0
  1  2  1  0  0  0  0
  1 19  1  0  0  0  0
  1 20  1  0  0  0  0
  1 21  1  0  0  0  0
  2 18  1  0  0  0  0
  2  3  1  0  0  0  0
  2 22  1  0  0  0  0
  3  4  1  0  0  0  0
  3 23  1  0  0  0  0
  3 24  1  0  0  0  0
  4  5  1  0  0  0  0
  4 25  1  0  0  0  0
  4 26  1  0  0  0  0
  5  6  1  0  0  0  0
  5 27  1  0  0  0  0
  5 28  1  0  0  0  0
  6  7  1  0  0  0  0
  6 18  1  0  0  0  0
  6 39  1  0  0  0  0
  7  8  1  0  0  0  0
  7 29  1  0  0  0  0
  7 30  1  0  0  0  0
  8  9  1  0  0  0  0
  8 31  1  0  0  0  0
  8 32  1  0  0  0  0
  9 10  1  0  0  0  0
  9 33  1  0  0  0  0
 10 11  2  0  0  0  0
 10 12  1  0  0  0  0
 12 13  1  0  0  0  0
 12 34  1  0  0  0  0
 13 17  1  0  0  0  0
 13 14  2  0  0  0  0
 14 15  1  0  0  0  0
 15 16  2  0  0  0  0
 15 35  1  0  0  0  0
 16 17  1  0  0  0  0
 16 36  1  0  0  0  0
 18 37  1  0  0  0  0
 18 38  1  0  0  0  0
M  CHG  1   6   1
M  END
> <s_m_source_file>
AV-unprocessed.smi

> <i_m_source_file_index>
1278

> <i_lp_mmshare_version>
43012

> <i_f3d_flags>
0

> <s_epik_input>
W0NIM11bQ0BASF0xW0NIMl1bQ0gyXVtDSDJdTihbQ0gyXTEpW0NIMl1bQ0gyXVtOSF1DKD1PKVtOSF1jMm5bY0hdW2NIXXMy

> <s_epik_cmdline>
J2VwaWtfcHl0aG9uJywgJy1waCcsICc3LjAnLCAnLXRuJywgJzgnLCAnLW1hJywgJzIwMCcsICctbWV0YWxfYmluZGluZycsICctaW1hZScsICc8aW5maWxlLm1hZT4nLCAnLW9tYWUnLCAnPG91dGZpbGUubWFlPic=

> <r_lp_tautomer_probability>
0.999

> <r_epik_Ionization_Penalty>
0.00222194

> <r_epik_Ionization_Penalty_Charging>
0.00208169

> <r_epik_Ionization_Penalty_Neutral>
0.000140251

> <r_epik_State_Penalty>
0.00142585

> <r_epik_Charging_Adjusted_Penalty>
0.00350754

> <i_epik_Tot_Q>
1

> <i_epik_Tot_abs_Q>
1

> <r_epik_Metal_State_Penalty>
0.0570424

> <b_epik_Metal_Only>
0

> <s_lp_Force_Field>
OPLS_2005

> <r_lp_Energy>
13.7049

> <b_lp_Chiralities_Consistent>
1

> <s_lp_Variant>
AV-unprocessed.smi:1278-4

> <Gold.Version>
5.8.1

> <Gold.Id.Protein>
6NUR|6NUR_protein|mol2

> <Gold.PLP.Fitness>
41.3927

> <Gold.PLP.PLP>
-30.3680

> <Gold.PLP.part.hbond>
-3.0000

> <Gold.PLP.part.metal>
0.0000

> <Gold.PLP.part.buried>
-1.4442

> <Gold.PLP.part.nonpolar>
-29.4319

> <Gold.PLP.part.repulsive>
4.1229

> <Gold.PLP.ligand.clash>
0.0000

> <Gold.PLP.ligand.torsion>
0.4885

> <Gold.PLP.Chemscore.Hbond>
2.9920

> <Gold.PLP.Chemscore.CHOScore>
1.0000

> <Gold.PLP.Chemscore.Metal>
0.0000

> <Gold.Chemscore.Hbonds>
donor molecule, donor type, donor heavy atom, donor atom, acceptor molecule, acceptor atom, score
      L1  H     6    39       P1  7957  0.89
      L1  H     9    33       P1  7948  1.00
      L1  H    12    34       P1  7948  0.98
      L1  C    15    35       P1 10186  1.00

> <Gold.PLP.Chemscore.Internal.Correction>
0.0258

> <Gold.Rescore>
     Score         DG    S(hbond)    S(metal)    S(lipo)     H(rot)  DE(clash)    DE(int)     intcor
     16.52     -20.25       2.80        0.00      81.38       1.60       1.98       1.75       ----

> <Gold.Chemscore.Fitness>
16.5222

> <Gold.Chemscore.DG>
-20.2525

> <Gold.Chemscore.ZeroCoef>
-5.4800

> <Gold.Chemscore.Hbond>
2.7988

> <Gold.Chemscore.Metal>
0.0000

> <Gold.Chemscore.Lipo>
81.3757

> <Gold.Chemscore.Internal_Hbond>
0.0000

> <Gold.Chemscore.DEClash>
1.9819

> <Gold.Chemscore.DEInternal>
1.7484

> <Gold.Chemscore.Rot>
1.6001

> <Gold.Chemscore.Internal.Correction>
   9.000000E+99

> <Gold.Chemscore.Hbonds>
donor molecule, donor type, donor heavy atom, donor atom, acceptor molecule, acceptor atom, score
      L1  H     6    39       P1  7957  0.86
      L1  H     9    33       P1  7948  0.96
      L1  H    12    34       P1  7948  0.91

> <Gold.Chemscore.Hbond.Weighted>
-9.3478

> <Gold.Chemscore.Metal.Weighted>
-0.0000

> <Gold.Chemscore.Lipo.Weighted>
-9.5210

> <Gold.Chemscore.Internal_Hbond.Weighted>
0.0000

> <Gold.Chemscore.DEClash.Weighted>
1.9819

> <Gold.Chemscore.DEInternal.Weighted>
1.7484

> <Gold.Chemscore.Rot.Weighted>
4.0963

> <Gold.Chemscore.Internal.Correction.Weighted>
   9.000000E+99

> <Gold.Protein.RotatedTorsions>
[ 6907 6896 6895 6894 ] final   43.97 input  -60.11 | X-H torsion
[ 7974 7965 7964 7962 ] final  -20.51 input  175.53 | X-H torsion
[ 8008 7997 7996 7995 ] final    6.54 input   59.86 | X-H torsion
[ 10167 10162 10161 10158 ] final -117.36 input  -65.29 | X-H torsion
[ 10718 10713 10712 10709 ] final -132.93 input   66.30 | X-H torsion
[ 10763 10752 10751 10750 ] final   52.78 input  -60.55 | X-H torsion
[ 11005 11000 10999 10996 ] final   96.87 input  -57.11 | X-H torsion

> <Gold.Protein.ActiveResidues>
 VAL166  LYS551  ARG553  GLY616  TRP617  ASP618  TYR619  PRO620  LYS621  CYS622 
 ASP623  PHE694  ASN695  SER759  ASP760  ASP761  ALA762  ILE779  LEU786  VAL792 
 PHE793  MET794  SER795  GLU796  ALA797  LYS798  CYS799  TRP800  GLU811  SER814 

> <Gold.Protein.RotatedAtoms>
  152.2268  134.8360  160.0478 H   0  0  0  0  0  0  0  0  0  0  0  0  # atno 6907 bound_to 6896
  151.9123  133.3559  159.3876 H   0  0  0  0  0  0  0  0  0  0  0  0  # atno 6908 bound_to 6896
  150.7015  134.4645  159.5440 H   0  0  0  0  0  0  0  0  0  0  0  0  # atno 6909 bound_to 6896
  146.1784  140.4212  142.8504 H   0  0  0  0  0  0  0  0  0  0  0  0  # atno 7974 bound_to 7965
  154.7423  140.2751  155.6363 H   0  0  0  0  0  0  0  0  0  0  0  0  # atno 8008 bound_to 7997
  156.2876  140.2694  156.2079 H   0  0  0  0  0  0  0  0  0  0  0  0  # atno 8009 bound_to 7997
  155.0243  140.0371  157.2439 H   0  0  0  0  0  0  0  0  0  0  0  0  # atno 8010 bound_to 7997
  140.0692  143.4894  152.1989 H   0  0  0  0  0  0  0  0  0  0  0  0  # atno 10167 bound_to 10162
  156.2397  130.7088  151.0944 H   0  0  0  0  0  0  0  0  0  0  0  0  # atno 10718 bound_to 10713
  152.9791  135.5801  154.4634 H   0  0  0  0  0  0  0  0  0  0  0  0  # atno 10763 bound_to 10752
  154.4207  135.2771  155.1979 H   0  0  0  0  0  0  0  0  0  0  0  0  # atno 10764 bound_to 10752
  154.3729  135.6164  153.5803 H   0  0  0  0  0  0  0  0  0  0  0  0  # atno 10765 bound_to 10752
  139.8779  134.8972  156.4222 H   0  0  0  0  0  0  0  0  0  0  0  0  # atno 11005 bound_to 11000
  144.8274  140.6651  143.6313 LP  0  0  0  0  0  0  0  0  0  0  0  0  # atno 17320 bound_to 7965
  145.4146  139.1574  143.4107 LP  0  0  0  0  0  0  0  0  0  0  0  0  # atno 17321 bound_to 7965
  139.5846  144.7525  151.3552 LP  0  0  0  0  0  0  0  0  0  0  0  0  # atno 17342 bound_to 10162
  140.7134  143.7330  150.7609 LP  0  0  0  0  0  0  0  0  0  0  0  0  # atno 17343 bound_to 10162
  157.7170  131.0704  150.6289 LP  0  0  0  0  0  0  0  0  0  0  0  0  # atno 17370 bound_to 10713
  156.6362  130.4445  149.5769 LP  0  0  0  0  0  0  0  0  0  0  0  0  # atno 17371 bound_to 10713
  140.9125  133.7701  155.9809 LP  0  0  0  0  0  0  0  0  0  0  0  0  # atno 17394 bound_to 11000
  140.8530  134.2931  157.5267 LP  0  0  0  0  0  0  0  0  0  0  0  0  # atno 17395 bound_to 11000

$$$$
