AV-unprocessed.smi:3188|AV-procd|sdf|12183|dock3
  -GOLD-   2272018 23D 1   1.00000     0.00000
 Structure written by MMmdl.
 40 41  0  0  0  0  0  0  0  0  2 V2000
  151.6043  139.3961  158.6117 C   0  0  0  0  0  0  0  0  0  0  0  0
  152.0297  140.8301  158.8818 C   0  0  0  0  0  0  0  0  0  0  0  0
  153.2067  141.0978  159.4815 C   0  0  0  0  0  0  0  0  0  0  0  0
  153.6965  142.4877  159.8486 C   0  0  0  0  0  0  0  0  0  0  0  0
  152.7986  143.6089  159.3005 C   0  0  0  0  0  0  0  0  0  0  0  0
  151.3124  143.2139  159.3486 C   0  0  1  0  0  0  0  0  0  0  0  0
  150.3877  144.4015  159.0297 C   0  0  0  0  0  0  0  0  0  0  0  0
  151.0456  141.9423  158.4936 C   0  0  1  0  0  0  0  0  0  0  0  0
  151.0510  142.2277  156.9684 C   0  0  0  0  0  0  0  0  0  0  0  0
  149.6961  142.2733  156.3842 N   0  3  0  0  0  0  0  0  0  0  0  0
  149.3857  141.1380  155.4943 C   0  0  0  0  0  0  0  0  0  0  0  0
  149.5367  139.8012  156.2341 C   0  0  0  0  0  0  0  0  0  0  0  0
  150.4311  138.8988  155.5354 N   0  0  0  0  0  0  0  0  0  0  0  0
  150.6940  138.8230  154.1833 C   0  0  0  0  0  0  0  0  0  0  0  0
  151.6007  137.8054  154.0934 C   0  0  0  0  0  0  0  0  0  0  0  0
  151.8474  137.3128  155.3737 N   0  0  0  0  0  0  0  0  0  0  0  0
  151.1370  137.9756  156.2311 N   0  0  0  0  0  0  0  0  0  0  0  0
  150.5869  139.2252  158.9645 H   0  0  0  0  0  0  0  0  0  0  0  0
  152.2555  138.6911  159.1298 H   0  0  0  0  0  0  0  0  0  0  0  0
  151.6516  139.1574  157.5507 H   0  0  0  0  0  0  0  0  0  0  0  0
  153.8599  140.2845  159.7632 H   0  0  0  0  0  0  0  0  0  0  0  0
  153.7286  142.5440  160.9372 H   0  0  0  0  0  0  0  0  0  0  0  0
  154.7198  142.6193  159.4964 H   0  0  0  0  0  0  0  0  0  0  0  0
  152.9706  144.5203  159.8744 H   0  0  0  0  0  0  0  0  0  0  0  0
  153.0859  143.8410  158.2747 H   0  0  0  0  0  0  0  0  0  0  0  0
  151.0937  142.9438  160.3834 H   0  0  0  0  0  0  0  0  0  0  0  0
  150.6181  144.8531  158.0648 H   0  0  0  0  0  0  0  0  0  0  0  0
  150.4939  145.1842  159.7815 H   0  0  0  0  0  0  0  0  0  0  0  0
  149.3411  144.0960  159.0223 H   0  0  0  0  0  0  0  0  0  0  0  0
  150.0472  141.5940  158.7627 H   0  0  0  0  0  0  0  0  0  0  0  0
  151.5136  143.1913  156.7593 H   0  0  0  0  0  0  0  0  0  0  0  0
  151.6375  141.4721  156.4448 H   0  0  0  0  0  0  0  0  0  0  0  0
  149.0249  142.2816  157.1391 H   0  0  0  0  0  0  0  0  0  0  0  0
  148.3668  141.2427  155.1186 H   0  0  0  0  0  0  0  0  0  0  0  0
  150.0529  141.1686  154.6315 H   0  0  0  0  0  0  0  0  0  0  0  0
  149.9218  139.9611  157.2425 H   0  0  0  0  0  0  0  0  0  0  0  0
  148.5664  139.3137  156.3388 H   0  0  0  0  0  0  0  0  0  0  0  0
  150.2383  139.4638  153.4427 H   0  0  0  0  0  0  0  0  0  0  0  0
  152.0908  137.3907  153.2247 H   0  0  0  0  0  0  0  0  0  0  0  0
  149.6021  143.1307  155.8586 H   0  0  0  0  0  0  0  0  0  0  0  0
  1  2  1  0  0  0  0
  1 18  1  0  0  0  0
  1 19  1  0  0  0  0
  1 20  1  0  0  0  0
  2  8  1  0  0  0  0
  2  3  2  0  0  0  0
  3  4  1  0  0  0  0
  3 21  1  0  0  0  0
  4  5  1  0  0  0  0
  4 22  1  0  0  0  0
  4 23  1  0  0  0  0
  5  6  1  0  0  0  0
  5 24  1  0  0  0  0
  5 25  1  0  0  0  0
  6  7  1  0  0  0  0
  6  8  1  0  0  0  0
  6 26  1  0  0  0  0
  7 27  1  0  0  0  0
  7 28  1  0  0  0  0
  7 29  1  0  0  0  0
  8  9  1  0  0  0  0
  8 30  1  0  0  0  0
  9 10  1  0  0  0  0
  9 31  1  0  0  0  0
  9 32  1  0  0  0  0
 10 11  1  0  0  0  0
 10 33  1  0  0  0  0
 10 40  1  0  0  0  0
 11 12  1  0  0  0  0
 11 34  1  0  0  0  0
 11 35  1  0  0  0  0
 12 13  1  0  0  0  0
 12 36  1  0  0  0  0
 12 37  1  0  0  0  0
 13 17  1  0  0  0  0
 13 14  1  0  0  0  0
 14 15  2  0  0  0  0
 14 38  1  0  0  0  0
 15 16  1  0  0  0  0
 15 39  1  0  0  0  0
 16 17  2  0  0  0  0
M  CHG  1  10   1
M  END
> <s_m_source_file>
AV-unprocessed.smi

> <i_m_source_file_index>
3188

> <i_lp_mmshare_version>
43012

> <i_f3d_flags>
0

> <s_epik_input>
W0NIM11DMT1bQ0hdW0NIMl1bQ0gyXVtDQEBIXShbQ0gzXSlbQ0BIXTFbQ0gyXVtOSF1bQ0gyXVtDSDJdbjJbY0hdW2NIXW5uMg==

> <s_epik_cmdline>
J2VwaWtfcHl0aG9uJywgJy1waCcsICc3LjAnLCAnLXRuJywgJzgnLCAnLW1hJywgJzIwMCcsICctbWV0YWxfYmluZGluZycsICctaW1hZScsICc8aW5maWxlLm1hZT4nLCAnLW9tYWUnLCAnPG91dGZpbGUubWFlPic=

> <r_lp_tautomer_probability>
1

> <r_epik_Ionization_Penalty>
0.007268

> <r_epik_Ionization_Penalty_Charging>
0.00726786

> <r_epik_Ionization_Penalty_Neutral>
1.34882e-07

> <r_epik_State_Penalty>
0.00542069

> <r_epik_Charging_Adjusted_Penalty>
0.0126886

> <i_epik_Tot_Q>
1

> <i_epik_Tot_abs_Q>
1

> <r_epik_Metal_State_Penalty>
-0

> <b_epik_Metal_Only>
0

> <s_lp_Force_Field>
OPLS_2005

> <r_lp_Energy>
14.7496

> <b_lp_Chiralities_Consistent>
1

> <s_lp_Variant>
AV-unprocessed.smi:3188-1

> <Gold.Version>
5.8.1

> <Gold.Id.Protein>
6NUR|6NUR_protein|mol2

> <Gold.PLP.Fitness>
43.7784

> <Gold.PLP.PLP>
-33.6136

> <Gold.PLP.part.hbond>
-1.8569

> <Gold.PLP.part.metal>
0.0000

> <Gold.PLP.part.buried>
-4.9754

> <Gold.PLP.part.nonpolar>
-27.2007

> <Gold.PLP.part.repulsive>
0.1272

> <Gold.PLP.ligand.clash>
0.0000

> <Gold.PLP.ligand.torsion>
1.7450

> <Gold.PLP.Chemscore.Hbond>
2.5384

> <Gold.PLP.Chemscore.CHOScore>
1.9940

> <Gold.PLP.Chemscore.Metal>
0.0000

> <Gold.Chemscore.Hbonds>
donor molecule, donor type, donor heavy atom, donor atom, acceptor molecule, acceptor atom, score
      L1  H    10    40       P1  8028  2.00
      P1  H 10752 10763       L1    16  0.53
      L1  C    14    38       P1  7957  1.00
      L1  C    15    39       P1  7949  0.99

> <Gold.PLP.Chemscore.Internal.Correction>
0.0573

> <Gold.Rescore>
     Score         DG    S(hbond)    S(metal)    S(lipo)     H(rot)  DE(clash)    DE(int)     intcor
     15.99     -17.61       1.60        0.00      96.90       1.78       0.21       1.41       ----

> <Gold.Chemscore.Fitness>
15.9871

> <Gold.Chemscore.DG>
-17.6109

> <Gold.Chemscore.ZeroCoef>
-5.4800

> <Gold.Chemscore.Hbond>
1.6027

> <Gold.Chemscore.Metal>
0.0000

> <Gold.Chemscore.Lipo>
96.8964

> <Gold.Chemscore.Internal_Hbond>
0.0000

> <Gold.Chemscore.DEClash>
0.2147

> <Gold.Chemscore.DEInternal>
1.4090

> <Gold.Chemscore.Rot>
1.7809

> <Gold.Chemscore.Internal.Correction>
   9.000000E+99

> <Gold.Chemscore.Hbonds>
donor molecule, donor type, donor heavy atom, donor atom, acceptor molecule, acceptor atom, score
      L1  H    10    40       P1  8028  0.94
      P1  H 10752 10763       L1    16  0.10

> <Gold.Chemscore.Hbond.Weighted>
-5.3530

> <Gold.Chemscore.Metal.Weighted>
-0.0000

> <Gold.Chemscore.Lipo.Weighted>
-11.3369

> <Gold.Chemscore.Internal_Hbond.Weighted>
0.0000

> <Gold.Chemscore.DEClash.Weighted>
0.2147

> <Gold.Chemscore.DEInternal.Weighted>
1.4090

> <Gold.Chemscore.Rot.Weighted>
4.5590

> <Gold.Chemscore.Internal.Correction.Weighted>
   9.000000E+99

> <Gold.Protein.RotatedTorsions>
[ 6907 6896 6895 6894 ] final  -52.16 input  -60.11 | X-H torsion
[ 7974 7965 7964 7962 ] final -145.16 input  175.53 | X-H torsion
[ 8008 7997 7996 7995 ] final  111.80 input   59.86 | X-H torsion
[ 10167 10162 10161 10158 ] final -121.04 input  -65.29 | X-H torsion
[ 10718 10713 10712 10709 ] final  152.99 input   66.30 | X-H torsion
[ 10763 10752 10751 10750 ] final   72.19 input  -60.55 | X-H torsion
[ 11005 11000 10999 10996 ] final  155.82 input  -57.11 | X-H torsion

> <Gold.Protein.ActiveResidues>
 VAL166  LYS551  ARG553  GLY616  TRP617  ASP618  TYR619  PRO620  LYS621  CYS622 
 ASP623  PHE694  ASN695  SER759  ASP760  ASP761  ALA762  ILE779  LEU786  VAL792 
 PHE793  MET794  SER795  GLU796  ALA797  LYS798  CYS799  TRP800  GLU811  SER814 

> <Gold.Protein.RotatedAtoms>
  150.8544  134.7878  159.7033 H   0  0  0  0  0  0  0  0  0  0  0  0  # atno 6907 bound_to 6896
  152.4600  134.5203  159.9790 H   0  0  0  0  0  0  0  0  0  0  0  0  # atno 6908 bound_to 6896
  151.5318  133.3409  159.2955 H   0  0  0  0  0  0  0  0  0  0  0  0  # atno 6909 bound_to 6896
  144.8247  140.5618  143.5555 H   0  0  0  0  0  0  0  0  0  0  0  0  # atno 7974 bound_to 7965
  156.2149  140.3012  155.9816 H   0  0  0  0  0  0  0  0  0  0  0  0  # atno 8008 bound_to 7997
  155.2631  140.0430  157.3016 H   0  0  0  0  0  0  0  0  0  0  0  0  # atno 8009 bound_to 7997
  154.5753  140.2360  155.8140 H   0  0  0  0  0  0  0  0  0  0  0  0  # atno 8010 bound_to 7997
  140.0294  143.5264  152.2184 H   0  0  0  0  0  0  0  0  0  0  0  0  # atno 10167 bound_to 10162
  157.2506  131.0778  151.1732 H   0  0  0  0  0  0  0  0  0  0  0  0  # atno 10718 bound_to 10713
  153.0444  135.5109  154.7706 H   0  0  0  0  0  0  0  0  0  0  0  0  # atno 10763 bound_to 10752
  154.6618  135.2940  154.9858 H   0  0  0  0  0  0  0  0  0  0  0  0  # atno 10764 bound_to 10752
  154.0707  135.6678  153.4876 H   0  0  0  0  0  0  0  0  0  0  0  0  # atno 10765 bound_to 10752
  140.1617  134.8605  157.2582 H   0  0  0  0  0  0  0  0  0  0  0  0  # atno 11005 bound_to 11000
  145.5028  139.1482  143.3648 LP  0  0  0  0  0  0  0  0  0  0  0  0  # atno 17320 bound_to 7965
  146.2552  140.5167  142.8876 LP  0  0  0  0  0  0  0  0  0  0  0  0  # atno 17321 bound_to 7965
  139.6086  144.7603  151.3003 LP  0  0  0  0  0  0  0  0  0  0  0  0  # atno 17342 bound_to 10162
  140.7309  143.6868  150.7955 LP  0  0  0  0  0  0  0  0  0  0  0  0  # atno 17343 bound_to 10162
  157.3282  130.6971  149.6309 LP  0  0  0  0  0  0  0  0  0  0  0  0  # atno 17370 bound_to 10713
  155.9666  130.4315  150.4923 LP  0  0  0  0  0  0  0  0  0  0  0  0  # atno 17371 bound_to 10713
  140.2482  134.3715  155.7453 LP  0  0  0  0  0  0  0  0  0  0  0  0  # atno 17394 bound_to 11000
  141.2210  133.7302  156.8894 LP  0  0  0  0  0  0  0  0  0  0  0  0  # atno 17395 bound_to 11000

$$$$
