#       Name:                AV-unprocessed.smi:1965
#       Creating user name   scv26
#       Creation time:       Fri Mar 27 10:10:52 2020


#       File generated by GOLD software.
#

@<TRIPOS>MOLECULE
AV-unprocessed.smi:1965
    40    42     1
SMALL
NO_CHARGES


@<TRIPOS>ATOM
      1 ****        -2.1580  -2.1698  -1.1672 O.2            1 S1                 0.0000
      2 ****        -0.9337  -2.1165  -1.2700 C.2            1 S1                 0.0000
      3 ****        -0.1883  -3.2385  -1.3555 N.am           1 S1                 0.0000
      4 ****        -0.5599  -4.6143  -1.3507 C.2            1 S1                 0.0000
      5 ****        -1.8175  -5.0725  -1.4011 N.2            1 S1                 0.0000
      6 ****        -1.8707  -6.4686  -1.4073 C.2            1 S1                 0.0000
      7 ****        -0.6352  -7.0643  -1.3703 C.2            1 S1                 0.0000
      8 ****         0.6510  -5.8885  -1.3277 S.3            1 S1                 0.0000
      9 ****        -0.2606  -0.9549  -1.3046 N.am           1 S1                 0.0000
     10 ****        -0.8612   0.3688  -1.1774 C.3            1 S1                 0.0000
     11 ****         0.0483   1.4917  -1.6584 C.3            1 S1                 0.0000
     12 ****        -0.5549   2.7331  -0.9933 C.3            1 S1                 0.0000
     13 ****        -1.2403   2.2706   0.2389 N.4            1 S1                 1.0000
     14 ****        -0.7796   2.9513   1.4788 C.3            1 S1                 0.0000
     15 ****        -1.2180   2.1738   2.7288 C.3            1 S1                 0.0000
     16 ****        -0.6034   0.7616   2.7601 C.3            1 S1                 0.0000
     17 ****        -0.2200   0.2544   1.3568 C.3            1 S1                 0.0000
     18 ****        -1.1903   0.7809   0.2700 C.3            1 S1                 0.0000
     19 ****         0.7963  -3.0760  -1.5105 H              1 S1                 0.0000
     20 ****        -2.8330  -6.9577  -1.4417 H              1 S1                 0.0000
     21 ****        -0.4042  -8.1192  -1.3685 H              1 S1                 0.0000
     22 ****         0.7448  -0.9971  -1.3953 H              1 S1                 0.0000
     23 ****        -1.7766   0.4058  -1.7719 H              1 S1                 0.0000
     24 ****         1.0661   1.3365  -1.2969 H              1 S1                 0.0000
     25 ****         0.0864   1.5722  -2.7453 H              1 S1                 0.0000
     26 ****         0.2030   3.4946  -0.8047 H              1 S1                 0.0000
     27 ****        -1.3063   3.1787  -1.6460 H              1 S1                 0.0000
     28 ****         0.3082   3.0417   1.4773 H              1 S1                 0.0000
     29 ****        -1.1805   3.9653   1.4966 H              1 S1                 0.0000
     30 ****        -0.9458   2.7183   3.6337 H              1 S1                 0.0000
     31 ****        -2.3065   2.0983   2.7348 H              1 S1                 0.0000
     32 ****         0.2843   0.7517   3.3936 H              1 S1                 0.0000
     33 ****        -1.3137   0.0762   3.2242 H              1 S1                 0.0000
     34 ****         0.7949   0.5775   1.1207 H              1 S1                 0.0000
     35 ****        -0.1941  -0.8354   1.3702 H              1 S1                 0.0000
     36 ****        -2.1884   0.4166   0.5183 H              1 S1                 0.0000
     37 ****        -2.2155   2.5083   0.1253 H              1 S1                 0.0000
     38 ****        -2.6198  -3.0565  -1.1456 LP             1 S1                 0.0000
     39 ****        -2.6917  -1.3264  -1.1051 LP             1 S1                 0.0000
     40 ****        -2.6250  -4.4834  -1.4308 LP             1 S1                 0.0000
@<TRIPOS>BOND
    1    1    2 2     
    2    2    3 am    
    3    2    9 am    
    4    3    4 1     
    5    3   19 1     
    6    4    8 1     
    7    4    5 2     
    8    5    6 1     
    9    6    7 2     
   10    6   20 1     
   11    7    8 1     
   12    7   21 1     
   13    9   10 1     
   14    9   22 1     
   15   10   18 1     
   16   10   11 1     
   17   10   23 1     
   18   11   12 1     
   19   11   24 1     
   20   11   25 1     
   21   12   13 1     
   22   12   26 1     
   23   12   27 1     
   24   13   18 1     
   25   13   14 1     
   26   13   37 1     
   27   14   15 1     
   28   14   28 1     
   29   14   29 1     
   30   15   16 1     
   31   15   30 1     
   32   15   31 1     
   33   16   17 1     
   34   16   32 1     
   35   16   33 1     
   36   17   18 1     
   37   17   34 1     
   38   17   35 1     
   39   18   36 1     
   40    1   38 1     
   41    1   39 1     
   42    5   40 1     
@<TRIPOS>SUBSTRUCTURE
      1 S1             1
@<TRIPOS>SET
LONE_PAIRS      STATIC     ATOMS    <user>   **** ""
3 38 39 40
DONOR_HYDROGENS      STATIC     ATOMS    <user>   **** ""
3 19 22 37
ATOM$BLUE        STATIC     ATOMS    COLORGROUP SYSTEM
3 38 39 40
ATOM$RED        STATIC     ATOMS    COLORGROUP SYSTEM
3 19 22 37
