AV-unprocessed.smi:527|AV-procd|sdf|2817|dock5
  -GOLD-   2262023293D 1   1.00000     0.00000
 Structure written by MMmdl.
 42 43  0  0  0  0  0  0  0  0  1 V2000
  145.3803  131.7665  150.3190 C   0  0  0  0  0  0  0  0  0  0  0  0
  145.0356  132.6997  151.4946 C   0  0  2  0  0  0  0  0  0  0  0  0
  143.7582  133.4957  151.1614 C   0  0  0  0  0  0  0  0  0  0  0  0
  143.3433  134.4136  152.3158 C   0  0  0  0  0  0  0  0  0  0  0  0
  144.4770  135.3812  152.6660 C   0  0  0  0  0  0  0  0  0  0  0  0
  145.7737  134.6260  153.0143 C   0  0  2  0  0  0  0  0  0  0  0  0
  146.8302  135.6011  153.2825 N   0  0  0  0  0  0  0  0  0  0  0  0
  146.8763  136.4326  154.3341 C   0  0  0  0  0  0  0  0  0  0  0  0
  146.0841  136.3780  155.2773 O   0  0  0  0  0  0  0  0  0  0  0  0
  147.8863  137.3150  154.2065 N   0  0  0  0  0  0  0  0  0  0  0  0
  148.1378  138.3939  154.9757 C   0  0  0  0  0  0  0  0  0  0  0  0
  147.4695  138.7319  155.9564 O   0  0  0  0  0  0  0  0  0  0  0  0
  149.3614  139.2152  154.5477 C   0  0  0  0  0  0  0  0  0  0  0  0
  150.6206  138.5480  154.8319 N   0  0  0  0  0  0  0  0  0  0  0  0
  151.7246  139.0821  155.4847 C   0  0  0  0  0  0  0  0  0  0  0  0
  152.6754  138.0875  155.5269 C   0  0  0  0  0  0  0  0  0  0  0  0
  152.1816  136.9401  154.9104 N   0  0  0  0  0  0  0  0  0  0  0  0
  150.9600  137.2877  154.5263 C   0  0  0  0  0  0  0  0  0  0  0  0
  146.2029  133.6514  151.8837 C   0  0  1  0  0  0  0  0  0  0  0  0
  147.4755  132.8715  152.2811 C   0  0  0  0  0  0  0  0  0  0  0  0
  145.7007  132.3324  149.4436 H   0  0  0  0  0  0  0  0  0  0  0  0
  144.5153  131.1696  150.0279 H   0  0  0  0  0  0  0  0  0  0  0  0
  146.1718  131.0632  150.5751 H   0  0  0  0  0  0  0  0  0  0  0  0
  144.8127  132.0693  152.3568 H   0  0  0  0  0  0  0  0  0  0  0  0
  143.9193  134.0927  150.2626 H   0  0  0  0  0  0  0  0  0  0  0  0
  142.9395  132.8120  150.9343 H   0  0  0  0  0  0  0  0  0  0  0  0
  142.4476  134.9729  152.0440 H   0  0  0  0  0  0  0  0  0  0  0  0
  143.0838  133.8154  153.1902 H   0  0  0  0  0  0  0  0  0  0  0  0
  144.6524  136.0522  151.8237 H   0  0  0  0  0  0  0  0  0  0  0  0
  144.1722  136.0099  153.5037 H   0  0  0  0  0  0  0  0  0  0  0  0
  145.5910  134.0310  153.9116 H   0  0  0  0  0  0  0  0  0  0  0  0
  147.5812  135.6457  152.6093 H   0  0  0  0  0  0  0  0  0  0  0  0
  148.5276  137.1529  153.4444 H   0  0  0  0  0  0  0  0  0  0  0  0
  149.3049  139.4194  153.4777 H   0  0  0  0  0  0  0  0  0  0  0  0
  149.3556  140.1774  155.0618 H   0  0  0  0  0  0  0  0  0  0  0  0
  151.7405  140.0960  155.8568 H   0  0  0  0  0  0  0  0  0  0  0  0
  153.6684  138.1092  155.9510 H   0  0  0  0  0  0  0  0  0  0  0  0
  150.2959  136.6096  154.0107 H   0  0  0  0  0  0  0  0  0  0  0  0
  146.4476  134.2503  151.0049 H   0  0  0  0  0  0  0  0  0  0  0  0
  147.2839  132.2087  153.1255 H   0  0  0  0  0  0  0  0  0  0  0  0
  148.2900  133.5376  152.5649 H   0  0  0  0  0  0  0  0  0  0  0  0
  147.8529  132.2648  151.4590 H   0  0  0  0  0  0  0  0  0  0  0  0
  1  2  1  0  0  0  0
  1 21  1  0  0  0  0
  1 22  1  0  0  0  0
  1 23  1  0  0  0  0
  2 19  1  0  0  0  0
  2  3  1  0  0  0  0
  2 24  1  0  0  0  0
  3  4  1  0  0  0  0
  3 25  1  0  0  0  0
  3 26  1  0  0  0  0
  4  5  1  0  0  0  0
  4 27  1  0  0  0  0
  4 28  1  0  0  0  0
  5  6  1  0  0  0  0
  5 29  1  0  0  0  0
  5 30  1  0  0  0  0
  6  7  1  0  0  0  0
  6 19  1  0  0  0  0
  6 31  1  0  0  0  0
  7  8  1  0  0  0  0
  7 32  1  0  0  0  0
  8  9  2  0  0  0  0
  8 10  1  0  0  0  0
 10 11  1  0  0  0  0
 10 33  1  0  0  0  0
 11 12  2  0  0  0  0
 11 13  1  0  0  0  0
 13 14  1  0  0  0  0
 13 34  1  0  0  0  0
 13 35  1  0  0  0  0
 14 18  1  0  0  0  0
 14 15  1  0  0  0  0
 15 16  2  0  0  0  0
 15 36  1  0  0  0  0
 16 17  1  0  0  0  0
 16 37  1  0  0  0  0
 17 18  2  0  0  0  0
 18 38  1  0  0  0  0
 19 20  1  0  0  0  0
 19 39  1  0  0  0  0
 20 40  1  0  0  0  0
 20 41  1  0  0  0  0
 20 42  1  0  0  0  0
M  END
> <s_m_source_file>
AV-unprocessed.smi

> <i_m_source_file_index>
527

> <i_lp_mmshare_version>
43012

> <i_f3d_flags>
0

> <s_epik_input>
W0NIM11bQ0BASF0xW0NIMl1bQ0gyXVtDSDJdW0NASF0oW0NASF0xW0NIM10pW05IXUMoPU8pW05IXUMoPU8pW0NIMl1uMltjSF1bY0hdbltjSF0y

> <s_epik_cmdline>
J2VwaWtfcHl0aG9uJywgJy1waCcsICc3LjAnLCAnLXRuJywgJzgnLCAnLW1hJywgJzIwMCcsICctbWV0YWxfYmluZGluZycsICctaW1hZScsICc8aW5maWxlLm1hZT4nLCAnLW9tYWUnLCAnPG91dGZpbGUubWFlPic=

> <r_lp_tautomer_probability>
1

> <r_epik_Ionization_Penalty>
0.172132

> <r_epik_Ionization_Penalty_Charging>
0.172105

> <r_epik_Ionization_Penalty_Neutral>
2.71747e-05

> <r_epik_State_Penalty>
0.161503

> <r_epik_Charging_Adjusted_Penalty>
0.333607

> <i_epik_Tot_Q>
0

> <i_epik_Tot_abs_Q>
0

> <r_epik_Metal_State_Penalty>
0.124763

> <b_epik_Metal_Only>
0

> <s_lp_Force_Field>
OPLS_2005

> <r_lp_Energy>
15.8984

> <b_lp_Chiralities_Consistent>
1

> <s_lp_Variant>
AV-unprocessed.smi:527-3

> <Gold.Version>
5.8.1

> <Gold.Id.Protein>
6NUR|6NUR_protein|mol2

> <Gold.PLP.Fitness>
44.9491

> <Gold.PLP.PLP>
-33.9647

> <Gold.PLP.part.hbond>
-3.0000

> <Gold.PLP.part.metal>
0.0000

> <Gold.PLP.part.buried>
-3.2311

> <Gold.PLP.part.nonpolar>
-28.9326

> <Gold.PLP.part.repulsive>
0.1280

> <Gold.PLP.ligand.clash>
0.0000

> <Gold.PLP.ligand.torsion>
0.3590

> <Gold.PLP.Chemscore.Hbond>
2.8400

> <Gold.PLP.Chemscore.CHOScore>
1.0528

> <Gold.PLP.Chemscore.Metal>
0.0000

> <Gold.Chemscore.Hbonds>
donor molecule, donor type, donor heavy atom, donor atom, acceptor molecule, acceptor atom, score
      L1  H     7    32       P1  7948  1.00
      L1  H    10    33       P1  7948  1.00
      P1  H 10752 10764       L1    17  0.90
      L1  C    18    38       P1  7948  0.81
      L1  C    18    38       P1  7949  0.10

> <Gold.PLP.Chemscore.Internal.Correction>
0.0241

> <Gold.Rescore>
     Score         DG    S(hbond)    S(metal)    S(lipo)     H(rot)  DE(clash)    DE(int)     intcor
     17.13     -18.88       2.90        0.00      68.18       1.66       0.11       1.64       ----

> <Gold.Chemscore.Fitness>
17.1262

> <Gold.Chemscore.DG>
-18.8783

> <Gold.Chemscore.ZeroCoef>
-5.4800

> <Gold.Chemscore.Hbond>
2.8977

> <Gold.Chemscore.Metal>
0.0000

> <Gold.Chemscore.Lipo>
68.1780

> <Gold.Chemscore.Internal_Hbond>
0.0000

> <Gold.Chemscore.DEClash>
0.1139

> <Gold.Chemscore.DEInternal>
1.6381

> <Gold.Chemscore.Rot>
1.6629

> <Gold.Chemscore.Internal.Correction>
   9.000000E+99

> <Gold.Chemscore.Hbonds>
donor molecule, donor type, donor heavy atom, donor atom, acceptor molecule, acceptor atom, score
      L1  H     7    32       P1  7948  0.99
      L1  H    10    33       P1  7948  0.94
      P1  H 10752 10764       L1    17  0.85

> <Gold.Chemscore.Hbond.Weighted>
-9.6784

> <Gold.Chemscore.Metal.Weighted>
-0.0000

> <Gold.Chemscore.Lipo.Weighted>
-7.9768

> <Gold.Chemscore.Internal_Hbond.Weighted>
0.0000

> <Gold.Chemscore.DEClash.Weighted>
0.1139

> <Gold.Chemscore.DEInternal.Weighted>
1.6381

> <Gold.Chemscore.Rot.Weighted>
4.2569

> <Gold.Chemscore.Internal.Correction.Weighted>
   9.000000E+99

> <Gold.Protein.RotatedTorsions>
[ 6907 6896 6895 6894 ] final   -8.68 input  -60.11 | X-H torsion
[ 7974 7965 7964 7962 ] final -170.13 input  175.53 | X-H torsion
[ 8008 7997 7996 7995 ] final -168.58 input   59.86 | X-H torsion
[ 10167 10162 10161 10158 ] final   27.07 input  -65.29 | X-H torsion
[ 10718 10713 10712 10709 ] final  129.36 input   66.30 | X-H torsion
[ 10763 10752 10751 10750 ] final  -58.69 input  -60.55 | X-H torsion
[ 11005 11000 10999 10996 ] final  124.41 input  -57.11 | X-H torsion

> <Gold.Protein.ActiveResidues>
 VAL166  LYS551  ARG553  GLY616  TRP617  ASP618  TYR619  PRO620  LYS621  CYS622 
 ASP623  PHE694  ASN695  SER759  ASP760  ASP761  ALA762  ILE779  LEU786  VAL792 
 PHE793  MET794  SER795  GLU796  ALA797  LYS798  CYS799  TRP800  GLU811  SER814 

> <Gold.Protein.RotatedAtoms>
  151.4299  135.1008  159.9638 H   0  0  0  0  0  0  0  0  0  0  0  0  # atno 6907 bound_to 6896
  152.4960  133.8628  159.7269 H   0  0  0  0  0  0  0  0  0  0  0  0  # atno 6908 bound_to 6896
  150.9163  133.6877  159.2870 H   0  0  0  0  0  0  0  0  0  0  0  0  # atno 6909 bound_to 6896
  144.7174  140.2118  143.6326 H   0  0  0  0  0  0  0  0  0  0  0  0  # atno 7974 bound_to 7965
  155.8933  140.1028  157.1403 H   0  0  0  0  0  0  0  0  0  0  0  0  # atno 8008 bound_to 7997
  154.4017  140.1306  156.4407 H   0  0  0  0  0  0  0  0  0  0  0  0  # atno 8009 bound_to 7997
  155.7508  140.3465  155.5152 H   0  0  0  0  0  0  0  0  0  0  0  0  # atno 8010 bound_to 7997
  140.4969  144.0377  150.6318 H   0  0  0  0  0  0  0  0  0  0  0  0  # atno 10167 bound_to 10162
  157.5161  131.1097  150.9222 H   0  0  0  0  0  0  0  0  0  0  0  0  # atno 10718 bound_to 10713
  154.2421  135.6341  153.5210 H   0  0  0  0  0  0  0  0  0  0  0  0  # atno 10763 bound_to 10752
  152.9928  135.5544  154.5899 H   0  0  0  0  0  0  0  0  0  0  0  0  # atno 10764 bound_to 10752
  154.5407  135.2894  155.1072 H   0  0  0  0  0  0  0  0  0  0  0  0  # atno 10765 bound_to 10752
  139.9357  134.9639  156.8405 H   0  0  0  0  0  0  0  0  0  0  0  0  # atno 11005 bound_to 11000
  145.8583  139.2210  143.1731 LP  0  0  0  0  0  0  0  0  0  0  0  0  # atno 17320 bound_to 7965
  146.0197  140.8360  142.9930 LP  0  0  0  0  0  0  0  0  0  0  0  0  # atno 17321 bound_to 7965
  140.3662  143.2880  152.0329 LP  0  0  0  0  0  0  0  0  0  0  0  0  # atno 17342 bound_to 10162
  139.4863  144.6265  151.7154 LP  0  0  0  0  0  0  0  0  0  0  0  0  # atno 17343 bound_to 10162
  156.9847  130.5540  149.5299 LP  0  0  0  0  0  0  0  0  0  0  0  0  # atno 17370 bound_to 10713
  156.0321  130.5412  150.8561 LP  0  0  0  0  0  0  0  0  0  0  0  0  # atno 17371 bound_to 10713
  140.6081  134.0108  155.7565 LP  0  0  0  0  0  0  0  0  0  0  0  0  # atno 17394 bound_to 11000
  141.0970  133.9828  157.3143 LP  0  0  0  0  0  0  0  0  0  0  0  0  # atno 17395 bound_to 11000

$$$$
