#       Name:                AV-unprocessed.smi:506
#       Creating user name   scv26
#       Creation time:       Thu Mar 26 23:21:53 2020


#       File generated by GOLD software.
#

@<TRIPOS>MOLECULE
AV-unprocessed.smi:506
    47    49     1
SMALL
NO_CHARGES


@<TRIPOS>ATOM
      1 ****        -3.9801   5.6867  -0.0323 C.3            1 S1                 0.0000
      2 ****        -4.6518   4.4365   0.0178 O.3            1 S1                 0.0000
      3 ****        -3.8877   3.2893   0.0074 C.ar           1 S1                 0.0000
      4 ****        -4.5752   2.0604   0.0423 C.ar           1 S1                 0.0000
      5 ****        -3.8725   0.8409   0.0303 C.ar           1 S1                 0.0000
      6 ****        -2.4648   0.8202  -0.0167 C.ar           1 S1                 0.0000
      7 ****        -1.8565  -0.4165  -0.0320 O.3            1 S1                 0.0000
      8 ****        -0.4394  -0.4668  -0.1099 C.3            1 S1                 0.0000
      9 ****        -0.0085  -1.9368  -0.1748 C.3            1 S1                 0.0000
     10 ****         1.4500  -2.0743  -0.2733 N.pl3          1 S1                 0.0000
     11 ****         2.2515  -2.1937  -1.3704 C.2            1 S1                 0.0000
     12 ****         1.8062  -2.2129  -2.7982 C.3            1 S1                 0.0000
     13 ****         2.8755  -2.1305  -3.7171 O.3            1 S1                 0.0000
     14 ****         3.5353  -2.2908  -0.9197 N.pl3          1 S1                 1.0000
     15 ****         3.5551  -2.2263   0.4739 C.ar           1 S1                 0.0000
     16 ****         4.6143  -2.2790   1.3747 C.ar           1 S1                 0.0000
     17 ****         4.2868  -2.1787   2.7430 C.ar           1 S1                 0.0000
     18 ****         2.9508  -2.0310   3.1695 C.ar           1 S1                 0.0000
     19 ****         1.8850  -1.9797   2.2468 C.ar           1 S1                 0.0000
     20 ****         2.2177  -2.0827   0.8963 C.ar           1 S1                 0.0000
     21 ****        -1.7684   2.0536  -0.0466 C.ar           1 S1                 0.0000
     22 ****        -2.4718   3.2740  -0.0355 C.ar           1 S1                 0.0000
     23 ****        -4.7158   6.4908  -0.0214 H              1 S1                 0.0000
     24 ****        -3.3940   5.7880  -0.9469 H              1 S1                 0.0000
     25 ****        -3.3289   5.8244   0.8320 H              1 S1                 0.0000
     26 ****        -5.6548   2.0517   0.0764 H              1 S1                 0.0000
     27 ****        -4.4213  -0.0891   0.0550 H              1 S1                 0.0000
     28 ****        -0.0902   0.0554  -1.0021 H              1 S1                 0.0000
     29 ****         0.0026   0.0150   0.7637 H              1 S1                 0.0000
     30 ****        -0.3608  -2.4908   0.6959 H              1 S1                 0.0000
     31 ****        -0.4490  -2.4196  -1.0477 H              1 S1                 0.0000
     32 ****         1.2471  -3.1300  -2.9854 H              1 S1                 0.0000
     33 ****         1.1281  -1.3771  -2.9732 H              1 S1                 0.0000
     34 ****         2.5206  -2.1485  -4.5931 H              1 S1                 0.0000
     35 ****         5.6387  -2.3899   1.0502 H              1 S1                 0.0000
     36 ****         5.0759  -2.2147   3.4802 H              1 S1                 0.0000
     37 ****         2.7388  -1.9554   4.2262 H              1 S1                 0.0000
     38 ****         0.8654  -1.8645   2.5837 H              1 S1                 0.0000
     39 ****        -0.6904   2.0923  -0.0796 H              1 S1                 0.0000
     40 ****        -1.8986   4.1883  -0.0619 H              1 S1                 0.0000
     41 ****         4.3370  -2.3894  -1.5295 H              1 S1                 0.0000
     42 ****        -5.2614   4.3948  -0.7738 LP             1 S1                 0.0000
     43 ****        -5.1948   4.4243   0.8575 LP             1 S1                 0.0000
     44 ****        -2.2147  -0.9132  -0.8225 LP             1 S1                 0.0000
     45 ****        -2.1242  -0.8889   0.8078 LP             1 S1                 0.0000
     46 ****         3.4924  -2.9067  -3.5871 LP             1 S1                 0.0000
     47 ****         3.3779  -1.2778  -3.5742 LP             1 S1                 0.0000
@<TRIPOS>BOND
    1    1    2 1     
    2    1   23 1     
    3    1   24 1     
    4    1   25 1     
    5    2    3 1     
    6    3   22 ar    
    7    3    4 ar    
    8    4    5 ar    
    9    4   26 1     
   10    5    6 ar    
   11    5   27 1     
   12    6    7 1     
   13    6   21 ar    
   14    7    8 1     
   15    8    9 1     
   16    8   28 1     
   17    8   29 1     
   18    9   10 1     
   19    9   30 1     
   20    9   31 1     
   21   10   20 1     
   22   10   11 1     
   23   11   12 1     
   24   11   14 2     
   25   12   13 1     
   26   12   32 1     
   27   12   33 1     
   28   13   34 1     
   29   14   15 1     
   30   14   41 1     
   31   15   20 ar    
   32   15   16 ar    
   33   16   17 ar    
   34   16   35 1     
   35   17   18 ar    
   36   17   36 1     
   37   18   19 ar    
   38   18   37 1     
   39   19   20 ar    
   40   19   38 1     
   41   21   22 ar    
   42   21   39 1     
   43   22   40 1     
   44    2   42 1     
   45    2   43 1     
   46    7   44 1     
   47    7   45 1     
   48   13   46 1     
   49   13   47 1     
@<TRIPOS>SUBSTRUCTURE
      1 S1             1
@<TRIPOS>SET
LONE_PAIRS      STATIC     ATOMS    <user>   **** ""
6 42 43 44 45 46 47
DONOR_HYDROGENS      STATIC     ATOMS    <user>   **** ""
2 34 41
ATOM$BLUE        STATIC     ATOMS    COLORGROUP SYSTEM
6 42 43 44 45 46 47
ATOM$RED        STATIC     ATOMS    COLORGROUP SYSTEM
2 34 41
