#       Name:                AV-unprocessed.smi:752
#       Creating user name   scv26
#       Creation time:       Fri Mar 27 00:58:52 2020


#       File generated by GOLD software.
#

@<TRIPOS>MOLECULE
AV-unprocessed.smi:752
    46    47     1
SMALL
NO_CHARGES


@<TRIPOS>ATOM
      1 ****        -3.8226   2.7973  -1.4070 C.3            1 S1                 0.0000
      2 ****        -2.3665   2.3581  -1.2211 C.3            1 S1                 0.0000
      3 ****        -2.0341   2.0605   0.2026 C.2            1 S1                 0.0000
      4 ****        -2.2187   0.8647   0.7673 N.2            1 S1                 0.0000
      5 ****        -1.8322   0.8363   2.1125 C.2            1 S1                 0.0000
      6 ****        -1.9066  -0.4468   2.8906 C.3            1 S1                 0.0000
      7 ****        -0.6369  -1.2596   2.6362 C.2            1 S1                 0.0000
      8 ****         0.2762  -1.2545   3.4612 O.2            1 S1                 0.0000
      9 ****        -0.5786  -1.9068   1.4618 N.am           1 S1                 0.0000
     10 ****         0.6104  -2.5252   0.8867 C.3            1 S1                 0.0000
     11 ****         1.1466  -1.6933  -0.2975 C.3            1 S1                 0.0000
     12 ****         2.3065  -2.4187  -1.0064 C.3            1 S1                 0.0000
     13 ****         2.8139  -1.6200  -2.2174 C.3            1 S1                 0.0000
     14 ****         3.2491  -0.2020  -1.8123 C.3            1 S1                 0.0000
     15 ****         2.1386   0.5538  -1.0598 C.3            1 S1                 0.0000
     16 ****         1.0881   0.8919  -1.9444 O.3            1 S1                 0.0000
     17 ****         1.5870  -0.2688   0.1193 C.3            1 S1                 0.0000
     18 ****        -1.3851   2.0513   2.5698 C.2            1 S1                 0.0000
     19 ****        -1.4123   3.2668   1.3221 S.3            1 S1                 0.0000
     20 ****        -4.0328   3.0103  -2.4552 H              1 S1                 0.0000
     21 ****        -4.0374   3.6994  -0.8333 H              1 S1                 0.0000
     22 ****        -4.5127   2.0189  -1.0801 H              1 S1                 0.0000
     23 ****        -2.1642   1.4715  -1.8232 H              1 S1                 0.0000
     24 ****        -1.6944   3.1381  -1.5798 H              1 S1                 0.0000
     25 ****        -2.0024  -0.2473   3.9584 H              1 S1                 0.0000
     26 ****        -2.7816  -1.0310   2.6028 H              1 S1                 0.0000
     27 ****        -1.3899  -1.8548   0.8625 H              1 S1                 0.0000
     28 ****         1.3907  -2.6699   1.6356 H              1 S1                 0.0000
     29 ****         0.3289  -3.5205   0.5419 H              1 S1                 0.0000
     30 ****         0.3330  -1.5949  -1.0182 H              1 S1                 0.0000
     31 ****         3.1261  -2.5798  -0.3049 H              1 S1                 0.0000
     32 ****         1.9832  -3.4069  -1.3351 H              1 S1                 0.0000
     33 ****         3.6492  -2.1435  -2.6831 H              1 S1                 0.0000
     34 ****         2.0286  -1.5625  -2.9723 H              1 S1                 0.0000
     35 ****         4.1272  -0.2735  -1.1694 H              1 S1                 0.0000
     36 ****         3.5621   0.3613  -2.6920 H              1 S1                 0.0000
     37 ****         2.5431   1.4920  -0.6788 H              1 S1                 0.0000
     38 ****         0.4355   1.3762  -1.4623 H              1 S1                 0.0000
     39 ****         0.7608   0.2775   0.5740 H              1 S1                 0.0000
     40 ****         2.3559  -0.3456   0.8892 H              1 S1                 0.0000
     41 ****        -1.0300   2.2999   3.5591 H              1 S1                 0.0000
     42 ****        -2.5928   0.0746   0.2817 LP             1 S1                 0.0000
     43 ****         0.1887  -0.7178   4.3005 LP             1 S1                 0.0000
     44 ****         1.1056  -1.7870   3.2923 LP             1 S1                 0.0000
     45 ****         0.6814   0.0589  -2.3196 LP             1 S1                 0.0000
     46 ****         1.4432   1.4548  -2.6907 LP             1 S1                 0.0000
@<TRIPOS>BOND
    1    1    2 1     
    2    1   20 1     
    3    1   21 1     
    4    1   22 1     
    5    2    3 1     
    6    2   23 1     
    7    2   24 1     
    8    3   19 1     
    9    3    4 2     
   10    4    5 1     
   11    5    6 1     
   12    5   18 2     
   13    6    7 1     
   14    6   25 1     
   15    6   26 1     
   16    7    8 2     
   17    7    9 am    
   18    9   10 1     
   19    9   27 1     
   20   10   11 1     
   21   10   28 1     
   22   10   29 1     
   23   11   17 1     
   24   11   12 1     
   25   11   30 1     
   26   12   13 1     
   27   12   31 1     
   28   12   32 1     
   29   13   14 1     
   30   13   33 1     
   31   13   34 1     
   32   14   15 1     
   33   14   35 1     
   34   14   36 1     
   35   15   16 1     
   36   15   17 1     
   37   15   37 1     
   38   16   38 1     
   39   17   39 1     
   40   17   40 1     
   41   18   19 1     
   42   18   41 1     
   43    4   42 1     
   44    8   43 1     
   45    8   44 1     
   46   16   45 1     
   47   16   46 1     
@<TRIPOS>SUBSTRUCTURE
      1 S1             1
@<TRIPOS>SET
LONE_PAIRS      STATIC     ATOMS    <user>   **** ""
5 42 43 44 45 46
DONOR_HYDROGENS      STATIC     ATOMS    <user>   **** ""
2 27 38
ATOM$BLUE        STATIC     ATOMS    COLORGROUP SYSTEM
5 42 43 44 45 46
ATOM$RED        STATIC     ATOMS    COLORGROUP SYSTEM
2 27 38
