AV-unprocessed.smi:33|AV-procd|sdf|207|dock2
  -GOLD-   2262015493D 1   1.00000     0.00000
 Structure written by MMmdl.
 67 72  0  0  0  0  0  0  0  0  1 V2000
  150.8589  141.9065  156.5155 O   0  0  0  0  0  0  0  0  0  0  0  0
  151.5310  141.3646  157.3957 C   0  0  0  0  0  0  0  0  0  0  0  0
  151.9243  140.0765  157.3469 O   0  0  0  0  0  0  0  0  0  0  0  0
  151.7795  139.3346  156.1468 C   0  0  0  0  0  0  0  0  0  0  0  0
  150.2879  139.0687  155.8839 C   0  0  2  0  0  0  0  0  0  0  0  0
  149.7313  138.3832  157.0015 O   0  0  0  0  0  0  0  0  0  0  0  0
  149.8836  137.0057  156.8329 C   0  0  1  0  0  0  0  0  0  0  0  0
  148.6370  136.3249  157.3091 N   0  0  0  0  0  0  0  0  0  0  0  0
  147.3799  136.8752  157.4307 C   0  0  0  0  0  0  0  0  0  0  0  0
  146.4534  136.0675  157.8708 N   0  0  0  0  0  0  0  0  0  0  0  0
  147.1231  134.8677  158.0717 C   0  0  0  0  0  0  0  0  0  0  0  0
  146.7303  133.5822  158.5345 C   0  0  0  0  0  0  0  0  0  0  0  0
  145.4623  133.2863  158.9085 N   0  0  0  0  0  0  0  0  0  0  0  0
  144.8761  134.0895  159.9921 C   0  0  0  0  0  0  0  0  0  0  0  0
  143.6510  134.1948  160.0772 O   0  0  0  0  0  0  0  0  0  0  0  0
  145.7605  134.8182  160.9645 C   0  0  0  0  0  0  0  0  0  0  0  0
  146.8277  134.1407  161.5939 C   0  0  0  0  0  0  0  0  0  0  0  0
  147.6685  134.8222  162.4951 C   0  0  0  0  0  0  0  0  0  0  0  0
  147.4584  136.1890  162.7594 C   0  0  0  0  0  0  0  0  0  0  0  0
  146.4134  136.8774  162.1143 C   0  0  0  0  0  0  0  0  0  0  0  0
  145.5729  136.1969  161.2122 C   0  0  0  0  0  0  0  0  0  0  0  0
  144.7924  132.1795  158.2093 C   0  0  0  0  0  0  0  0  0  0  0  0
  145.1305  131.8950  157.0586 O   0  0  0  0  0  0  0  0  0  0  0  0
  143.6622  131.4363  158.8645 C   0  0  0  0  0  0  0  0  0  0  0  0
  142.7525  130.6963  158.0776 C   0  0  0  0  0  0  0  0  0  0  0  0
  141.7006  129.9853  158.6873 C   0  0  0  0  0  0  0  0  0  0  0  0
  141.5630  129.9937  160.0884 C   0  0  0  0  0  0  0  0  0  0  0  0
  142.4829  130.7066  160.8807 C   0  0  0  0  0  0  0  0  0  0  0  0
  143.5340  131.4188  160.2717 C   0  0  0  0  0  0  0  0  0  0  0  0
  147.6796  132.6127  158.6022 N   0  0  0  0  0  0  0  0  0  0  0  0
  148.9352  132.8858  158.2372 C   0  0  0  0  0  0  0  0  0  0  0  0
  149.4420  134.0358  157.7876 N   0  0  0  0  0  0  0  0  0  0  0  0
  148.4934  135.0143  157.7194 C   0  0  0  0  0  0  0  0  0  0  0  0
  150.1886  136.7450  155.3428 C   0  0  1  0  0  0  0  0  0  0  0  0
  149.3928  135.7582  154.7111 O   0  0  0  0  0  0  0  0  0  0  0  0
  150.0229  138.1207  154.7119 C   0  0  1  0  0  0  0  0  0  0  0  0
  148.7705  138.3161  154.2953 F   0  0  0  0  0  0  0  0  0  0  0  0
  151.9969  142.0669  158.6259 C   0  0  0  0  0  0  0  0  0  0  0  0
  152.6902  141.3378  159.6202 C   0  0  0  0  0  0  0  0  0  0  0  0
  153.1402  141.9739  160.7935 C   0  0  0  0  0  0  0  0  0  0  0  0
  152.9044  143.3476  160.9856 C   0  0  0  0  0  0  0  0  0  0  0  0
  152.2185  144.0847  160.0027 C   0  0  0  0  0  0  0  0  0  0  0  0
  151.7658  143.4499  158.8297 C   0  0  0  0  0  0  0  0  0  0  0  0
  152.2336  139.8728  155.3139 H   0  0  0  0  0  0  0  0  0  0  0  0
  152.3076  138.3855  156.2484 H   0  0  0  0  0  0  0  0  0  0  0  0
  149.7715  140.0202  155.7513 H   0  0  0  0  0  0  0  0  0  0  0  0
  150.6673  136.6291  157.4917 H   0  0  0  0  0  0  0  0  0  0  0  0
  147.1698  137.9054  157.1826 H   0  0  0  0  0  0  0  0  0  0  0  0
  146.9982  133.0917  161.3987 H   0  0  0  0  0  0  0  0  0  0  0  0
  148.4756  134.2959  162.9833 H   0  0  0  0  0  0  0  0  0  0  0  0
  148.1029  136.7112  163.4511 H   0  0  0  0  0  0  0  0  0  0  0  0
  146.2571  137.9280  162.3097 H   0  0  0  0  0  0  0  0  0  0  0  0
  144.7776  136.7370  160.7185 H   0  0  0  0  0  0  0  0  0  0  0  0
  142.8489  130.6820  157.0015 H   0  0  0  0  0  0  0  0  0  0  0  0
  140.9997  129.4321  158.0798 H   0  0  0  0  0  0  0  0  0  0  0  0
  140.7564  129.4481  160.5554 H   0  0  0  0  0  0  0  0  0  0  0  0
  142.3833  130.7058  161.9561 H   0  0  0  0  0  0  0  0  0  0  0  0
  144.2371  131.9577  160.8906 H   0  0  0  0  0  0  0  0  0  0  0  0
  149.6339  132.0662  158.3161 H   0  0  0  0  0  0  0  0  0  0  0  0
  151.2339  136.4414  155.2744 H   0  0  0  0  0  0  0  0  0  0  0  0
  149.4839  135.8597  153.7754 H   0  0  0  0  0  0  0  0  0  0  0  0
  150.6768  138.2863  153.8549 H   0  0  0  0  0  0  0  0  0  0  0  0
  152.8825  140.2818  159.4951 H   0  0  0  0  0  0  0  0  0  0  0  0
  153.6665  141.4067  161.5470 H   0  0  0  0  0  0  0  0  0  0  0  0
  153.2495  143.8355  161.8853 H   0  0  0  0  0  0  0  0  0  0  0  0
  152.0387  145.1399  160.1481 H   0  0  0  0  0  0  0  0  0  0  0  0
  151.2433  144.0456  158.0956 H   0  0  0  0  0  0  0  0  0  0  0  0
  1  2  2  0  0  0  0
  2  3  1  0  0  0  0
  2 38  1  0  0  0  0
  3  4  1  0  0  0  0
  4  5  1  0  0  0  0
  4 44  1  0  0  0  0
  4 45  1  0  0  0  0
  5 36  1  0  0  0  0
  5  6  1  0  0  0  0
  5 46  1  0  0  0  0
  6  7  1  0  0  0  0
  7  8  1  0  0  0  0
  7 34  1  0  0  0  0
  7 47  1  0  0  0  0
  8 33  1  0  0  0  0
  8  9  1  0  0  0  0
  9 10  2  0  0  0  0
  9 48  1  0  0  0  0
 10 11  1  0  0  0  0
 11 33  2  0  0  0  0
 11 12  1  0  0  0  0
 12 13  1  0  0  0  0
 12 30  2  0  0  0  0
 13 14  1  0  0  0  0
 13 22  1  0  0  0  0
 14 15  2  0  0  0  0
 14 16  1  0  0  0  0
 16 21  1  0  0  0  0
 16 17  2  0  0  0  0
 17 18  1  0  0  0  0
 17 49  1  0  0  0  0
 18 19  2  0  0  0  0
 18 50  1  0  0  0  0
 19 20  1  0  0  0  0
 19 51  1  0  0  0  0
 20 21  2  0  0  0  0
 20 52  1  0  0  0  0
 21 53  1  0  0  0  0
 22 23  2  0  0  0  0
 22 24  1  0  0  0  0
 24 29  1  0  0  0  0
 24 25  2  0  0  0  0
 25 26  1  0  0  0  0
 25 54  1  0  0  0  0
 26 27  2  0  0  0  0
 26 55  1  0  0  0  0
 27 28  1  0  0  0  0
 27 56  1  0  0  0  0
 28 29  2  0  0  0  0
 28 57  1  0  0  0  0
 29 58  1  0  0  0  0
 30 31  1  0  0  0  0
 31 32  2  0  0  0  0
 31 59  1  0  0  0  0
 32 33  1  0  0  0  0
 34 35  1  0  0  0  0
 34 36  1  0  0  0  0
 34 60  1  0  0  0  0
 35 61  1  0  0  0  0
 36 37  1  0  0  0  0
 36 62  1  0  0  0  0
 38 43  1  0  0  0  0
 38 39  2  0  0  0  0
 39 40  1  0  0  0  0
 39 63  1  0  0  0  0
 40 41  2  0  0  0  0
 40 64  1  0  0  0  0
 41 42  1  0  0  0  0
 41 65  1  0  0  0  0
 42 43  2  0  0  0  0
 42 66  1  0  0  0  0
 43 67  1  0  0  0  0
M  END
> <s_m_source_file>
AV-unprocessed.smi

> <i_m_source_file_index>
33

> <i_lp_mmshare_version>
43012

> <i_f3d_flags>
0

> <s_epik_input>
W2NIXTFbY0hdW2NIXVtjSF1bY0hdYzFDKD1PKU9bQ0gyXVtDQEBIXTJPW0NASF0oW0NAQEhdKFtPSF0pW0NAQEhdMkYpbihbY0hdbjMpYyhjMzQpbltjSF1uYzROKEMoPU8pYzVbY0hdW2NIXVtjSF1bY0hdW2NIXTUpQyg9TyljNltjSF1bY0hdW2NIXVtjSF1bY0hdNg==

> <s_epik_cmdline>
J2VwaWtfcHl0aG9uJywgJy1waCcsICc3LjAnLCAnLXRuJywgJzgnLCAnLW1hJywgJzIwMCcsICctbWV0YWxfYmluZGluZycsICctaW1hZScsICc8aW5maWxlLm1hZT4nLCAnLW9tYWUnLCAnPG91dGZpbGUubWFlPic=

> <r_lp_tautomer_probability>
1

> <r_epik_Ionization_Penalty>
0.00067664

> <r_epik_Ionization_Penalty_Charging>
0

> <r_epik_Ionization_Penalty_Neutral>
0.00067664

> <r_epik_State_Penalty>
0.000428095

> <r_epik_Charging_Adjusted_Penalty>
0.000428095

> <i_epik_Tot_Q>
0

> <i_epik_Tot_abs_Q>
0

> <r_epik_Metal_State_Penalty>
-0

> <b_epik_Metal_Only>
0

> <s_epik_Chemistry_Notes>
This compound has an ester and may undergo hydrolysis at high or low pH. This compound contains an acetal/aminal-like group ( X-CH(R)-Y where X, Y are N, S, or O) that may be acid/base labile, releasing an aldehyde.

> <s_lp_Force_Field>
OPLS_2005

> <r_lp_Energy>
79.5237

> <b_lp_Chiralities_Consistent>
1

> <s_lp_Variant>
AV-unprocessed.smi:33-9

> <Gold.Version>
5.8.1

> <Gold.Id.Protein>
6NUR|6NUR_protein|mol2

> <Gold.PLP.Fitness>
61.5558

> <Gold.PLP.PLP>
-58.6134

> <Gold.PLP.part.hbond>
-2.0000

> <Gold.PLP.part.metal>
0.0000

> <Gold.PLP.part.buried>
-9.6458

> <Gold.PLP.part.nonpolar>
-48.1098

> <Gold.PLP.part.repulsive>
0.2374

> <Gold.PLP.ligand.clash>
0.0000

> <Gold.PLP.ligand.torsion>
3.4458

> <Gold.PLP.Chemscore.Hbond>
1.7843

> <Gold.PLP.Chemscore.CHOScore>
0.0000

> <Gold.PLP.Chemscore.Metal>
0.0000

> <Gold.Chemscore.Hbonds>
donor molecule, donor type, donor heavy atom, donor atom, acceptor molecule, acceptor atom, score
      L1  H    35    61       P1  7948  1.00
      P1  H  6896  6908       L1    32  0.68

> <Gold.PLP.Chemscore.Internal.Correction>
4.4811

> <Gold.Rescore>
     Score         DG    S(hbond)    S(metal)    S(lipo)     H(rot)  DE(clash)    DE(int)     intcor
     12.18     -21.20       0.88        0.00     164.61       2.52       0.11       8.91       ----

> <Gold.Chemscore.Fitness>
12.1794

> <Gold.Chemscore.DG>
-21.2016

> <Gold.Chemscore.ZeroCoef>
-5.4800

> <Gold.Chemscore.Hbond>
0.8758

> <Gold.Chemscore.Metal>
0.0000

> <Gold.Chemscore.Lipo>
164.6133

> <Gold.Chemscore.Internal_Hbond>
0.0000

> <Gold.Chemscore.DEClash>
0.1073

> <Gold.Chemscore.DEInternal>
8.9148

> <Gold.Chemscore.Rot>
2.5247

> <Gold.Chemscore.Internal.Correction>
   9.000000E+99

> <Gold.Chemscore.Hbonds>
donor molecule, donor type, donor heavy atom, donor atom, acceptor molecule, acceptor atom, score
      L1  H    35    61       P1  7948  0.43
      P1  H  6896  6908       L1    32  0.05

> <Gold.Chemscore.Hbond.Weighted>
-2.9251

> <Gold.Chemscore.Metal.Weighted>
-0.0000

> <Gold.Chemscore.Lipo.Weighted>
-19.2598

> <Gold.Chemscore.Internal_Hbond.Weighted>
0.0000

> <Gold.Chemscore.DEClash.Weighted>
0.1073

> <Gold.Chemscore.DEInternal.Weighted>
8.9148

> <Gold.Chemscore.Rot.Weighted>
6.4633

> <Gold.Chemscore.Internal.Correction.Weighted>
   9.000000E+99

> <Gold.Protein.RotatedTorsions>
[ 6907 6896 6895 6894 ] final  152.70 input  -60.11 | X-H torsion
[ 7974 7965 7964 7962 ] final   88.57 input  175.53 | X-H torsion
[ 8008 7997 7996 7995 ] final -115.33 input   59.86 | X-H torsion
[ 10167 10162 10161 10158 ] final  -90.34 input  -65.29 | X-H torsion
[ 10718 10713 10712 10709 ] final -149.37 input   66.30 | X-H torsion
[ 10763 10752 10751 10750 ] final   37.07 input  -60.55 | X-H torsion
[ 11005 11000 10999 10996 ] final -143.83 input  -57.11 | X-H torsion

> <Gold.Protein.ActiveResidues>
 VAL166  LYS551  ARG553  GLY616  TRP617  ASP618  TYR619  PRO620  LYS621  CYS622 
 ASP623  PHE694  ASN695  SER759  ASP760  ASP761  ALA762  ILE779  LEU786  VAL792 
 PHE793  MET794  SER795  GLU796  ALA797  LYS798  CYS799  TRP800  GLU811  SER814 

> <Gold.Protein.RotatedAtoms>
  152.0831  133.4162  159.4509 H   0  0  0  0  0  0  0  0  0  0  0  0  # atno 6907 bound_to 6896
  150.6862  134.2959  159.4695 H   0  0  0  0  0  0  0  0  0  0  0  0  # atno 6908 bound_to 6896
  152.0803  134.9475  160.0624 H   0  0  0  0  0  0  0  0  0  0  0  0  # atno 6909 bound_to 6896
  145.5440  139.2290  143.2550 H   0  0  0  0  0  0  0  0  0  0  0  0  # atno 7974 bound_to 7965
  155.0504  140.0393  157.2541 H   0  0  0  0  0  0  0  0  0  0  0  0  # atno 8008 bound_to 7997
  154.7143  140.2699  155.6576 H   0  0  0  0  0  0  0  0  0  0  0  0  # atno 8009 bound_to 7997
  156.2798  140.2715  156.1794 H   0  0  0  0  0  0  0  0  0  0  0  0  # atno 8010 bound_to 7997
  140.3558  143.2867  151.9672 H   0  0  0  0  0  0  0  0  0  0  0  0  # atno 10167 bound_to 10162
  156.4322  130.8081  151.2308 H   0  0  0  0  0  0  0  0  0  0  0  0  # atno 10718 bound_to 10713
  153.0052  135.6288  154.2086 H   0  0  0  0  0  0  0  0  0  0  0  0  # atno 10763 bound_to 10752
  154.1829  135.2812  155.3048 H   0  0  0  0  0  0  0  0  0  0  0  0  # atno 10764 bound_to 10752
  154.5820  135.5644  153.7254 H   0  0  0  0  0  0  0  0  0  0  0  0  # atno 10765 bound_to 10752
  140.8086  134.2771  157.4950 H   0  0  0  0  0  0  0  0  0  0  0  0  # atno 11005 bound_to 11000
  146.1962  140.6261  142.9123 LP  0  0  0  0  0  0  0  0  0  0  0  0  # atno 17320 bound_to 7965
  144.7563  140.5314  143.6767 LP  0  0  0  0  0  0  0  0  0  0  0  0  # atno 17321 bound_to 7965
  139.4820  144.6036  151.7562 LP  0  0  0  0  0  0  0  0  0  0  0  0  # atno 17342 bound_to 10162
  140.5175  144.0931  150.6012 LP  0  0  0  0  0  0  0  0  0  0  0  0  # atno 17343 bound_to 10162
  157.7508  131.0194  150.3668 LP  0  0  0  0  0  0  0  0  0  0  0  0  # atno 17370 bound_to 10713
  156.4007  130.3915  149.6961 LP  0  0  0  0  0  0  0  0  0  0  0  0  # atno 17371 bound_to 10713
  139.8716  134.9470  156.3955 LP  0  0  0  0  0  0  0  0  0  0  0  0  # atno 17394 bound_to 11000
  140.9221  133.7638  155.9919 LP  0  0  0  0  0  0  0  0  0  0  0  0  # atno 17395 bound_to 11000

$$$$
