AV-unprocessed.smi:256|AV-procd|sdf|1957|dock2
  -GOLD-   2262021103D 1   1.00000     0.00000
 Structure written by MMmdl.
 62 65  0  0  0  0  0  0  0  0  2 V2000
  145.6176  137.9286  154.5849 C   0  0  0  0  0  0  0  0  0  0  0  0
  146.2801  136.6641  154.0167 C   0  0  0  0  0  0  0  0  0  0  0  0
  147.5526  136.1972  154.7740 C   0  0  2  0  0  0  0  0  0  0  0  0
  148.5812  137.3518  154.8654 C   0  0  0  0  0  0  0  0  0  0  0  0
  149.8190  136.9374  155.5190 N   0  0  0  0  0  0  0  0  0  0  0  0
  150.6132  137.9280  156.0074 C   0  0  0  0  0  0  0  0  0  0  0  0
  151.7915  137.5581  156.5742 N   0  0  0  0  0  0  0  0  0  0  0  0
  152.6312  138.4751  157.0619 C   0  0  0  0  0  0  0  0  0  0  0  0
  152.4937  139.8007  157.0866 N   0  0  0  0  0  0  0  0  0  0  0  0
  151.3122  140.1856  156.5262 C   0  0  0  0  0  0  0  0  0  0  0  0
  150.3223  139.3266  155.9648 C   0  0  0  0  0  0  0  0  0  0  0  0
  149.2587  140.0926  155.4967 N   0  0  0  0  0  0  0  0  0  0  0  0
  149.6049  141.3238  155.7524 C   0  0  0  0  0  0  0  0  0  0  0  0
  150.8200  141.4708  156.3797 N   0  0  0  0  0  0  0  0  0  0  0  0
  151.4465  142.7208  156.7825 C   0  0  0  0  0  0  0  0  0  0  0  0
  151.4400  142.9694  158.3117 C   0  0  0  0  0  0  0  0  0  0  0  0
  150.1015  142.8611  158.7635 O   0  0  0  0  0  0  0  0  0  0  0  0
  152.2857  141.8972  159.0284 C   0  0  0  0  0  0  0  0  0  0  0  0
  152.4581  142.1963  160.5281 C   0  0  0  0  0  0  0  0  0  0  0  0
  153.0119  143.4945  160.7035 O   0  0  0  0  0  0  0  0  0  0  0  0
  152.1639  144.5243  160.2106 C   0  0  0  0  0  0  0  0  0  0  0  0
  151.9683  144.3702  158.6915 C   0  0  0  0  0  0  0  0  0  0  0  0
  150.4354  135.7451  154.9607 C   0  0  0  0  0  0  0  0  0  0  0  0
  149.4282  134.5922  154.8952 C   0  0  0  0  0  0  0  0  0  0  0  0
  148.1825  134.9736  154.1714 N   0  3  1  0  0  0  0  0  0  0  0  0
  147.2406  133.8244  154.0103 C   0  0  0  0  0  0  0  0  0  0  0  0
  147.7655  132.6777  153.1253 C   0  0  0  0  0  0  0  0  0  0  0  0
  146.6764  131.9521  152.5776 O   0  0  0  0  0  0  0  0  0  0  0  0
  146.1116  132.5895  151.4453 C   0  0  0  0  0  0  0  0  0  0  0  0
  144.6647  138.1167  154.0897 H   0  0  0  0  0  0  0  0  0  0  0  0
  146.2340  138.8149  154.4365 H   0  0  0  0  0  0  0  0  0  0  0  0
  145.4189  137.8251  155.6521 H   0  0  0  0  0  0  0  0  0  0  0  0
  145.5143  135.8914  154.0576 H   0  0  0  0  0  0  0  0  0  0  0  0
  146.5096  136.8204  152.9620 H   0  0  0  0  0  0  0  0  0  0  0  0
  147.2559  135.9364  155.7917 H   0  0  0  0  0  0  0  0  0  0  0  0
  148.8250  137.7151  153.8661 H   0  0  0  0  0  0  0  0  0  0  0  0
  148.1369  138.1889  155.4019 H   0  0  0  0  0  0  0  0  0  0  0  0
  153.5446  138.0925  157.4930 H   0  0  0  0  0  0  0  0  0  0  0  0
  148.9756  142.1639  155.4965 H   0  0  0  0  0  0  0  0  0  0  0  0
  152.4690  142.7311  156.4014 H   0  0  0  0  0  0  0  0  0  0  0  0
  150.9272  143.5326  156.2716 H   0  0  0  0  0  0  0  0  0  0  0  0
  149.6308  142.2888  158.1772 H   0  0  0  0  0  0  0  0  0  0  0  0
  151.8464  140.9081  158.8921 H   0  0  0  0  0  0  0  0  0  0  0  0
  153.2753  141.8556  158.5719 H   0  0  0  0  0  0  0  0  0  0  0  0
  151.5081  142.1172  161.0586 H   0  0  0  0  0  0  0  0  0  0  0  0
  153.1313  141.4660  160.9769 H   0  0  0  0  0  0  0  0  0  0  0  0
  151.2070  144.5047  160.7341 H   0  0  0  0  0  0  0  0  0  0  0  0
  152.6219  145.4889  160.4301 H   0  0  0  0  0  0  0  0  0  0  0  0
  152.9273  144.5378  158.1997 H   0  0  0  0  0  0  0  0  0  0  0  0
  151.2975  145.1506  158.3312 H   0  0  0  0  0  0  0  0  0  0  0  0
  150.8099  135.9686  153.9607 H   0  0  0  0  0  0  0  0  0  0  0  0
  151.2857  135.4380  155.5706 H   0  0  0  0  0  0  0  0  0  0  0  0
  149.9285  133.7607  154.4021 H   0  0  0  0  0  0  0  0  0  0  0  0
  149.1727  134.2607  155.9030 H   0  0  0  0  0  0  0  0  0  0  0  0
  146.9268  133.4447  154.9838 H   0  0  0  0  0  0  0  0  0  0  0  0
  146.3442  134.1807  153.5072 H   0  0  0  0  0  0  0  0  0  0  0  0
  148.3422  133.0998  152.3005 H   0  0  0  0  0  0  0  0  0  0  0  0
  148.4393  132.0276  153.6864 H   0  0  0  0  0  0  0  0  0  0  0  0
  145.2833  131.9923  151.0639 H   0  0  0  0  0  0  0  0  0  0  0  0
  146.8461  132.6952  150.6458 H   0  0  0  0  0  0  0  0  0  0  0  0
  145.7251  133.5770  151.6999 H   0  0  0  0  0  0  0  0  0  0  0  0
  148.4707  135.2357  153.2396 H   0  0  0  0  0  0  0  0  0  0  0  0
  1  2  1  0  0  0  0
  1 30  1  0  0  0  0
  1 31  1  0  0  0  0
  1 32  1  0  0  0  0
  2  3  1  0  0  0  0
  2 33  1  0  0  0  0
  2 34  1  0  0  0  0
  3 25  1  0  0  0  0
  3  4  1  0  0  0  0
  3 35  1  0  0  0  0
  4  5  1  0  0  0  0
  4 36  1  0  0  0  0
  4 37  1  0  0  0  0
  5  6  1  0  0  0  0
  5 23  1  0  0  0  0
  6 11  1  0  0  0  0
  6  7  2  0  0  0  0
  7  8  1  0  0  0  0
  8  9  2  0  0  0  0
  8 38  1  0  0  0  0
  9 10  1  0  0  0  0
 10 14  1  0  0  0  0
 10 11  2  0  0  0  0
 11 12  1  0  0  0  0
 12 13  2  0  0  0  0
 13 14  1  0  0  0  0
 13 39  1  0  0  0  0
 14 15  1  0  0  0  0
 15 16  1  0  0  0  0
 15 40  1  0  0  0  0
 15 41  1  0  0  0  0
 16 22  1  0  0  0  0
 16 17  1  0  0  0  0
 16 18  1  0  0  0  0
 17 42  1  0  0  0  0
 18 19  1  0  0  0  0
 18 43  1  0  0  0  0
 18 44  1  0  0  0  0
 19 20  1  0  0  0  0
 19 45  1  0  0  0  0
 19 46  1  0  0  0  0
 20 21  1  0  0  0  0
 21 22  1  0  0  0  0
 21 47  1  0  0  0  0
 21 48  1  0  0  0  0
 22 49  1  0  0  0  0
 22 50  1  0  0  0  0
 23 24  1  0  0  0  0
 23 51  1  0  0  0  0
 23 52  1  0  0  0  0
 24 25  1  0  0  0  0
 24 53  1  0  0  0  0
 24 54  1  0  0  0  0
 25 26  1  0  0  0  0
 25 62  1  0  0  0  0
 26 27  1  0  0  0  0
 26 55  1  0  0  0  0
 26 56  1  0  0  0  0
 27 28  1  0  0  0  0
 27 57  1  0  0  0  0
 27 58  1  0  0  0  0
 28 29  1  0  0  0  0
 29 59  1  0  0  0  0
 29 60  1  0  0  0  0
 29 61  1  0  0  0  0
M  CHG  1  25   1
M  END
> <s_m_source_file>
AV-unprocessed.smi

> <i_m_source_file_index>
256

> <i_lp_mmshare_version>
43012

> <i_f3d_flags>
0

> <s_epik_input>
W0NIM11PW0NIMl1bQ0gyXU4xW0NIMl1bQ0gyXU4oW0NIMl1bQ0BIXTFbQ0gyXVtDSDNdKWMobltjSF1uMiljKGMyMyluW2NIXW4zW0NIMl1DNChbT0hdKVtDSDJdW0NIMl1PW0NIMl1bQ0gyXTQ=

> <s_epik_cmdline>
J2VwaWtfcHl0aG9uJywgJy1waCcsICc3LjAnLCAnLXRuJywgJzgnLCAnLW1hJywgJzIwMCcsICctbWV0YWxfYmluZGluZycsICctaW1hZScsICc8aW5maWxlLm1hZT4nLCAnLW9tYWUnLCAnPG91dGZpbGUubWFlPic=

> <r_lp_tautomer_probability>
1

> <r_epik_Ionization_Penalty>
0.233023

> <r_epik_Ionization_Penalty_Charging>
0.23295

> <r_epik_Ionization_Penalty_Neutral>
7.2493e-05

> <r_epik_State_Penalty>
0.223667

> <r_epik_Charging_Adjusted_Penalty>
0.456618

> <i_epik_Tot_Q>
1

> <i_epik_Tot_abs_Q>
1

> <r_epik_Metal_State_Penalty>
0.226879

> <b_epik_Metal_Only>
0

> <s_lp_Force_Field>
OPLS_2005

> <r_lp_Energy>
46.9599

> <b_lp_Chiralities_Consistent>
1

> <s_lp_Variant>
AV-unprocessed.smi:256-1

> <Gold.Version>
5.8.1

> <Gold.Id.Protein>
6NUR|6NUR_protein|mol2

> <Gold.PLP.Fitness>
50.3985

> <Gold.PLP.PLP>
-40.9521

> <Gold.PLP.part.hbond>
-2.1559

> <Gold.PLP.part.metal>
0.0000

> <Gold.PLP.part.buried>
-3.0261

> <Gold.PLP.part.nonpolar>
-35.7895

> <Gold.PLP.part.repulsive>
0.1936

> <Gold.PLP.ligand.clash>
0.0000

> <Gold.PLP.ligand.torsion>
0.6830

> <Gold.PLP.Chemscore.Hbond>
2.4500

> <Gold.PLP.Chemscore.CHOScore>
0.9985

> <Gold.PLP.Chemscore.Metal>
0.0000

> <Gold.Chemscore.Hbonds>
donor molecule, donor type, donor heavy atom, donor atom, acceptor molecule, acceptor atom, score
      L1  H    25    62       P1  7948  2.00
      P1  H  7997  8008       L1     9  0.65
      L1  C    13    39       P1  8028  0.93

> <Gold.PLP.Chemscore.Internal.Correction>
0.4669

> <Gold.Rescore>
     Score         DG    S(hbond)    S(metal)    S(lipo)     H(rot)  DE(clash)    DE(int)     intcor
     10.59     -14.01       0.96        0.00     103.44       2.65       0.27       3.15       ----

> <Gold.Chemscore.Fitness>
10.5918

> <Gold.Chemscore.DG>
-14.0068

> <Gold.Chemscore.ZeroCoef>
-5.4800

> <Gold.Chemscore.Hbond>
0.9576

> <Gold.Chemscore.Metal>
0.0000

> <Gold.Chemscore.Lipo>
103.4409

> <Gold.Chemscore.Internal_Hbond>
0.0000

> <Gold.Chemscore.DEClash>
0.2677

> <Gold.Chemscore.DEInternal>
3.1474

> <Gold.Chemscore.Rot>
2.6462

> <Gold.Chemscore.Internal.Correction>
   9.000000E+99

> <Gold.Chemscore.Hbonds>
donor molecule, donor type, donor heavy atom, donor atom, acceptor molecule, acceptor atom, score
      L1  H    25    62       P1  7948  0.92
      P1  H  7997  8008       L1     9  0.06

> <Gold.Chemscore.Hbond.Weighted>
-3.1984

> <Gold.Chemscore.Metal.Weighted>
-0.0000

> <Gold.Chemscore.Lipo.Weighted>
-12.1026

> <Gold.Chemscore.Internal_Hbond.Weighted>
0.0000

> <Gold.Chemscore.DEClash.Weighted>
0.2677

> <Gold.Chemscore.DEInternal.Weighted>
3.1474

> <Gold.Chemscore.Rot.Weighted>
6.7742

> <Gold.Chemscore.Internal.Correction.Weighted>
   9.000000E+99

> <Gold.Protein.RotatedTorsions>
[ 6907 6896 6895 6894 ] final   15.90 input  -60.11 | X-H torsion
[ 7974 7965 7964 7962 ] final -123.55 input  175.53 | X-H torsion
[ 8008 7997 7996 7995 ] final  -52.00 input   59.86 | X-H torsion
[ 10167 10162 10161 10158 ] final -178.06 input  -65.29 | X-H torsion
[ 10718 10713 10712 10709 ] final   95.16 input   66.30 | X-H torsion
[ 10763 10752 10751 10750 ] final   88.12 input  -60.55 | X-H torsion
[ 11005 11000 10999 10996 ] final  122.68 input  -57.11 | X-H torsion

> <Gold.Protein.ActiveResidues>
 VAL166  LYS551  ARG553  GLY616  TRP617  ASP618  TYR619  PRO620  LYS621  CYS622 
 ASP623  PHE694  ASN695  SER759  ASP760  ASP761  ALA762  ILE779  LEU786  VAL792 
 PHE793  MET794  SER795  GLU796  ALA797  LYS798  CYS799  TRP800  GLU811  SER814 

> <Gold.Protein.RotatedAtoms>
  151.8253  135.0638  160.0429 H   0  0  0  0  0  0  0  0  0  0  0  0  # atno 6907 bound_to 6896
  152.2920  133.5566  159.5572 H   0  0  0  0  0  0  0  0  0  0  0  0  # atno 6908 bound_to 6896
  150.7234  134.0331  159.3782 H   0  0  0  0  0  0  0  0  0  0  0  0  # atno 6909 bound_to 6896
  145.0175  140.7959  143.4401 H   0  0  0  0  0  0  0  0  0  0  0  0  # atno 7974 bound_to 7965
  154.4096  140.1234  156.4920 H   0  0  0  0  0  0  0  0  0  0  0  0  # atno 8008 bound_to 7997
  155.6980  140.3495  155.4902 H   0  0  0  0  0  0  0  0  0  0  0  0  # atno 8009 bound_to 7997
  155.9410  140.1087  157.1046 H   0  0  0  0  0  0  0  0  0  0  0  0  # atno 8010 bound_to 7997
  139.5450  144.2260  152.0970 H   0  0  0  0  0  0  0  0  0  0  0  0  # atno 10167 bound_to 10162
  157.6941  131.0536  150.4296 H   0  0  0  0  0  0  0  0  0  0  0  0  # atno 10718 bound_to 10713
  153.1737  135.4518  154.9936 H   0  0  0  0  0  0  0  0  0  0  0  0  # atno 10763 bound_to 10752
  154.7983  135.3246  154.7615 H   0  0  0  0  0  0  0  0  0  0  0  0  # atno 10764 bound_to 10752
  153.8088  135.6956  153.4899 H   0  0  0  0  0  0  0  0  0  0  0  0  # atno 10765 bound_to 10752
  139.9279  134.9641  156.8145 H   0  0  0  0  0  0  0  0  0  0  0  0  # atno 11005 bound_to 11000
  145.1941  139.2286  143.5227 LP  0  0  0  0  0  0  0  0  0  0  0  0  # atno 17320 bound_to 7965
  146.3480  140.1743  142.8589 LP  0  0  0  0  0  0  0  0  0  0  0  0  # atno 17321 bound_to 7965
  140.1745  144.4904  150.6561 LP  0  0  0  0  0  0  0  0  0  0  0  0  # atno 17342 bound_to 10162
  140.6695  143.2280  151.5660 LP  0  0  0  0  0  0  0  0  0  0  0  0  # atno 17343 bound_to 10162
  156.4664  130.4043  149.6545 LP  0  0  0  0  0  0  0  0  0  0  0  0  # atno 17370 bound_to 10713
  156.3641  130.7497  151.2472 LP  0  0  0  0  0  0  0  0  0  0  0  0  # atno 17371 bound_to 10713
  140.6285  133.9928  155.7651 LP  0  0  0  0  0  0  0  0  0  0  0  0  # atno 17394 bound_to 11000
  141.0848  134.0007  157.3330 LP  0  0  0  0  0  0  0  0  0  0  0  0  # atno 17395 bound_to 11000

$$$$
