#       Name:                AV-unprocessed.smi:3343
#       Creating user name   scv26
#       Creation time:       Fri Mar 27 19:30:29 2020


#       File generated by GOLD software.
#

@<TRIPOS>MOLECULE
AV-unprocessed.smi:3343
    47    48     1
SMALL
NO_CHARGES


@<TRIPOS>ATOM
      1 ****        -4.7589  -0.3986   2.9944 C.3            1 S1                 0.0000
      2 ****        -3.8021  -0.7403   1.8343 C.3            1 S1                 0.0000
      3 ****        -2.3736  -0.2088   2.0526 C.2            1 S1                 0.0000
      4 ****        -2.1033   0.4926   3.0281 O.2            1 S1                 0.0000
      5 ****        -1.4604  -0.5595   1.1327 N.am           1 S1                 0.0000
      6 ****        -0.0648  -0.1407   1.1356 C.3            1 S1                 0.0000
      7 ****         0.4625  -0.0377  -0.3047 C.3            1 S1                 0.0000
      8 ****         1.8669   0.4393  -0.3630 N.4            1 S1                 1.0000
      9 ****         2.2196   0.9929  -1.6928 C.3            1 S1                 0.0000
     10 ****         3.6545   1.5609  -1.6839 C.3            1 S1                 0.0000
     11 ****         4.6427   0.5578  -1.2843 N.3            1 S1                 0.0000
     12 ****         4.8658  -0.4646  -2.3009 C.3            1 S1                 0.0000
     13 ****         4.2883   0.0024   0.0228 C.3            1 S1                 0.0000
     14 ****         2.8616  -0.5866   0.0400 C.3            1 S1                 0.0000
     15 ****        -4.3333  -0.2900   0.5526 N.pl3          1 S1                 0.0000
     16 ****        -4.5182  -0.9627  -0.5854 C.2            1 S1                 0.0000
     17 ****        -4.9926  -0.2226  -1.5775 N.2            1 S1                 0.0000
     18 ****        -5.0859   0.9819  -0.9395 C.2            1 S1                 0.0000
     19 ****        -4.6942   0.9994   0.3344 N.2            1 S1                 0.0000
     20 ****        -4.3957  -0.8048   3.9391 H              1 S1                 0.0000
     21 ****        -5.7484  -0.8216   2.8188 H              1 S1                 0.0000
     22 ****        -4.8785   0.6783   3.1200 H              1 S1                 0.0000
     23 ****        -3.7266  -1.8278   1.7859 H              1 S1                 0.0000
     24 ****        -1.7616  -1.1460   0.3678 H              1 S1                 0.0000
     25 ****         0.0488   0.8240   1.6332 H              1 S1                 0.0000
     26 ****         0.5020  -0.8694   1.7143 H              1 S1                 0.0000
     27 ****         0.3742  -0.9949  -0.8211 H              1 S1                 0.0000
     28 ****        -0.1728   0.6654  -0.8461 H              1 S1                 0.0000
     29 ****         2.1030   0.2271  -2.4608 H              1 S1                 0.0000
     30 ****         1.5255   1.7950  -1.9465 H              1 S1                 0.0000
     31 ****         3.9129   1.9594  -2.6658 H              1 S1                 0.0000
     32 ****         3.7101   2.3986  -0.9871 H              1 S1                 0.0000
     33 ****         5.6546  -1.1466  -1.9826 H              1 S1                 0.0000
     34 ****         5.1868  -0.0031  -3.2352 H              1 S1                 0.0000
     35 ****         3.9735  -1.0548  -2.5063 H              1 S1                 0.0000
     36 ****         5.0173  -0.7572   0.3079 H              1 S1                 0.0000
     37 ****         4.3630   0.7961   0.7676 H              1 S1                 0.0000
     38 ****         2.6464  -0.9394   1.0477 H              1 S1                 0.0000
     39 ****         2.7892  -1.4569  -0.6135 H              1 S1                 0.0000
     40 ****        -4.2958  -2.0143  -0.6923 H              1 S1                 0.0000
     41 ****        -5.4458   1.8741  -1.4306 H              1 S1                 0.0000
     42 ****         1.9443   1.2043   0.2921 H              1 S1                 0.0000
     43 ****        -2.8158   0.7236   3.6906 LP             1 S1                 0.0000
     44 ****        -1.1713   0.8311   3.1576 LP             1 S1                 0.0000
     45 ****         5.5276   1.0150  -1.1954 LP             1 S1                 0.0000
     46 ****        -5.2170  -0.4731  -2.5193 LP             1 S1                 0.0000
     47 ****        -4.6719   1.7706   0.9706 LP             1 S1                 0.0000
@<TRIPOS>BOND
    1    1    2 1     
    2    1   20 1     
    3    1   21 1     
    4    1   22 1     
    5    2    3 1     
    6    2   15 1     
    7    2   23 1     
    8    3    4 2     
    9    3    5 am    
   10    5    6 1     
   11    5   24 1     
   12    6    7 1     
   13    6   25 1     
   14    6   26 1     
   15    7    8 1     
   16    7   27 1     
   17    7   28 1     
   18    8   14 1     
   19    8    9 1     
   20    8   42 1     
   21    9   10 1     
   22    9   29 1     
   23    9   30 1     
   24   10   11 1     
   25   10   31 1     
   26   10   32 1     
   27   11   12 1     
   28   11   13 1     
   29   12   33 1     
   30   12   34 1     
   31   12   35 1     
   32   13   14 1     
   33   13   36 1     
   34   13   37 1     
   35   14   38 1     
   36   14   39 1     
   37   15   19 1     
   38   15   16 1     
   39   16   17 2     
   40   16   40 1     
   41   17   18 1     
   42   18   19 2     
   43   18   41 1     
   44    4   43 1     
   45    4   44 1     
   46   11   45 1     
   47   17   46 1     
   48   19   47 1     
@<TRIPOS>SUBSTRUCTURE
      1 S1             1
@<TRIPOS>SET
LONE_PAIRS      STATIC     ATOMS    <user>   **** ""
5 43 44 45 46 47
DONOR_HYDROGENS      STATIC     ATOMS    <user>   **** ""
2 24 42
ATOM$BLUE        STATIC     ATOMS    COLORGROUP SYSTEM
5 43 44 45 46 47
ATOM$RED        STATIC     ATOMS    COLORGROUP SYSTEM
2 24 42
