#       Name:                AV-unprocessed.smi:2225
#       Creating user name   scv26
#       Creation time:       Fri Mar 27 12:21:02 2020


#       File generated by GOLD software.
#

@<TRIPOS>MOLECULE
AV-unprocessed.smi:2225
    39    40     1
SMALL
NO_CHARGES


@<TRIPOS>ATOM
      1 ****        -0.8511   1.9004   2.6581 O.2            1 S1                 0.0000
      2 ****        -0.3125   1.3359   1.7069 C.2            1 S1                 0.0000
      3 ****         1.0895   1.7916   1.2661 C.3            1 S1                 0.0000
      4 ****         1.6319   1.0896   0.0879 N.am           1 S1                 0.0000
      5 ****         2.4331  -0.0389   0.3373 C.2            1 S1                 0.0000
      6 ****         2.9763  -0.7527  -0.6576 C.2            1 S1                 0.0000
      7 ****         2.7232  -0.3336  -2.0145 C.2            1 S1                 0.0000
      8 ****         1.9530   0.7453  -2.2863 C.2            1 S1                 0.0000
      9 ****         1.6724   1.1998  -3.7168 C.3            1 S1                 0.0000
     10 ****         0.3607   1.2113  -3.9580 F              1 S1                 0.0000
     11 ****         2.1439   2.4310  -3.9165 F              1 S1                 0.0000
     12 ****         2.2433   0.3936  -4.6132 F              1 S1                 0.0000
     13 ****         1.3504   1.5190  -1.1815 C.2            1 S1                 0.0000
     14 ****         0.6285   2.4976  -1.3786 O.2            1 S1                 0.0000
     15 ****        -0.8966   0.3282   1.0369 N.am           1 S1                 0.0000
     16 ****        -2.2111  -0.2290   1.3359 C.3            1 S1                 0.0000
     17 ****        -2.7230  -1.1071   0.1961 C.3            1 S1                 0.0000
     18 ****        -2.8326  -2.4980   0.8168 C.3            1 S1                 0.0000
     19 ****        -3.0540  -2.2299   2.1904 O.3            1 S1                 0.0000
     20 ****        -2.1720  -1.1768   2.5430 C.3            1 S1                 0.0000
     21 ****         1.0634   2.8685   1.0912 H              1 S1                 0.0000
     22 ****         1.7634   1.6662   2.1151 H              1 S1                 0.0000
     23 ****         2.5682  -0.2876   1.3801 H              1 S1                 0.0000
     24 ****         3.5856  -1.6198  -0.4494 H              1 S1                 0.0000
     25 ****         3.1660  -0.9035  -2.8177 H              1 S1                 0.0000
     26 ****        -0.3904  -0.0867   0.2682 H              1 S1                 0.0000
     27 ****        -2.9284   0.5749   1.5116 H              1 S1                 0.0000
     28 ****        -3.7097  -0.7625  -0.1154 H              1 S1                 0.0000
     29 ****        -2.0803  -1.1046  -0.6855 H              1 S1                 0.0000
     30 ****        -3.6395  -3.0907   0.3854 H              1 S1                 0.0000
     31 ****        -1.8987  -3.0503   0.6993 H              1 S1                 0.0000
     32 ****        -1.1738  -1.5916   2.6954 H              1 S1                 0.0000
     33 ****        -2.4805  -0.6895   3.4681 H              1 S1                 0.0000
     34 ****        -0.3779   2.6431   3.1320 LP             1 S1                 0.0000
     35 ****        -1.7620   1.6165   2.9575 LP             1 S1                 0.0000
     36 ****         0.2364   2.9938  -0.6039 LP             1 S1                 0.0000
     37 ****         0.4347   2.7958  -2.3132 LP             1 S1                 0.0000
     38 ****        -2.8565  -3.0435   2.7373 LP             1 S1                 0.0000
     39 ****        -4.0025  -1.9504   2.3393 LP             1 S1                 0.0000
@<TRIPOS>BOND
    1    1    2 2     
    2    2    3 1     
    3    2   15 am    
    4    3    4 1     
    5    3   21 1     
    6    3   22 1     
    7    4   13 am    
    8    4    5 1     
    9    5    6 2     
   10    5   23 1     
   11    6    7 1     
   12    6   24 1     
   13    7    8 2     
   14    7   25 1     
   15    8    9 1     
   16    8   13 1     
   17    9   10 1     
   18    9   11 1     
   19    9   12 1     
   20   13   14 2     
   21   15   16 1     
   22   15   26 1     
   23   16   20 1     
   24   16   17 1     
   25   16   27 1     
   26   17   18 1     
   27   17   28 1     
   28   17   29 1     
   29   18   19 1     
   30   18   30 1     
   31   18   31 1     
   32   19   20 1     
   33   20   32 1     
   34   20   33 1     
   35    1   34 1     
   36    1   35 1     
   37   14   36 1     
   38   14   37 1     
   39   19   38 1     
   40   19   39 1     
@<TRIPOS>SUBSTRUCTURE
      1 S1             1
@<TRIPOS>SET
LONE_PAIRS      STATIC     ATOMS    <user>   **** ""
6 34 35 36 37 38 39
DONOR_HYDROGENS      STATIC     ATOMS    <user>   **** ""
1 26
ATOM$BLUE        STATIC     ATOMS    COLORGROUP SYSTEM
6 34 35 36 37 38 39
ATOM$RED        STATIC     ATOMS    COLORGROUP SYSTEM
1 26
