#       Name:                AV-unprocessed.smi:1745
#       Creating user name   scv26
#       Creation time:       Fri Mar 27 08:25:03 2020


#       File generated by GOLD software.
#

@<TRIPOS>MOLECULE
AV-unprocessed.smi:1745
    55    57     1
SMALL
NO_CHARGES


@<TRIPOS>ATOM
      1 ****        -4.3507  -2.6309  -1.8811 C.3            1 S1                 0.0000
      2 ****        -3.8424  -1.8589  -0.6544 C.3            1 S1                 0.0000
      3 ****        -2.3835  -1.7860  -0.7199 N.am           1 S1                 0.0000
      4 ****        -1.6402  -0.6886  -0.5163 C.2            1 S1                 0.0000
      5 ****        -2.1115   0.4096  -0.2223 O.2            1 S1                 0.0000
      6 ****        -0.3341  -0.9523  -0.6899 N.am           1 S1                 0.0000
      7 ****         0.7652  -0.0556  -0.6128 C.ar           1 S1                 0.0000
      8 ****         0.7583   1.1549   0.1178 C.ar           1 S1                 0.0000
      9 ****         1.9177   1.9538   0.1240 C.ar           1 S1                 0.0000
     10 ****         3.0601   1.5237  -0.5911 C.ar           1 S1                 0.0000
     11 ****         4.2289   2.3155  -0.6057 N.3            1 S1                 0.0000
     12 ****         4.7414   2.7207   0.7008 C.3            1 S1                 0.0000
     13 ****         5.8037   3.8223   0.5405 C.3            1 S1                 0.0000
     14 ****         6.8274   3.3815  -0.3456 O.3            1 S1                 0.0000
     15 ****         6.3186   3.1013  -1.6454 C.3            1 S1                 0.0000
     16 ****         5.2794   1.9707  -1.5614 C.3            1 S1                 0.0000
     17 ****         3.0657   0.3566  -1.2808 N.ar           1 S1                 0.0000
     18 ****         1.9539  -0.4075  -1.2816 C.ar           1 S1                 0.0000
     19 ****        -4.2951  -2.5155   0.6664 C.3            1 S1                 0.0000
     20 ****        -3.8291  -1.8034   1.9385 C.3            1 S1                 0.0000
     21 ****        -4.8601  -2.2631   2.9427 C.3            1 S1                 0.0000
     22 ****        -6.1325  -2.2672   2.1013 C.3            1 S1                 0.0000
     23 ****        -5.7182  -2.5171   0.7603 O.3            1 S1                 0.0000
     24 ****        -5.4397  -2.6807  -1.8927 H              1 S1                 0.0000
     25 ****        -3.9708  -3.6532  -1.8935 H              1 S1                 0.0000
     26 ****        -4.0365  -2.1474  -2.8068 H              1 S1                 0.0000
     27 ****        -4.2661  -0.8539  -0.7016 H              1 S1                 0.0000
     28 ****        -1.9032  -2.6415  -0.9571 H              1 S1                 0.0000
     29 ****        -0.1080  -1.8876  -0.9949 H              1 S1                 0.0000
     30 ****        -0.1036   1.4826   0.6777 H              1 S1                 0.0000
     31 ****         1.9113   2.8888   0.6637 H              1 S1                 0.0000
     32 ****         3.9482   3.0858   1.3514 H              1 S1                 0.0000
     33 ****         5.1780   1.8501   1.1917 H              1 S1                 0.0000
     34 ****         5.3547   4.7432   0.1645 H              1 S1                 0.0000
     35 ****         6.2490   4.0577   1.5073 H              1 S1                 0.0000
     36 ****         5.8796   4.0019  -2.0777 H              1 S1                 0.0000
     37 ****         7.1428   2.8055  -2.2946 H              1 S1                 0.0000
     38 ****         5.7608   1.0427  -1.2497 H              1 S1                 0.0000
     39 ****         4.8499   1.8013  -2.5497 H              1 S1                 0.0000
     40 ****         2.0151  -1.3277  -1.8443 H              1 S1                 0.0000
     41 ****        -3.9617  -3.5542   0.7025 H              1 S1                 0.0000
     42 ****        -2.8096  -2.0633   2.2247 H              1 S1                 0.0000
     43 ****        -3.8863  -0.7205   1.8175 H              1 S1                 0.0000
     44 ****        -4.6281  -3.2739   3.2809 H              1 S1                 0.0000
     45 ****        -4.9289  -1.6158   3.8172 H              1 S1                 0.0000
     46 ****        -6.8514  -3.0129   2.4411 H              1 S1                 0.0000
     47 ****        -6.6162  -1.2904   2.1364 H              1 S1                 0.0000
     48 ****        -3.1006   0.5189  -0.1230 LP             1 S1                 0.0000
     49 ****        -1.5055   1.1926  -0.0826 LP             1 S1                 0.0000
     50 ****         3.8422   3.1460  -1.0067 LP             1 S1                 0.0000
     51 ****         7.2410   2.5503   0.0260 LP             1 S1                 0.0000
     52 ****         7.5228   4.0964  -0.4176 LP             1 S1                 0.0000
     53 ****         3.8814   0.0665  -1.7812 LP             1 S1                 0.0000
     54 ****        -6.0659  -3.4086   0.4696 LP             1 S1                 0.0000
     55 ****        -6.0878  -1.8046   0.1639 LP             1 S1                 0.0000
@<TRIPOS>BOND
    1    1    2 1     
    2    1   24 1     
    3    1   25 1     
    4    1   26 1     
    5    2    3 1     
    6    2   19 1     
    7    2   27 1     
    8    3    4 am    
    9    3   28 1     
   10    4    5 2     
   11    4    6 am    
   12    6    7 1     
   13    6   29 1     
   14    7   18 ar    
   15    7    8 ar    
   16    8    9 ar    
   17    8   30 1     
   18    9   10 ar    
   19    9   31 1     
   20   10   11 1     
   21   10   17 ar    
   22   11   16 1     
   23   11   12 1     
   24   12   13 1     
   25   12   32 1     
   26   12   33 1     
   27   13   14 1     
   28   13   34 1     
   29   13   35 1     
   30   14   15 1     
   31   15   16 1     
   32   15   36 1     
   33   15   37 1     
   34   16   38 1     
   35   16   39 1     
   36   17   18 ar    
   37   18   40 1     
   38   19   23 1     
   39   19   20 1     
   40   19   41 1     
   41   20   21 1     
   42   20   42 1     
   43   20   43 1     
   44   21   22 1     
   45   21   44 1     
   46   21   45 1     
   47   22   23 1     
   48   22   46 1     
   49   22   47 1     
   50    5   48 1     
   51    5   49 1     
   52   11   50 1     
   53   14   51 1     
   54   14   52 1     
   55   17   53 1     
   56   23   54 1     
   57   23   55 1     
@<TRIPOS>SUBSTRUCTURE
      1 S1             1
@<TRIPOS>SET
LONE_PAIRS      STATIC     ATOMS    <user>   **** ""
8 48 49 50 51 52 53 54 55
DONOR_HYDROGENS      STATIC     ATOMS    <user>   **** ""
2 28 29
ATOM$BLUE        STATIC     ATOMS    COLORGROUP SYSTEM
8 48 49 50 51 52 53 54 55
ATOM$RED        STATIC     ATOMS    COLORGROUP SYSTEM
2 28 29
