AV-unprocessed.smi:1818|AV-procd|sdf|7381|dock2
  -GOLD-   22720 9 43D 1   1.00000     0.00000
 Structure written by MMmdl.
 37 38  0  0  0  0  0  0  0  0  2 V2000
  151.8596  136.1580  155.6408 N   0  0  0  0  0  0  0  0  0  0  0  0
  151.0896  137.0044  155.8127 C   0  0  0  0  0  0  0  0  0  0  0  0
  150.1074  138.0847  156.0311 C   0  0  0  0  0  0  0  0  0  0  0  0
  150.5590  138.9763  157.1042 N   0  0  0  0  0  0  0  0  0  0  0  0
  151.6156  139.8062  157.0806 C   0  0  0  0  0  0  0  0  0  0  0  0
  152.3576  139.9432  156.1094 O   0  0  0  0  0  0  0  0  0  0  0  0
  151.8915  140.5897  158.3633 C   0  0  0  0  0  0  0  0  0  0  0  0
  151.6533  142.0223  158.1640 N   0  0  0  0  0  0  0  0  0  0  0  0
  152.3746  143.0670  158.6840 C   0  0  0  0  0  0  0  0  0  0  0  0
  151.7896  144.2162  158.2177 C   0  0  0  0  0  0  0  0  0  0  0  0
  150.7380  143.8253  157.4326 N   0  3  0  0  0  0  0  0  0  0  0  0
  150.6566  142.4912  157.4012 C   0  0  0  0  0  0  0  0  0  0  0  0
  150.0509  138.9210  154.7290 C   0  0  0  0  0  0  0  0  0  0  0  0
  148.7922  139.7853  154.5348 C   0  0  0  0  0  0  0  0  0  0  0  0
  147.6640  139.0279  153.8114 C   0  0  0  0  0  0  0  0  0  0  0  0
  146.9645  137.9478  154.6516 C   0  0  0  0  0  0  0  0  0  0  0  0
  147.9029  136.8973  155.2719 C   0  0  0  0  0  0  0  0  0  0  0  0
  148.7387  137.4706  156.4286 C   0  0  0  0  0  0  0  0  0  0  0  0
  150.0149  138.9486  157.9541 H   0  0  0  0  0  0  0  0  0  0  0  0
  151.2463  140.2384  159.1704 H   0  0  0  0  0  0  0  0  0  0  0  0
  152.9246  140.4512  158.6859 H   0  0  0  0  0  0  0  0  0  0  0  0
  153.2286  142.9196  159.3293 H   0  0  0  0  0  0  0  0  0  0  0  0
  152.0368  145.2553  158.3805 H   0  0  0  0  0  0  0  0  0  0  0  0
  149.9317  141.9070  156.8622 H   0  0  0  0  0  0  0  0  0  0  0  0
  150.9303  139.5659  154.6876 H   0  0  0  0  0  0  0  0  0  0  0  0
  150.1589  138.2635  153.8649 H   0  0  0  0  0  0  0  0  0  0  0  0
  148.4469  140.2034  155.4809 H   0  0  0  0  0  0  0  0  0  0  0  0
  149.0638  140.6398  153.9141 H   0  0  0  0  0  0  0  0  0  0  0  0
  146.9112  139.7478  153.4886 H   0  0  0  0  0  0  0  0  0  0  0  0
  148.0520  138.5816  152.8949 H   0  0  0  0  0  0  0  0  0  0  0  0
  146.3771  138.4226  155.4385 H   0  0  0  0  0  0  0  0  0  0  0  0
  146.2412  137.4368  154.0152 H   0  0  0  0  0  0  0  0  0  0  0  0
  147.2809  136.0947  155.6699 H   0  0  0  0  0  0  0  0  0  0  0  0
  148.5374  136.4347  154.5153 H   0  0  0  0  0  0  0  0  0  0  0  0
  148.9192  136.6668  157.1437 H   0  0  0  0  0  0  0  0  0  0  0  0
  148.1377  138.1992  156.9748 H   0  0  0  0  0  0  0  0  0  0  0  0
  150.1112  144.4530  156.9446 H   0  0  0  0  0  0  0  0  0  0  0  0
  1  2  3  0  0  0  0
  2  3  1  0  0  0  0
  3 18  1  0  0  0  0
  3  4  1  0  0  0  0
  3 13  1  0  0  0  0
  4  5  1  0  0  0  0
  4 19  1  0  0  0  0
  5  6  2  0  0  0  0
  5  7  1  0  0  0  0
  7  8  1  0  0  0  0
  7 20  1  0  0  0  0
  7 21  1  0  0  0  0
  8 12  1  0  0  0  0
  8  9  1  0  0  0  0
  9 10  2  0  0  0  0
  9 22  1  0  0  0  0
 10 11  1  0  0  0  0
 10 23  1  0  0  0  0
 11 12  2  0  0  0  0
 11 37  1  0  0  0  0
 12 24  1  0  0  0  0
 13 14  1  0  0  0  0
 13 25  1  0  0  0  0
 13 26  1  0  0  0  0
 14 15  1  0  0  0  0
 14 27  1  0  0  0  0
 14 28  1  0  0  0  0
 15 16  1  0  0  0  0
 15 29  1  0  0  0  0
 15 30  1  0  0  0  0
 16 17  1  0  0  0  0
 16 31  1  0  0  0  0
 16 32  1  0  0  0  0
 17 18  1  0  0  0  0
 17 33  1  0  0  0  0
 17 34  1  0  0  0  0
 18 35  1  0  0  0  0
 18 36  1  0  0  0  0
M  CHG  1  11   1
M  END
> <s_m_source_file>
AV-unprocessed.smi

> <i_m_source_file_index>
1818

> <i_lp_mmshare_version>
43012

> <i_f3d_flags>
0

> <s_epik_input>
W0NIMl0xW0NIMl1bQ0gyXVtDSDJdW0NIMl1bQ0gyXUMxKEMjTilbTkhdQyg9TylbQ0gyXW4yW2NIXVtjSF1uW2NIXTI=

> <s_epik_cmdline>
J2VwaWtfcHl0aG9uJywgJy1waCcsICc3LjAnLCAnLXRuJywgJzgnLCAnLW1hJywgJzIwMCcsICctbWV0YWxfYmluZGluZycsICctaW1hZScsICc8aW5maWxlLm1hZT4nLCAnLW9tYWUnLCAnPG91dGZpbGUubWFlPic=

> <r_lp_tautomer_probability>
1

> <r_epik_Ionization_Penalty>
0.70502

> <r_epik_Ionization_Penalty_Charging>
0

> <r_epik_Ionization_Penalty_Neutral>
0.70502

> <r_epik_State_Penalty>
0.72808

> <r_epik_Charging_Adjusted_Penalty>
0.72808

> <i_epik_Tot_Q>
1

> <i_epik_Tot_abs_Q>
1

> <r_epik_Metal_State_Penalty>
0.891186

> <b_epik_Metal_Only>
0

> <s_lp_Force_Field>
OPLS_2005

> <r_lp_Energy>
19.4839

> <b_lp_Chiralities_Consistent>
1

> <s_lp_Variant>
AV-unprocessed.smi:1818-2

> <Gold.Version>
5.8.1

> <Gold.Id.Protein>
6NUR|6NUR_protein|mol2

> <Gold.PLP.Fitness>
39.5712

> <Gold.PLP.PLP>
-28.5984

> <Gold.PLP.part.hbond>
-3.0000

> <Gold.PLP.part.metal>
0.0000

> <Gold.PLP.part.buried>
-3.2471

> <Gold.PLP.part.nonpolar>
-22.9108

> <Gold.PLP.part.repulsive>
0.0490

> <Gold.PLP.ligand.clash>
0.0000

> <Gold.PLP.ligand.torsion>
0.4970

> <Gold.PLP.Chemscore.Hbond>
3.9840

> <Gold.PLP.Chemscore.CHOScore>
0.0000

> <Gold.PLP.Chemscore.Metal>
0.0000

> <Gold.Chemscore.Hbonds>
donor molecule, donor type, donor heavy atom, donor atom, acceptor molecule, acceptor atom, score
      L1  H    11    37       P1  8028  2.00
      P1  H  7997  8010       L1     6  1.00
      P1  H 10752 10764       L1     1  1.00

> <Gold.PLP.Chemscore.Internal.Correction>
0.0147

> <Gold.Rescore>
     Score         DG    S(hbond)    S(metal)    S(lipo)     H(rot)  DE(clash)    DE(int)     intcor
     16.04     -17.91       2.95        0.00      59.16       1.69       0.03       1.84       ----

> <Gold.Chemscore.Fitness>
16.0430

> <Gold.Chemscore.DG>
-17.9061

> <Gold.Chemscore.ZeroCoef>
-5.4800

> <Gold.Chemscore.Hbond>
2.9470

> <Gold.Chemscore.Metal>
0.0000

> <Gold.Chemscore.Lipo>
59.1593

> <Gold.Chemscore.Internal_Hbond>
0.0000

> <Gold.Chemscore.DEClash>
0.0275

> <Gold.Chemscore.DEInternal>
1.8357

> <Gold.Chemscore.Rot>
1.6947

> <Gold.Chemscore.Internal.Correction>
   9.000000E+99

> <Gold.Chemscore.Hbonds>
donor molecule, donor type, donor heavy atom, donor atom, acceptor molecule, acceptor atom, score
      L1  H    11    37       P1  8028  0.71
      P1  H  7997  8010       L1     6  0.95
      P1  H 10752 10764       L1     1  0.95

> <Gold.Chemscore.Hbond.Weighted>
-9.8431

> <Gold.Chemscore.Metal.Weighted>
-0.0000

> <Gold.Chemscore.Lipo.Weighted>
-6.9216

> <Gold.Chemscore.Internal_Hbond.Weighted>
0.0000

> <Gold.Chemscore.DEClash.Weighted>
0.0275

> <Gold.Chemscore.DEInternal.Weighted>
1.8357

> <Gold.Chemscore.Rot.Weighted>
4.3386

> <Gold.Chemscore.Internal.Correction.Weighted>
   9.000000E+99

> <Gold.Protein.RotatedTorsions>
[ 6907 6896 6895 6894 ] final -107.13 input  -60.11 | X-H torsion
[ 7974 7965 7964 7962 ] final    6.92 input  175.53 | X-H torsion
[ 8008 7997 7996 7995 ] final   88.15 input   59.86 | X-H torsion
[ 10167 10162 10161 10158 ] final  102.01 input  -65.29 | X-H torsion
[ 10718 10713 10712 10709 ] final  -78.57 input   66.30 | X-H torsion
[ 10763 10752 10751 10750 ] final  -51.62 input  -60.55 | X-H torsion
[ 11005 11000 10999 10996 ] final  -29.41 input  -57.11 | X-H torsion

> <Gold.Protein.ActiveResidues>
 VAL166  LYS551  ARG553  GLY616  TRP617  ASP618  TYR619  PRO620  LYS621  CYS622 
 ASP623  PHE694  ASN695  SER759  ASP760  ASP761  ALA762  ILE779  LEU786  VAL792 
 PHE793  MET794  SER795  GLU796  ALA797  LYS798  CYS799  TRP800  GLU811  SER814 

> <Gold.Protein.RotatedAtoms>
  150.7427  133.9872  159.3595 H   0  0  0  0  0  0  0  0  0  0  0  0  # atno 6907 bound_to 6896
  151.7818  135.0757  160.0384 H   0  0  0  0  0  0  0  0  0  0  0  0  # atno 6908 bound_to 6896
  152.3269  133.5878  159.5819 H   0  0  0  0  0  0  0  0  0  0  0  0  # atno 6909 bound_to 6896
  146.2431  140.0161  142.8402 H   0  0  0  0  0  0  0  0  0  0  0  0  # atno 7974 bound_to 7965
  155.9842  140.3374  155.6692 H   0  0  0  0  0  0  0  0  0  0  0  0  # atno 8008 bound_to 7997
  155.6507  140.0705  157.2606 H   0  0  0  0  0  0  0  0  0  0  0  0  # atno 8009 bound_to 7997
  154.4200  140.1726  156.1659 H   0  0  0  0  0  0  0  0  0  0  0  0  # atno 8010 bound_to 7997
  139.7387  144.7017  151.0608 H   0  0  0  0  0  0  0  0  0  0  0  0  # atno 10167 bound_to 10162
  156.0114  130.4522  150.3517 H   0  0  0  0  0  0  0  0  0  0  0  0  # atno 10718 bound_to 10713
  154.1295  135.6522  153.4919 H   0  0  0  0  0  0  0  0  0  0  0  0  # atno 10763 bound_to 10752
  153.0200  135.5289  154.7016 H   0  0  0  0  0  0  0  0  0  0  0  0  # atno 10764 bound_to 10752
  154.6246  135.2969  155.0257 H   0  0  0  0  0  0  0  0  0  0  0  0  # atno 10765 bound_to 10752
  140.9293  133.7348  156.0914 H   0  0  0  0  0  0  0  0  0  0  0  0  # atno 11005 bound_to 11000
  145.1283  140.9503  143.4559 LP  0  0  0  0  0  0  0  0  0  0  0  0  # atno 17320 bound_to 7965
  145.0412  139.3258  143.5975 LP  0  0  0  0  0  0  0  0  0  0  0  0  # atno 17321 bound_to 7965
  140.7783  143.4951  150.9843 LP  0  0  0  0  0  0  0  0  0  0  0  0  # atno 17342 bound_to 10162
  139.8639  143.7278  152.3171 LP  0  0  0  0  0  0  0  0  0  0  0  0  # atno 17343 bound_to 10162
  157.1609  131.0344  151.2841 LP  0  0  0  0  0  0  0  0  0  0  0  0  # atno 17370 bound_to 10713
  157.4312  130.7491  149.6991 LP  0  0  0  0  0  0  0  0  0  0  0  0  # atno 17371 bound_to 10713
  140.7883  134.3646  157.5471 LP  0  0  0  0  0  0  0  0  0  0  0  0  # atno 17394 bound_to 11000
  139.8793  134.9124  156.3061 LP  0  0  0  0  0  0  0  0  0  0  0  0  # atno 17395 bound_to 11000

$$$$
