AV-unprocessed.smi:2013|AV-procd|sdf|8158|dock2
  -GOLD-   2272010403D 1   1.00000     0.00000
 Structure written by MMmdl.
 51 52  0  0  0  0  0  0  0  0  2 V2000
  150.8518  136.9797  156.0727 C   0  0  0  0  0  0  0  0  0  0  0  0
  149.8863  137.2661  154.9099 C   0  0  0  0  0  0  0  0  0  0  0  0
  150.1106  138.6807  154.3480 C   0  0  0  0  0  0  0  0  0  0  0  0
  148.3863  136.9993  155.2264 C   0  0  1  0  0  0  0  0  0  0  0  0
  147.8274  137.7922  156.4394 C   0  0  0  0  0  0  0  0  0  0  0  0
  148.3006  137.2783  157.7193 N   0  0  0  0  0  0  0  0  0  0  0  0
  147.7034  137.4786  158.9037 C   0  0  0  0  0  0  0  0  0  0  0  0
  146.6674  138.1296  159.0353 O   0  0  0  0  0  0  0  0  0  0  0  0
  148.3759  136.8514  160.1293 C   0  0  0  0  0  0  0  0  0  0  0  0
  147.4586  135.9833  160.8788 N   0  0  0  0  0  0  0  0  0  0  0  0
  147.7388  134.6325  160.9793 C   0  0  0  0  0  0  0  0  0  0  0  0
  146.9539  133.7545  161.6409 C   0  0  0  0  0  0  0  0  0  0  0  0
  145.7335  134.1968  162.3028 C   0  0  0  0  0  0  0  0  0  0  0  0
  144.9833  133.4392  162.9197 O   0  0  0  0  0  0  0  0  0  0  0  0
  145.4674  135.5800  162.1848 N   0  0  0  0  0  0  0  0  0  0  0  0
  144.2632  136.0587  162.8318 C   0  0  0  0  0  0  0  0  0  0  0  0
  146.2942  136.4964  161.4933 C   0  0  0  0  0  0  0  0  0  0  0  0
  146.0269  137.6977  161.4136 O   0  0  0  0  0  0  0  0  0  0  0  0
  147.5378  137.1084  153.9983 N   0  3  0  0  0  0  0  0  0  0  0  0
  146.3170  136.2671  154.0457 C   0  0  0  0  0  0  0  0  0  0  0  0
  145.5984  136.2912  152.6852 C   0  0  0  0  0  0  0  0  0  0  0  0
  145.3019  137.6321  152.3143 O   0  0  0  0  0  0  0  0  0  0  0  0
  146.4764  138.4244  152.1887 C   0  0  0  0  0  0  0  0  0  0  0  0
  147.1940  138.4826  153.5461 C   0  0  0  0  0  0  0  0  0  0  0  0
  150.7269  137.6935  156.8863 H   0  0  0  0  0  0  0  0  0  0  0  0
  151.8872  137.0541  155.7389 H   0  0  0  0  0  0  0  0  0  0  0  0
  150.7164  135.9759  156.4741 H   0  0  0  0  0  0  0  0  0  0  0  0
  150.1703  136.5869  154.1055 H   0  0  0  0  0  0  0  0  0  0  0  0
  149.9000  139.4487  155.0927 H   0  0  0  0  0  0  0  0  0  0  0  0
  149.4722  138.8695  153.4845 H   0  0  0  0  0  0  0  0  0  0  0  0
  151.1433  138.8128  154.0236 H   0  0  0  0  0  0  0  0  0  0  0  0
  148.3581  135.9513  155.5287 H   0  0  0  0  0  0  0  0  0  0  0  0
  148.1216  138.8402  156.3948 H   0  0  0  0  0  0  0  0  0  0  0  0
  146.7361  137.7800  156.4291 H   0  0  0  0  0  0  0  0  0  0  0  0
  149.1519  136.7339  157.7071 H   0  0  0  0  0  0  0  0  0  0  0  0
  149.2400  136.2713  159.8015 H   0  0  0  0  0  0  0  0  0  0  0  0
  148.7830  137.6415  160.7625 H   0  0  0  0  0  0  0  0  0  0  0  0
  148.6322  134.2568  160.5019 H   0  0  0  0  0  0  0  0  0  0  0  0
  147.2320  132.7114  161.6804 H   0  0  0  0  0  0  0  0  0  0  0  0
  144.1094  137.1221  162.6527 H   0  0  0  0  0  0  0  0  0  0  0  0
  144.3780  135.8733  163.9012 H   0  0  0  0  0  0  0  0  0  0  0  0
  143.4251  135.4944  162.4185 H   0  0  0  0  0  0  0  0  0  0  0  0
  146.5791  135.2372  154.2919 H   0  0  0  0  0  0  0  0  0  0  0  0
  145.6524  136.6278  154.8323 H   0  0  0  0  0  0  0  0  0  0  0  0
  146.2107  135.8179  151.9160 H   0  0  0  0  0  0  0  0  0  0  0  0
  144.6672  135.7271  152.7421 H   0  0  0  0  0  0  0  0  0  0  0  0
  147.1305  138.0152  151.4170 H   0  0  0  0  0  0  0  0  0  0  0  0
  146.1928  139.4277  151.8694 H   0  0  0  0  0  0  0  0  0  0  0  0
  146.5384  138.9668  154.2711 H   0  0  0  0  0  0  0  0  0  0  0  0
  148.0865  139.1000  153.4609 H   0  0  0  0  0  0  0  0  0  0  0  0
  148.1005  136.7071  153.2617 H   0  0  0  0  0  0  0  0  0  0  0  0
  1  2  1  0  0  0  0
  1 25  1  0  0  0  0
  1 26  1  0  0  0  0
  1 27  1  0  0  0  0
  2  3  1  0  0  0  0
  2  4  1  0  0  0  0
  2 28  1  0  0  0  0
  3 29  1  0  0  0  0
  3 30  1  0  0  0  0
  3 31  1  0  0  0  0
  4  5  1  0  0  0  0
  4 19  1  0  0  0  0
  4 32  1  0  0  0  0
  5  6  1  0  0  0  0
  5 33  1  0  0  0  0
  5 34  1  0  0  0  0
  6  7  1  0  0  0  0
  6 35  1  0  0  0  0
  7  8  2  0  0  0  0
  7  9  1  0  0  0  0
  9 10  1  0  0  0  0
  9 36  1  0  0  0  0
  9 37  1  0  0  0  0
 10 17  1  0  0  0  0
 10 11  1  0  0  0  0
 11 12  2  0  0  0  0
 11 38  1  0  0  0  0
 12 13  1  0  0  0  0
 12 39  1  0  0  0  0
 13 14  2  0  0  0  0
 13 15  1  0  0  0  0
 15 16  1  0  0  0  0
 15 17  1  0  0  0  0
 16 40  1  0  0  0  0
 16 41  1  0  0  0  0
 16 42  1  0  0  0  0
 17 18  2  0  0  0  0
 19 24  1  0  0  0  0
 19 20  1  0  0  0  0
 19 51  1  0  0  0  0
 20 21  1  0  0  0  0
 20 43  1  0  0  0  0
 20 44  1  0  0  0  0
 21 22  1  0  0  0  0
 21 45  1  0  0  0  0
 21 46  1  0  0  0  0
 22 23  1  0  0  0  0
 23 24  1  0  0  0  0
 23 47  1  0  0  0  0
 23 48  1  0  0  0  0
 24 49  1  0  0  0  0
 24 50  1  0  0  0  0
M  CHG  1  19   1
M  END
> <s_m_source_file>
AV-unprocessed.smi

> <i_m_source_file_index>
2013

> <i_lp_mmshare_version>
43012

> <i_f3d_flags>
0

> <s_epik_input>
W0NIMl0xW0NIMl1PW0NIMl1bQ0gyXU4xW0NASF0oW0NIXShbQ0gzXSlbQ0gzXSlbQ0gyXVtOSF1DKD1PKVtDSDJdbjJbY0hdW2NIXWMoPU8pbihbQ0gzXSljMj1P

> <s_epik_cmdline>
J2VwaWtfcHl0aG9uJywgJy1waCcsICc3LjAnLCAnLXRuJywgJzgnLCAnLW1hJywgJzIwMCcsICctbWV0YWxfYmluZGluZycsICctaW1hZScsICc8aW5maWxlLm1hZT4nLCAnLW9tYWUnLCAnPG91dGZpbGUubWFlPic=

> <r_lp_tautomer_probability>
1

> <r_epik_Ionization_Penalty>
0.370738

> <r_epik_Ionization_Penalty_Charging>
0.370738

> <r_epik_Ionization_Penalty_Neutral>
8.1827e-08

> <r_epik_State_Penalty>
0.368162

> <r_epik_Charging_Adjusted_Penalty>
0.7389

> <i_epik_Tot_Q>
1

> <i_epik_Tot_abs_Q>
1

> <r_epik_Metal_State_Penalty>
0.368194

> <b_epik_Metal_Only>
0

> <s_lp_Force_Field>
OPLS_2005

> <r_lp_Energy>
35.5949

> <b_lp_Chiralities_Consistent>
1

> <s_lp_Variant>
AV-unprocessed.smi:2013-2

> <Gold.Version>
5.8.1

> <Gold.Id.Protein>
6NUR|6NUR_protein|mol2

> <Gold.PLP.Fitness>
39.5596

> <Gold.PLP.PLP>
-31.4459

> <Gold.PLP.part.hbond>
-3.2692

> <Gold.PLP.part.metal>
0.0000

> <Gold.PLP.part.buried>
-5.3205

> <Gold.PLP.part.nonpolar>
-24.9477

> <Gold.PLP.part.repulsive>
0.9421

> <Gold.PLP.ligand.clash>
0.0000

> <Gold.PLP.ligand.torsion>
0.7343

> <Gold.PLP.Chemscore.Hbond>
3.0000

> <Gold.PLP.Chemscore.CHOScore>
0.0000

> <Gold.PLP.Chemscore.Metal>
0.0000

> <Gold.Chemscore.Hbonds>
donor molecule, donor type, donor heavy atom, donor atom, acceptor molecule, acceptor atom, score
      L1  H    19    51       P1  7948  2.00
      P1  H  6934  6947       L1    18  0.99

> <Gold.PLP.Chemscore.Internal.Correction>
0.5823

> <Gold.Rescore>
     Score         DG    S(hbond)    S(metal)    S(lipo)     H(rot)  DE(clash)    DE(int)     intcor
      8.24     -13.34       1.96        0.00      61.06       2.28       0.02       5.08       ----

> <Gold.Chemscore.Fitness>
8.2445

> <Gold.Chemscore.DG>
-13.3370

> <Gold.Chemscore.ZeroCoef>
-5.4800

> <Gold.Chemscore.Hbond>
1.9620

> <Gold.Chemscore.Metal>
0.0000

> <Gold.Chemscore.Lipo>
61.0637

> <Gold.Chemscore.Internal_Hbond>
0.0000

> <Gold.Chemscore.DEClash>
0.0174

> <Gold.Chemscore.DEInternal>
5.0751

> <Gold.Chemscore.Rot>
2.2814

> <Gold.Chemscore.Internal.Correction>
   9.000000E+99

> <Gold.Chemscore.Hbonds>
donor molecule, donor type, donor heavy atom, donor atom, acceptor molecule, acceptor atom, score
      L1  H    19    51       P1  7948  1.00
      P1  H  6934  6947       L1    18  0.94

> <Gold.Chemscore.Hbond.Weighted>
-6.5530

> <Gold.Chemscore.Metal.Weighted>
-0.0000

> <Gold.Chemscore.Lipo.Weighted>
-7.1444

> <Gold.Chemscore.Internal_Hbond.Weighted>
0.0000

> <Gold.Chemscore.DEClash.Weighted>
0.0174

> <Gold.Chemscore.DEInternal.Weighted>
5.0751

> <Gold.Chemscore.Rot.Weighted>
5.8404

> <Gold.Chemscore.Internal.Correction.Weighted>
   9.000000E+99

> <Gold.Protein.RotatedTorsions>
[ 6907 6896 6895 6894 ] final   66.80 input  -60.11 | X-H torsion
[ 7974 7965 7964 7962 ] final -137.74 input  175.53 | X-H torsion
[ 8008 7997 7996 7995 ] final -132.45 input   59.86 | X-H torsion
[ 10167 10162 10161 10158 ] final  -14.56 input  -65.29 | X-H torsion
[ 10718 10713 10712 10709 ] final  133.28 input   66.30 | X-H torsion
[ 10763 10752 10751 10750 ] final  -94.37 input  -60.55 | X-H torsion
[ 11005 11000 10999 10996 ] final   67.51 input  -57.11 | X-H torsion

> <Gold.Protein.ActiveResidues>
 VAL166  LYS551  ARG553  GLY616  TRP617  ASP618  TYR619  PRO620  LYS621  CYS622 
 ASP623  PHE694  ASN695  SER759  ASP760  ASP761  ALA762  ILE779  LEU786  VAL792 
 PHE793  MET794  SER795  GLU796  ALA797  LYS798  CYS799  TRP800  GLU811  SER814 

> <Gold.Protein.RotatedAtoms>
  152.4507  134.5399  159.9835 H   0  0  0  0  0  0  0  0  0  0  0  0  # atno 6907 bound_to 6896
  151.5473  133.3417  159.2954 H   0  0  0  0  0  0  0  0  0  0  0  0  # atno 6908 bound_to 6896
  150.8435  134.7768  159.7015 H   0  0  0  0  0  0  0  0  0  0  0  0  # atno 6909 bound_to 6896
  144.8817  140.6516  143.5202 H   0  0  0  0  0  0  0  0  0  0  0  0  # atno 7974 bound_to 7965
  155.3292  140.0466  157.3042 H   0  0  0  0  0  0  0  0  0  0  0  0  # atno 8008 bound_to 7997
  154.5338  140.2265  155.8724 H   0  0  0  0  0  0  0  0  0  0  0  0  # atno 8009 bound_to 7997
  156.1814  140.3073  155.9163 H   0  0  0  0  0  0  0  0  0  0  0  0  # atno 8010 bound_to 7997
  140.7203  143.5309  150.9521 H   0  0  0  0  0  0  0  0  0  0  0  0  # atno 10167 bound_to 10162
  157.4788  131.1084  150.9708 H   0  0  0  0  0  0  0  0  0  0  0  0  # atno 10718 bound_to 10713
  154.7049  135.5160  153.8580 H   0  0  0  0  0  0  0  0  0  0  0  0  # atno 10763 bound_to 10752
  153.0733  135.6608  154.0209 H   0  0  0  0  0  0  0  0  0  0  0  0  # atno 10764 bound_to 10752
  154.0061  135.3006  155.3377 H   0  0  0  0  0  0  0  0  0  0  0  0  # atno 10765 bound_to 10752
  139.9766  134.6812  156.0342 H   0  0  0  0  0  0  0  0  0  0  0  0  # atno 11005 bound_to 11000
  145.3943  139.1610  143.4212 LP  0  0  0  0  0  0  0  0  0  0  0  0  # atno 17320 bound_to 7965
  146.2998  140.4035  142.8708 LP  0  0  0  0  0  0  0  0  0  0  0  0  # atno 17321 bound_to 7965
  139.9029  143.6814  152.3128 LP  0  0  0  0  0  0  0  0  0  0  0  0  # atno 17342 bound_to 10162
  139.7169  144.7610  151.1018 LP  0  0  0  0  0  0  0  0  0  0  0  0  # atno 17343 bound_to 10162
  157.0449  130.5764  149.5361 LP  0  0  0  0  0  0  0  0  0  0  0  0  # atno 17370 bound_to 10713
  156.0111  130.5202  150.7990 LP  0  0  0  0  0  0  0  0  0  0  0  0  # atno 17371 bound_to 10713
  141.1443  133.6559  156.3820 LP  0  0  0  0  0  0  0  0  0  0  0  0  # atno 17394 bound_to 11000
  140.5182  134.6330  157.5308 LP  0  0  0  0  0  0  0  0  0  0  0  0  # atno 17395 bound_to 11000

$$$$
