AV-unprocessed.smi:2128|AV-procd|sdf|8682|dock3
  -GOLD-   2272011433D 1   1.00000     0.00000
 Structure written by MMmdl.
 51 53  0  0  0  0  0  0  0  0  2 V2000
  153.5889  142.5344  160.6027 O   0  0  0  0  0  0  0  0  0  0  0  0
  153.0231  142.9171  159.5816 C   0  0  0  0  0  0  0  0  0  0  0  0
  152.3231  141.8875  158.6770 C   0  0  0  0  0  0  0  0  0  0  0  0
  151.7506  142.4412  157.4433 N   0  0  0  0  0  0  0  0  0  0  0  0
  151.1639  141.5424  156.5210 C   0  0  0  0  0  0  0  0  0  0  0  0
  151.7153  140.2751  156.2098 C   0  0  0  0  0  0  0  0  0  0  0  0
  151.0733  139.4313  155.2799 C   0  0  0  0  0  0  0  0  0  0  0  0
  149.8681  139.8532  154.6661 C   0  0  0  0  0  0  0  0  0  0  0  0
  149.1339  139.0968  153.7108 N   0  0  0  0  0  0  0  0  0  0  0  0
  147.8137  139.0958  153.4557 C   0  0  0  0  0  0  0  0  0  0  0  0
  146.9719  139.7706  154.0467 O   0  0  0  0  0  0  0  0  0  0  0  0
  147.5188  138.2649  152.4450 N   0  0  0  0  0  0  0  0  0  0  0  0
  146.1868  138.0485  151.8845 C   0  0  0  0  0  0  0  0  0  0  0  0
  145.4145  136.9410  152.6289 C   0  0  0  0  0  0  0  0  0  0  0  0
  145.5380  135.5636  151.9942 C   0  0  0  0  0  0  0  0  0  0  0  0
  146.6975  134.8772  152.0048 C   0  0  0  0  0  0  0  0  0  0  0  0
  146.8765  133.4939  151.4053 C   0  0  0  0  0  0  0  0  0  0  0  0
  145.5339  132.8070  151.1056 C   0  0  0  0  0  0  0  0  0  0  0  0
  144.5447  133.7832  150.4579 C   0  0  0  0  0  0  0  0  0  0  0  0
  144.2697  134.9923  151.3697 C   0  0  0  0  0  0  0  0  0  0  0  0
  149.3596  141.1212  155.0112 C   0  0  0  0  0  0  0  0  0  0  0  0
  150.0080  141.8963  155.9062 N   0  3  0  0  0  0  0  0  0  0  0  0
  151.2735  143.8233  157.4831 C   0  0  0  0  0  0  0  0  0  0  0  0
  152.3658  144.7517  158.0374 C   0  0  0  0  0  0  0  0  0  0  0  0
  152.9933  144.2159  159.2407 N   0  0  0  0  0  0  0  0  0  0  0  0
  153.0521  141.1161  158.4239 H   0  0  0  0  0  0  0  0  0  0  0  0
  151.5345  141.4121  159.2624 H   0  0  0  0  0  0  0  0  0  0  0  0
  152.6173  139.9169  156.6810 H   0  0  0  0  0  0  0  0  0  0  0  0
  151.5299  138.4794  155.0620 H   0  0  0  0  0  0  0  0  0  0  0  0
  149.6932  138.5077  153.1113 H   0  0  0  0  0  0  0  0  0  0  0  0
  148.2752  137.7506  152.0175 H   0  0  0  0  0  0  0  0  0  0  0  0
  145.6370  138.9857  151.9709 H   0  0  0  0  0  0  0  0  0  0  0  0
  146.2416  137.8359  150.8162 H   0  0  0  0  0  0  0  0  0  0  0  0
  145.7660  136.8940  153.6605 H   0  0  0  0  0  0  0  0  0  0  0  0
  144.3571  137.2014  152.6837 H   0  0  0  0  0  0  0  0  0  0  0  0
  147.5788  135.3197  152.4456 H   0  0  0  0  0  0  0  0  0  0  0  0
  147.4586  133.5986  150.4893 H   0  0  0  0  0  0  0  0  0  0  0  0
  147.4641  132.8789  152.0874 H   0  0  0  0  0  0  0  0  0  0  0  0
  145.6929  131.9420  150.4611 H   0  0  0  0  0  0  0  0  0  0  0  0
  145.1041  132.4261  152.0332 H   0  0  0  0  0  0  0  0  0  0  0  0
  144.9549  134.1311  149.5087 H   0  0  0  0  0  0  0  0  0  0  0  0
  143.6094  133.2749  150.2216 H   0  0  0  0  0  0  0  0  0  0  0  0
  143.5983  134.7040  152.1790 H   0  0  0  0  0  0  0  0  0  0  0  0
  143.7536  135.7609  150.7952 H   0  0  0  0  0  0  0  0  0  0  0  0
  148.4516  141.5400  154.6016 H   0  0  0  0  0  0  0  0  0  0  0  0
  150.9534  144.2044  156.5163 H   0  0  0  0  0  0  0  0  0  0  0  0
  150.3967  143.8585  158.1314 H   0  0  0  0  0  0  0  0  0  0  0  0
  153.1459  144.8933  157.2883 H   0  0  0  0  0  0  0  0  0  0  0  0
  151.9529  145.7373  158.2531 H   0  0  0  0  0  0  0  0  0  0  0  0
  153.4525  144.8763  159.8520 H   0  0  0  0  0  0  0  0  0  0  0  0
  149.6045  142.8061  156.1304 H   0  0  0  0  0  0  0  0  0  0  0  0
  1  2  2  0  0  0  0
  2 25  1  0  0  0  0
  2  3  1  0  0  0  0
  3  4  1  0  0  0  0
  3 26  1  0  0  0  0
  3 27  1  0  0  0  0
  4  5  1  0  0  0  0
  4 23  1  0  0  0  0
  5 22  1  0  0  0  0
  5  6  2  0  0  0  0
  6  7  1  0  0  0  0
  6 28  1  0  0  0  0
  7  8  2  0  0  0  0
  7 29  1  0  0  0  0
  8  9  1  0  0  0  0
  8 21  1  0  0  0  0
  9 10  1  0  0  0  0
  9 30  1  0  0  0  0
 10 11  2  0  0  0  0
 10 12  1  0  0  0  0
 12 13  1  0  0  0  0
 12 31  1  0  0  0  0
 13 14  1  0  0  0  0
 13 32  1  0  0  0  0
 13 33  1  0  0  0  0
 14 15  1  0  0  0  0
 14 34  1  0  0  0  0
 14 35  1  0  0  0  0
 15 20  1  0  0  0  0
 15 16  2  0  0  0  0
 16 17  1  0  0  0  0
 16 36  1  0  0  0  0
 17 18  1  0  0  0  0
 17 37  1  0  0  0  0
 17 38  1  0  0  0  0
 18 19  1  0  0  0  0
 18 39  1  0  0  0  0
 18 40  1  0  0  0  0
 19 20  1  0  0  0  0
 19 41  1  0  0  0  0
 19 42  1  0  0  0  0
 20 43  1  0  0  0  0
 20 44  1  0  0  0  0
 21 22  2  0  0  0  0
 21 45  1  0  0  0  0
 22 51  1  0  0  0  0
 23 24  1  0  0  0  0
 23 46  1  0  0  0  0
 23 47  1  0  0  0  0
 24 25  1  0  0  0  0
 24 48  1  0  0  0  0
 24 49  1  0  0  0  0
 25 50  1  0  0  0  0
M  CHG  1  22   1
M  END
> <s_m_source_file>
AV-unprocessed.smi

> <i_m_source_file_index>
2128

> <i_lp_mmshare_version>
43012

> <i_f3d_flags>
0

> <s_epik_input>
Tz1DMVtDSDJdTihbQ0gyXVtDSDJdW05IXTEpYzJbY0hdW2NIXWMoW2NIXW4yKVtOSF1DKD1PKVtOSF1bQ0gyXVtDSDJdQzM9W0NIXVtDSDJdW0NIMl1bQ0gyXVtDSDJdMw==

> <s_epik_cmdline>
J2VwaWtfcHl0aG9uJywgJy1waCcsICc3LjAnLCAnLXRuJywgJzgnLCAnLW1hJywgJzIwMCcsICctbWV0YWxfYmluZGluZycsICctaW1hZScsICc8aW5maWxlLm1hZT4nLCAnLW9tYWUnLCAnPG91dGZpbGUubWFlPic=

> <r_lp_tautomer_probability>
0.999994

> <r_epik_Ionization_Penalty>
1.98589

> <r_epik_Ionization_Penalty_Charging>
1.98586

> <r_epik_Ionization_Penalty_Neutral>
2.08865e-05

> <r_epik_State_Penalty>
2.11351

> <r_epik_Charging_Adjusted_Penalty>
4.09937

> <i_epik_Tot_Q>
1

> <i_epik_Tot_abs_Q>
1

> <r_epik_Metal_State_Penalty>
2.13405

> <b_epik_Metal_Only>
0

> <s_lp_Force_Field>
OPLS_2005

> <r_lp_Energy>
28.599

> <b_lp_Chiralities_Consistent>
1

> <s_lp_Variant>
AV-unprocessed.smi:2128-2

> <Gold.Version>
5.8.1

> <Gold.Id.Protein>
6NUR|6NUR_protein|mol2

> <Gold.PLP.Fitness>
57.2637

> <Gold.PLP.PLP>
-50.1142

> <Gold.PLP.part.hbond>
-4.0000

> <Gold.PLP.part.metal>
0.0000

> <Gold.PLP.part.buried>
0.5138

> <Gold.PLP.part.nonpolar>
-47.0154

> <Gold.PLP.part.repulsive>
0.4851

> <Gold.PLP.ligand.clash>
0.0000

> <Gold.PLP.ligand.torsion>
1.0216

> <Gold.PLP.Chemscore.Hbond>
3.0000

> <Gold.PLP.Chemscore.CHOScore>
0.0000

> <Gold.PLP.Chemscore.Metal>
0.0000

> <Gold.Chemscore.Hbonds>
donor molecule, donor type, donor heavy atom, donor atom, acceptor molecule, acceptor atom, score
      L1  H    12    31       P1  7948  0.91
      L1  H    22    51       P1  8028  1.66

> <Gold.PLP.Chemscore.Internal.Correction>
0.1928

> <Gold.Rescore>
     Score         DG    S(hbond)    S(metal)    S(lipo)     H(rot)  DE(clash)    DE(int)     intcor
     16.57     -20.39       1.93        0.00     103.56       1.43       1.81       2.01       ----

> <Gold.Chemscore.Fitness>
16.5709

> <Gold.Chemscore.DG>
-20.3932

> <Gold.Chemscore.ZeroCoef>
-5.4800

> <Gold.Chemscore.Hbond>
1.9309

> <Gold.Chemscore.Metal>
0.0000

> <Gold.Chemscore.Lipo>
103.5553

> <Gold.Chemscore.Internal_Hbond>
0.0000

> <Gold.Chemscore.DEClash>
1.8077

> <Gold.Chemscore.DEInternal>
2.0145

> <Gold.Chemscore.Rot>
1.4266

> <Gold.Chemscore.Internal.Correction>
   9.000000E+99

> <Gold.Chemscore.Hbonds>
donor molecule, donor type, donor heavy atom, donor atom, acceptor molecule, acceptor atom, score
      L1  H    12    31       P1  7948  0.89
      L1  H    22    51       P1  8028  0.80

> <Gold.Chemscore.Hbond.Weighted>
-6.4493

> <Gold.Chemscore.Metal.Weighted>
-0.0000

> <Gold.Chemscore.Lipo.Weighted>
-12.1160

> <Gold.Chemscore.Internal_Hbond.Weighted>
0.0000

> <Gold.Chemscore.DEClash.Weighted>
1.8077

> <Gold.Chemscore.DEInternal.Weighted>
2.0145

> <Gold.Chemscore.Rot.Weighted>
3.6521

> <Gold.Chemscore.Internal.Correction.Weighted>
   9.000000E+99

> <Gold.Protein.RotatedTorsions>
[ 6907 6896 6895 6894 ] final -160.82 input  -60.11 | X-H torsion
[ 7974 7965 7964 7962 ] final  119.44 input  175.53 | X-H torsion
[ 8008 7997 7996 7995 ] final   45.55 input   59.86 | X-H torsion
[ 10167 10162 10161 10158 ] final  -76.08 input  -65.29 | X-H torsion
[ 10718 10713 10712 10709 ] final   77.63 input   66.30 | X-H torsion
[ 10763 10752 10751 10750 ] final   72.14 input  -60.55 | X-H torsion
[ 11005 11000 10999 10996 ] final  156.22 input  -57.11 | X-H torsion

> <Gold.Protein.ActiveResidues>
 VAL166  LYS551  ARG553  GLY616  TRP617  ASP618  TYR619  PRO620  LYS621  CYS622 
 ASP623  PHE694  ASN695  SER759  ASP760  ASP761  ALA762  ILE779  LEU786  VAL792 
 PHE793  MET794  SER795  GLU796  ALA797  LYS798  CYS799  TRP800  GLU811  SER814 

> <Gold.Protein.RotatedAtoms>
  151.3550  133.3911  159.2683 H   0  0  0  0  0  0  0  0  0  0  0  0  # atno 6907 bound_to 6896
  150.9771  134.9134  159.7833 H   0  0  0  0  0  0  0  0  0  0  0  0  # atno 6908 bound_to 6896
  152.5204  134.3513  159.9304 H   0  0  0  0  0  0  0  0  0  0  0  0  # atno 6909 bound_to 6896
  145.1432  139.3255  143.4605 H   0  0  0  0  0  0  0  0  0  0  0  0  # atno 7974 bound_to 7965
  155.3377  140.3406  155.4239 H   0  0  0  0  0  0  0  0  0  0  0  0  # atno 8008 bound_to 7997
  156.1829  140.1670  156.8276 H   0  0  0  0  0  0  0  0  0  0  0  0  # atno 8009 bound_to 7997
  154.5354  140.0736  156.8401 H   0  0  0  0  0  0  0  0  0  0  0  0  # atno 8010 bound_to 7997
  140.4888  143.2385  151.7941 H   0  0  0  0  0  0  0  0  0  0  0  0  # atno 10167 bound_to 10162
  157.6717  130.9830  150.1669 H   0  0  0  0  0  0  0  0  0  0  0  0  # atno 10718 bound_to 10713
  153.0441  135.5111  154.7699 H   0  0  0  0  0  0  0  0  0  0  0  0  # atno 10763 bound_to 10752
  154.6613  135.2939  154.9864 H   0  0  0  0  0  0  0  0  0  0  0  0  # atno 10764 bound_to 10752
  154.0714  135.6677  153.4877 H   0  0  0  0  0  0  0  0  0  0  0  0  # atno 10765 bound_to 10752
  140.1655  134.8580  157.2626 H   0  0  0  0  0  0  0  0  0  0  0  0  # atno 11005 bound_to 11000
  146.3503  140.1477  142.8593 LP  0  0  0  0  0  0  0  0  0  0  0  0  # atno 17320 bound_to 7965
  145.0510  140.9018  143.4995 LP  0  0  0  0  0  0  0  0  0  0  0  0  # atno 17321 bound_to 7965
  139.4847  144.4677  151.9464 LP  0  0  0  0  0  0  0  0  0  0  0  0  # atno 17342 bound_to 10162
  140.3763  144.2792  150.5913 LP  0  0  0  0  0  0  0  0  0  0  0  0  # atno 17343 bound_to 10162
  156.2432  130.3693  149.8314 LP  0  0  0  0  0  0  0  0  0  0  0  0  # atno 17370 bound_to 10713
  156.6108  130.8585  151.3453 LP  0  0  0  0  0  0  0  0  0  0  0  0  # atno 17371 bound_to 10713
  140.2439  134.3762  155.7469 LP  0  0  0  0  0  0  0  0  0  0  0  0  # atno 17394 bound_to 11000
  141.2213  133.7280  156.8832 LP  0  0  0  0  0  0  0  0  0  0  0  0  # atno 17395 bound_to 11000

$$$$
