AV-unprocessed.smi:1277|AV-procd|sdf|5345|dock2
  -GOLD-   22720 4473D 1   1.00000     0.00000
 Structure written by MMmdl.
 43 44  0  0  0  0  0  0  0  0  1 V2000
  151.7845  145.6258  159.9464 C   0  0  0  0  0  0  0  0  0  0  0  0
  152.3698  144.5267  160.6220 O   0  0  0  0  0  0  0  0  0  0  0  0
  152.7123  143.4680  159.7427 C   0  0  0  0  0  0  0  0  0  0  0  0
  153.2734  142.2989  160.5577 C   0  0  0  0  0  0  0  0  0  0  0  0
  153.0935  141.0975  159.8141 O   0  0  0  0  0  0  0  0  0  0  0  0
  153.5802  139.9175  160.3377 C   0  0  0  0  0  0  0  0  0  0  0  0
  153.1872  138.7045  159.7390 C   0  0  0  0  0  0  0  0  0  0  0  0
  153.6819  137.4970  160.2660 C   0  0  0  0  0  0  0  0  0  0  0  0
  154.5587  137.5349  161.3688 C   0  0  0  0  0  0  0  0  0  0  0  0
  155.0276  136.2968  161.8856 N   0  0  0  0  0  0  0  0  0  0  0  0
  154.9671  135.0731  161.3291 C   0  0  0  0  0  0  0  0  0  0  0  0
  154.4750  134.8310  160.2264 O   0  0  0  0  0  0  0  0  0  0  0  0
  155.5692  133.9350  162.1769 C   0  0  2  0  0  0  0  0  0  0  0  0
  155.6395  132.6300  161.3700 C   0  0  0  0  0  0  0  0  0  0  0  0
  154.3257  131.9240  161.6703 C   0  0  0  0  0  0  0  0  0  0  0  0
  153.9948  132.3462  163.1032 C   0  0  0  0  0  0  0  0  0  0  0  0
  154.7260  133.5953  163.3321 N   0  0  0  0  0  0  0  0  0  0  0  0
  154.6751  134.3205  164.4713 C   0  0  0  0  0  0  0  0  0  0  0  0
  153.7627  133.8406  165.6016 C   0  0  0  0  0  0  0  0  0  0  0  0
  155.3325  135.3486  164.6332 O   0  0  0  0  0  0  0  0  0  0  0  0
  154.8826  138.8036  161.9090 C   0  0  0  0  0  0  0  0  0  0  0  0
  154.4109  139.9656  161.4083 N   0  0  0  0  0  0  0  0  0  0  0  0
  156.5709  134.2182  162.5071 H   0  0  0  0  0  0  0  0  0  0  0  0
  151.5442  146.4107  160.6637 H   0  0  0  0  0  0  0  0  0  0  0  0
  150.8614  145.3344  159.4439 H   0  0  0  0  0  0  0  0  0  0  0  0
  152.4688  146.0442  159.2074 H   0  0  0  0  0  0  0  0  0  0  0  0
  151.8187  143.1430  159.2078 H   0  0  0  0  0  0  0  0  0  0  0  0
  153.4393  143.7964  158.9982 H   0  0  0  0  0  0  0  0  0  0  0  0
  154.3265  142.4702  160.7875 H   0  0  0  0  0  0  0  0  0  0  0  0
  152.7303  142.2276  161.5013 H   0  0  0  0  0  0  0  0  0  0  0  0
  152.5195  138.7010  158.8902 H   0  0  0  0  0  0  0  0  0  0  0  0
  153.3932  136.5547  159.8237 H   0  0  0  0  0  0  0  0  0  0  0  0
  155.3965  136.3334  162.8247 H   0  0  0  0  0  0  0  0  0  0  0  0
  155.7989  132.7803  160.3011 H   0  0  0  0  0  0  0  0  0  0  0  0
  156.4681  132.0231  161.7377 H   0  0  0  0  0  0  0  0  0  0  0  0
  153.5529  132.2897  160.9929 H   0  0  0  0  0  0  0  0  0  0  0  0
  154.3871  130.8420  161.5511 H   0  0  0  0  0  0  0  0  0  0  0  0
  152.9196  132.4715  163.2369 H   0  0  0  0  0  0  0  0  0  0  0  0
  154.3426  131.5899  163.8085 H   0  0  0  0  0  0  0  0  0  0  0  0
  154.0558  132.8465  165.9398 H   0  0  0  0  0  0  0  0  0  0  0  0
  152.7243  133.8077  165.2711 H   0  0  0  0  0  0  0  0  0  0  0  0
  153.8206  134.5162  166.4558 H   0  0  0  0  0  0  0  0  0  0  0  0
  155.5156  138.9132  162.7755 H   0  0  0  0  0  0  0  0  0  0  0  0
  1  2  1  0  0  0  0
  1 24  1  0  0  0  0
  1 25  1  0  0  0  0
  1 26  1  0  0  0  0
  2  3  1  0  0  0  0
  3  4  1  0  0  0  0
  3 27  1  0  0  0  0
  3 28  1  0  0  0  0
  4  5  1  0  0  0  0
  4 29  1  0  0  0  0
  4 30  1  0  0  0  0
  5  6  1  0  0  0  0
  6 22  1  0  0  0  0
  6  7  2  0  0  0  0
  7  8  1  0  0  0  0
  7 31  1  0  0  0  0
  8  9  2  0  0  0  0
  8 32  1  0  0  0  0
  9 10  1  0  0  0  0
  9 21  1  0  0  0  0
 10 11  1  0  0  0  0
 10 33  1  0  0  0  0
 11 12  2  0  0  0  0
 11 13  1  0  0  0  0
 13 23  1  0  0  0  0
 13 17  1  0  0  0  0
 13 14  1  0  0  0  0
 14 15  1  0  0  0  0
 14 34  1  0  0  0  0
 14 35  1  0  0  0  0
 15 16  1  0  0  0  0
 15 36  1  0  0  0  0
 15 37  1  0  0  0  0
 16 17  1  0  0  0  0
 16 38  1  0  0  0  0
 16 39  1  0  0  0  0
 17 18  1  0  0  0  0
 18 19  1  0  0  0  0
 18 20  2  0  0  0  0
 19 40  1  0  0  0  0
 19 41  1  0  0  0  0
 19 42  1  0  0  0  0
 21 22  2  0  0  0  0
 21 43  1  0  0  0  0
M  END
> <s_m_source_file>
AV-unprocessed.smi

> <i_m_source_file_index>
1277

> <i_lp_mmshare_version>
43012

> <i_f3d_flags>
0

> <s_epik_input>
W0NIM11PW0NIMl1bQ0gyXU9jMVtjSF1bY0hdYyhbY0hdbjEpW05IXUMoPU8pW0NAQEhdMltDSDJdW0NIMl1bQ0gyXU4yQyg9TylbQ0gzXQ==

> <s_epik_cmdline>
J2VwaWtfcHl0aG9uJywgJy1waCcsICc3LjAnLCAnLXRuJywgJzgnLCAnLW1hJywgJzIwMCcsICctbWV0YWxfYmluZGluZycsICctaW1hZScsICc8aW5maWxlLm1hZT4nLCAnLW9tYWUnLCAnPG91dGZpbGUubWFlPic=

> <r_lp_tautomer_probability>
1

> <r_epik_Ionization_Penalty>
1.62854e-05

> <r_epik_Ionization_Penalty_Charging>
0

> <r_epik_Ionization_Penalty_Neutral>
1.62854e-05

> <r_epik_State_Penalty>
-0

> <r_epik_Charging_Adjusted_Penalty>
0

> <i_epik_Tot_Q>
0

> <i_epik_Tot_abs_Q>
0

> <r_epik_Metal_State_Penalty>
-0

> <b_epik_Metal_Only>
0

> <s_lp_Force_Field>
OPLS_2005

> <r_lp_Energy>
18.7182

> <b_lp_Chiralities_Consistent>
1

> <s_lp_Variant>
AV-unprocessed.smi:1277-1

> <Gold.Version>
5.8.1

> <Gold.Id.Protein>
6NUR|6NUR_protein|mol2

> <Gold.PLP.Fitness>
38.7401

> <Gold.PLP.PLP>
-36.5630

> <Gold.PLP.part.hbond>
-1.0000

> <Gold.PLP.part.metal>
0.0000

> <Gold.PLP.part.buried>
-4.7049

> <Gold.PLP.part.nonpolar>
-30.8091

> <Gold.PLP.part.repulsive>
0.2339

> <Gold.PLP.ligand.clash>
0.0000

> <Gold.PLP.ligand.torsion>
0.5044

> <Gold.PLP.Chemscore.Hbond>
1.0000

> <Gold.PLP.Chemscore.CHOScore>
0.0000

> <Gold.PLP.Chemscore.Metal>
0.0000

> <Gold.Chemscore.Hbonds>
donor molecule, donor type, donor heavy atom, donor atom, acceptor molecule, acceptor atom, score
      P1  H  6896  6908       L1    12  1.00

> <Gold.PLP.Chemscore.Internal.Correction>
0.1858

> <Gold.Rescore>
     Score         DG    S(hbond)    S(metal)    S(lipo)     H(rot)  DE(clash)    DE(int)     intcor
     10.47     -13.59       0.99        0.00      82.32       1.89       0.00       3.11       ----

> <Gold.Chemscore.Fitness>
10.4750

> <Gold.Chemscore.DG>
-13.5934

> <Gold.Chemscore.ZeroCoef>
-5.4800

> <Gold.Chemscore.Hbond>
0.9928

> <Gold.Chemscore.Metal>
0.0000

> <Gold.Chemscore.Lipo>
82.3223

> <Gold.Chemscore.Internal_Hbond>
0.0000

> <Gold.Chemscore.DEClash>
0.0038

> <Gold.Chemscore.DEInternal>
3.1146

> <Gold.Chemscore.Rot>
1.8884

> <Gold.Chemscore.Internal.Correction>
   9.000000E+99

> <Gold.Chemscore.Hbonds>
donor molecule, donor type, donor heavy atom, donor atom, acceptor molecule, acceptor atom, score
      P1  H  6896  6908       L1    12  0.96

> <Gold.Chemscore.Hbond.Weighted>
-3.3159

> <Gold.Chemscore.Metal.Weighted>
-0.0000

> <Gold.Chemscore.Lipo.Weighted>
-9.6317

> <Gold.Chemscore.Internal_Hbond.Weighted>
0.0000

> <Gold.Chemscore.DEClash.Weighted>
0.0038

> <Gold.Chemscore.DEInternal.Weighted>
3.1146

> <Gold.Chemscore.Rot.Weighted>
4.8342

> <Gold.Chemscore.Internal.Correction.Weighted>
   9.000000E+99

> <Gold.Protein.RotatedTorsions>
[ 6907 6896 6895 6894 ] final  -52.24 input  -60.11 | X-H torsion
[ 7974 7965 7964 7962 ] final   34.78 input  175.53 | X-H torsion
[ 8008 7997 7996 7995 ] final   48.45 input   59.86 | X-H torsion
[ 10167 10162 10161 10158 ] final   92.42 input  -65.29 | X-H torsion
[ 10718 10713 10712 10709 ] final  119.55 input   66.30 | X-H torsion
[ 10763 10752 10751 10750 ] final   73.60 input  -60.55 | X-H torsion
[ 11005 11000 10999 10996 ] final   72.58 input  -57.11 | X-H torsion

> <Gold.Protein.ActiveResidues>
 VAL166  LYS551  ARG553  GLY616  TRP617  ASP618  TYR619  PRO620  LYS621  CYS622 
 ASP623  PHE694  ASN695  SER759  ASP760  ASP761  ALA762  ILE779  LEU786  VAL792 
 PHE793  MET794  SER795  GLU796  ALA797  LYS798  CYS799  TRP800  GLU811  SER814 

> <Gold.Protein.RotatedAtoms>
  150.8536  134.7868  159.7027 H   0  0  0  0  0  0  0  0  0  0  0  0  # atno 6907 bound_to 6896
  152.4594  134.5215  159.9794 H   0  0  0  0  0  0  0  0  0  0  0  0  # atno 6908 bound_to 6896
  151.5331  133.3407  159.2957 H   0  0  0  0  0  0  0  0  0  0  0  0  # atno 6909 bound_to 6896
  146.1329  139.6225  142.9215 H   0  0  0  0  0  0  0  0  0  0  0  0  # atno 7974 bound_to 7965
  155.3858  140.3431  155.4249 H   0  0  0  0  0  0  0  0  0  0  0  0  # atno 8008 bound_to 7997
  156.1585  140.1593  156.8686 H   0  0  0  0  0  0  0  0  0  0  0  0  # atno 8009 bound_to 7997
  154.5117  140.0788  156.7984 H   0  0  0  0  0  0  0  0  0  0  0  0  # atno 8010 bound_to 7997
  139.8279  144.6701  150.9437 H   0  0  0  0  0  0  0  0  0  0  0  0  # atno 10167 bound_to 10162
  157.5953  131.1059  150.7912 H   0  0  0  0  0  0  0  0  0  0  0  0  # atno 10718 bound_to 10713
  153.0532  135.5057  154.7918 H   0  0  0  0  0  0  0  0  0  0  0  0  # atno 10763 bound_to 10752
  154.6764  135.2961  154.9675 H   0  0  0  0  0  0  0  0  0  0  0  0  # atno 10764 bound_to 10752
  154.0476  135.6708  153.4849 H   0  0  0  0  0  0  0  0  0  0  0  0  # atno 10765 bound_to 10752
  139.9483  134.7272  156.0924 H   0  0  0  0  0  0  0  0  0  0  0  0  # atno 11005 bound_to 11000
  145.5221  141.0431  143.2430 LP  0  0  0  0  0  0  0  0  0  0  0  0  # atno 17320 bound_to 7965
  144.7709  139.6737  143.7195 LP  0  0  0  0  0  0  0  0  0  0  0  0  # atno 17321 bound_to 7965
  140.7809  143.4029  151.1119 LP  0  0  0  0  0  0  0  0  0  0  0  0  # atno 17342 bound_to 10162
  139.7685  143.8529  152.3115 LP  0  0  0  0  0  0  0  0  0  0  0  0  # atno 17343 bound_to 10162
  156.8324  130.5020  149.5330 LP  0  0  0  0  0  0  0  0  0  0  0  0  # atno 17370 bound_to 10713
  156.1015  130.5972  150.9901 LP  0  0  0  0  0  0  0  0  0  0  0  0  # atno 17371 bound_to 10713
  141.1140  133.6634  156.3048 LP  0  0  0  0  0  0  0  0  0  0  0  0  # atno 17394 bound_to 11000
  140.5780  134.5774  157.5473 LP  0  0  0  0  0  0  0  0  0  0  0  0  # atno 17395 bound_to 11000

$$$$
