AV-unprocessed.smi:496|AV-procd|sdf|2723|dock8
  -GOLD-   2262023173D 1   1.00000     0.00000
 Structure written by MMmdl.
 42 44  0  0  0  0  0  0  0  0  3 V2000
  153.5550  138.2451  159.5671 C   0  0  0  0  0  0  0  0  0  0  0  0
  154.0465  139.3903  158.8932 O   0  0  0  0  0  0  0  0  0  0  0  0
  153.4341  140.5858  159.3440 C   0  0  0  0  0  0  0  0  0  0  0  0
  151.9328  140.5215  159.0374 C   0  0  0  0  0  0  0  0  0  0  0  0
  151.4386  141.7892  158.4656 N   0  0  0  0  0  0  0  0  0  0  0  0
  150.8277  142.0741  157.2697 C   0  0  0  0  0  0  0  0  0  0  0  0
  150.4579  141.1292  156.1559 C   0  0  1  0  0  0  0  0  0  0  0  0
  151.6720  140.2741  155.7642 C   0  0  0  0  0  0  0  0  0  0  0  0
  149.3507  140.2545  156.5479 N   0  5  0  0  0  0  0  0  0  0  0  0
  148.1046  140.6916  156.8852 C   0  0  0  0  0  0  0  0  0  0  0  0
  147.4554  140.5007  157.9190 O   0  0  0  0  0  0  0  0  0  0  0  0
  147.4885  141.5113  155.8150 C   0  0  0  0  0  0  0  0  0  0  0  0
  147.9077  141.7429  154.5315 C   0  0  0  0  0  0  0  0  0  0  0  0
  146.9489  142.6073  153.9344 C   0  0  0  0  0  0  0  0  0  0  0  0
  146.0072  142.8429  154.8939 C   0  0  0  0  0  0  0  0  0  0  0  0
  146.3188  142.1853  156.0431 O   0  0  0  0  0  0  0  0  0  0  0  0
  150.5863  143.4171  157.2600 N   0  3  0  0  0  0  0  0  0  0  0  0
  151.0579  144.0007  158.4337 C   0  0  0  0  0  0  0  0  0  0  0  0
  151.0462  145.3249  158.8599 C   0  0  0  0  0  0  0  0  0  0  0  0
  151.6215  145.5882  160.1201 C   0  0  0  0  0  0  0  0  0  0  0  0
  152.1794  144.5560  160.9019 C   0  0  0  0  0  0  0  0  0  0  0  0
  152.1844  143.2171  160.4580 C   0  0  0  0  0  0  0  0  0  0  0  0
  151.6108  142.9636  159.2115 C   0  0  0  0  0  0  0  0  0  0  0  0
  154.0457  137.3524  159.1797 H   0  0  0  0  0  0  0  0  0  0  0  0
  152.4805  138.1299  159.4190 H   0  0  0  0  0  0  0  0  0  0  0  0
  153.7569  138.3019  160.6376 H   0  0  0  0  0  0  0  0  0  0  0  0
  153.5979  140.7054  160.4162 H   0  0  0  0  0  0  0  0  0  0  0  0
  153.8794  141.4477  158.8443 H   0  0  0  0  0  0  0  0  0  0  0  0
  151.7242  139.7176  158.3311 H   0  0  0  0  0  0  0  0  0  0  0  0
  151.3593  140.2845  159.9334 H   0  0  0  0  0  0  0  0  0  0  0  0
  150.1940  141.7444  155.2946 H   0  0  0  0  0  0  0  0  0  0  0  0
  152.5065  140.9029  155.4523 H   0  0  0  0  0  0  0  0  0  0  0  0
  151.4350  139.6092  154.9327 H   0  0  0  0  0  0  0  0  0  0  0  0
  152.0142  139.6581  156.5968 H   0  0  0  0  0  0  0  0  0  0  0  0
  148.8002  141.3385  154.0774 H   0  0  0  0  0  0  0  0  0  0  0  0
  146.9488  143.0054  152.9307 H   0  0  0  0  0  0  0  0  0  0  0  0
  145.0977  143.4242  154.9271 H   0  0  0  0  0  0  0  0  0  0  0  0
  150.6219  146.1159  158.2591 H   0  0  0  0  0  0  0  0  0  0  0  0
  151.6371  146.6020  160.4929 H   0  0  0  0  0  0  0  0  0  0  0  0
  152.6135  144.7957  161.8618 H   0  0  0  0  0  0  0  0  0  0  0  0
  152.6178  142.4360  161.0643 H   0  0  0  0  0  0  0  0  0  0  0  0
  150.1456  143.8893  156.4809 H   0  0  0  0  0  0  0  0  0  0  0  0
  1  2  1  0  0  0  0
  1 24  1  0  0  0  0
  1 25  1  0  0  0  0
  1 26  1  0  0  0  0
  2  3  1  0  0  0  0
  3  4  1  0  0  0  0
  3 27  1  0  0  0  0
  3 28  1  0  0  0  0
  4  5  1  0  0  0  0
  4 29  1  0  0  0  0
  4 30  1  0  0  0  0
  5 23  1  0  0  0  0
  5  6  1  0  0  0  0
  6  7  1  0  0  0  0
  6 17  2  0  0  0  0
  7  8  1  0  0  0  0
  7  9  1  0  0  0  0
  7 31  1  0  0  0  0
  8 32  1  0  0  0  0
  8 33  1  0  0  0  0
  8 34  1  0  0  0  0
  9 10  1  0  0  0  0
 10 11  2  0  0  0  0
 10 12  1  0  0  0  0
 12 16  1  0  0  0  0
 12 13  2  0  0  0  0
 13 14  1  0  0  0  0
 13 35  1  0  0  0  0
 14 15  2  0  0  0  0
 14 36  1  0  0  0  0
 15 16  1  0  0  0  0
 15 37  1  0  0  0  0
 17 18  1  0  0  0  0
 17 42  1  0  0  0  0
 18 23  2  0  0  0  0
 18 19  1  0  0  0  0
 19 20  2  0  0  0  0
 19 38  1  0  0  0  0
 20 21  1  0  0  0  0
 20 39  1  0  0  0  0
 21 22  2  0  0  0  0
 21 40  1  0  0  0  0
 22 23  1  0  0  0  0
 22 41  1  0  0  0  0
M  CHG  1   9  -1
M  CHG  1  17   1
M  END
> <s_m_source_file>
AV-unprocessed.smi

> <i_m_source_file_index>
496

> <i_lp_mmshare_version>
43012

> <i_f3d_flags>
0

> <s_epik_input>
W2NIXTFbY0hdW2NIXVtjSF1jKGMxMiluKFtDSDJdW0NIMl1PW0NIM10pYyhuMilbQ0BIXShbQ0gzXSlbTkhdQyg9TyljM1tjSF1bY0hdW2NIXW8z

> <s_epik_cmdline>
J2VwaWtfcHl0aG9uJywgJy1waCcsICc3LjAnLCAnLXRuJywgJzgnLCAnLW1hJywgJzIwMCcsICctbWV0YWxfYmluZGluZycsICctaW1hZScsICc8aW5maWxlLm1hZT4nLCAnLW9tYWUnLCAnPG91dGZpbGUubWFlPic=

> <r_epik_Ionization_Penalty>
6.2189

> <r_epik_Ionization_Penalty_Charging>
6.2189

> <r_epik_Ionization_Penalty_Neutral>
2.56052e-12

> <r_epik_State_Penalty>
7.14475

> <r_epik_Charging_Adjusted_Penalty>
13.3636

> <i_epik_Tot_Q>
0

> <i_epik_Tot_abs_Q>
2

> <r_epik_Metal_State_Penalty>
3.17915

> <b_epik_Metal_Only>
1

> <s_lp_Force_Field>
OPLS_2005

> <r_lp_Energy>
11.4028

> <b_lp_Chiralities_Consistent>
1

> <s_lp_Variant>
AV-unprocessed.smi:496-8

> <Gold.Version>
5.8.1

> <Gold.Id.Protein>
6NUR|6NUR_protein|mol2

> <Gold.PLP.Fitness>
56.1949

> <Gold.PLP.PLP>
-49.1528

> <Gold.PLP.part.hbond>
-2.9917

> <Gold.PLP.part.metal>
0.0000

> <Gold.PLP.part.buried>
-7.4705

> <Gold.PLP.part.nonpolar>
-39.3742

> <Gold.PLP.part.repulsive>
0.1368

> <Gold.PLP.ligand.clash>
0.0000

> <Gold.PLP.ligand.torsion>
1.0633

> <Gold.PLP.Chemscore.Hbond>
3.0000

> <Gold.PLP.Chemscore.CHOScore>
0.0000

> <Gold.PLP.Chemscore.Metal>
0.0000

> <Gold.Chemscore.Hbonds>
donor molecule, donor type, donor heavy atom, donor atom, acceptor molecule, acceptor atom, score
      L1  H    17    42       P1  8028  2.00
      P1  H  7997  8008       L1     2  1.00

> <Gold.PLP.Chemscore.Internal.Correction>
0.1686

> <Gold.Rescore>
     Score         DG    S(hbond)    S(metal)    S(lipo)     H(rot)  DE(clash)    DE(int)     intcor
     20.10     -21.46       1.96        0.00     120.90       1.83       0.05       1.32       ----

> <Gold.Chemscore.Fitness>
20.0964

> <Gold.Chemscore.DG>
-21.4636

> <Gold.Chemscore.ZeroCoef>
-5.4800

> <Gold.Chemscore.Hbond>
1.9562

> <Gold.Chemscore.Metal>
0.0000

> <Gold.Chemscore.Lipo>
120.9037

> <Gold.Chemscore.Internal_Hbond>
0.0000

> <Gold.Chemscore.DEClash>
0.0506

> <Gold.Chemscore.DEInternal>
1.3166

> <Gold.Chemscore.Rot>
1.8343

> <Gold.Chemscore.Internal.Correction>
   9.000000E+99

> <Gold.Chemscore.Hbonds>
donor molecule, donor type, donor heavy atom, donor atom, acceptor molecule, acceptor atom, score
      L1  H    17    42       P1  8028  0.98
      P1  H  7997  8008       L1     2  0.30

> <Gold.Chemscore.Hbond.Weighted>
-6.5336

> <Gold.Chemscore.Metal.Weighted>
-0.0000

> <Gold.Chemscore.Lipo.Weighted>
-14.1457

> <Gold.Chemscore.Internal_Hbond.Weighted>
0.0000

> <Gold.Chemscore.DEClash.Weighted>
0.0506

> <Gold.Chemscore.DEInternal.Weighted>
1.3166

> <Gold.Chemscore.Rot.Weighted>
4.6958

> <Gold.Chemscore.Internal.Correction.Weighted>
   9.000000E+99

> <Gold.Protein.RotatedTorsions>
[ 6907 6896 6895 6894 ] final -124.16 input  -60.11 | X-H torsion
[ 7974 7965 7964 7962 ] final -100.71 input  175.53 | X-H torsion
[ 8008 7997 7996 7995 ] final -112.86 input   59.86 | X-H torsion
[ 10167 10162 10161 10158 ] final -157.43 input  -65.29 | X-H torsion
[ 10718 10713 10712 10709 ] final -129.57 input   66.30 | X-H torsion
[ 10763 10752 10751 10750 ] final  -55.58 input  -60.55 | X-H torsion
[ 11005 11000 10999 10996 ] final  -96.79 input  -57.11 | X-H torsion

> <Gold.Protein.ActiveResidues>
 VAL166  LYS551  ARG553  GLY616  TRP617  ASP618  TYR619  PRO620  LYS621  CYS622 
 ASP623  PHE694  ASN695  SER759  ASP760  ASP761  ALA762  ILE779  LEU786  VAL792 
 PHE793  MET794  SER795  GLU796  ALA797  LYS798  CYS799  TRP800  GLU811  SER814 

> <Gold.Protein.RotatedAtoms>
  150.8741  133.7464  159.2952 H   0  0  0  0  0  0  0  0  0  0  0  0  # atno 6907 bound_to 6896
  151.5067  135.1062  159.9852 H   0  0  0  0  0  0  0  0  0  0  0  0  # atno 6908 bound_to 6896
  152.4715  133.7996  159.7001 H   0  0  0  0  0  0  0  0  0  0  0  0  # atno 6909 bound_to 6896
  145.2910  140.9353  143.2877 H   0  0  0  0  0  0  0  0  0  0  0  0  # atno 7974 bound_to 7965
  155.0118  140.0393  157.2402 H   0  0  0  0  0  0  0  0  0  0  0  0  # atno 8008 bound_to 7997
  154.7454  140.2757  155.6314 H   0  0  0  0  0  0  0  0  0  0  0  0  # atno 8009 bound_to 7997
  156.2873  140.2657  156.2193 H   0  0  0  0  0  0  0  0  0  0  0  0  # atno 8010 bound_to 7997
  139.6771  143.9644  152.2316 H   0  0  0  0  0  0  0  0  0  0  0  0  # atno 10167 bound_to 10162
  156.2060  130.6888  151.0594 H   0  0  0  0  0  0  0  0  0  0  0  0  # atno 10718 bound_to 10713
  154.1931  135.6424  153.5065 H   0  0  0  0  0  0  0  0  0  0  0  0  # atno 10763 bound_to 10752
  153.0030  135.5433  154.6394 H   0  0  0  0  0  0  0  0  0  0  0  0  # atno 10764 bound_to 10752
  154.5788  135.2923  155.0727 H   0  0  0  0  0  0  0  0  0  0  0  0  # atno 10765 bound_to 10752
  141.1400  133.8123  157.0619 H   0  0  0  0  0  0  0  0  0  0  0  0  # atno 11005 bound_to 11000
  144.9172  139.4455  143.6558 LP  0  0  0  0  0  0  0  0  0  0  0  0  # atno 17320 bound_to 7965
  146.3185  139.8013  142.8965 LP  0  0  0  0  0  0  0  0  0  0  0  0  # atno 17321 bound_to 7965
  139.9424  144.6673  150.8253 LP  0  0  0  0  0  0  0  0  0  0  0  0  # atno 17342 bound_to 10162
  140.7639  143.3235  151.2567 LP  0  0  0  0  0  0  0  0  0  0  0  0  # atno 17343 bound_to 10162
  157.7012  131.0775  150.6813 LP  0  0  0  0  0  0  0  0  0  0  0  0  # atno 17370 bound_to 10713
  156.6872  130.4584  149.5610 LP  0  0  0  0  0  0  0  0  0  0  0  0  # atno 17371 bound_to 10713
  140.0566  134.9777  157.1231 LP  0  0  0  0  0  0  0  0  0  0  0  0  # atno 17394 bound_to 11000
  140.3911  134.2184  155.7166 LP  0  0  0  0  0  0  0  0  0  0  0  0  # atno 17395 bound_to 11000

$$$$
