AV-unprocessed.smi:1121|AV-procd|sdf|4826|dock4
  -GOLD-   22720 3383D 1   1.00000     0.00000
 Structure written by MMmdl.
 46 48  0  0  0  0  0  0  0  0  1 V2000
  145.1238  137.9892  152.4198 O   0  0  0  0  0  0  0  0  0  0  0  0
  146.2428  137.4846  152.3265 C   0  0  0  0  0  0  0  0  0  0  0  0
  147.3866  138.0524  152.7431 N   0  0  0  0  0  0  0  0  0  0  0  0
  147.5568  139.2977  153.4120 C   0  0  0  0  0  0  0  0  0  0  0  0
  146.6009  140.3388  153.3273 C   0  0  0  0  0  0  0  0  0  0  0  0
  146.8570  141.5602  153.9755 C   0  0  0  0  0  0  0  0  0  0  0  0
  148.0670  141.7029  154.6766 C   0  0  0  0  0  0  0  0  0  0  0  0
  148.9938  140.7265  154.7550 N   0  0  0  0  0  0  0  0  0  0  0  0
  148.7541  139.5441  154.1369 C   0  0  0  0  0  0  0  0  0  0  0  0
  149.7354  138.5393  154.2566 N   0  0  0  0  0  0  0  0  0  0  0  0
  151.0836  138.9608  154.6235 C   0  0  0  0  0  0  0  0  0  0  0  0
  152.0580  137.7790  154.4811 C   0  0  0  0  0  0  0  0  0  0  0  0
  151.5979  136.6835  155.2676 O   0  0  0  0  0  0  0  0  0  0  0  0
  150.3115  136.2300  154.8554 C   0  0  0  0  0  0  0  0  0  0  0  0
  149.2884  137.3689  155.0029 C   0  0  0  0  0  0  0  0  0  0  0  0
  146.4687  136.2697  151.8070 N   0  0  0  0  0  0  0  0  0  0  0  0
  145.4441  135.3712  151.2834 C   0  0  0  0  0  0  0  0  0  0  0  0
  144.3485  135.1187  152.3409 C   0  0  0  0  0  0  0  0  0  0  0  0
  143.3032  134.1090  151.8401 C   0  0  0  0  0  0  0  0  0  0  0  0
  143.9631  132.7919  151.4034 C   0  0  0  0  0  0  0  0  0  0  0  0
  145.0474  133.0408  150.3434 C   0  0  0  0  0  0  0  0  0  0  0  0
  146.0965  134.0460  150.8455 C   0  0  0  0  0  0  0  0  0  0  0  0
  148.2161  137.4803  152.6790 H   0  0  0  0  0  0  0  0  0  0  0  0
  145.6880  140.2285  152.7624 H   0  0  0  0  0  0  0  0  0  0  0  0
  146.1457  142.3714  153.9282 H   0  0  0  0  0  0  0  0  0  0  0  0
  148.2998  142.6274  155.1840 H   0  0  0  0  0  0  0  0  0  0  0  0
  151.4015  139.7870  153.9864 H   0  0  0  0  0  0  0  0  0  0  0  0
  151.0906  139.3207  155.6534 H   0  0  0  0  0  0  0  0  0  0  0  0
  152.1525  137.4759  153.4370 H   0  0  0  0  0  0  0  0  0  0  0  0
  153.0525  138.0679  154.8207 H   0  0  0  0  0  0  0  0  0  0  0  0
  150.3520  135.8770  153.8236 H   0  0  0  0  0  0  0  0  0  0  0  0
  150.0195  135.3796  155.4714 H   0  0  0  0  0  0  0  0  0  0  0  0
  149.1780  137.6376  156.0542 H   0  0  0  0  0  0  0  0  0  0  0  0
  148.3101  137.0343  154.6572 H   0  0  0  0  0  0  0  0  0  0  0  0
  147.4214  135.9377  151.7745 H   0  0  0  0  0  0  0  0  0  0  0  0
  144.9872  135.8303  150.4043 H   0  0  0  0  0  0  0  0  0  0  0  0
  144.8015  134.7437  153.2598 H   0  0  0  0  0  0  0  0  0  0  0  0
  143.8525  136.0541  152.6023 H   0  0  0  0  0  0  0  0  0  0  0  0
  142.5689  133.9151  152.6225 H   0  0  0  0  0  0  0  0  0  0  0  0
  142.7546  134.5381  151.0008 H   0  0  0  0  0  0  0  0  0  0  0  0
  144.4050  132.2986  152.2702 H   0  0  0  0  0  0  0  0  0  0  0  0
  143.2080  132.1103  151.0106 H   0  0  0  0  0  0  0  0  0  0  0  0
  145.5311  132.1002  150.0784 H   0  0  0  0  0  0  0  0  0  0  0  0
  144.5862  133.4196  149.4304 H   0  0  0  0  0  0  0  0  0  0  0  0
  146.8312  134.2312  150.0610 H   0  0  0  0  0  0  0  0  0  0  0  0
  146.6424  133.6078  151.6824 H   0  0  0  0  0  0  0  0  0  0  0  0
  1  2  2  0  0  0  0
  2  3  1  0  0  0  0
  2 16  1  0  0  0  0
  3  4  1  0  0  0  0
  3 23  1  0  0  0  0
  4  9  1  0  0  0  0
  4  5  2  0  0  0  0
  5  6  1  0  0  0  0
  5 24  1  0  0  0  0
  6  7  2  0  0  0  0
  6 25  1  0  0  0  0
  7  8  1  0  0  0  0
  7 26  1  0  0  0  0
  8  9  2  0  0  0  0
  9 10  1  0  0  0  0
 10 15  1  0  0  0  0
 10 11  1  0  0  0  0
 11 12  1  0  0  0  0
 11 27  1  0  0  0  0
 11 28  1  0  0  0  0
 12 13  1  0  0  0  0
 12 29  1  0  0  0  0
 12 30  1  0  0  0  0
 13 14  1  0  0  0  0
 14 15  1  0  0  0  0
 14 31  1  0  0  0  0
 14 32  1  0  0  0  0
 15 33  1  0  0  0  0
 15 34  1  0  0  0  0
 16 17  1  0  0  0  0
 16 35  1  0  0  0  0
 17 22  1  0  0  0  0
 17 18  1  0  0  0  0
 17 36  1  0  0  0  0
 18 19  1  0  0  0  0
 18 37  1  0  0  0  0
 18 38  1  0  0  0  0
 19 20  1  0  0  0  0
 19 39  1  0  0  0  0
 19 40  1  0  0  0  0
 20 21  1  0  0  0  0
 20 41  1  0  0  0  0
 20 42  1  0  0  0  0
 21 22  1  0  0  0  0
 21 43  1  0  0  0  0
 21 44  1  0  0  0  0
 22 45  1  0  0  0  0
 22 46  1  0  0  0  0
M  END
> <s_m_source_file>
AV-unprocessed.smi

> <i_m_source_file_index>
1121

> <i_lp_mmshare_version>
43012

> <i_f3d_flags>
0

> <s_epik_input>
W0NIMl0xW0NIMl1bQ0gyXVtDSDJdW0NIMl1bQ0hdMVtOSF1DKD1PKVtOSF1jMltjSF1bY0hdW2NIXW5jMk4zW0NIMl1bQ0gyXU9bQ0gyXVtDSDJdMw==

> <s_epik_cmdline>
J2VwaWtfcHl0aG9uJywgJy1waCcsICc3LjAnLCAnLXRuJywgJzgnLCAnLW1hJywgJzIwMCcsICctbWV0YWxfYmluZGluZycsICctaW1hZScsICc8aW5maWxlLm1hZT4nLCAnLW9tYWUnLCAnPG91dGZpbGUubWFlPic=

> <r_lp_tautomer_probability>
1

> <r_epik_Ionization_Penalty>
0.00218153

> <r_epik_Ionization_Penalty_Charging>
0

> <r_epik_Ionization_Penalty_Neutral>
0.00218153

> <r_epik_State_Penalty>
0.00146907

> <r_epik_Charging_Adjusted_Penalty>
0.00146907

> <i_epik_Tot_Q>
0

> <i_epik_Tot_abs_Q>
0

> <r_epik_Metal_State_Penalty>
-0

> <b_epik_Metal_Only>
0

> <s_lp_Force_Field>
OPLS_2005

> <r_lp_Energy>
26.2081

> <b_lp_Chiralities_Consistent>
1

> <s_lp_Variant>
AV-unprocessed.smi:1121-1

> <Gold.Version>
5.8.1

> <Gold.Id.Protein>
6NUR|6NUR_protein|mol2

> <Gold.PLP.Fitness>
45.0190

> <Gold.PLP.PLP>
-33.9070

> <Gold.PLP.part.hbond>
-2.7695

> <Gold.PLP.part.metal>
0.0000

> <Gold.PLP.part.buried>
-1.4354

> <Gold.PLP.part.nonpolar>
-32.4620

> <Gold.PLP.part.repulsive>
2.6966

> <Gold.PLP.ligand.clash>
0.0000

> <Gold.PLP.ligand.torsion>
0.4188

> <Gold.PLP.Chemscore.Hbond>
2.9120

> <Gold.PLP.Chemscore.CHOScore>
1.0000

> <Gold.PLP.Chemscore.Metal>
0.0000

> <Gold.Chemscore.Hbonds>
donor molecule, donor type, donor heavy atom, donor atom, acceptor molecule, acceptor atom, score
      L1  H     3    23       P1  7948  0.90
      L1  H    16    35       P1  7948  0.99
      P1  H 10752 10763       L1    13  0.75
      L1  C     7    26       P1  8028  1.00

> <Gold.PLP.Chemscore.Internal.Correction>
0.2136

> <Gold.Rescore>
     Score         DG    S(hbond)    S(metal)    S(lipo)     H(rot)  DE(clash)    DE(int)     intcor
     15.95     -21.01       2.43        0.00      89.21       1.18       1.33       3.73       ----

> <Gold.Chemscore.Fitness>
15.9476

> <Gold.Chemscore.DG>
-21.0078

> <Gold.Chemscore.ZeroCoef>
-5.4800

> <Gold.Chemscore.Hbond>
2.4318

> <Gold.Chemscore.Metal>
0.0000

> <Gold.Chemscore.Lipo>
89.2116

> <Gold.Chemscore.Internal_Hbond>
0.0000

> <Gold.Chemscore.DEClash>
1.3334

> <Gold.Chemscore.DEInternal>
3.7269

> <Gold.Chemscore.Rot>
1.1844

> <Gold.Chemscore.Internal.Correction>
   9.000000E+99

> <Gold.Chemscore.Hbonds>
donor molecule, donor type, donor heavy atom, donor atom, acceptor molecule, acceptor atom, score
      L1  H     3    23       P1  7948  0.88
      L1  H    16    35       P1  7948  0.89
      P1  H 10752 10763       L1    13  0.08

> <Gold.Chemscore.Hbond.Weighted>
-8.1222

> <Gold.Chemscore.Metal.Weighted>
-0.0000

> <Gold.Chemscore.Lipo.Weighted>
-10.4378

> <Gold.Chemscore.Internal_Hbond.Weighted>
0.0000

> <Gold.Chemscore.DEClash.Weighted>
1.3334

> <Gold.Chemscore.DEInternal.Weighted>
3.7269

> <Gold.Chemscore.Rot.Weighted>
3.0321

> <Gold.Chemscore.Internal.Correction.Weighted>
   9.000000E+99

> <Gold.Protein.RotatedTorsions>
[ 6907 6896 6895 6894 ] final   12.63 input  -60.11 | X-H torsion
[ 7974 7965 7964 7962 ] final  125.23 input  175.53 | X-H torsion
[ 8008 7997 7996 7995 ] final  -85.71 input   59.86 | X-H torsion
[ 10167 10162 10161 10158 ] final  -50.37 input  -65.29 | X-H torsion
[ 10718 10713 10712 10709 ] final  164.74 input   66.30 | X-H torsion
[ 10763 10752 10751 10750 ] final   73.67 input  -60.55 | X-H torsion
[ 11005 11000 10999 10996 ] final  -85.62 input  -57.11 | X-H torsion

> <Gold.Protein.ActiveResidues>
 VAL166  LYS551  ARG553  GLY616  TRP617  ASP618  TYR619  PRO620  LYS621  CYS622 
 ASP623  PHE694  ASN695  SER759  ASP760  ASP761  ALA762  ILE779  LEU786  VAL792 
 PHE793  MET794  SER795  GLU796  ALA797  LYS798  CYS799  TRP800  GLU811  SER814 

> <Gold.Protein.RotatedAtoms>
  151.7734  135.0780  160.0362 H   0  0  0  0  0  0  0  0  0  0  0  0  # atno 6907 bound_to 6896
  152.3273  133.5915  159.5794 H   0  0  0  0  0  0  0  0  0  0  0  0  # atno 6908 bound_to 6896
  150.7403  133.9837  159.3626 H   0  0  0  0  0  0  0  0  0  0  0  0  # atno 6909 bound_to 6896
  145.0753  139.3698  143.4936 H   0  0  0  0  0  0  0  0  0  0  0  0  # atno 7974 bound_to 7965
  154.6438  140.0588  156.9876 H   0  0  0  0  0  0  0  0  0  0  0  0  # atno 8008 bound_to 7997
  155.1476  140.3271  155.4419 H   0  0  0  0  0  0  0  0  0  0  0  0  # atno 8009 bound_to 7997
  156.2544  140.1953  156.6589 H   0  0  0  0  0  0  0  0  0  0  0  0  # atno 8010 bound_to 7997
  140.6641  143.2660  151.4349 H   0  0  0  0  0  0  0  0  0  0  0  0  # atno 10167 bound_to 10162
  157.0901  131.0415  151.2541 H   0  0  0  0  0  0  0  0  0  0  0  0  # atno 10718 bound_to 10713
  153.0537  135.5054  154.7929 H   0  0  0  0  0  0  0  0  0  0  0  0  # atno 10763 bound_to 10752
  154.6771  135.2962  154.9666 H   0  0  0  0  0  0  0  0  0  0  0  0  # atno 10764 bound_to 10752
  154.0464  135.6710  153.4848 H   0  0  0  0  0  0  0  0  0  0  0  0  # atno 10765 bound_to 10752
  141.1639  133.7409  156.9042 H   0  0  0  0  0  0  0  0  0  0  0  0  # atno 11005 bound_to 11000
  146.3530  140.0518  142.8635 LP  0  0  0  0  0  0  0  0  0  0  0  0  # atno 17320 bound_to 7965
  145.1243  140.9481  143.4582 LP  0  0  0  0  0  0  0  0  0  0  0  0  # atno 17321 bound_to 7965
  139.5883  144.1554  152.2057 LP  0  0  0  0  0  0  0  0  0  0  0  0  # atno 17342 bound_to 10162
  140.0901  144.5628  150.7061 LP  0  0  0  0  0  0  0  0  0  0  0  0  # atno 17343 bound_to 10162
  157.4728  130.7719  149.7340 LP  0  0  0  0  0  0  0  0  0  0  0  0  # atno 17370 bound_to 10713
  155.9900  130.3947  150.3046 LP  0  0  0  0  0  0  0  0  0  0  0  0  # atno 17371 bound_to 10713
  140.1561  134.9197  157.2655 LP  0  0  0  0  0  0  0  0  0  0  0  0  # atno 17394 bound_to 11000
  140.2665  134.3510  155.7388 LP  0  0  0  0  0  0  0  0  0  0  0  0  # atno 17395 bound_to 11000

$$$$
