AV-unprocessed.smi:1131|AV-procd|sdf|4852|dock7
  -GOLD-   22720 3423D 1   1.00000     0.00000
 Structure written by MMmdl.
 32 33  0  0  0  0  0  0  0  0  2 V2000
  154.3656  140.9703  158.4357 O   0  0  0  0  0  0  0  0  0  0  0  0
  153.2364  140.5021  158.5854 C   0  0  0  0  0  0  0  0  0  0  0  0
  152.7563  139.3357  157.7132 C   0  0  0  0  0  0  0  0  0  0  0  0
  151.7433  139.7522  156.7311 N   0  0  0  0  0  0  0  0  0  0  0  0
  150.4001  139.7832  157.1456 C   0  0  0  0  0  0  0  0  0  0  0  0
  149.4080  140.1500  156.3120 C   0  0  0  0  0  0  0  0  0  0  0  0
  149.7558  140.5214  154.9459 C   0  0  0  0  0  0  0  0  0  0  0  0
  148.8633  140.8626  154.1723 O   0  0  0  0  0  0  0  0  0  0  0  0
  151.0729  140.4712  154.5903 N   0  5  0  0  0  0  0  0  0  0  0  0
  152.0711  140.0947  155.4483 C   0  0  0  0  0  0  0  0  0  0  0  0
  153.2538  140.0548  155.1060 O   0  0  0  0  0  0  0  0  0  0  0  0
  152.3692  140.9486  159.5057 N   0  0  0  0  0  0  0  0  0  0  0  0
  152.6002  142.0752  160.4023 C   0  0  0  0  0  0  0  0  0  0  0  0
  151.3743  143.0058  160.4855 C   0  0  2  0  0  0  0  0  0  0  0  0
  151.1729  143.8702  159.2582 C   0  0  0  0  0  0  0  0  0  0  0  0
  150.2552  144.9583  159.8011 C   0  0  0  0  0  0  0  0  0  0  0  0
  150.7050  145.1871  161.1312 O   0  0  0  0  0  0  0  0  0  0  0  0
  151.4336  144.0548  161.6015 C   0  0  0  0  0  0  0  0  0  0  0  0
  153.6251  138.9063  157.2130 H   0  0  0  0  0  0  0  0  0  0  0  0
  152.3596  138.5338  158.3390 H   0  0  0  0  0  0  0  0  0  0  0  0
  150.2272  139.4878  158.1700 H   0  0  0  0  0  0  0  0  0  0  0  0
  148.3808  140.1662  156.6453 H   0  0  0  0  0  0  0  0  0  0  0  0
  151.4661  140.5001  159.5590 H   0  0  0  0  0  0  0  0  0  0  0  0
  152.8348  141.6749  161.3890 H   0  0  0  0  0  0  0  0  0  0  0  0
  153.4797  142.6339  160.0783 H   0  0  0  0  0  0  0  0  0  0  0  0
  150.4722  142.4074  160.6257 H   0  0  0  0  0  0  0  0  0  0  0  0
  152.1193  144.3062  158.9347 H   0  0  0  0  0  0  0  0  0  0  0  0
  150.7386  143.3278  158.4178 H   0  0  0  0  0  0  0  0  0  0  0  0
  150.2838  145.8706  159.2051 H   0  0  0  0  0  0  0  0  0  0  0  0
  149.2239  144.6046  159.8347 H   0  0  0  0  0  0  0  0  0  0  0  0
  151.0160  143.6782  162.5361 H   0  0  0  0  0  0  0  0  0  0  0  0
  152.4607  144.3661  161.7947 H   0  0  0  0  0  0  0  0  0  0  0  0
  1  2  2  0  0  0  0
  2  3  1  0  0  0  0
  2 12  1  0  0  0  0
  3  4  1  0  0  0  0
  3 19  1  0  0  0  0
  3 20  1  0  0  0  0
  4 10  1  0  0  0  0
  4  5  1  0  0  0  0
  5  6  2  0  0  0  0
  5 21  1  0  0  0  0
  6  7  1  0  0  0  0
  6 22  1  0  0  0  0
  7  8  2  0  0  0  0
  7  9  1  0  0  0  0
  9 10  1  0  0  0  0
 10 11  2  0  0  0  0
 12 13  1  0  0  0  0
 12 23  1  0  0  0  0
 13 14  1  0  0  0  0
 13 24  1  0  0  0  0
 13 25  1  0  0  0  0
 14 18  1  0  0  0  0
 14 15  1  0  0  0  0
 14 26  1  0  0  0  0
 15 16  1  0  0  0  0
 15 27  1  0  0  0  0
 15 28  1  0  0  0  0
 16 17  1  0  0  0  0
 16 29  1  0  0  0  0
 16 30  1  0  0  0  0
 17 18  1  0  0  0  0
 18 31  1  0  0  0  0
 18 32  1  0  0  0  0
M  CHG  1   9  -1
M  END
> <s_m_source_file>
AV-unprocessed.smi

> <i_m_source_file_index>
1131

> <i_lp_mmshare_version>
43012

> <i_f3d_flags>
0

> <s_epik_input>
W0NIMl0xT1tDSDJdW0NIMl1bQ0BIXTFbQ0gyXVtOSF1DKD1PKVtDSDJdbjJbY0hdW2NIXWMoPU8pW25IXWMyPU8=

> <s_epik_cmdline>
J2VwaWtfcHl0aG9uJywgJy1waCcsICc3LjAnLCAnLXRuJywgJzgnLCAnLW1hJywgJzIwMCcsICctbWV0YWxfYmluZGluZycsICctaW1hZScsICc8aW5maWxlLm1hZT4nLCAnLW9tYWUnLCAnPG91dGZpbGUubWFlPic=

> <r_lp_tautomer_probability>
0.999537

> <r_epik_Ionization_Penalty>
3.07866

> <r_epik_Ionization_Penalty_Charging>
2.6898e-08

> <r_epik_Ionization_Penalty_Neutral>
3.07866

> <r_epik_State_Penalty>
3.07769

> <r_epik_Charging_Adjusted_Penalty>
3.07769

> <i_epik_Tot_Q>
-1

> <i_epik_Tot_abs_Q>
1

> <r_epik_Metal_State_Penalty>
0.459839

> <b_epik_Metal_Only>
1

> <s_lp_Force_Field>
OPLS_2005

> <r_lp_Energy>
26.4243

> <b_lp_Chiralities_Consistent>
1

> <s_lp_Variant>
AV-unprocessed.smi:1131-3

> <Gold.Version>
5.8.1

> <Gold.Id.Protein>
6NUR|6NUR_protein|mol2

> <Gold.PLP.Fitness>
42.8829

> <Gold.PLP.PLP>
-34.1007

> <Gold.PLP.part.hbond>
-4.8681

> <Gold.PLP.part.metal>
0.0000

> <Gold.PLP.part.buried>
-2.9867

> <Gold.PLP.part.nonpolar>
-27.6551

> <Gold.PLP.part.repulsive>
1.6105

> <Gold.PLP.ligand.clash>
0.0000

> <Gold.PLP.ligand.torsion>
0.6613

> <Gold.PLP.Chemscore.Hbond>
3.3663

> <Gold.PLP.Chemscore.CHOScore>
0.0000

> <Gold.PLP.Chemscore.Metal>
0.0000

> <Gold.Chemscore.Hbonds>
donor molecule, donor type, donor heavy atom, donor atom, acceptor molecule, acceptor atom, score
      P1  H  7989  7998       L1     9  0.39
      P1  H  7997  8008       L1     1  0.18
      P1  H  7997  8009       L1    11  0.75

> <Gold.PLP.Chemscore.Internal.Correction>
0.0059

> <Gold.Rescore>
     Score         DG    S(hbond)    S(metal)    S(lipo)     H(rot)  DE(clash)    DE(int)     intcor
     16.93     -18.04       3.10        0.00      63.48       2.05       0.58       0.53       ----

> <Gold.Chemscore.Fitness>
16.9263

> <Gold.Chemscore.DG>
-18.0389

> <Gold.Chemscore.ZeroCoef>
-5.4800

> <Gold.Chemscore.Hbond>
3.1049

> <Gold.Chemscore.Metal>
0.0000

> <Gold.Chemscore.Lipo>
63.4789

> <Gold.Chemscore.Internal_Hbond>
0.0000

> <Gold.Chemscore.DEClash>
0.5783

> <Gold.Chemscore.DEInternal>
0.5343

> <Gold.Chemscore.Rot>
2.0463

> <Gold.Chemscore.Internal.Correction>
   9.000000E+99

> <Gold.Chemscore.Hbonds>
donor molecule, donor type, donor heavy atom, donor atom, acceptor molecule, acceptor atom, score
      P1  H  7989  7998       L1     9  0.23
      P1  H  7997  8008       L1     1  0.15
      P1  H  7997  8009       L1    11  0.75

> <Gold.Chemscore.Hbond.Weighted>
-10.3705

> <Gold.Chemscore.Metal.Weighted>
-0.0000

> <Gold.Chemscore.Lipo.Weighted>
-7.4270

> <Gold.Chemscore.Internal_Hbond.Weighted>
0.0000

> <Gold.Chemscore.DEClash.Weighted>
0.5783

> <Gold.Chemscore.DEInternal.Weighted>
0.5343

> <Gold.Chemscore.Rot.Weighted>
5.2386

> <Gold.Chemscore.Internal.Correction.Weighted>
   9.000000E+99

> <Gold.Protein.RotatedTorsions>
[ 6907 6896 6895 6894 ] final -173.91 input  -60.11 | X-H torsion
[ 7974 7965 7964 7962 ] final  -28.49 input  175.53 | X-H torsion
[ 8008 7997 7996 7995 ] final -131.67 input   59.86 | X-H torsion
[ 10167 10162 10161 10158 ] final   75.55 input  -65.29 | X-H torsion
[ 10718 10713 10712 10709 ] final  -48.66 input   66.30 | X-H torsion
[ 10763 10752 10751 10750 ] final  127.59 input  -60.55 | X-H torsion
[ 11005 11000 10999 10996 ] final    9.42 input  -57.11 | X-H torsion

> <Gold.Protein.ActiveResidues>
 VAL166  LYS551  ARG553  GLY616  TRP617  ASP618  TYR619  PRO620  LYS621  CYS622 
 ASP623  PHE694  ASN695  SER759  ASP760  ASP761  ALA762  ILE779  LEU786  VAL792 
 PHE793  MET794  SER795  GLU796  ALA797  LYS798  CYS799  TRP800  GLU811  SER814 

> <Gold.Protein.RotatedAtoms>
  151.5639  133.3399  159.2976 H   0  0  0  0  0  0  0  0  0  0  0  0  # atno 6907 bound_to 6896
  150.8407  134.7700  159.6941 H   0  0  0  0  0  0  0  0  0  0  0  0  # atno 6908 bound_to 6896
  152.4475  134.5472  159.9908 H   0  0  0  0  0  0  0  0  0  0  0  0  # atno 6909 bound_to 6896
  146.1284  140.5289  142.8704 H   0  0  0  0  0  0  0  0  0  0  0  0  # atno 7974 bound_to 7965
  155.3162  140.0460  157.3037 H   0  0  0  0  0  0  0  0  0  0  0  0  # atno 8008 bound_to 7997
  154.5405  140.2286  155.8615 H   0  0  0  0  0  0  0  0  0  0  0  0  # atno 8009 bound_to 7997
  156.1876  140.3058  155.9276 H   0  0  0  0  0  0  0  0  0  0  0  0  # atno 8010 bound_to 7997
  140.0017  144.5681  150.7732 H   0  0  0  0  0  0  0  0  0  0  0  0  # atno 10167 bound_to 10162
  156.1967  130.4154  149.9297 H   0  0  0  0  0  0  0  0  0  0  0  0  # atno 10718 bound_to 10713
  153.7119  135.3267  155.3248 H   0  0  0  0  0  0  0  0  0  0  0  0  # atno 10763 bound_to 10752
  154.8382  135.4479  154.1305 H   0  0  0  0  0  0  0  0  0  0  0  0  # atno 10764 bound_to 10752
  153.2401  135.6970  153.7871 H   0  0  0  0  0  0  0  0  0  0  0  0  # atno 10765 bound_to 10752
  140.5259  134.0514  155.7858 H   0  0  0  0  0  0  0  0  0  0  0  0  # atno 11005 bound_to 11000
  144.7666  140.5543  143.6699 LP  0  0  0  0  0  0  0  0  0  0  0  0  # atno 17320 bound_to 7965
  145.5314  139.1475  143.3497 LP  0  0  0  0  0  0  0  0  0  0  0  0  # atno 17321 bound_to 7965
  140.7416  143.2820  151.3570 LP  0  0  0  0  0  0  0  0  0  0  0  0  # atno 17342 bound_to 10162
  139.6267  144.0800  152.2440 LP  0  0  0  0  0  0  0  0  0  0  0  0  # atno 17343 bound_to 10162
  156.7020  130.8936  151.3600 LP  0  0  0  0  0  0  0  0  0  0  0  0  # atno 17370 bound_to 10713
  157.6961  130.9284  150.0650 LP  0  0  0  0  0  0  0  0  0  0  0  0  # atno 17371 bound_to 10713
  141.1308  133.9304  157.2538 LP  0  0  0  0  0  0  0  0  0  0  0  0  # atno 17394 bound_to 11000
  139.9580  135.0161  156.9183 LP  0  0  0  0  0  0  0  0  0  0  0  0  # atno 17395 bound_to 11000

$$$$
