#       Name:                AV-unprocessed.smi:1209
#       Creating user name   scv26
#       Creation time:       Fri Mar 27 04:12:01 2020


#       File generated by GOLD software.
#

@<TRIPOS>MOLECULE
AV-unprocessed.smi:1209
    55    57     1
SMALL
NO_CHARGES


@<TRIPOS>ATOM
      1 ****        -4.8425   5.5473  -0.4773 C.3            1 S1                 0.0000
      2 ****        -4.7039   4.1948   0.1333 C.2            1 S1                 0.0000
      3 ****        -3.9831   3.0868  -0.2109 C.2            1 S1                 0.0000
      4 ****        -4.3111   2.1447   0.8025 C.2            1 S1                 0.0000
      5 ****        -3.8215   0.7297   0.9507 C.3            1 S1                 0.0000
      6 ****        -2.4358   0.6741   1.4846 N.4            1 S1                 1.0000
      7 ****        -2.3448   1.1494   2.8883 C.3            1 S1                 0.0000
      8 ****        -1.8079  -0.6598   1.2884 C.3            1 S1                 0.0000
      9 ****        -0.2697  -0.5838   1.2125 C.3            1 S1                 0.0000
     10 ****         0.0913   0.1702   0.0703 O.3            1 S1                 0.0000
     11 ****         0.3702  -1.9837   1.1282 C.3            1 S1                 0.0000
     12 ****         1.8205  -1.9293   1.0757 N.pl3          1 S1                 0.0000
     13 ****         2.6645  -1.8358   2.1212 C.2            1 S1                 0.0000
     14 ****         3.9657  -1.7919   1.8516 N.2            1 S1                 0.0000
     15 ****         3.9671  -1.8674   0.4693 C.ar           1 S1                 0.0000
     16 ****         5.0409  -1.8650  -0.4475 C.ar           1 S1                 0.0000
     17 ****         4.8067  -1.9500  -1.8384 C.ar           1 S1                 0.0000
     18 ****         5.9915  -1.9394  -2.7882 C.3            1 S1                 0.0000
     19 ****         3.4802  -2.0427  -2.3311 C.ar           1 S1                 0.0000
     20 ****         3.2051  -2.1366  -3.8214 C.3            1 S1                 0.0000
     21 ****         2.3956  -2.0461  -1.4291 C.ar           1 S1                 0.0000
     22 ****         2.6413  -1.9579  -0.0472 C.ar           1 S1                 0.0000
     23 ****        -5.1637   2.6460   1.6813 N.2            1 S1                 0.0000
     24 ****        -5.4167   3.9574   1.2645 O.3            1 S1                 0.0000
     25 ****        -4.3958   5.5736  -1.4715 H              1 S1                 0.0000
     26 ****        -4.3478   6.3007   0.1360 H              1 S1                 0.0000
     27 ****        -5.8927   5.8237  -0.5726 H              1 S1                 0.0000
     28 ****        -3.3248   2.9690  -1.0591 H              1 S1                 0.0000
     29 ****        -4.4854   0.1469   1.5919 H              1 S1                 0.0000
     30 ****        -3.8547   0.2561  -0.0312 H              1 S1                 0.0000
     31 ****        -2.9522   0.5299   3.5494 H              1 S1                 0.0000
     32 ****        -2.6883   2.1796   2.9800 H              1 S1                 0.0000
     33 ****        -1.3199   1.1281   3.2559 H              1 S1                 0.0000
     34 ****        -2.1207  -1.3249   2.0949 H              1 S1                 0.0000
     35 ****        -2.1690  -1.1162   0.3655 H              1 S1                 0.0000
     36 ****         0.1288  -0.0763   2.0904 H              1 S1                 0.0000
     37 ****        -0.1342  -0.3229  -0.7040 H              1 S1                 0.0000
     38 ****         0.0846  -2.5798   1.9960 H              1 S1                 0.0000
     39 ****         0.0084  -2.5213   0.2508 H              1 S1                 0.0000
     40 ****         2.3028  -1.7948   3.1383 H              1 S1                 0.0000
     41 ****         6.0511  -1.7953  -0.0716 H              1 S1                 0.0000
     42 ****         6.0392  -2.8725  -3.3498 H              1 S1                 0.0000
     43 ****         6.9324  -1.8242  -2.2497 H              1 S1                 0.0000
     44 ****         5.9086  -1.1134  -3.4946 H              1 S1                 0.0000
     45 ****         2.1392  -2.2449  -4.0236 H              1 S1                 0.0000
     46 ****         3.7153  -2.9990  -4.2512 H              1 S1                 0.0000
     47 ****         3.5535  -1.2379  -4.3307 H              1 S1                 0.0000
     48 ****         1.3812  -2.1136  -1.7927 H              1 S1                 0.0000
     49 ****        -1.8974   1.3163   0.9199 H              1 S1                 0.0000
     50 ****         1.0755   0.3469   0.0815 LP             1 S1                 0.0000
     51 ****        -0.4034   1.0393   0.0712 LP             1 S1                 0.0000
     52 ****         4.7394  -1.7226   2.4814 LP             1 S1                 0.0000
     53 ****        -5.5484   2.1827   2.4797 LP             1 S1                 0.0000
     54 ****        -6.3928   4.0698   1.0781 LP             1 S1                 0.0000
     55 ****        -5.1380   4.5984   1.9797 LP             1 S1                 0.0000
@<TRIPOS>BOND
    1    1    2 1     
    2    1   25 1     
    3    1   26 1     
    4    1   27 1     
    5    2   24 1     
    6    2    3 2     
    7    3    4 1     
    8    3   28 1     
    9    4    5 1     
   10    4   23 2     
   11    5    6 1     
   12    5   29 1     
   13    5   30 1     
   14    6    7 1     
   15    6    8 1     
   16    6   49 1     
   17    7   31 1     
   18    7   32 1     
   19    7   33 1     
   20    8    9 1     
   21    8   34 1     
   22    8   35 1     
   23    9   10 1     
   24    9   11 1     
   25    9   36 1     
   26   10   37 1     
   27   11   12 1     
   28   11   38 1     
   29   11   39 1     
   30   12   22 1     
   31   12   13 1     
   32   13   14 2     
   33   13   40 1     
   34   14   15 1     
   35   15   22 ar    
   36   15   16 ar    
   37   16   17 ar    
   38   16   41 1     
   39   17   18 1     
   40   17   19 ar    
   41   18   42 1     
   42   18   43 1     
   43   18   44 1     
   44   19   20 1     
   45   19   21 ar    
   46   20   45 1     
   47   20   46 1     
   48   20   47 1     
   49   21   22 ar    
   50   21   48 1     
   51   23   24 1     
   52   10   50 1     
   53   10   51 1     
   54   14   52 1     
   55   23   53 1     
   56   24   54 1     
   57   24   55 1     
@<TRIPOS>SUBSTRUCTURE
      1 S1             1
@<TRIPOS>SET
LONE_PAIRS      STATIC     ATOMS    <user>   **** ""
6 50 51 52 53 54 55
DONOR_HYDROGENS      STATIC     ATOMS    <user>   **** ""
2 49 37
ATOM$BLUE        STATIC     ATOMS    COLORGROUP SYSTEM
6 50 51 52 53 54 55
ATOM$RED        STATIC     ATOMS    COLORGROUP SYSTEM
2 49 37
