AV-unprocessed.smi:3031|AV-procd|sdf|11549|dock10
  -GOLD-   2272016503D 1   1.00000     0.00000
 Structure written by MMmdl.
 48 49  0  0  0  0  0  0  0  0  3 V2000
  150.7509  142.7200  158.7754 C   0  0  0  0  0  0  0  0  0  0  0  0
  150.9164  141.6944  157.6911 C   0  0  0  0  0  0  0  0  0  0  0  0
  151.7146  140.5161  157.7185 C   0  0  0  0  0  0  0  0  0  0  0  0
  151.6452  139.8229  156.5938 N   0  0  0  0  0  0  0  0  0  0  0  0
  150.7976  140.5266  155.8130 N   0  0  0  0  0  0  0  0  0  0  0  0
  150.4920  140.0665  154.4678 C   0  0  0  0  0  0  0  0  0  0  0  0
  149.9491  138.6228  154.4291 C   0  0  2  0  0  0  0  0  0  0  0  0
  151.1002  137.6045  154.4590 C   0  0  0  0  0  0  0  0  0  0  0  0
  149.1011  138.4303  153.2304 N   0  3  0  0  0  0  0  0  0  0  0  0
  147.7427  139.0082  153.3184 C   0  0  0  0  0  0  0  0  0  0  0  0
  146.8891  138.6133  152.1006 C   0  0  2  0  0  0  0  0  0  0  0  0
  146.1947  139.7616  151.6508 O   0  0  0  0  0  0  0  0  0  0  0  0
  145.8549  137.5231  152.4526 C   0  0  0  0  0  0  0  0  0  0  0  0
  146.3440  136.1490  152.1666 N   0  3  0  0  0  0  0  0  0  0  0  0
  146.3402  135.2546  153.3518 C   0  0  0  0  0  0  0  0  0  0  0  0
  146.8911  133.8667  152.9807 C   0  0  0  0  0  0  0  0  0  0  0  0
  146.1246  133.3177  151.9166 O   0  0  0  0  0  0  0  0  0  0  0  0
  146.1931  134.1189  150.7441 C   0  0  0  0  0  0  0  0  0  0  0  0
  145.6184  135.5148  151.0398 C   0  0  0  0  0  0  0  0  0  0  0  0
  150.3528  141.6677  156.4469 C   0  0  0  0  0  0  0  0  0  0  0  0
  151.5033  143.5054  158.7024 H   0  0  0  0  0  0  0  0  0  0  0  0
  150.8431  142.2773  159.7674 H   0  0  0  0  0  0  0  0  0  0  0  0
  149.7749  143.2039  158.7303 H   0  0  0  0  0  0  0  0  0  0  0  0
  152.3408  140.1475  158.5176 H   0  0  0  0  0  0  0  0  0  0  0  0
  149.7710  140.7538  154.0225 H   0  0  0  0  0  0  0  0  0  0  0  0
  151.4034  140.1425  153.8732 H   0  0  0  0  0  0  0  0  0  0  0  0
  149.3347  138.4671  155.3171 H   0  0  0  0  0  0  0  0  0  0  0  0
  151.7348  137.7609  155.3319 H   0  0  0  0  0  0  0  0  0  0  0  0
  151.7305  137.6906  153.5732 H   0  0  0  0  0  0  0  0  0  0  0  0
  150.7327  136.5797  154.5096 H   0  0  0  0  0  0  0  0  0  0  0  0
  149.5653  138.8908  152.4601 H   0  0  0  0  0  0  0  0  0  0  0  0
  147.2667  138.6467  154.2300 H   0  0  0  0  0  0  0  0  0  0  0  0
  147.8050  140.0945  153.4001 H   0  0  0  0  0  0  0  0  0  0  0  0
  147.5498  138.2680  151.3056 H   0  0  0  0  0  0  0  0  0  0  0  0
  145.2922  139.7034  151.9280 H   0  0  0  0  0  0  0  0  0  0  0  0
  145.5720  137.5880  153.5045 H   0  0  0  0  0  0  0  0  0  0  0  0
  144.9433  137.7130  151.8830 H   0  0  0  0  0  0  0  0  0  0  0  0
  146.9445  135.6763  154.1539 H   0  0  0  0  0  0  0  0  0  0  0  0
  145.3231  135.1578  153.7353 H   0  0  0  0  0  0  0  0  0  0  0  0
  147.9426  133.9268  152.6954 H   0  0  0  0  0  0  0  0  0  0  0  0
  146.8320  133.1977  153.8394 H   0  0  0  0  0  0  0  0  0  0  0  0
  147.2245  134.1875  150.3941 H   0  0  0  0  0  0  0  0  0  0  0  0
  145.6198  133.6365  149.9520 H   0  0  0  0  0  0  0  0  0  0  0  0
  144.5573  135.4388  151.2833 H   0  0  0  0  0  0  0  0  0  0  0  0
  145.6999  136.1380  150.1481 H   0  0  0  0  0  0  0  0  0  0  0  0
  149.6771  142.3605  155.9669 H   0  0  0  0  0  0  0  0  0  0  0  0
  149.0399  137.4441  153.0217 H   0  0  0  0  0  0  0  0  0  0  0  0
  147.3045  136.2414  151.8664 H   0  0  0  0  0  0  0  0  0  0  0  0
  1  2  1  0  0  0  0
  1 21  1  0  0  0  0
  1 22  1  0  0  0  0
  1 23  1  0  0  0  0
  2 20  2  0  0  0  0
  2  3  1  0  0  0  0
  3  4  2  0  0  0  0
  3 24  1  0  0  0  0
  4  5  1  0  0  0  0
  5  6  1  0  0  0  0
  5 20  1  0  0  0  0
  6  7  1  0  0  0  0
  6 25  1  0  0  0  0
  6 26  1  0  0  0  0
  7  8  1  0  0  0  0
  7  9  1  0  0  0  0
  7 27  1  0  0  0  0
  8 28  1  0  0  0  0
  8 29  1  0  0  0  0
  8 30  1  0  0  0  0
  9 10  1  0  0  0  0
  9 31  1  0  0  0  0
  9 47  1  0  0  0  0
 10 11  1  0  0  0  0
 10 32  1  0  0  0  0
 10 33  1  0  0  0  0
 11 12  1  0  0  0  0
 11 13  1  0  0  0  0
 11 34  1  0  0  0  0
 12 35  1  0  0  0  0
 13 14  1  0  0  0  0
 13 36  1  0  0  0  0
 13 37  1  0  0  0  0
 14 19  1  0  0  0  0
 14 15  1  0  0  0  0
 14 48  1  0  0  0  0
 15 16  1  0  0  0  0
 15 38  1  0  0  0  0
 15 39  1  0  0  0  0
 16 17  1  0  0  0  0
 16 40  1  0  0  0  0
 16 41  1  0  0  0  0
 17 18  1  0  0  0  0
 18 19  1  0  0  0  0
 18 42  1  0  0  0  0
 18 43  1  0  0  0  0
 19 44  1  0  0  0  0
 19 45  1  0  0  0  0
 20 46  1  0  0  0  0
M  CHG  1   9   1
M  CHG  1  14   1
M  END
> <s_m_source_file>
AV-unprocessed.smi

> <i_m_source_file_index>
3031

> <i_lp_mmshare_version>
43012

> <i_f3d_flags>
0

> <s_epik_input>
W0NIM11jMVtjSF1ubihbY0hdMSlbQ0gyXVtDQEhdKFtDSDNdKVtOSF1bQ0gyXVtDQEhdKFtPSF0pW0NIMl1OMltDSDJdW0NIMl1PW0NIMl1bQ0gyXTI=

> <s_epik_cmdline>
J2VwaWtfcHl0aG9uJywgJy1waCcsICc3LjAnLCAnLXRuJywgJzgnLCAnLW1hJywgJzIwMCcsICctbWV0YWxfYmluZGluZycsICctaW1hZScsICc8aW5maWxlLm1hZT4nLCAnLW9tYWUnLCAnPG91dGZpbGUubWFlPic=

> <r_lp_tautomer_probability>
1

> <r_epik_Ionization_Penalty>
1.76542

> <r_epik_Ionization_Penalty_Charging>
1.76348

> <r_epik_Ionization_Penalty_Neutral>
0.00194017

> <r_epik_State_Penalty>
1.49348

> <r_epik_Charging_Adjusted_Penalty>
3.25696

> <i_epik_Tot_Q>
2

> <i_epik_Tot_abs_Q>
2

> <r_epik_Metal_State_Penalty>
1.49349

> <b_epik_Metal_Only>
0

> <s_lp_Force_Field>
OPLS_2005

> <r_lp_Energy>
27.3319

> <b_lp_Chiralities_Consistent>
1

> <s_lp_Variant>
AV-unprocessed.smi:3031-9

> <Gold.Version>
5.8.1

> <Gold.Id.Protein>
6NUR|6NUR_protein|mol2

> <Gold.PLP.Fitness>
52.0413

> <Gold.PLP.PLP>
-36.0309

> <Gold.PLP.part.hbond>
-4.5045

> <Gold.PLP.part.metal>
0.0000

> <Gold.PLP.part.buried>
2.5598

> <Gold.PLP.part.nonpolar>
-33.6656

> <Gold.PLP.part.repulsive>
0.2236

> <Gold.PLP.ligand.clash>
0.0000

> <Gold.PLP.ligand.torsion>
2.2868

> <Gold.PLP.Chemscore.Hbond>
5.8240

> <Gold.PLP.Chemscore.CHOScore>
1.0000

> <Gold.PLP.Chemscore.Metal>
0.0000

> <Gold.Chemscore.Hbonds>
donor molecule, donor type, donor heavy atom, donor atom, acceptor molecule, acceptor atom, score
      L1  H     9    31       P1  7957  1.00
      L1  H     9    47       P1  7948  1.89
      L1  H    12    35       P1 10175  1.00
      L1  H    14    48       P1  7948  2.00
      L1  C    20    46       P1  8028  1.00

> <Gold.PLP.Chemscore.Internal.Correction>
0.1121

> <Gold.Rescore>
     Score         DG    S(hbond)    S(metal)    S(lipo)     H(rot)  DE(clash)    DE(int)     intcor
     17.41     -20.96       3.70        0.00      86.57       2.74       1.51       2.04       ----

> <Gold.Chemscore.Fitness>
17.4116

> <Gold.Chemscore.DG>
-20.9586

> <Gold.Chemscore.ZeroCoef>
-5.4800

> <Gold.Chemscore.Hbond>
3.7045

> <Gold.Chemscore.Metal>
0.0000

> <Gold.Chemscore.Lipo>
86.5702

> <Gold.Chemscore.Internal_Hbond>
0.0000

> <Gold.Chemscore.DEClash>
1.5052

> <Gold.Chemscore.DEInternal>
2.0418

> <Gold.Chemscore.Rot>
2.7434

> <Gold.Chemscore.Internal.Correction>
   9.000000E+99

> <Gold.Chemscore.Hbonds>
donor molecule, donor type, donor heavy atom, donor atom, acceptor molecule, acceptor atom, score
      L1  H     9    31       P1  7957  0.76
      L1  H     9    47       P1  7948  0.91
      L1  H    12    35       P1 10175  0.79
      L1  H    14    48       P1  7948  0.99

> <Gold.Chemscore.Hbond.Weighted>
-12.3730

> <Gold.Chemscore.Metal.Weighted>
-0.0000

> <Gold.Chemscore.Lipo.Weighted>
-10.1287

> <Gold.Chemscore.Internal_Hbond.Weighted>
0.0000

> <Gold.Chemscore.DEClash.Weighted>
1.5052

> <Gold.Chemscore.DEInternal.Weighted>
2.0418

> <Gold.Chemscore.Rot.Weighted>
7.0231

> <Gold.Chemscore.Internal.Correction.Weighted>
   9.000000E+99

> <Gold.Protein.RotatedTorsions>
[ 6907 6896 6895 6894 ] final  -71.45 input  -60.11 | X-H torsion
[ 7974 7965 7964 7962 ] final  141.82 input  175.53 | X-H torsion
[ 8008 7997 7996 7995 ] final  -47.83 input   59.86 | X-H torsion
[ 10167 10162 10161 10158 ] final  138.84 input  -65.29 | X-H torsion
[ 10718 10713 10712 10709 ] final  139.39 input   66.30 | X-H torsion
[ 10763 10752 10751 10750 ] final  -70.94 input  -60.55 | X-H torsion
[ 11005 11000 10999 10996 ] final  167.12 input  -57.11 | X-H torsion

> <Gold.Protein.ActiveResidues>
 VAL166  LYS551  ARG553  GLY616  TRP617  ASP618  TYR619  PRO620  LYS621  CYS622 
 ASP623  PHE694  ASN695  SER759  ASP760  ASP761  ALA762  ILE779  LEU786  VAL792 
 PHE793  MET794  SER795  GLU796  ALA797  LYS798  CYS799  TRP800  GLU811  SER814 

> <Gold.Protein.RotatedAtoms>
  150.7212  134.5307  159.5698 H   0  0  0  0  0  0  0  0  0  0  0  0  # atno 6907 bound_to 6896
  152.2841  134.7793  160.0400 H   0  0  0  0  0  0  0  0  0  0  0  0  # atno 6908 bound_to 6896
  151.8429  133.3391  159.3685 H   0  0  0  0  0  0  0  0  0  0  0  0  # atno 6909 bound_to 6896
  144.9062  139.5355  143.5730 H   0  0  0  0  0  0  0  0  0  0  0  0  # atno 7974 bound_to 7965
  154.4021  140.1336  156.4240 H   0  0  0  0  0  0  0  0  0  0  0  0  # atno 8008 bound_to 7997
  155.7615  140.3486  155.5180 H   0  0  0  0  0  0  0  0  0  0  0  0  # atno 8009 bound_to 7997
  155.8854  140.0994  157.1446 H   0  0  0  0  0  0  0  0  0  0  0  0  # atno 8010 bound_to 7997
  139.5098  144.6330  151.5770 H   0  0  0  0  0  0  0  0  0  0  0  0  # atno 10167 bound_to 10162
  157.4149  131.1032  151.0415 H   0  0  0  0  0  0  0  0  0  0  0  0  # atno 10718 bound_to 10713
  154.4248  135.5978  153.6032 H   0  0  0  0  0  0  0  0  0  0  0  0  # atno 10763 bound_to 10752
  152.9795  135.5961  154.3911 H   0  0  0  0  0  0  0  0  0  0  0  0  # atno 10764 bound_to 10752
  154.3741  135.2841  155.2228 H   0  0  0  0  0  0  0  0  0  0  0  0  # atno 10765 bound_to 10752
  140.2735  134.7808  157.3696 H   0  0  0  0  0  0  0  0  0  0  0  0  # atno 11005 bound_to 11000
  146.3135  139.7832  142.9002 LP  0  0  0  0  0  0  0  0  0  0  0  0  # atno 17320 bound_to 7965
  145.3532  141.0311  143.3327 LP  0  0  0  0  0  0  0  0  0  0  0  0  # atno 17321 bound_to 7965
  140.6069  143.9508  150.6425 LP  0  0  0  0  0  0  0  0  0  0  0  0  # atno 17342 bound_to 10162
  140.2738  143.3437  152.1214 LP  0  0  0  0  0  0  0  0  0  0  0  0  # atno 17343 bound_to 10162
  157.1366  130.6125  149.5543 LP  0  0  0  0  0  0  0  0  0  0  0  0  # atno 17370 bound_to 10713
  155.9862  130.4896  150.7068 LP  0  0  0  0  0  0  0  0  0  0  0  0  # atno 17371 bound_to 10713
  140.1351  134.5045  155.8075 LP  0  0  0  0  0  0  0  0  0  0  0  0  # atno 17394 bound_to 11000
  141.2174  133.6804  156.7109 LP  0  0  0  0  0  0  0  0  0  0  0  0  # atno 17395 bound_to 11000

$$$$
