AV-unprocessed.smi:2755|AV-procd|sdf|10617|dock8
  -GOLD-   2272015 63D 1   1.00000     0.00000
 Structure written by MMmdl.
 32 32  0  0  0  0  0  0  0  0  1 V2000
  151.0442  145.4179  159.3026 C   0  0  0  0  0  0  0  0  0  0  0  0
  151.4180  144.1349  160.0529 C   0  0  0  0  0  0  0  0  0  0  0  0
  152.8720  143.7081  159.8053 C   0  0  0  0  0  0  0  0  0  0  0  0
  153.2793  142.4901  160.6465 C   0  0  0  0  0  0  0  0  0  0  0  0
  152.7408  141.1723  160.0742 C   0  0  0  0  0  0  0  0  0  0  0  0
  152.7002  141.2312  158.6206 N   0  0  0  0  0  0  0  0  0  0  0  0
  151.5910  141.0914  157.8765 C   0  0  0  0  0  0  0  0  0  0  0  0
  150.4792  140.9085  158.3708 O   0  0  0  0  0  0  0  0  0  0  0  0
  151.7251  141.1630  156.3456 C   0  0  0  0  0  0  0  0  0  0  0  0
  151.3967  139.9217  155.6375 N   0  0  0  0  0  0  0  0  0  0  0  0
  150.4465  139.9933  154.6470 N   0  0  0  0  0  0  0  0  0  0  0  0
  150.3155  138.8123  154.1541 C   0  0  0  0  0  0  0  0  0  0  0  0
  149.4619  138.4442  153.1346 N   0  0  0  0  0  0  0  0  0  0  0  0
  151.3005  137.4847  154.8072 S   0  0  0  0  0  0  0  0  0  0  0  0
  151.9965  138.6876  155.9116 C   0  0  0  0  0  0  0  0  0  0  0  0
  152.8606  138.4231  156.7456 O   0  0  0  0  0  0  0  0  0  0  0  0
  150.0076  145.6935  159.4975 H   0  0  0  0  0  0  0  0  0  0  0  0
  151.1580  145.2916  158.2255 H   0  0  0  0  0  0  0  0  0  0  0  0
  151.6739  146.2526  159.6114 H   0  0  0  0  0  0  0  0  0  0  0  0
  151.2570  144.2843  161.1211 H   0  0  0  0  0  0  0  0  0  0  0  0
  150.7442  143.3331  159.7486 H   0  0  0  0  0  0  0  0  0  0  0  0
  153.0071  143.4796  158.7474 H   0  0  0  0  0  0  0  0  0  0  0  0
  153.5387  144.5421  160.0288 H   0  0  0  0  0  0  0  0  0  0  0  0
  154.3672  142.4415  160.7098 H   0  0  0  0  0  0  0  0  0  0  0  0
  152.9153  142.6170  161.6671 H   0  0  0  0  0  0  0  0  0  0  0  0
  153.3743  140.3417  160.3901 H   0  0  0  0  0  0  0  0  0  0  0  0
  151.7364  140.9774  160.4532 H   0  0  0  0  0  0  0  0  0  0  0  0
  153.5767  141.3826  158.1424 H   0  0  0  0  0  0  0  0  0  0  0  0
  151.0825  141.9657  155.9805 H   0  0  0  0  0  0  0  0  0  0  0  0
  152.7460  141.4642  156.1045 H   0  0  0  0  0  0  0  0  0  0  0  0
  148.8422  139.0908  152.6679 H   0  0  0  0  0  0  0  0  0  0  0  0
  149.3860  137.5005  152.7834 H   0  0  0  0  0  0  0  0  0  0  0  0
  1  2  1  0  0  0  0
  1 17  1  0  0  0  0
  1 18  1  0  0  0  0
  1 19  1  0  0  0  0
  2  3  1  0  0  0  0
  2 20  1  0  0  0  0
  2 21  1  0  0  0  0
  3  4  1  0  0  0  0
  3 22  1  0  0  0  0
  3 23  1  0  0  0  0
  4  5  1  0  0  0  0
  4 24  1  0  0  0  0
  4 25  1  0  0  0  0
  5  6  1  0  0  0  0
  5 26  1  0  0  0  0
  5 27  1  0  0  0  0
  6  7  1  0  0  0  0
  6 28  1  0  0  0  0
  7  8  2  0  0  0  0
  7  9  1  0  0  0  0
  9 10  1  0  0  0  0
  9 29  1  0  0  0  0
  9 30  1  0  0  0  0
 10 15  1  0  0  0  0
 10 11  1  0  0  0  0
 11 12  2  0  0  0  0
 12 13  1  0  0  0  0
 12 14  1  0  0  0  0
 13 31  1  0  0  0  0
 13 32  1  0  0  0  0
 14 15  1  0  0  0  0
 15 16  2  0  0  0  0
M  END
> <s_m_source_file>
AV-unprocessed.smi

> <i_m_source_file_index>
2755

> <i_lp_mmshare_version>
43012

> <i_f3d_flags>
0

> <s_epik_input>
W0NIM11bQ0gyXVtDSDJdW0NIMl1bQ0gyXVtOSF1DKD1PKVtDSDJdbjFuYyhbTkgyXSlzYzE9Tw==

> <s_epik_cmdline>
J2VwaWtfcHl0aG9uJywgJy1waCcsICc3LjAnLCAnLXRuJywgJzgnLCAnLW1hJywgJzIwMCcsICctbWV0YWxfYmluZGluZycsICctaW1hZScsICc8aW5maWxlLm1hZT4nLCAnLW9tYWUnLCAnPG91dGZpbGUubWFlPic=

> <r_lp_tautomer_probability>
1

> <r_epik_Ionization_Penalty>
4.62415e-07

> <r_epik_Ionization_Penalty_Charging>
1.84682e-08

> <r_epik_Ionization_Penalty_Neutral>
4.43947e-07

> <r_epik_State_Penalty>
-0

> <r_epik_Charging_Adjusted_Penalty>
1.84682e-08

> <i_epik_Tot_Q>
0

> <i_epik_Tot_abs_Q>
0

> <r_epik_Metal_State_Penalty>
-0

> <b_epik_Metal_Only>
0

> <s_lp_Force_Field>
OPLS_2005

> <r_lp_Energy>
7.41943

> <b_lp_Chiralities_Consistent>
1

> <s_lp_Variant>
AV-unprocessed.smi:2755-1

> <Gold.Version>
5.8.1

> <Gold.Id.Protein>
6NUR|6NUR_protein|mol2

> <Gold.PLP.Fitness>
43.0492

> <Gold.PLP.PLP>
-35.0187

> <Gold.PLP.part.hbond>
-4.0000

> <Gold.PLP.part.metal>
0.0000

> <Gold.PLP.part.buried>
-4.6857

> <Gold.PLP.part.nonpolar>
-26.3954

> <Gold.PLP.part.repulsive>
0.2581

> <Gold.PLP.ligand.clash>
0.0000

> <Gold.PLP.ligand.torsion>
0.2806

> <Gold.PLP.Chemscore.Hbond>
2.8560

> <Gold.PLP.Chemscore.CHOScore>
0.0000

> <Gold.PLP.Chemscore.Metal>
0.0000

> <Gold.Chemscore.Hbonds>
donor molecule, donor type, donor heavy atom, donor atom, acceptor molecule, acceptor atom, score
      L1  H    13    31       P1  7957  0.30
      L1  H    13    32       P1  7948  1.00
      P1  H  7989  7998       L1    11  0.60
      P1  H  7997  8009       L1    16  0.46

> <Gold.PLP.Chemscore.Internal.Correction>
0.0238

> <Gold.Rescore>
     Score         DG    S(hbond)    S(metal)    S(lipo)     H(rot)  DE(clash)    DE(int)     intcor
     11.96     -12.97       1.91        0.00      70.98       2.81       0.67       0.34       ----

> <Gold.Chemscore.Fitness>
11.9636

> <Gold.Chemscore.DG>
-12.9675

> <Gold.Chemscore.ZeroCoef>
-5.4800

> <Gold.Chemscore.Hbond>
1.9068

> <Gold.Chemscore.Metal>
0.0000

> <Gold.Chemscore.Lipo>
70.9774

> <Gold.Chemscore.Internal_Hbond>
0.0000

> <Gold.Chemscore.DEClash>
0.6686

> <Gold.Chemscore.DEInternal>
0.3353

> <Gold.Chemscore.Rot>
2.8069

> <Gold.Chemscore.Internal.Correction>
   9.000000E+99

> <Gold.Chemscore.Hbonds>
donor molecule, donor type, donor heavy atom, donor atom, acceptor molecule, acceptor atom, score
      L1  H    13    31       P1  7957  0.30
      L1  H    13    32       P1  7948  0.86
      P1  H  7989  7998       L1    11  0.02
      P1  H  7997  8009       L1    16  0.29

> <Gold.Chemscore.Hbond.Weighted>
-6.3688

> <Gold.Chemscore.Metal.Weighted>
-0.0000

> <Gold.Chemscore.Lipo.Weighted>
-8.3044

> <Gold.Chemscore.Internal_Hbond.Weighted>
0.0000

> <Gold.Chemscore.DEClash.Weighted>
0.6686

> <Gold.Chemscore.DEInternal.Weighted>
0.3353

> <Gold.Chemscore.Rot.Weighted>
7.1856

> <Gold.Chemscore.Internal.Correction.Weighted>
   9.000000E+99

> <Gold.Protein.RotatedTorsions>
[ 6907 6896 6895 6894 ] final  104.13 input  -60.11 | X-H torsion
[ 7974 7965 7964 7962 ] final  120.06 input  175.53 | X-H torsion
[ 8008 7997 7996 7995 ] final  175.35 input   59.86 | X-H torsion
[ 10167 10162 10161 10158 ] final  -67.89 input  -65.29 | X-H torsion
[ 10718 10713 10712 10709 ] final -122.01 input   66.30 | X-H torsion
[ 10763 10752 10751 10750 ] final  178.26 input  -60.55 | X-H torsion
[ 11005 11000 10999 10996 ] final   22.01 input  -57.11 | X-H torsion

> <Gold.Protein.ActiveResidues>
 VAL166  LYS551  ARG553  GLY616  TRP617  ASP618  TYR619  PRO620  LYS621  CYS622 
 ASP623  PHE694  ASN695  SER759  ASP760  ASP761  ALA762  ILE779  LEU786  VAL792 
 PHE793  MET794  SER795  GLU796  ALA797  LYS798  CYS799  TRP800  GLU811  SER814 

> <Gold.Protein.RotatedAtoms>
  152.5274  133.9722  159.7766 H   0  0  0  0  0  0  0  0  0  0  0  0  # atno 6907 bound_to 6896
  150.9992  133.6065  159.2704 H   0  0  0  0  0  0  0  0  0  0  0  0  # atno 6908 bound_to 6896
  151.3180  135.0818  159.9349 H   0  0  0  0  0  0  0  0  0  0  0  0  # atno 6909 bound_to 6896
  145.1356  139.3300  143.4642 H   0  0  0  0  0  0  0  0  0  0  0  0  # atno 7974 bound_to 7965
  156.0880  140.1411  156.9629 H   0  0  0  0  0  0  0  0  0  0  0  0  # atno 8008 bound_to 7997
  154.4624  140.0938  156.6978 H   0  0  0  0  0  0  0  0  0  0  0  0  # atno 8009 bound_to 7997
  155.4967  140.3449  155.4366 H   0  0  0  0  0  0  0  0  0  0  0  0  # atno 8010 bound_to 7997
  140.5548  143.2312  151.6841 H   0  0  0  0  0  0  0  0  0  0  0  0  # atno 10167 bound_to 10162
  156.1384  130.6447  150.9732 H   0  0  0  0  0  0  0  0  0  0  0  0  # atno 10718 bound_to 10713
  154.5054  135.2785  155.1387 H   0  0  0  0  0  0  0  0  0  0  0  0  # atno 10763 bound_to 10752
  154.3003  135.6249  153.5426 H   0  0  0  0  0  0  0  0  0  0  0  0  # atno 10764 bound_to 10752
  152.9909  135.5695  154.5506 H   0  0  0  0  0  0  0  0  0  0  0  0  # atno 10765 bound_to 10752
  140.3853  134.1877  155.7663 H   0  0  0  0  0  0  0  0  0  0  0  0  # atno 11005 bound_to 11000
  146.3510  140.1373  142.8595 LP  0  0  0  0  0  0  0  0  0  0  0  0  # atno 17320 bound_to 7965
  145.0587  140.9072  143.4951 LP  0  0  0  0  0  0  0  0  0  0  0  0  # atno 17321 bound_to 7965
  139.5043  144.3758  152.0425 LP  0  0  0  0  0  0  0  0  0  0  0  0  # atno 17342 bound_to 10162
  140.2879  144.3787  150.6098 LP  0  0  0  0  0  0  0  0  0  0  0  0  # atno 17343 bound_to 10162
  157.6553  131.0890  150.7960 LP  0  0  0  0  0  0  0  0  0  0  0  0  # atno 17370 bound_to 10713
  156.8038  130.4930  149.5366 LP  0  0  0  0  0  0  0  0  0  0  0  0  # atno 17371 bound_to 10713
  141.1909  133.8206  157.0898 LP  0  0  0  0  0  0  0  0  0  0  0  0  # atno 17394 bound_to 11000
  140.0447  134.9836  157.1027 LP  0  0  0  0  0  0  0  0  0  0  0  0  # atno 17395 bound_to 11000

$$$$
