AV-unprocessed.smi:2032|AV-procd|sdf|8257|dock7
  -GOLD-   2272010533D 1   1.00000     0.00000
 Structure written by MMmdl.
 42 43  0  0  0  0  0  0  0  0  3 V2000
  152.7448  138.5316  154.5857 C   0  0  0  0  0  0  0  0  0  0  0  0
  151.5461  137.5965  154.3901 C   0  0  2  0  0  0  0  0  0  0  0  0
  150.2046  138.3464  154.4836 C   0  0  0  0  0  0  0  0  0  0  0  0
  149.0446  137.4184  154.3678 N   0  3  2  0  0  0  0  0  0  0  0  0
  147.7152  138.1144  154.4324 C   0  0  1  0  0  0  0  0  0  0  0  0
  147.5516  139.1348  153.2781 C   0  0  0  0  0  0  0  0  0  0  0  0
  146.5263  137.1173  154.4368 C   0  0  0  0  0  0  0  0  0  0  0  0
  146.4852  136.3016  153.2286 N   0  0  0  0  0  0  0  0  0  0  0  0
  145.4595  135.5272  152.8533 C   0  0  0  0  0  0  0  0  0  0  0  0
  144.4467  135.4682  153.5541 O   0  0  0  0  0  0  0  0  0  0  0  0
  145.6726  134.8732  151.6895 N   0  5  0  0  0  0  0  0  0  0  0  0
  145.0141  133.7321  151.4290 C   0  0  0  0  0  0  0  0  0  0  0  0
  143.7260  133.7005  151.0690 N   0  0  0  0  0  0  0  0  0  0  0  0
  143.2408  132.4088  150.8560 C   0  0  0  0  0  0  0  0  0  0  0  0
  144.1792  131.4338  151.0670 C   0  0  0  0  0  0  0  0  0  0  0  0
  145.7096  132.1128  151.5426 S   0  0  0  0  0  0  0  0  0  0  0  0
  149.1970  136.3073  155.3494 C   0  0  0  0  0  0  0  0  0  0  0  0
  150.5748  135.6282  155.2346 C   0  0  2  0  0  0  0  0  0  0  0  0
  150.7749  134.5447  156.3004 C   0  0  0  0  0  0  0  0  0  0  0  0
  151.5940  136.6021  155.4022 O   0  0  0  0  0  0  0  0  0  0  0  0
  152.7632  139.3122  153.8249 H   0  0  0  0  0  0  0  0  0  0  0  0
  153.6834  137.9812  154.5177 H   0  0  0  0  0  0  0  0  0  0  0  0
  152.7137  139.0161  155.5620 H   0  0  0  0  0  0  0  0  0  0  0  0
  151.6356  137.1222  153.4109 H   0  0  0  0  0  0  0  0  0  0  0  0
  150.1409  138.8889  155.4285 H   0  0  0  0  0  0  0  0  0  0  0  0
  150.1935  139.0854  153.6850 H   0  0  0  0  0  0  0  0  0  0  0  0
  147.6816  138.6678  155.3725 H   0  0  0  0  0  0  0  0  0  0  0  0
  146.5615  139.5895  153.2649 H   0  0  0  0  0  0  0  0  0  0  0  0
  147.7036  138.6608  152.3079 H   0  0  0  0  0  0  0  0  0  0  0  0
  148.2438  139.9710  153.3614 H   0  0  0  0  0  0  0  0  0  0  0  0
  146.5823  136.4715  155.3148 H   0  0  0  0  0  0  0  0  0  0  0  0
  145.5695  137.6366  154.4713 H   0  0  0  0  0  0  0  0  0  0  0  0
  147.2960  136.3227  152.6277 H   0  0  0  0  0  0  0  0  0  0  0  0
  142.2115  132.2759  150.5577 H   0  0  0  0  0  0  0  0  0  0  0  0
  144.0653  130.3644  150.9742 H   0  0  0  0  0  0  0  0  0  0  0  0
  149.0467  136.6925  156.3593 H   0  0  0  0  0  0  0  0  0  0  0  0
  148.4503  135.5340  155.1798 H   0  0  0  0  0  0  0  0  0  0  0  0
  150.6751  135.1660  154.2508 H   0  0  0  0  0  0  0  0  0  0  0  0
  150.0233  133.7600  156.2099 H   0  0  0  0  0  0  0  0  0  0  0  0
  150.7046  134.9610  157.3056 H   0  0  0  0  0  0  0  0  0  0  0  0
  151.7552  134.0776  156.2020 H   0  0  0  0  0  0  0  0  0  0  0  0
  149.1021  136.9974  153.4515 H   0  0  0  0  0  0  0  0  0  0  0  0
  1  2  1  0  0  0  0
  1 21  1  0  0  0  0
  1 22  1  0  0  0  0
  1 23  1  0  0  0  0
  2 20  1  0  0  0  0
  2  3  1  0  0  0  0
  2 24  1  0  0  0  0
  3  4  1  0  0  0  0
  3 25  1  0  0  0  0
  3 26  1  0  0  0  0
  4  5  1  0  0  0  0
  4 17  1  0  0  0  0
  4 42  1  0  0  0  0
  5  6  1  0  0  0  0
  5  7  1  0  0  0  0
  5 27  1  0  0  0  0
  6 28  1  0  0  0  0
  6 29  1  0  0  0  0
  6 30  1  0  0  0  0
  7  8  1  0  0  0  0
  7 31  1  0  0  0  0
  7 32  1  0  0  0  0
  8  9  1  0  0  0  0
  8 33  1  0  0  0  0
  9 10  2  0  0  0  0
  9 11  1  0  0  0  0
 11 12  1  0  0  0  0
 12 16  1  0  0  0  0
 12 13  2  0  0  0  0
 13 14  1  0  0  0  0
 14 15  2  0  0  0  0
 14 34  1  0  0  0  0
 15 16  1  0  0  0  0
 15 35  1  0  0  0  0
 17 18  1  0  0  0  0
 17 36  1  0  0  0  0
 17 37  1  0  0  0  0
 18 19  1  0  0  0  0
 18 20  1  0  0  0  0
 18 38  1  0  0  0  0
 19 39  1  0  0  0  0
 19 40  1  0  0  0  0
 19 41  1  0  0  0  0
M  CHG  1   4   1
M  CHG  1  11  -1
M  END
> <s_m_source_file>
AV-unprocessed.smi

> <i_m_source_file_index>
2032

> <i_lp_mmshare_version>
43012

> <i_f3d_flags>
0

> <s_epik_input>
W0NIM11bQ0BASF0xW0NIMl1OKFtDSDJdW0NASF0oTzEpW0NIM10pW0NASF0oW0NIM10pW0NIMl1bTkhdQyg9TylbTkhdYzJuW2NIXVtjSF1zMg==

> <s_epik_cmdline>
J2VwaWtfcHl0aG9uJywgJy1waCcsICc3LjAnLCAnLXRuJywgJzgnLCAnLW1hJywgJzIwMCcsICctbWV0YWxfYmluZGluZycsICctaW1hZScsICc8aW5maWxlLm1hZT4nLCAnLW9tYWUnLCAnPG91dGZpbGUubWFlPic=

> <r_lp_tautomer_probability>
0.999

> <r_epik_Ionization_Penalty>
6.71699

> <r_epik_Ionization_Penalty_Charging>
5.88592

> <r_epik_Ionization_Penalty_Neutral>
0.831074

> <r_epik_State_Penalty>
6.08365

> <r_epik_Charging_Adjusted_Penalty>
11.9696

> <i_epik_Tot_Q>
0

> <i_epik_Tot_abs_Q>
2

> <r_epik_Metal_State_Penalty>
2.0947

> <b_epik_Metal_Only>
1

> <s_lp_Force_Field>
OPLS_2005

> <r_lp_Energy>
10.3148

> <b_lp_Chiralities_Consistent>
1

> <s_lp_Variant>
AV-unprocessed.smi:2032-27

> <Gold.Version>
5.8.1

> <Gold.Id.Protein>
6NUR|6NUR_protein|mol2

> <Gold.PLP.Fitness>
45.8002

> <Gold.PLP.PLP>
-30.9225

> <Gold.PLP.part.hbond>
-3.0000

> <Gold.PLP.part.metal>
0.0000

> <Gold.PLP.part.buried>
-4.9754

> <Gold.PLP.part.nonpolar>
-25.5489

> <Gold.PLP.part.repulsive>
0.4922

> <Gold.PLP.ligand.clash>
0.0000

> <Gold.PLP.ligand.torsion>
0.9583

> <Gold.PLP.Chemscore.Hbond>
3.9424

> <Gold.PLP.Chemscore.CHOScore>
1.6254

> <Gold.PLP.Chemscore.Metal>
0.0000

> <Gold.Chemscore.Hbonds>
donor molecule, donor type, donor heavy atom, donor atom, acceptor molecule, acceptor atom, score
      L1  H     4    42       P1  7948  2.00
      L1  H     8    33       P1  7948  1.00
      P1  H 10752 10763       L1    20  0.93
      L1  C    14    34       P1 10186  0.52
      L1  C    14    34       P1 10952  0.92

> <Gold.PLP.Chemscore.Internal.Correction>
0.0909

> <Gold.Rescore>
     Score         DG    S(hbond)    S(metal)    S(lipo)     H(rot)  DE(clash)    DE(int)     intcor
     16.41     -17.37       2.10        0.00      76.32       1.58       0.04       0.92       ----

> <Gold.Chemscore.Fitness>
16.4076

> <Gold.Chemscore.DG>
-17.3734

> <Gold.Chemscore.ZeroCoef>
-5.4800

> <Gold.Chemscore.Hbond>
2.0977

> <Gold.Chemscore.Metal>
0.0000

> <Gold.Chemscore.Lipo>
76.3207

> <Gold.Chemscore.Internal_Hbond>
0.0000

> <Gold.Chemscore.DEClash>
0.0429

> <Gold.Chemscore.DEInternal>
0.9228

> <Gold.Chemscore.Rot>
1.5791

> <Gold.Chemscore.Internal.Correction>
   9.000000E+99

> <Gold.Chemscore.Hbonds>
donor molecule, donor type, donor heavy atom, donor atom, acceptor molecule, acceptor atom, score
      L1  H     4    42       P1  7948  1.00
      L1  H     8    33       P1  7948  1.00
      P1  H 10752 10763       L1    20  0.12

> <Gold.Chemscore.Hbond.Weighted>
-7.0064

> <Gold.Chemscore.Metal.Weighted>
-0.0000

> <Gold.Chemscore.Lipo.Weighted>
-8.9295

> <Gold.Chemscore.Internal_Hbond.Weighted>
0.0000

> <Gold.Chemscore.DEClash.Weighted>
0.0429

> <Gold.Chemscore.DEInternal.Weighted>
0.9228

> <Gold.Chemscore.Rot.Weighted>
4.0425

> <Gold.Chemscore.Internal.Correction.Weighted>
   9.000000E+99

> <Gold.Protein.RotatedTorsions>
[ 6907 6896 6895 6894 ] final  104.12 input  -60.11 | X-H torsion
[ 7974 7965 7964 7962 ] final   79.88 input  175.53 | X-H torsion
[ 8008 7997 7996 7995 ] final  -66.25 input   59.86 | X-H torsion
[ 10167 10162 10161 10158 ] final -163.62 input  -65.29 | X-H torsion
[ 10718 10713 10712 10709 ] final  -98.05 input   66.30 | X-H torsion
[ 10763 10752 10751 10750 ] final   88.71 input  -60.55 | X-H torsion
[ 11005 11000 10999 10996 ] final  -47.33 input  -57.11 | X-H torsion

> <Gold.Protein.ActiveResidues>
 VAL166  LYS551  ARG553  GLY616  TRP617  ASP618  TYR619  PRO620  LYS621  CYS622 
 ASP623  PHE694  ASN695  SER759  ASP760  ASP761  ALA762  ILE779  LEU786  VAL792 
 PHE793  MET794  SER795  GLU796  ALA797  LYS798  CYS799  TRP800  GLU811  SER814 

> <Gold.Protein.RotatedAtoms>
  152.5274  133.9724  159.7768 H   0  0  0  0  0  0  0  0  0  0  0  0  # atno 6907 bound_to 6896
  150.9994  133.6063  159.2704 H   0  0  0  0  0  0  0  0  0  0  0  0  # atno 6908 bound_to 6896
  151.3178  135.0817  159.9348 H   0  0  0  0  0  0  0  0  0  0  0  0  # atno 6909 bound_to 6896
  145.6584  139.2465  143.1936 H   0  0  0  0  0  0  0  0  0  0  0  0  # atno 7974 bound_to 7965
  154.4722  140.0916  156.7174 H   0  0  0  0  0  0  0  0  0  0  0  0  # atno 8008 bound_to 7997
  155.4692  140.3464  155.4305 H   0  0  0  0  0  0  0  0  0  0  0  0  # atno 8009 bound_to 7997
  156.1058  140.1434  156.9394 H   0  0  0  0  0  0  0  0  0  0  0  0  # atno 8010 bound_to 7997
  139.6308  144.0444  152.2014 H   0  0  0  0  0  0  0  0  0  0  0  0  # atno 10167 bound_to 10162
  156.0098  130.5221  150.6465 H   0  0  0  0  0  0  0  0  0  0  0  0  # atno 10718 bound_to 10713
  153.1796  135.4497  155.0011 H   0  0  0  0  0  0  0  0  0  0  0  0  # atno 10763 bound_to 10752
  154.8021  135.3260  154.7526 H   0  0  0  0  0  0  0  0  0  0  0  0  # atno 10764 bound_to 10752
  153.7992  135.6964  153.4913 H   0  0  0  0  0  0  0  0  0  0  0  0  # atno 10765 bound_to 10752
  141.0634  133.6701  156.3282 H   0  0  0  0  0  0  0  0  0  0  0  0  # atno 11005 bound_to 11000
  146.1145  140.7386  142.9487 LP  0  0  0  0  0  0  0  0  0  0  0  0  # atno 17320 bound_to 7965
  144.7097  140.3993  143.7090 LP  0  0  0  0  0  0  0  0  0  0  0  0  # atno 17321 bound_to 7965
  140.0108  144.6225  150.7648 LP  0  0  0  0  0  0  0  0  0  0  0  0  # atno 17342 bound_to 10162
  140.7438  143.2851  151.3487 LP  0  0  0  0  0  0  0  0  0  0  0  0  # atno 17343 bound_to 10162
  157.4235  131.0840  151.1108 LP  0  0  0  0  0  0  0  0  0  0  0  0  # atno 17370 bound_to 10713
  157.1703  130.6264  149.5638 LP  0  0  0  0  0  0  0  0  0  0  0  0  # atno 17371 bound_to 10713
  140.5822  134.5734  157.5482 LP  0  0  0  0  0  0  0  0  0  0  0  0  # atno 17394 bound_to 11000
  139.9454  134.7712  156.0576 LP  0  0  0  0  0  0  0  0  0  0  0  0  # atno 17395 bound_to 11000

$$$$
