#       Name:                AV-unprocessed.smi:1570
#       Creating user name   scv26
#       Creation time:       Fri Mar 27 06:52:10 2020


#       File generated by GOLD software.
#

@<TRIPOS>MOLECULE
AV-unprocessed.smi:1570
    58    60     1
SMALL
NO_CHARGES


@<TRIPOS>ATOM
      1 ****        -1.8802   4.7647   1.4080 C.3            1 S1                 0.0000
      2 ****        -3.0786   3.8194   1.5580 C.3            1 S1                 0.0000
      3 ****        -2.9279   2.6361   0.7150 N.am           1 S1                 0.0000
      4 ****        -2.3352   1.4692   1.0611 C.2            1 S1                 0.0000
      5 ****        -1.8270   1.2114   2.1525 O.2            1 S1                 0.0000
      6 ****        -2.3888   0.6373  -0.0058 N.am           1 S1                 0.0000
      7 ****        -1.8692  -0.7279  -0.0702 C.3            1 S1                 0.0000
      8 ****        -0.3453  -0.7530  -0.3029 C.3            1 S1                 0.0000
      9 ****        -0.1105  -0.5786  -1.6860 O.3            1 S1                 0.0000
     10 ****         0.2588  -2.1159   0.0939 C.3            1 S1                 0.0000
     11 ****         1.7200  -2.1995   0.0472 N.3            1 S1                 0.0000
     12 ****         2.1611  -3.5844   0.1792 C.3            1 S1                 0.0000
     13 ****         3.6950  -3.7322   0.1419 C.3            1 S1                 0.0000
     14 ****         4.2937  -3.5361  -1.2614 C.3            1 S1                 0.0000
     15 ****         4.2967  -2.8633   1.1026 O.3            1 S1                 0.0000
     16 ****         3.9001  -1.4960   1.0168 C.3            1 S1                 0.0000
     17 ****         4.5760  -0.7316   2.1599 C.3            1 S1                 0.0000
     18 ****         2.3650  -1.3995   1.0851 C.3            1 S1                 0.0000
     19 ****        -3.0180   1.2973  -1.0710 C.ar           1 S1                 0.0000
     20 ****        -3.2990   0.8791  -2.3836 C.ar           1 S1                 0.0000
     21 ****        -3.9523   1.8040  -3.2314 C.ar           1 S1                 0.0000
     22 ****        -4.3013   3.0977  -2.7644 C.ar           1 S1                 0.0000
     23 ****        -4.0038   3.4944  -1.4396 C.ar           1 S1                 0.0000
     24 ****        -3.3568   2.5552  -0.6175 C.ar           1 S1                 0.0000
     25 ****        -2.0016   5.6464   2.0372 H              1 S1                 0.0000
     26 ****        -1.7716   5.1037   0.3774 H              1 S1                 0.0000
     27 ****        -0.9515   4.2734   1.7000 H              1 S1                 0.0000
     28 ****        -3.1854   3.5198   2.6017 H              1 S1                 0.0000
     29 ****        -4.0006   4.3401   1.2983 H              1 S1                 0.0000
     30 ****        -2.1004  -1.2087   0.8818 H              1 S1                 0.0000
     31 ****        -2.3943  -1.3140  -0.8254 H              1 S1                 0.0000
     32 ****         0.1252   0.0569   0.2528 H              1 S1                 0.0000
     33 ****         0.8215  -0.6286  -1.8364 H              1 S1                 0.0000
     34 ****        -0.0752  -2.3767   1.0994 H              1 S1                 0.0000
     35 ****        -0.1674  -2.8766  -0.5625 H              1 S1                 0.0000
     36 ****         1.7934  -3.9912   1.1228 H              1 S1                 0.0000
     37 ****         1.7188  -4.1946  -0.6093 H              1 S1                 0.0000
     38 ****         3.9406  -4.7479   0.4526 H              1 S1                 0.0000
     39 ****         3.9043  -4.2808  -1.9559 H              1 S1                 0.0000
     40 ****         5.3785  -3.6408  -1.2391 H              1 S1                 0.0000
     41 ****         4.0609  -2.5546  -1.6737 H              1 S1                 0.0000
     42 ****         4.2484  -1.0770   0.0723 H              1 S1                 0.0000
     43 ****         4.3162   0.3268   2.1317 H              1 S1                 0.0000
     44 ****         5.6614  -0.8088   2.0921 H              1 S1                 0.0000
     45 ****         4.2740  -1.1253   3.1308 H              1 S1                 0.0000
     46 ****         2.0849  -0.3518   0.9881 H              1 S1                 0.0000
     47 ****         2.0214  -1.7248   2.0684 H              1 S1                 0.0000
     48 ****        -3.0263  -0.1042  -2.7367 H              1 S1                 0.0000
     49 ****        -4.1861   1.5223  -4.2476 H              1 S1                 0.0000
     50 ****        -4.7983   3.7889  -3.4291 H              1 S1                 0.0000
     51 ****        -4.2630   4.4793  -1.0805 H              1 S1                 0.0000
     52 ****        -1.8296   1.8977   2.8799 LP             1 S1                 0.0000
     53 ****        -1.4117   0.3158   2.3116 LP             1 S1                 0.0000
     54 ****        -0.4529   0.3147  -1.9774 LP             1 S1                 0.0000
     55 ****        -0.5756  -1.2982  -2.2016 LP             1 S1                 0.0000
     56 ****         1.9913  -1.8320  -0.8424 LP             1 S1                 0.0000
     57 ****         5.2883  -2.9061   0.9803 LP             1 S1                 0.0000
     58 ****         4.0586  -3.1979   2.0144 LP             1 S1                 0.0000
@<TRIPOS>BOND
    1    1    2 1     
    2    1   25 1     
    3    1   26 1     
    4    1   27 1     
    5    2    3 1     
    6    2   28 1     
    7    2   29 1     
    8    3   24 1     
    9    3    4 am    
   10    4    5 2     
   11    4    6 am    
   12    6    7 1     
   13    6   19 1     
   14    7    8 1     
   15    7   30 1     
   16    7   31 1     
   17    8    9 1     
   18    8   10 1     
   19    8   32 1     
   20    9   33 1     
   21   10   11 1     
   22   10   34 1     
   23   10   35 1     
   24   11   18 1     
   25   11   12 1     
   26   12   13 1     
   27   12   36 1     
   28   12   37 1     
   29   13   14 1     
   30   13   15 1     
   31   13   38 1     
   32   14   39 1     
   33   14   40 1     
   34   14   41 1     
   35   15   16 1     
   36   16   17 1     
   37   16   18 1     
   38   16   42 1     
   39   17   43 1     
   40   17   44 1     
   41   17   45 1     
   42   18   46 1     
   43   18   47 1     
   44   19   24 ar    
   45   19   20 ar    
   46   20   21 ar    
   47   20   48 1     
   48   21   22 ar    
   49   21   49 1     
   50   22   23 ar    
   51   22   50 1     
   52   23   24 ar    
   53   23   51 1     
   54    5   52 1     
   55    5   53 1     
   56    9   54 1     
   57    9   55 1     
   58   11   56 1     
   59   15   57 1     
   60   15   58 1     
@<TRIPOS>SUBSTRUCTURE
      1 S1             1
@<TRIPOS>SET
LONE_PAIRS      STATIC     ATOMS    <user>   **** ""
7 52 53 54 55 56 57 58
DONOR_HYDROGENS      STATIC     ATOMS    <user>   **** ""
1 33
ATOM$BLUE        STATIC     ATOMS    COLORGROUP SYSTEM
7 52 53 54 55 56 57 58
ATOM$RED        STATIC     ATOMS    COLORGROUP SYSTEM
1 33
