#       Name:                AV-unprocessed.smi:653
#       Creating user name   scv26
#       Creation time:       Fri Mar 27 00:14:26 2020


#       File generated by GOLD software.
#

@<TRIPOS>MOLECULE
AV-unprocessed.smi:653
    49    50     1
SMALL
NO_CHARGES


@<TRIPOS>ATOM
      1 ****        -4.7760   2.1218  -4.6531 C.3            1 S1                 0.0000
      2 ****        -4.2892   1.7042  -3.2811 C.ar           1 S1                 0.0000
      3 ****        -4.0937   2.6599  -2.2619 C.ar           1 S1                 0.0000
      4 ****        -3.6403   2.2165  -1.0047 C.ar           1 S1                 0.0000
      5 ****        -3.4001   0.8398  -0.8150 C.ar           1 S1                 0.0000
      6 ****        -2.9015   0.3124   0.5187 C.3            1 S1                 0.0000
      7 ****        -1.3845   0.4736   0.6251 C.2            1 S1                 0.0000
      8 ****        -0.9064   1.3113   1.3896 O.2            1 S1                 0.0000
      9 ****        -0.6402  -0.3356  -0.1449 N.am           1 S1                 0.0000
     10 ****         0.8171  -0.3344  -0.2008 C.3            1 S1                 0.0000
     11 ****         1.4438  -1.0747   0.9972 C.3            1 S1                 0.0000
     12 ****         1.0650  -2.5399   1.0961 C.3            1 S1                 0.0000
     13 ****         2.1556  -3.0774   2.0149 C.3            1 S1                 0.0000
     14 ****         3.3248  -2.3325   1.6918 O.3            1 S1                 0.0000
     15 ****         2.9761  -1.1696   0.9416 C.3            1 S1                 0.0000
     16 ****         3.7530   0.0716   1.4373 C.3            1 S1                 0.0000
     17 ****         5.2428  -0.0362   1.0758 C.3            1 S1                 0.0000
     18 ****         3.5802   0.3415   2.9433 C.3            1 S1                 0.0000
     19 ****        -3.6313  -0.0334  -1.8992 C.ar           1 S1                 0.0000
     20 ****        -4.0650   0.3828  -3.1081 N.ar           1 S1                 0.0000
     21 ****        -4.6769   3.1983  -4.7948 H              1 S1                 0.0000
     22 ****        -5.8258   1.8552  -4.7772 H              1 S1                 0.0000
     23 ****        -4.1997   1.6241  -5.4338 H              1 S1                 0.0000
     24 ****        -4.2843   3.7086  -2.4368 H              1 S1                 0.0000
     25 ****        -3.4757   2.9215  -0.2029 H              1 S1                 0.0000
     26 ****        -3.3908   0.8510   1.3315 H              1 S1                 0.0000
     27 ****        -3.1681  -0.7393   0.6314 H              1 S1                 0.0000
     28 ****        -1.1192  -0.9932  -0.7433 H              1 S1                 0.0000
     29 ****         1.1179  -0.8078  -1.1359 H              1 S1                 0.0000
     30 ****         1.1825   0.6927  -0.2463 H              1 S1                 0.0000
     31 ****         1.1359  -0.5896   1.9229 H              1 S1                 0.0000
     32 ****         0.0618  -2.6997   1.4923 H              1 S1                 0.0000
     33 ****         1.1288  -3.0196   0.1184 H              1 S1                 0.0000
     34 ****         1.9009  -2.8868   3.0581 H              1 S1                 0.0000
     35 ****         2.3163  -4.1489   1.8943 H              1 S1                 0.0000
     36 ****         3.2612  -1.3770  -0.0914 H              1 S1                 0.0000
     37 ****         3.3632   0.9393   0.9038 H              1 S1                 0.0000
     38 ****         5.7120  -0.8838   1.5764 H              1 S1                 0.0000
     39 ****         5.7847   0.8638   1.3677 H              1 S1                 0.0000
     40 ****         5.3803  -0.1663   0.0020 H              1 S1                 0.0000
     41 ****         3.9209  -0.5043   3.5414 H              1 S1                 0.0000
     42 ****         2.5425   0.5412   3.2072 H              1 S1                 0.0000
     43 ****         4.1582   1.2135   3.2499 H              1 S1                 0.0000
     44 ****        -3.4581  -1.0947  -1.7968 H              1 S1                 0.0000
     45 ****        -1.5099   1.8868   1.9414 LP             1 S1                 0.0000
     46 ****         0.0857   1.4165   1.4589 LP             1 S1                 0.0000
     47 ****         3.9408  -2.9034   1.1490 LP             1 S1                 0.0000
     48 ****         3.7840  -2.0557   2.5359 LP             1 S1                 0.0000
     49 ****        -4.2158  -0.2671  -3.8530 LP             1 S1                 0.0000
@<TRIPOS>BOND
    1    1    2 1     
    2    1   21 1     
    3    1   22 1     
    4    1   23 1     
    5    2   20 ar    
    6    2    3 ar    
    7    3    4 ar    
    8    3   24 1     
    9    4    5 ar    
   10    4   25 1     
   11    5    6 1     
   12    5   19 ar    
   13    6    7 1     
   14    6   26 1     
   15    6   27 1     
   16    7    8 2     
   17    7    9 am    
   18    9   10 1     
   19    9   28 1     
   20   10   11 1     
   21   10   29 1     
   22   10   30 1     
   23   11   15 1     
   24   11   12 1     
   25   11   31 1     
   26   12   13 1     
   27   12   32 1     
   28   12   33 1     
   29   13   14 1     
   30   13   34 1     
   31   13   35 1     
   32   14   15 1     
   33   15   16 1     
   34   15   36 1     
   35   16   17 1     
   36   16   18 1     
   37   16   37 1     
   38   17   38 1     
   39   17   39 1     
   40   17   40 1     
   41   18   41 1     
   42   18   42 1     
   43   18   43 1     
   44   19   20 ar    
   45   19   44 1     
   46    8   45 1     
   47    8   46 1     
   48   14   47 1     
   49   14   48 1     
   50   20   49 1     
@<TRIPOS>SUBSTRUCTURE
      1 S1             1
@<TRIPOS>SET
LONE_PAIRS      STATIC     ATOMS    <user>   **** ""
5 45 46 47 48 49
DONOR_HYDROGENS      STATIC     ATOMS    <user>   **** ""
1 28
ATOM$BLUE        STATIC     ATOMS    COLORGROUP SYSTEM
5 45 46 47 48 49
ATOM$RED        STATIC     ATOMS    COLORGROUP SYSTEM
1 28
