AV-unprocessed.smi:2033|AV-procd|sdf|8261|dock9
  -GOLD-   2272010533D 1   1.00000     0.00000
 Structure written by MMmdl.
 32 33  0  0  0  0  0  0  0  0  2 V2000
  152.4650  143.8127  161.5768 C   0  0  0  0  0  0  0  0  0  0  0  0
  152.1108  143.2321  160.2509 C   0  0  0  0  0  0  0  0  0  0  0  0
  152.2246  141.9298  159.9788 N   0  0  0  0  0  0  0  0  0  0  0  0
  151.8337  141.6309  158.6814 N   0  0  0  0  0  0  0  0  0  0  0  0
  151.4204  142.7063  157.9959 C   0  0  0  0  0  0  0  0  0  0  0  0
  151.0018  142.6326  156.7216 N   0  5  0  0  0  0  0  0  0  0  0  0
  150.3228  141.5427  156.2963 C   0  0  0  0  0  0  0  0  0  0  0  0
  150.5015  140.3801  156.6675 O   0  0  0  0  0  0  0  0  0  0  0  0
  149.3766  141.8168  155.3849 N   0  0  0  0  0  0  0  0  0  0  0  0
  148.4747  140.8505  154.7540 C   0  0  2  0  0  0  0  0  0  0  0  0
  147.5693  140.2465  155.8567 C   0  0  0  0  0  0  0  0  0  0  0  0
  146.8177  138.9462  155.4920 C   0  0  0  0  0  0  0  0  0  0  0  0
  146.1649  138.9359  154.0944 C   0  0  0  0  0  0  0  0  0  0  0  0
  147.1163  139.0917  152.8793 C   0  0  0  0  0  0  0  0  0  0  0  0
  148.5388  138.9420  153.1871 N   0  0  0  0  0  0  0  0  0  0  0  0
  149.2406  139.7224  154.0266 C   0  0  0  0  0  0  0  0  0  0  0  0
  150.4381  139.5268  154.2316 O   0  0  0  0  0  0  0  0  0  0  0  0
  151.5073  144.2053  158.9206 S   0  0  0  0  0  0  0  0  0  0  0  0
  151.6666  143.6190  162.2931 H   0  0  0  0  0  0  0  0  0  0  0  0
  152.6065  144.8903  161.4924 H   0  0  0  0  0  0  0  0  0  0  0  0
  153.3884  143.3688  161.9497 H   0  0  0  0  0  0  0  0  0  0  0  0
  149.2634  142.7832  155.1169 H   0  0  0  0  0  0  0  0  0  0  0  0
  147.8548  141.3886  154.0357 H   0  0  0  0  0  0  0  0  0  0  0  0
  148.1583  140.0506  156.7543 H   0  0  0  0  0  0  0  0  0  0  0  0
  146.8390  141.0033  156.1458 H   0  0  0  0  0  0  0  0  0  0  0  0
  147.4956  138.0957  155.5770 H   0  0  0  0  0  0  0  0  0  0  0  0
  146.0485  138.7678  156.2440 H   0  0  0  0  0  0  0  0  0  0  0  0
  145.6290  137.9921  153.9873 H   0  0  0  0  0  0  0  0  0  0  0  0
  145.3980  139.7098  154.0474 H   0  0  0  0  0  0  0  0  0  0  0  0
  146.8561  138.3560  152.1178 H   0  0  0  0  0  0  0  0  0  0  0  0
  146.9618  140.0625  152.4065 H   0  0  0  0  0  0  0  0  0  0  0  0
  149.0320  138.1962  152.7181 H   0  0  0  0  0  0  0  0  0  0  0  0
  1  2  1  0  0  0  0
  1 19  1  0  0  0  0
  1 20  1  0  0  0  0
  1 21  1  0  0  0  0
  2 18  1  0  0  0  0
  2  3  2  0  0  0  0
  3  4  1  0  0  0  0
  4  5  2  0  0  0  0
  5  6  1  0  0  0  0
  5 18  1  0  0  0  0
  6  7  1  0  0  0  0
  7  8  2  0  0  0  0
  7  9  1  0  0  0  0
  9 10  1  0  0  0  0
  9 22  1  0  0  0  0
 10 16  1  0  0  0  0
 10 11  1  0  0  0  0
 10 23  1  0  0  0  0
 11 12  1  0  0  0  0
 11 24  1  0  0  0  0
 11 25  1  0  0  0  0
 12 13  1  0  0  0  0
 12 26  1  0  0  0  0
 12 27  1  0  0  0  0
 13 14  1  0  0  0  0
 13 28  1  0  0  0  0
 13 29  1  0  0  0  0
 14 15  1  0  0  0  0
 14 30  1  0  0  0  0
 14 31  1  0  0  0  0
 15 16  1  0  0  0  0
 15 32  1  0  0  0  0
 16 17  2  0  0  0  0
M  CHG  1   6  -1
M  END
> <s_m_source_file>
AV-unprocessed.smi

> <i_m_source_file_index>
2033

> <i_lp_mmshare_version>
43012

> <i_f3d_flags>
0

> <s_epik_input>
W0NIM11jMW5uYyhzMSlbTkhdQyg9TylbTkhdW0NAQEhdMltDSDJdW0NIMl1bQ0gyXVtDSDJdW05IXUMyPU8=

> <s_epik_cmdline>
J2VwaWtfcHl0aG9uJywgJy1waCcsICc3LjAnLCAnLXRuJywgJzgnLCAnLW1hJywgJzIwMCcsICctbWV0YWxfYmluZGluZycsICctaW1hZScsICc8aW5maWxlLm1hZT4nLCAnLW9tYWUnLCAnPG91dGZpbGUubWFlPic=

> <r_lp_tautomer_probability>
1

> <r_epik_Ionization_Penalty>
4.07233

> <r_epik_Ionization_Penalty_Charging>
3.9374

> <r_epik_Ionization_Penalty_Neutral>
0.134927

> <r_epik_State_Penalty>
3.93663

> <r_epik_Charging_Adjusted_Penalty>
7.87404

> <i_epik_Tot_Q>
-1

> <i_epik_Tot_abs_Q>
1

> <r_epik_Metal_State_Penalty>
0.602812

> <b_epik_Metal_Only>
1

> <s_lp_Force_Field>
OPLS_2005

> <r_lp_Energy>
13.5644

> <b_lp_Chiralities_Consistent>
1

> <s_lp_Variant>
AV-unprocessed.smi:2033-3

> <Gold.Version>
5.8.1

> <Gold.Id.Protein>
6NUR|6NUR_protein|mol2

> <Gold.PLP.Fitness>
36.7919

> <Gold.PLP.PLP>
-29.4777

> <Gold.PLP.part.hbond>
-4.0000

> <Gold.PLP.part.metal>
0.0000

> <Gold.PLP.part.buried>
-4.2402

> <Gold.PLP.part.nonpolar>
-21.8016

> <Gold.PLP.part.repulsive>
0.5314

> <Gold.PLP.ligand.clash>
0.0000

> <Gold.PLP.ligand.torsion>
0.4961

> <Gold.PLP.Chemscore.Hbond>
2.7684

> <Gold.PLP.Chemscore.CHOScore>
0.0000

> <Gold.PLP.Chemscore.Metal>
0.0000

> <Gold.Chemscore.Hbonds>
donor molecule, donor type, donor heavy atom, donor atom, acceptor molecule, acceptor atom, score
      L1  H     9    22       P1  8028  0.97
      L1  H    15    32       P1  7948  0.78
      P1  H  7989  7998       L1    17  1.00

> <Gold.PLP.Chemscore.Internal.Correction>
0.0011

> <Gold.Rescore>
     Score         DG    S(hbond)    S(metal)    S(lipo)     H(rot)  DE(clash)    DE(int)     intcor
     11.14     -17.72       2.57        0.00      53.02       1.00       0.18       6.40       ----

> <Gold.Chemscore.Fitness>
11.1406

> <Gold.Chemscore.DG>
-17.7192

> <Gold.Chemscore.ZeroCoef>
-5.4800

> <Gold.Chemscore.Hbond>
2.5737

> <Gold.Chemscore.Metal>
0.0000

> <Gold.Chemscore.Lipo>
53.0190

> <Gold.Chemscore.Internal_Hbond>
0.0000

> <Gold.Chemscore.DEClash>
0.1762

> <Gold.Chemscore.DEInternal>
6.4024

> <Gold.Chemscore.Rot>
1.0000

> <Gold.Chemscore.Internal.Correction>
   9.000000E+99

> <Gold.Chemscore.Hbonds>
donor molecule, donor type, donor heavy atom, donor atom, acceptor molecule, acceptor atom, score
      L1  H     9    22       P1  8028  0.87
      L1  H    15    32       P1  7948  0.73
      P1  H  7989  7998       L1    17  0.90

> <Gold.Chemscore.Hbond.Weighted>
-8.5960

> <Gold.Chemscore.Metal.Weighted>
-0.0000

> <Gold.Chemscore.Lipo.Weighted>
-6.2032

> <Gold.Chemscore.Internal_Hbond.Weighted>
0.0000

> <Gold.Chemscore.DEClash.Weighted>
0.1762

> <Gold.Chemscore.DEInternal.Weighted>
6.4024

> <Gold.Chemscore.Rot.Weighted>
2.5600

> <Gold.Chemscore.Internal.Correction.Weighted>
   9.000000E+99

> <Gold.Protein.RotatedTorsions>
[ 6907 6896 6895 6894 ] final    8.92 input  -60.11 | X-H torsion
[ 7974 7965 7964 7962 ] final   27.11 input  175.53 | X-H torsion
[ 8008 7997 7996 7995 ] final -158.35 input   59.86 | X-H torsion
[ 10167 10162 10161 10158 ] final  173.51 input  -65.29 | X-H torsion
[ 10718 10713 10712 10709 ] final -156.16 input   66.30 | X-H torsion
[ 10763 10752 10751 10750 ] final   30.59 input  -60.55 | X-H torsion
[ 11005 11000 10999 10996 ] final  135.89 input  -57.11 | X-H torsion

> <Gold.Protein.ActiveResidues>
 VAL166  LYS551  ARG553  GLY616  TRP617  ASP618  TYR619  PRO620  LYS621  CYS622 
 ASP623  PHE694  ASN695  SER759  ASP760  ASP761  ALA762  ILE779  LEU786  VAL792 
 PHE793  MET794  SER795  GLU796  ALA797  LYS798  CYS799  TRP800  GLU811  SER814 

> <Gold.Protein.RotatedAtoms>
  151.7138  135.0907  160.0272 H   0  0  0  0  0  0  0  0  0  0  0  0  # atno 6907 bound_to 6896
  152.3645  133.6335  159.6048 H   0  0  0  0  0  0  0  0  0  0  0  0  # atno 6908 bound_to 6896
  150.7628  133.9286  159.3461 H   0  0  0  0  0  0  0  0  0  0  0  0  # atno 6909 bound_to 6896
  146.1802  139.7236  142.8906 H   0  0  0  0  0  0  0  0  0  0  0  0  # atno 7974 bound_to 7965
  155.7463  140.0820  157.2222 H   0  0  0  0  0  0  0  0  0  0  0  0  # atno 8008 bound_to 7997
  154.4016  140.1568  156.2728 H   0  0  0  0  0  0  0  0  0  0  0  0  # atno 8009 bound_to 7997
  155.8973  140.3412  155.6003 H   0  0  0  0  0  0  0  0  0  0  0  0  # atno 8010 bound_to 7997
  139.5111  144.3253  152.0164 H   0  0  0  0  0  0  0  0  0  0  0  0  # atno 10167 bound_to 10162
  156.5228  130.8485  151.2688 H   0  0  0  0  0  0  0  0  0  0  0  0  # atno 10718 bound_to 10713
  153.0363  135.6460  154.1068 H   0  0  0  0  0  0  0  0  0  0  0  0  # atno 10763 bound_to 10752
  154.0782  135.2875  155.3297 H   0  0  0  0  0  0  0  0  0  0  0  0  # atno 10764 bound_to 10752
  154.6548  135.5413  153.8010 H   0  0  0  0  0  0  0  0  0  0  0  0  # atno 10765 bound_to 10752
  140.0010  134.9478  157.0071 H   0  0  0  0  0  0  0  0  0  0  0  0  # atno 11005 bound_to 11000
  145.4099  141.0395  143.3023 LP  0  0  0  0  0  0  0  0  0  0  0  0  # atno 17320 bound_to 7965
  144.8302  139.5642  143.6947 LP  0  0  0  0  0  0  0  0  0  0  0  0  # atno 17321 bound_to 7965
  140.2693  144.3981  150.6157 LP  0  0  0  0  0  0  0  0  0  0  0  0  # atno 17342 bound_to 10162
  140.6100  143.2169  151.6905 LP  0  0  0  0  0  0  0  0  0  0  0  0  # atno 17343 bound_to 10162
  157.7434  130.9911  150.2591 LP  0  0  0  0  0  0  0  0  0  0  0  0  # atno 17370 bound_to 10713
  156.3133  130.3775  149.7641 LP  0  0  0  0  0  0  0  0  0  0  0  0  # atno 17371 bound_to 10713
  140.4729  134.1368  155.7205 LP  0  0  0  0  0  0  0  0  0  0  0  0  # atno 17394 bound_to 11000
  141.1641  133.8736  157.1764 LP  0  0  0  0  0  0  0  0  0  0  0  0  # atno 17395 bound_to 11000

$$$$
