AV-unprocessed.smi:261|AV-procd|sdf|1985|dock4
  -GOLD-   2262021163D 1   1.00000     0.00000
 Structure written by MMmdl.
 51 54  0  0  0  0  0  0  0  0  1 V2000
  153.2291  142.7396  160.0158 C   0  0  0  0  0  0  0  0  0  0  0  0
  152.1658  143.0609  159.1341 O   0  0  0  0  0  0  0  0  0  0  0  0
  152.0080  142.1270  158.0762 C   0  0  1  0  0  0  0  0  0  0  0  0
  151.7041  140.7076  158.5584 C   0  0  0  0  0  0  0  0  0  0  0  0
  150.9482  140.0538  157.3856 C   0  0  2  0  0  0  0  0  0  0  0  0
  151.8766  139.2041  156.5040 C   0  0  0  0  0  0  0  0  0  0  0  0
  152.5397  138.2150  157.1078 N   0  0  0  0  0  0  0  0  0  0  0  0
  152.0111  139.4415  155.3044 O   0  0  0  0  0  0  0  0  0  0  0  0
  150.4044  141.1802  156.6215 N   0  0  0  0  0  0  0  0  0  0  0  0
  149.1282  141.0728  156.1942 C   0  0  0  0  0  0  0  0  0  0  0  0
  148.1790  141.9247  156.6634 N   0  0  0  0  0  0  0  0  0  0  0  0
  146.9160  141.8114  156.2399 C   0  0  0  0  0  0  0  0  0  0  0  0
  146.4007  140.9371  155.3716 N   0  0  0  0  0  0  0  0  0  0  0  0
  147.3565  140.0845  154.9014 C   0  0  0  0  0  0  0  0  0  0  0  0
  148.7334  140.0842  155.2572 C   0  0  0  0  0  0  0  0  0  0  0  0
  149.4029  139.0726  154.5808 N   0  0  0  0  0  0  0  0  0  0  0  0
  148.4715  138.5034  153.8645 C   0  0  0  0  0  0  0  0  0  0  0  0
  147.2134  139.0478  153.9975 N   0  0  0  0  0  0  0  0  0  0  0  0
  145.9994  138.6159  153.3291 C   0  0  0  0  0  0  0  0  0  0  0  0
  146.2364  137.3984  152.4150 C   0  0  2  0  0  0  0  0  0  0  0  0
  146.8418  137.7987  151.2003 O   0  0  0  0  0  0  0  0  0  0  0  0
  144.9469  136.5987  152.1407 C   0  0  2  0  0  0  0  0  0  0  0  0
  144.2137  136.0433  153.3646 C   0  0  0  0  0  0  0  0  0  0  0  0
  143.4208  134.9153  152.7434 C   0  0  0  0  0  0  0  0  0  0  0  0
  144.4073  134.3697  151.7133 C   0  0  0  0  0  0  0  0  0  0  0  0
  145.1821  135.4855  151.2814 O   0  0  0  0  0  0  0  0  0  0  0  0
  150.7628  142.4420  157.2539 C   0  0  0  0  0  0  0  0  0  0  0  0
  152.8808  142.1258  157.4199 H   0  0  0  0  0  0  0  0  0  0  0  0
  150.1572  139.4107  157.7773 H   0  0  0  0  0  0  0  0  0  0  0  0
  153.3094  143.5084  160.7841 H   0  0  0  0  0  0  0  0  0  0  0  0
  154.1814  142.6954  159.4855 H   0  0  0  0  0  0  0  0  0  0  0  0
  153.0619  141.7851  160.5157 H   0  0  0  0  0  0  0  0  0  0  0  0
  152.6022  140.1646  158.8566 H   0  0  0  0  0  0  0  0  0  0  0  0
  151.0471  140.7497  159.4284 H   0  0  0  0  0  0  0  0  0  0  0  0
  153.1648  137.6275  156.5754 H   0  0  0  0  0  0  0  0  0  0  0  0
  152.4141  138.0601  158.0976 H   0  0  0  0  0  0  0  0  0  0  0  0
  146.2182  142.5230  156.6561 H   0  0  0  0  0  0  0  0  0  0  0  0
  148.6770  137.6624  153.2182 H   0  0  0  0  0  0  0  0  0  0  0  0
  145.2583  138.3755  154.0923 H   0  0  0  0  0  0  0  0  0  0  0  0
  145.5993  139.4548  152.7580 H   0  0  0  0  0  0  0  0  0  0  0  0
  146.9436  136.7292  152.9067 H   0  0  0  0  0  0  0  0  0  0  0  0
  146.1637  137.9015  150.5500 H   0  0  0  0  0  0  0  0  0  0  0  0
  144.2513  137.2467  151.6045 H   0  0  0  0  0  0  0  0  0  0  0  0
  144.9074  135.6377  154.1017 H   0  0  0  0  0  0  0  0  0  0  0  0
  143.5874  136.7865  153.8587 H   0  0  0  0  0  0  0  0  0  0  0  0
  143.1003  134.1653  153.4670 H   0  0  0  0  0  0  0  0  0  0  0  0
  142.5349  135.3104  152.2440 H   0  0  0  0  0  0  0  0  0  0  0  0
  145.0767  133.6440  152.1769 H   0  0  0  0  0  0  0  0  0  0  0  0
  143.9081  133.8823  150.8755 H   0  0  0  0  0  0  0  0  0  0  0  0
  149.9575  142.7930  157.9018 H   0  0  0  0  0  0  0  0  0  0  0  0
  150.9582  143.2150  156.5100 H   0  0  0  0  0  0  0  0  0  0  0  0
  1  2  1  0  0  0  0
  1 30  1  0  0  0  0
  1 31  1  0  0  0  0
  1 32  1  0  0  0  0
  2  3  1  0  0  0  0
  3 28  1  0  0  0  0
  3 27  1  0  0  0  0
  3  4  1  0  0  0  0
  4  5  1  0  0  0  0
  4 33  1  0  0  0  0
  4 34  1  0  0  0  0
  5 29  1  0  0  0  0
  5  6  1  0  0  0  0
  5  9  1  0  0  0  0
  6  7  1  0  0  0  0
  6  8  2  0  0  0  0
  7 35  1  0  0  0  0
  7 36  1  0  0  0  0
  9 10  1  0  0  0  0
  9 27  1  0  0  0  0
 10 15  1  0  0  0  0
 10 11  2  0  0  0  0
 11 12  1  0  0  0  0
 12 13  2  0  0  0  0
 12 37  1  0  0  0  0
 13 14  1  0  0  0  0
 14 18  1  0  0  0  0
 14 15  2  0  0  0  0
 15 16  1  0  0  0  0
 16 17  2  0  0  0  0
 17 18  1  0  0  0  0
 17 38  1  0  0  0  0
 18 19  1  0  0  0  0
 19 20  1  0  0  0  0
 19 39  1  0  0  0  0
 19 40  1  0  0  0  0
 20 21  1  0  0  0  0
 20 22  1  0  0  0  0
 20 41  1  0  0  0  0
 21 42  1  0  0  0  0
 22 26  1  0  0  0  0
 22 23  1  0  0  0  0
 22 43  1  0  0  0  0
 23 24  1  0  0  0  0
 23 44  1  0  0  0  0
 23 45  1  0  0  0  0
 24 25  1  0  0  0  0
 24 46  1  0  0  0  0
 24 47  1  0  0  0  0
 25 26  1  0  0  0  0
 25 48  1  0  0  0  0
 25 49  1  0  0  0  0
 27 50  1  0  0  0  0
 27 51  1  0  0  0  0
M  END
> <s_m_source_file>
AV-unprocessed.smi

> <i_m_source_file_index>
261

> <i_lp_mmshare_version>
43012

> <i_f3d_flags>
0

> <s_epik_input>
W0NIM11PW0NASF0xW0NIMl1bQ0BASF0oQyg9TylbTkgyXSlOKFtDSDJdMSljKG5bY0hdbjIpYyhjMjMpbltjSF1uM1tDSDJdW0NASF0oW09IXSlbQ0BASF00W0NIMl1bQ0gyXVtDSDJdTzQ=

> <s_epik_cmdline>
J2VwaWtfcHl0aG9uJywgJy1waCcsICc3LjAnLCAnLXRuJywgJzgnLCAnLW1hJywgJzIwMCcsICctbWV0YWxfYmluZGluZycsICctaW1hZScsICc8aW5maWxlLm1hZT4nLCAnLW9tYWUnLCAnPG91dGZpbGUubWFlPic=

> <r_lp_tautomer_probability>
1

> <r_epik_Ionization_Penalty>
0.000713824

> <r_epik_Ionization_Penalty_Charging>
0

> <r_epik_Ionization_Penalty_Neutral>
0.000713824

> <r_epik_State_Penalty>
0.000402132

> <r_epik_Charging_Adjusted_Penalty>
0.000402132

> <i_epik_Tot_Q>
0

> <i_epik_Tot_abs_Q>
0

> <r_epik_Metal_State_Penalty>
-0

> <b_epik_Metal_Only>
0

> <s_lp_Force_Field>
OPLS_2005

> <r_lp_Energy>
48.1487

> <b_lp_Chiralities_Consistent>
1

> <s_lp_Variant>
AV-unprocessed.smi:261-3

> <Gold.Version>
5.8.1

> <Gold.Id.Protein>
6NUR|6NUR_protein|mol2

> <Gold.PLP.Fitness>
43.3453

> <Gold.PLP.PLP>
-31.1854

> <Gold.PLP.part.hbond>
-2.8936

> <Gold.PLP.part.metal>
0.0000

> <Gold.PLP.part.buried>
-1.4640

> <Gold.PLP.part.nonpolar>
-28.0707

> <Gold.PLP.part.repulsive>
1.3354

> <Gold.PLP.ligand.clash>
0.0000

> <Gold.PLP.ligand.torsion>
0.5012

> <Gold.PLP.Chemscore.Hbond>
2.8800

> <Gold.PLP.Chemscore.CHOScore>
1.3951

> <Gold.PLP.Chemscore.Metal>
0.0000

> <Gold.Chemscore.Hbonds>
donor molecule, donor type, donor heavy atom, donor atom, acceptor molecule, acceptor atom, score
      P1  H  7954  7966       L1    21  0.55
      P1  H  7989  7998       L1     8  0.26
      L1  C    17    38       P1  7948  0.86

> <Gold.PLP.Chemscore.Internal.Correction>
0.3369

> <Gold.Rescore>
     Score         DG    S(hbond)    S(metal)    S(lipo)     H(rot)  DE(clash)    DE(int)     intcor
      8.69     -12.63       2.48        0.00      68.51       3.57       1.67       2.27       ----

> <Gold.Chemscore.Fitness>
8.6878

> <Gold.Chemscore.DG>
-12.6260

> <Gold.Chemscore.ZeroCoef>
-5.4800

> <Gold.Chemscore.Hbond>
2.4790

> <Gold.Chemscore.Metal>
0.0000

> <Gold.Chemscore.Lipo>
68.5103

> <Gold.Chemscore.Internal_Hbond>
0.0000

> <Gold.Chemscore.DEClash>
1.6708

> <Gold.Chemscore.DEInternal>
2.2674

> <Gold.Chemscore.Rot>
3.5740

> <Gold.Chemscore.Internal.Correction>
   9.000000E+99

> <Gold.Chemscore.Hbonds>
donor molecule, donor type, donor heavy atom, donor atom, acceptor molecule, acceptor atom, score
      L1  H    21    42       P1 10171  0.02
      P1  H  7954  7966       L1    21  0.03
      P1  H  7989  7998       L1     8  0.26

> <Gold.Chemscore.Hbond.Weighted>
-8.2797

> <Gold.Chemscore.Metal.Weighted>
-0.0000

> <Gold.Chemscore.Lipo.Weighted>
-8.0157

> <Gold.Chemscore.Internal_Hbond.Weighted>
0.0000

> <Gold.Chemscore.DEClash.Weighted>
1.6708

> <Gold.Chemscore.DEInternal.Weighted>
2.2674

> <Gold.Chemscore.Rot.Weighted>
9.1495

> <Gold.Chemscore.Internal.Correction.Weighted>
   9.000000E+99

> <Gold.Protein.RotatedTorsions>
[ 6907 6896 6895 6894 ] final  179.58 input  -60.11 | X-H torsion
[ 7974 7965 7964 7962 ] final  -97.96 input  175.53 | X-H torsion
[ 8008 7997 7996 7995 ] final  -64.16 input   59.86 | X-H torsion
[ 10167 10162 10161 10158 ] final -177.86 input  -65.29 | X-H torsion
[ 10718 10713 10712 10709 ] final   30.12 input   66.30 | X-H torsion
[ 10763 10752 10751 10750 ] final   36.96 input  -60.55 | X-H torsion
[ 11005 11000 10999 10996 ] final  152.28 input  -57.11 | X-H torsion

> <Gold.Protein.ActiveResidues>
 VAL166  LYS551  ARG553  GLY616  TRP617  ASP618  TYR619  PRO620  LYS621  CYS622 
 ASP623  PHE694  ASN695  SER759  ASP760  ASP761  ALA762  ILE779  LEU786  VAL792 
 PHE793  MET794  SER795  GLU796  ALA797  LYS798  CYS799  TRP800  GLU811  SER814 

> <Gold.Protein.RotatedAtoms>
  151.6694  133.3314  159.3192 H   0  0  0  0  0  0  0  0  0  0  0  0  # atno 6907 bound_to 6896
  150.7875  134.6875  159.6488 H   0  0  0  0  0  0  0  0  0  0  0  0  # atno 6908 bound_to 6896
  152.3948  134.6387  160.0146 H   0  0  0  0  0  0  0  0  0  0  0  0  # atno 6909 bound_to 6896
  145.3269  140.9433  143.2683 H   0  0  0  0  0  0  0  0  0  0  0  0  # atno 7974 bound_to 7965
  154.4595  140.0959  156.6854 H   0  0  0  0  0  0  0  0  0  0  0  0  # atno 8008 bound_to 7997
  155.5036  140.3474  155.4357 H   0  0  0  0  0  0  0  0  0  0  0  0  # atno 8009 bound_to 7997
  156.0844  140.1381  156.9661 H   0  0  0  0  0  0  0  0  0  0  0  0  # atno 8010 bound_to 7997
  139.5460  144.2236  152.0988 H   0  0  0  0  0  0  0  0  0  0  0  0  # atno 10167 bound_to 10162
  157.2554  130.7135  149.6426 H   0  0  0  0  0  0  0  0  0  0  0  0  # atno 10718 bound_to 10713
  153.0056  135.6291  154.2068 H   0  0  0  0  0  0  0  0  0  0  0  0  # atno 10763 bound_to 10752
  154.1812  135.2813  155.3053 H   0  0  0  0  0  0  0  0  0  0  0  0  # atno 10764 bound_to 10752
  154.5833  135.5640  153.7266 H   0  0  0  0  0  0  0  0  0  0  0  0  # atno 10765 bound_to 10752
  140.1294  134.8812  157.2182 H   0  0  0  0  0  0  0  0  0  0  0  0  # atno 11005 bound_to 11000
  144.8894  139.4794  143.6685 LP  0  0  0  0  0  0  0  0  0  0  0  0  # atno 17320 bound_to 7965
  146.3060  139.7583  142.9055 LP  0  0  0  0  0  0  0  0  0  0  0  0  # atno 17321 bound_to 7965
  140.1722  144.4924  150.6573 LP  0  0  0  0  0  0  0  0  0  0  0  0  # atno 17342 bound_to 10162
  140.6707  143.2285  151.5631 LP  0  0  0  0  0  0  0  0  0  0  0  0  # atno 17343 bound_to 10162
  155.9665  130.4414  150.5340 LP  0  0  0  0  0  0  0  0  0  0  0  0  # atno 17370 bound_to 10713
  157.3233  131.0686  151.1916 LP  0  0  0  0  0  0  0  0  0  0  0  0  # atno 17371 bound_to 10713
  140.2862  134.3293  155.7328 LP  0  0  0  0  0  0  0  0  0  0  0  0  # atno 17394 bound_to 11000
  141.2167  133.7507  156.9437 LP  0  0  0  0  0  0  0  0  0  0  0  0  # atno 17395 bound_to 11000

$$$$
