#       Name:                AV-unprocessed.smi:2198
#       Creating user name   scv26
#       Creation time:       Fri Mar 27 12:13:29 2020


#       File generated by GOLD software.
#

@<TRIPOS>MOLECULE
AV-unprocessed.smi:2198
    48    49     1
SMALL
NO_CHARGES


@<TRIPOS>ATOM
      1 ****        -6.3590  -1.9622   0.9406 C.3            1 S1                 0.0000
      2 ****        -4.8493  -2.0437   1.0065 C.2            1 S1                 0.0000
      3 ****        -4.2413  -0.8448   1.3396 N.pl3          1 S1                 0.0000
      4 ****        -2.8607  -0.8218   1.4302 C.2            1 S1                 0.0000
      5 ****        -2.2763   0.5285   1.8071 C.3            1 S1                 0.0000
      6 ****        -2.1225  -1.9362   1.1939 C.2            1 S1                 0.0000
      7 ****        -0.5977  -1.9524   1.2819 C.3            1 S1                 0.0000
      8 ****         0.1313  -1.4258   0.0446 C.2            1 S1                 0.0000
      9 ****        -0.0762  -1.9377  -1.0552 O.2            1 S1                 0.0000
     10 ****         0.9748  -0.3997   0.2361 N.am           1 S1                 0.0000
     11 ****         1.7493   0.2635  -0.8080 C.3            1 S1                 0.0000
     12 ****         3.0591  -0.5018  -1.0824 C.3            1 S1                 0.0000
     13 ****         3.9221   0.2259  -2.1245 C.3            1 S1                 0.0000
     14 ****         4.2063   1.6757  -1.7013 C.3            1 S1                 0.0000
     15 ****         2.9026   2.4516  -1.4330 C.3            1 S1                 0.0000
     16 ****         3.1878   3.8988  -1.0074 C.3            1 S1                 0.0000
     17 ****         2.0432   1.7154  -0.3866 C.3            1 S1                 0.0000
     18 ****        -2.8295  -3.1874   0.8309 C.2            1 S1                 0.0000
     19 ****        -2.2172  -4.2268   0.5896 O.2            1 S1                 0.0000
     20 ****        -4.2319  -3.1594   0.7621 N.2            1 S1                 0.0000
     21 ****        -4.7525   0.0072   1.5203 H              1 S1                 0.0000
     22 ****        -6.7962  -2.9484   0.7796 H              1 S1                 0.0000
     23 ****        -6.6680  -1.3142   0.1199 H              1 S1                 0.0000
     24 ****        -6.7611  -1.5604   1.8711 H              1 S1                 0.0000
     25 ****        -1.7134   0.4553   2.7377 H              1 S1                 0.0000
     26 ****        -3.0559   1.2782   1.9479 H              1 S1                 0.0000
     27 ****        -1.6067   0.8865   1.0249 H              1 S1                 0.0000
     28 ****        -0.2333  -2.9591   1.4883 H              1 S1                 0.0000
     29 ****        -0.2956  -1.3695   2.1528 H              1 S1                 0.0000
     30 ****         1.0812  -0.0445   1.1752 H              1 S1                 0.0000
     31 ****         1.1588   0.2923  -1.7260 H              1 S1                 0.0000
     32 ****         3.6255  -0.6109  -0.1564 H              1 S1                 0.0000
     33 ****         2.8402  -1.5116  -1.4316 H              1 S1                 0.0000
     34 ****         4.8607  -0.3100  -2.2689 H              1 S1                 0.0000
     35 ****         3.4115   0.2199  -3.0882 H              1 S1                 0.0000
     36 ****         4.8289   1.6773  -0.8054 H              1 S1                 0.0000
     37 ****         4.7843   2.1753  -2.4795 H              1 S1                 0.0000
     38 ****         2.3368   2.4897  -2.3652 H              1 S1                 0.0000
     39 ****         3.7533   3.9347  -0.0757 H              1 S1                 0.0000
     40 ****         2.2613   4.4534  -0.8560 H              1 S1                 0.0000
     41 ****         3.7653   4.4250  -1.7679 H              1 S1                 0.0000
     42 ****         1.1045   2.2511  -0.2379 H              1 S1                 0.0000
     43 ****         2.5569   1.7217   0.5761 H              1 S1                 0.0000
     44 ****        -0.7211  -2.6973  -1.1395 LP             1 S1                 0.0000
     45 ****         0.4000  -1.5939  -1.8646 LP             1 S1                 0.0000
     46 ****        -1.2184  -4.2410   0.6361 LP             1 S1                 0.0000
     47 ****        -2.7183  -5.0575   0.3470 LP             1 S1                 0.0000
     48 ****        -4.7462  -3.9847   0.5289 LP             1 S1                 0.0000
@<TRIPOS>BOND
    1    1   22 1     
    2    1   23 1     
    3    1   24 1     
    4    1    2 1     
    5    2    3 1     
    6    2   20 2     
    7    3    4 1     
    8    3   21 1     
    9    4    6 2     
   10    4    5 1     
   11    5   25 1     
   12    5   26 1     
   13    5   27 1     
   14    6   18 1     
   15    6    7 1     
   16    7    8 1     
   17    7   28 1     
   18    7   29 1     
   19    8    9 2     
   20    8   10 am    
   21   10   11 1     
   22   10   30 1     
   23   11   17 1     
   24   11   12 1     
   25   11   31 1     
   26   12   13 1     
   27   12   32 1     
   28   12   33 1     
   29   13   14 1     
   30   13   34 1     
   31   13   35 1     
   32   14   15 1     
   33   14   36 1     
   34   14   37 1     
   35   15   16 1     
   36   15   17 1     
   37   15   38 1     
   38   16   39 1     
   39   16   40 1     
   40   16   41 1     
   41   17   42 1     
   42   17   43 1     
   43   18   19 2     
   44   18   20 1     
   45    9   44 1     
   46    9   45 1     
   47   19   46 1     
   48   19   47 1     
   49   20   48 1     
@<TRIPOS>SUBSTRUCTURE
      1 S1             1
@<TRIPOS>SET
LONE_PAIRS      STATIC     ATOMS    <user>   **** ""
5 44 45 46 47 48
DONOR_HYDROGENS      STATIC     ATOMS    <user>   **** ""
2 21 30
ATOM$BLUE        STATIC     ATOMS    COLORGROUP SYSTEM
5 44 45 46 47 48
ATOM$RED        STATIC     ATOMS    COLORGROUP SYSTEM
2 21 30
