AV-unprocessed.smi:3231|AV-procd|sdf|12333|dock1
  -GOLD-   2272018183D 1   1.00000     0.00000
 Structure written by MMmdl.
 41 42  0  0  0  0  0  0  0  0  2 V2000
  148.6261  138.8453  153.3686 O   0  0  0  0  0  0  0  0  0  0  0  0
  149.1228  138.8052  154.6915 C   0  0  2  0  0  0  0  0  0  0  0  0
  149.8592  140.1317  154.9421 C   0  0  0  0  0  0  0  0  0  0  0  0
  150.1400  140.3210  156.3612 N   0  0  0  0  0  0  0  0  0  0  0  0
  150.7335  141.6184  156.6711 C   0  0  0  0  0  0  0  0  0  0  0  0
  150.3098  142.1151  158.0625 C   0  0  0  0  0  0  0  0  0  0  0  0
  151.1848  143.1614  158.5618 N   0  0  0  0  0  0  0  0  0  0  0  0
  151.4758  144.3804  157.9867 C   0  0  0  0  0  0  0  0  0  0  0  0
  152.3370  145.0296  158.8241 C   0  0  0  0  0  0  0  0  0  0  0  0
  152.5182  144.1144  159.8984 C   0  0  0  0  0  0  0  0  0  0  0  0
  151.8252  142.9984  159.7402 N   0  0  0  0  0  0  0  0  0  0  0  0
  150.0541  137.5806  154.8308 C   0  0  0  0  0  0  0  0  0  0  0  0
  149.3531  136.2906  154.6065 N   0  3  0  0  0  0  0  0  0  0  0  0
  150.1924  135.1227  154.9658 C   0  0  0  0  0  0  0  0  0  0  0  0
  149.4479  133.8104  154.6673 C   0  0  0  0  0  0  0  0  0  0  0  0
  148.2120  133.7918  155.3700 O   0  0  0  0  0  0  0  0  0  0  0  0
  147.3585  134.8574  154.9725 C   0  0  0  0  0  0  0  0  0  0  0  0
  148.0340  136.2042  155.2818 C   0  0  0  0  0  0  0  0  0  0  0  0
  148.8420  138.0343  152.9352 H   0  0  0  0  0  0  0  0  0  0  0  0
  148.2732  138.7413  155.3711 H   0  0  0  0  0  0  0  0  0  0  0  0
  150.7838  140.1654  154.3641 H   0  0  0  0  0  0  0  0  0  0  0  0
  149.2407  140.9572  154.5864 H   0  0  0  0  0  0  0  0  0  0  0  0
  149.2872  140.2038  156.9000 H   0  0  0  0  0  0  0  0  0  0  0  0
  151.8207  141.5444  156.6297 H   0  0  0  0  0  0  0  0  0  0  0  0
  150.4438  142.3544  155.9201 H   0  0  0  0  0  0  0  0  0  0  0  0
  149.2810  142.4789  158.0461 H   0  0  0  0  0  0  0  0  0  0  0  0
  150.3354  141.2876  158.7723 H   0  0  0  0  0  0  0  0  0  0  0  0
  151.0480  144.6820  157.0420 H   0  0  0  0  0  0  0  0  0  0  0  0
  152.7714  146.0089  158.6899 H   0  0  0  0  0  0  0  0  0  0  0  0
  153.1271  144.2281  160.7832 H   0  0  0  0  0  0  0  0  0  0  0  0
  150.8722  137.6847  154.1162 H   0  0  0  0  0  0  0  0  0  0  0  0
  150.5194  137.5578  155.8174 H   0  0  0  0  0  0  0  0  0  0  0  0
  151.1255  135.1493  154.4015 H   0  0  0  0  0  0  0  0  0  0  0  0
  150.4548  135.1717  156.0237 H   0  0  0  0  0  0  0  0  0  0  0  0
  149.2737  133.6953  153.5961 H   0  0  0  0  0  0  0  0  0  0  0  0
  150.0476  132.9576  154.9856 H   0  0  0  0  0  0  0  0  0  0  0  0
  147.1217  134.7741  153.9105 H   0  0  0  0  0  0  0  0  0  0  0  0
  146.4169  134.7762  155.5155 H   0  0  0  0  0  0  0  0  0  0  0  0
  148.1664  136.3127  156.3594 H   0  0  0  0  0  0  0  0  0  0  0  0
  147.3822  137.0143  154.9581 H   0  0  0  0  0  0  0  0  0  0  0  0
  149.1858  136.2218  153.6130 H   0  0  0  0  0  0  0  0  0  0  0  0
  1  2  1  0  0  0  0
  1 19  1  0  0  0  0
  2  3  1  0  0  0  0
  2 12  1  0  0  0  0
  2 20  1  0  0  0  0
  3  4  1  0  0  0  0
  3 21  1  0  0  0  0
  3 22  1  0  0  0  0
  4  5  1  0  0  0  0
  4 23  1  0  0  0  0
  5  6  1  0  0  0  0
  5 24  1  0  0  0  0
  5 25  1  0  0  0  0
  6  7  1  0  0  0  0
  6 26  1  0  0  0  0
  6 27  1  0  0  0  0
  7 11  1  0  0  0  0
  7  8  1  0  0  0  0
  8  9  2  0  0  0  0
  8 28  1  0  0  0  0
  9 10  1  0  0  0  0
  9 29  1  0  0  0  0
 10 11  2  0  0  0  0
 10 30  1  0  0  0  0
 12 13  1  0  0  0  0
 12 31  1  0  0  0  0
 12 32  1  0  0  0  0
 13 18  1  0  0  0  0
 13 14  1  0  0  0  0
 13 41  1  0  0  0  0
 14 15  1  0  0  0  0
 14 33  1  0  0  0  0
 14 34  1  0  0  0  0
 15 16  1  0  0  0  0
 15 35  1  0  0  0  0
 15 36  1  0  0  0  0
 16 17  1  0  0  0  0
 17 18  1  0  0  0  0
 17 37  1  0  0  0  0
 17 38  1  0  0  0  0
 18 39  1  0  0  0  0
 18 40  1  0  0  0  0
M  CHG  1  13   1
M  END
> <s_m_source_file>
AV-unprocessed.smi

> <i_m_source_file_index>
3231

> <i_lp_mmshare_version>
43012

> <i_f3d_flags>
0

> <s_epik_input>
W0NIMl0xW0NIMl1PW0NIMl1bQ0gyXU4xW0NIMl1bQ0BIXShbT0hdKVtDSDJdW05IXVtDSDJdW0NIMl1uMltjSF1bY0hdW2NIXW4y

> <s_epik_cmdline>
J2VwaWtfcHl0aG9uJywgJy1waCcsICc3LjAnLCAnLXRuJywgJzgnLCAnLW1hJywgJzIwMCcsICctbWV0YWxfYmluZGluZycsICctaW1hZScsICc8aW5maWxlLm1hZT4nLCAnLW9tYWUnLCAnPG91dGZpbGUubWFlPic=

> <r_epik_Ionization_Penalty>
0.33973

> <r_epik_Ionization_Penalty_Charging>
0.202493

> <r_epik_Ionization_Penalty_Neutral>
0.137237

> <r_epik_State_Penalty>
0.943915

> <r_epik_Charging_Adjusted_Penalty>
1.14641

> <i_epik_Tot_Q>
1

> <i_epik_Tot_abs_Q>
1

> <r_epik_Metal_State_Penalty>
0.94313

> <b_epik_Metal_Only>
0

> <s_lp_Force_Field>
OPLS_2005

> <r_lp_Energy>
21.8008

> <b_lp_Chiralities_Consistent>
1

> <s_lp_Variant>
AV-unprocessed.smi:3231-3

> <Gold.Version>
5.8.1

> <Gold.Id.Protein>
6NUR|6NUR_protein|mol2

> <Gold.PLP.Fitness>
47.0683

> <Gold.PLP.PLP>
-35.8918

> <Gold.PLP.part.hbond>
-2.6421

> <Gold.PLP.part.metal>
0.0000

> <Gold.PLP.part.buried>
-4.5619

> <Gold.PLP.part.nonpolar>
-28.9879

> <Gold.PLP.part.repulsive>
0.0809

> <Gold.PLP.ligand.clash>
0.0000

> <Gold.PLP.ligand.torsion>
0.4739

> <Gold.PLP.Chemscore.Hbond>
3.0000

> <Gold.PLP.Chemscore.CHOScore>
1.0000

> <Gold.PLP.Chemscore.Metal>
0.0000

> <Gold.Chemscore.Hbonds>
donor molecule, donor type, donor heavy atom, donor atom, acceptor molecule, acceptor atom, score
      L1  H     1    19       P1  7948  0.89
      L1  H    13    41       P1  7948  2.00
      L1  C     8    28       P1  8028  1.00

> <Gold.PLP.Chemscore.Internal.Correction>
0.1243

> <Gold.Rescore>
     Score         DG    S(hbond)    S(metal)    S(lipo)     H(rot)  DE(clash)    DE(int)     intcor
     15.08     -15.36       1.96        0.00      90.61       2.84       0.01       0.28       ----

> <Gold.Chemscore.Fitness>
15.0757

> <Gold.Chemscore.DG>
-15.3618

> <Gold.Chemscore.ZeroCoef>
-5.4800

> <Gold.Chemscore.Hbond>
1.9609

> <Gold.Chemscore.Metal>
0.0000

> <Gold.Chemscore.Lipo>
90.6136

> <Gold.Chemscore.Internal_Hbond>
0.0000

> <Gold.Chemscore.DEClash>
0.0082

> <Gold.Chemscore.DEInternal>
0.2779

> <Gold.Chemscore.Rot>
2.8397

> <Gold.Chemscore.Internal.Correction>
   9.000000E+99

> <Gold.Chemscore.Hbonds>
donor molecule, donor type, donor heavy atom, donor atom, acceptor molecule, acceptor atom, score
      L1  H     1    19       P1  7948  0.86
      L1  H    13    41       P1  7948  0.93

> <Gold.Chemscore.Hbond.Weighted>
-6.5495

> <Gold.Chemscore.Metal.Weighted>
-0.0000

> <Gold.Chemscore.Lipo.Weighted>
-10.6018

> <Gold.Chemscore.Internal_Hbond.Weighted>
0.0000

> <Gold.Chemscore.DEClash.Weighted>
0.0082

> <Gold.Chemscore.DEInternal.Weighted>
0.2779

> <Gold.Chemscore.Rot.Weighted>
7.2696

> <Gold.Chemscore.Internal.Correction.Weighted>
   9.000000E+99

> <Gold.Protein.RotatedTorsions>
[ 6907 6896 6895 6894 ] final -111.79 input  -60.11 | X-H torsion
[ 7974 7965 7964 7962 ] final   -5.89 input  175.53 | X-H torsion
[ 8008 7997 7996 7995 ] final -117.65 input   59.86 | X-H torsion
[ 10167 10162 10161 10158 ] final   73.55 input  -65.29 | X-H torsion
[ 10718 10713 10712 10709 ] final   18.09 input   66.30 | X-H torsion
[ 10763 10752 10751 10750 ] final -136.94 input  -60.55 | X-H torsion
[ 11005 11000 10999 10996 ] final   81.20 input  -57.11 | X-H torsion

> <Gold.Protein.ActiveResidues>
 VAL166  LYS551  ARG553  GLY616  TRP617  ASP618  TYR619  PRO620  LYS621  CYS622 
 ASP623  PHE694  ASN695  SER759  ASP760  ASP761  ALA762  ILE779  LEU786  VAL792 
 PHE793  MET794  SER795  GLU796  ALA797  LYS798  CYS799  TRP800  GLU811  SER814 

> <Gold.Protein.RotatedAtoms>
  150.7714  133.9183  159.3390 H   0  0  0  0  0  0  0  0  0  0  0  0  # atno 6907 bound_to 6896
  151.7069  135.0918  160.0270 H   0  0  0  0  0  0  0  0  0  0  0  0  # atno 6908 bound_to 6896
  152.3733  133.6410  159.6140 H   0  0  0  0  0  0  0  0  0  0  0  0  # atno 6909 bound_to 6896
  146.2343  140.2088  142.8335 H   0  0  0  0  0  0  0  0  0  0  0  0  # atno 7974 bound_to 7965
  155.0870  140.0394  157.2657 H   0  0  0  0  0  0  0  0  0  0  0  0  # atno 8008 bound_to 7997
  154.6861  140.2643  155.6834 H   0  0  0  0  0  0  0  0  0  0  0  0  # atno 8009 bound_to 7997
  156.2712  140.2769  156.1423 H   0  0  0  0  0  0  0  0  0  0  0  0  # atno 8010 bound_to 7997
  140.0233  144.5523  150.7564 H   0  0  0  0  0  0  0  0  0  0  0  0  # atno 10167 bound_to 10162
  157.0914  130.6429  149.5850 H   0  0  0  0  0  0  0  0  0  0  0  0  # atno 10718 bound_to 10713
  154.8673  135.3657  154.5142 H   0  0  0  0  0  0  0  0  0  0  0  0  # atno 10763 bound_to 10752
  153.5776  135.7019  153.5482 H   0  0  0  0  0  0  0  0  0  0  0  0  # atno 10764 bound_to 10752
  153.3486  135.4078  155.1591 H   0  0  0  0  0  0  0  0  0  0  0  0  # atno 10765 bound_to 10752
  139.9106  134.7979  156.2010 H   0  0  0  0  0  0  0  0  0  0  0  0  # atno 11005 bound_to 11000
  144.9723  140.8380  143.5448 LP  0  0  0  0  0  0  0  0  0  0  0  0  # atno 17320 bound_to 7965
  145.2071  139.2223  143.5162 LP  0  0  0  0  0  0  0  0  0  0  0  0  # atno 17321 bound_to 7965
  140.7333  143.2716  151.3872 LP  0  0  0  0  0  0  0  0  0  0  0  0  # atno 17342 bound_to 10162
  139.6125  144.1070  152.2313 LP  0  0  0  0  0  0  0  0  0  0  0  0  # atno 17343 bound_to 10162
  155.9897  130.4945  150.7225 LP  0  0  0  0  0  0  0  0  0  0  0  0  # atno 17370 bound_to 10713
  157.4718  131.0894  151.0634 LP  0  0  0  0  0  0  0  0  0  0  0  0  # atno 17371 bound_to 10713
  141.0524  133.6882  156.1797 LP  0  0  0  0  0  0  0  0  0  0  0  0  # atno 17394 bound_to 11000
  140.6789  134.4788  157.5588 LP  0  0  0  0  0  0  0  0  0  0  0  0  # atno 17395 bound_to 11000

$$$$
