#       Name:                AV-unprocessed.smi:312
#       Creating user name   scv26
#       Creation time:       Thu Mar 26 22:20:37 2020


#       File generated by GOLD software.
#

@<TRIPOS>MOLECULE
AV-unprocessed.smi:312
    38    39     1
SMALL
NO_CHARGES


@<TRIPOS>ATOM
      1 ****         0.1900  -2.3026   2.9699 C.3            1 S1                 0.0000
      2 ****         0.2779  -1.8368   1.5104 C.3            1 S1                 0.0000
      3 ****         1.6725  -2.1263   0.9141 C.3            1 S1                 0.0000
      4 ****         1.7385  -1.8839  -0.5313 N.pl3          1 S1                 0.0000
      5 ****         1.2057  -2.6607  -1.5279 C.2            1 S1                 0.0000
      6 ****         1.5024  -2.0356  -2.7115 C.2            1 S1                 0.0000
      7 ****         2.2087  -0.9079  -2.3881 N.pl3          1 S1                 1.0000
      8 ****         2.3557  -0.8202  -1.0623 C.2            1 S1                 0.0000
      9 ****        -0.0364  -0.4096   1.4514 N.am           1 S1                 0.0000
     10 ****        -0.7117   0.2050   0.4670 C.2            1 S1                 0.0000
     11 ****        -1.1444  -0.3855  -0.5236 O.2            1 S1                 0.0000
     12 ****        -0.9114   1.7218   0.6190 C.3            1 S1                 0.0000
     13 ****        -2.3992   2.1278   0.5118 C.3            1 S1                 0.0000
     14 ****        -2.5539   2.9484  -0.7775 C.3            1 S1                 0.0000
     15 ****        -1.2728   2.7188  -1.5769 C.3            1 S1                 0.0000
     16 ****        -0.2049   2.4965  -0.5076 C.3            1 S1                 0.0000
     17 ****         0.3815  -3.3728   3.0525 H              1 S1                 0.0000
     18 ****        -0.8014  -2.1145   3.3835 H              1 S1                 0.0000
     19 ****         0.9168  -1.7857   3.5975 H              1 S1                 0.0000
     20 ****        -0.4698  -2.4002   0.9489 H              1 S1                 0.0000
     21 ****         2.4405  -1.5271   1.4062 H              1 S1                 0.0000
     22 ****         1.9400  -3.1719   1.0722 H              1 S1                 0.0000
     23 ****         0.6620  -3.5722  -1.3253 H              1 S1                 0.0000
     24 ****         1.2689  -2.3010  -3.7324 H              1 S1                 0.0000
     25 ****         2.8620  -0.0372  -0.5264 H              1 S1                 0.0000
     26 ****         0.2789   0.1554   2.2269 H              1 S1                 0.0000
     27 ****        -0.5093   2.0341   1.5842 H              1 S1                 0.0000
     28 ****        -3.0609   1.2602   0.4865 H              1 S1                 0.0000
     29 ****        -2.7031   2.7203   1.3754 H              1 S1                 0.0000
     30 ****        -3.4456   2.6729  -1.3415 H              1 S1                 0.0000
     31 ****        -2.6400   4.0063  -0.5259 H              1 S1                 0.0000
     32 ****        -1.3748   1.8245  -2.1926 H              1 S1                 0.0000
     33 ****        -1.0372   3.5526  -2.2387 H              1 S1                 0.0000
     34 ****         0.1358   3.4600  -0.1259 H              1 S1                 0.0000
     35 ****         0.6710   1.9821  -0.9062 H              1 S1                 0.0000
     36 ****         2.5679  -0.2355  -3.0543 H              1 S1                 0.0000
     37 ****        -0.9985  -1.3699  -0.6223 LP             1 S1                 0.0000
     38 ****        -1.6416   0.1195  -1.2292 LP             1 S1                 0.0000
@<TRIPOS>BOND
    1    1    2 1     
    2    1   17 1     
    3    1   18 1     
    4    1   19 1     
    5    2    3 1     
    6    2    9 1     
    7    2   20 1     
    8    3    4 1     
    9    3   21 1     
   10    3   22 1     
   11    4    8 1     
   12    4    5 1     
   13    5    6 2     
   14    5   23 1     
   15    6    7 1     
   16    6   24 1     
   17    7    8 2     
   18    7   36 1     
   19    8   25 1     
   20    9   10 am    
   21    9   26 1     
   22   10   11 2     
   23   10   12 1     
   24   12   16 1     
   25   12   13 1     
   26   12   27 1     
   27   13   14 1     
   28   13   28 1     
   29   13   29 1     
   30   14   15 1     
   31   14   30 1     
   32   14   31 1     
   33   15   16 1     
   34   15   32 1     
   35   15   33 1     
   36   16   34 1     
   37   16   35 1     
   38   11   37 1     
   39   11   38 1     
@<TRIPOS>SUBSTRUCTURE
      1 S1             1
@<TRIPOS>SET
LONE_PAIRS      STATIC     ATOMS    <user>   **** ""
2 37 38
DONOR_HYDROGENS      STATIC     ATOMS    <user>   **** ""
2 36 26
ATOM$BLUE        STATIC     ATOMS    COLORGROUP SYSTEM
2 37 38
ATOM$RED        STATIC     ATOMS    COLORGROUP SYSTEM
2 36 26
