#       Name:                AV-unprocessed.smi:904
#       Creating user name   scv26
#       Creation time:       Fri Mar 27 01:58:58 2020


#       File generated by GOLD software.
#

@<TRIPOS>MOLECULE
AV-unprocessed.smi:904
    47    48     1
SMALL
NO_CHARGES


@<TRIPOS>ATOM
      1 ****        -1.2801   2.1930   1.7974 C.3            1 S1                 0.0000
      2 ****        -2.2112   1.0262   1.6280 C.2            1 S1                 0.0000
      3 ****        -3.4802   1.2516   1.3311 N.2            1 S1                 0.0000
      4 ****        -4.0353   0.0266   1.2382 N.pl3          1 S1                 0.0000
      5 ****        -5.4446  -0.0923   0.9185 C.3            1 S1                 0.0000
      6 ****        -3.1133  -0.9753   1.4707 C.2            1 S1                 0.0000
      7 ****        -3.4783  -2.4238   1.4154 C.3            1 S1                 0.0000
      8 ****        -1.9155  -0.3656   1.7327 C.2            1 S1                 0.0000
      9 ****        -0.5871  -1.0045   2.0515 C.3            1 S1                 0.0000
     10 ****         0.1943  -1.2391   0.7593 C.2            1 S1                 0.0000
     11 ****         0.1811  -2.3472   0.2234 O.2            1 S1                 0.0000
     12 ****         0.8668  -0.1855   0.2706 N.am           1 S1                 0.0000
     13 ****         1.6508  -0.1765  -0.9595 C.3            1 S1                 0.0000
     14 ****         3.0721  -0.7158  -0.7023 C.3            1 S1                 0.0000
     15 ****         3.9393  -0.6493  -1.9717 C.3            1 S1                 0.0000
     16 ****         3.9800   0.7656  -2.5793 C.3            1 S1                 0.0000
     17 ****         4.7243   1.6305  -1.7442 O.3            1 S1                 0.0000
     18 ****         2.5634   1.3306  -2.7959 C.3            1 S1                 0.0000
     19 ****         1.7045   1.2555  -1.5214 C.3            1 S1                 0.0000
     20 ****        -0.7206   2.3790   0.8805 H              1 S1                 0.0000
     21 ****        -0.5603   2.0105   2.5951 H              1 S1                 0.0000
     22 ****        -1.8211   3.1062   2.0477 H              1 S1                 0.0000
     23 ****        -5.9222  -0.7871   1.6098 H              1 S1                 0.0000
     24 ****        -5.5578  -0.4667  -0.0991 H              1 S1                 0.0000
     25 ****        -5.9405   0.8762   0.9980 H              1 S1                 0.0000
     26 ****        -2.5897  -3.0549   1.4063 H              1 S1                 0.0000
     27 ****        -4.0512  -2.6476   0.5154 H              1 S1                 0.0000
     28 ****        -4.0807  -2.7031   2.2798 H              1 S1                 0.0000
     29 ****         0.0065  -0.3824   2.7222 H              1 S1                 0.0000
     30 ****        -0.7164  -1.9568   2.5669 H              1 S1                 0.0000
     31 ****         0.8166   0.6834   0.7824 H              1 S1                 0.0000
     32 ****         1.1594  -0.8120  -1.6989 H              1 S1                 0.0000
     33 ****         3.5469  -0.1408   0.0940 H              1 S1                 0.0000
     34 ****         3.0252  -1.7466  -0.3496 H              1 S1                 0.0000
     35 ****         4.9495  -0.9980  -1.7546 H              1 S1                 0.0000
     36 ****         3.5329  -1.3405  -2.7112 H              1 S1                 0.0000
     37 ****         4.4981   0.7273  -3.5381 H              1 S1                 0.0000
     38 ****         5.6008   1.2866  -1.6604 H              1 S1                 0.0000
     39 ****         2.6167   2.3598  -3.1524 H              1 S1                 0.0000
     40 ****         2.0716   0.7617  -3.5858 H              1 S1                 0.0000
     41 ****         0.6960   1.6088  -1.7396 H              1 S1                 0.0000
     42 ****         2.1102   1.9334  -0.7689 H              1 S1                 0.0000
     43 ****        -3.9291   2.1360   1.2035 LP             1 S1                 0.0000
     44 ****        -0.3413  -3.0948   0.6336 LP             1 S1                 0.0000
     45 ****         0.6927  -2.4998  -0.6222 LP             1 S1                 0.0000
     46 ****         4.2944   1.6813  -0.8428 LP             1 S1                 0.0000
     47 ****         4.7578   2.5441  -2.1495 LP             1 S1                 0.0000
@<TRIPOS>BOND
    1    1    2 1     
    2    1   20 1     
    3    1   21 1     
    4    1   22 1     
    5    2    8 1     
    6    2    3 2     
    7    3    4 1     
    8    4    5 1     
    9    4    6 1     
   10    5   23 1     
   11    5   24 1     
   12    5   25 1     
   13    6    7 1     
   14    6    8 2     
   15    7   26 1     
   16    7   27 1     
   17    7   28 1     
   18    8    9 1     
   19    9   10 1     
   20    9   29 1     
   21    9   30 1     
   22   10   11 2     
   23   10   12 am    
   24   12   13 1     
   25   12   31 1     
   26   13   19 1     
   27   13   14 1     
   28   13   32 1     
   29   14   15 1     
   30   14   33 1     
   31   14   34 1     
   32   15   16 1     
   33   15   35 1     
   34   15   36 1     
   35   16   17 1     
   36   16   18 1     
   37   16   37 1     
   38   17   38 1     
   39   18   19 1     
   40   18   39 1     
   41   18   40 1     
   42   19   41 1     
   43   19   42 1     
   44    3   43 1     
   45   11   44 1     
   46   11   45 1     
   47   17   46 1     
   48   17   47 1     
@<TRIPOS>SUBSTRUCTURE
      1 S1             1
@<TRIPOS>SET
LONE_PAIRS      STATIC     ATOMS    <user>   **** ""
5 43 44 45 46 47
DONOR_HYDROGENS      STATIC     ATOMS    <user>   **** ""
2 31 38
ATOM$BLUE        STATIC     ATOMS    COLORGROUP SYSTEM
5 43 44 45 46 47
ATOM$RED        STATIC     ATOMS    COLORGROUP SYSTEM
2 31 38
