AV-unprocessed.smi:1901|AV-procd|sdf|7716|dock9
  -GOLD-   22720 9453D 1   1.00000     0.00000
 Structure written by MMmdl.
 28 29  0  0  0  0  0  0  0  0  1 V2000
  150.5964  140.6026  156.2126 O   0  0  0  0  0  0  0  0  0  0  0  0
  150.0418  141.6952  156.0888 C   0  0  0  0  0  0  0  0  0  0  0  0
  150.4160  142.7935  156.7606 N   0  0  0  0  0  0  0  0  0  0  0  0
  151.5149  142.8537  157.7183 C   0  0  0  0  0  0  0  0  0  0  0  0
  151.5978  144.2231  158.4190 C   0  0  2  0  0  0  0  0  0  0  0  0
  152.4955  144.2592  159.6402 C   0  0  0  0  0  0  0  0  0  0  0  0
  152.0016  145.5145  160.3512 C   0  0  0  0  0  0  0  0  0  0  0  0
  150.6093  145.5988  160.0625 O   0  0  0  0  0  0  0  0  0  0  0  0
  150.2708  144.6981  159.0112 C   0  0  0  0  0  0  0  0  0  0  0  0
  148.9987  141.9507  155.2800 N   0  0  0  0  0  0  0  0  0  0  0  0
  148.3253  141.0562  154.4072 C   0  0  0  0  0  0  0  0  0  0  0  0
  148.7101  139.7960  154.1736 N   0  0  0  0  0  0  0  0  0  0  0  0
  147.8637  139.1477  153.2706 C   0  0  0  0  0  0  0  0  0  0  0  0
  146.8315  139.9348  152.8243 C   0  0  0  0  0  0  0  0  0  0  0  0
  146.8810  141.5305  153.5251 S   0  0  0  0  0  0  0  0  0  0  0  0
  149.9052  143.6493  156.5995 H   0  0  0  0  0  0  0  0  0  0  0  0
  151.4079  142.0577  158.4571 H   0  0  0  0  0  0  0  0  0  0  0  0
  152.4416  142.6502  157.1807 H   0  0  0  0  0  0  0  0  0  0  0  0
  151.9448  144.9775  157.7105 H   0  0  0  0  0  0  0  0  0  0  0  0
  152.3247  143.3824  160.2666 H   0  0  0  0  0  0  0  0  0  0  0  0
  153.5567  144.3031  159.3934 H   0  0  0  0  0  0  0  0  0  0  0  0
  152.1861  145.4866  161.4252 H   0  0  0  0  0  0  0  0  0  0  0  0
  152.4944  146.3989  159.9451 H   0  0  0  0  0  0  0  0  0  0  0  0
  149.6332  145.1774  158.2680 H   0  0  0  0  0  0  0  0  0  0  0  0
  149.7167  143.8634  159.4426 H   0  0  0  0  0  0  0  0  0  0  0  0
  148.6496  142.8977  155.2830 H   0  0  0  0  0  0  0  0  0  0  0  0
  148.0702  138.1227  152.9996 H   0  0  0  0  0  0  0  0  0  0  0  0
  146.0485  139.6731  152.1282 H   0  0  0  0  0  0  0  0  0  0  0  0
  1  2  2  0  0  0  0
  2  3  1  0  0  0  0
  2 10  1  0  0  0  0
  3  4  1  0  0  0  0
  3 16  1  0  0  0  0
  4  5  1  0  0  0  0
  4 17  1  0  0  0  0
  4 18  1  0  0  0  0
  5  9  1  0  0  0  0
  5  6  1  0  0  0  0
  5 19  1  0  0  0  0
  6  7  1  0  0  0  0
  6 20  1  0  0  0  0
  6 21  1  0  0  0  0
  7  8  1  0  0  0  0
  7 22  1  0  0  0  0
  7 23  1  0  0  0  0
  8  9  1  0  0  0  0
  9 24  1  0  0  0  0
  9 25  1  0  0  0  0
 10 11  1  0  0  0  0
 10 26  1  0  0  0  0
 11 15  1  0  0  0  0
 11 12  2  0  0  0  0
 12 13  1  0  0  0  0
 13 14  2  0  0  0  0
 13 27  1  0  0  0  0
 14 15  1  0  0  0  0
 14 28  1  0  0  0  0
M  END
> <s_m_source_file>
AV-unprocessed.smi

> <i_m_source_file_index>
1901

> <i_lp_mmshare_version>
43012

> <i_f3d_flags>
0

> <s_epik_input>
czFbY0hdW2NIXW5jMVtOSF1DKD1PKVtOSF1bQ0gyXVtDQEBIXTJbQ0gyXVtDSDJdT1tDSDJdMg==

> <s_epik_cmdline>
J2VwaWtfcHl0aG9uJywgJy1waCcsICc3LjAnLCAnLXRuJywgJzgnLCAnLW1hJywgJzIwMCcsICctbWV0YWxfYmluZGluZycsICctaW1hZScsICc8aW5maWxlLm1hZT4nLCAnLW9tYWUnLCAnPG91dGZpbGUubWFlPic=

> <r_lp_tautomer_probability>
0.999

> <r_epik_Ionization_Penalty>
0.000365592

> <r_epik_Ionization_Penalty_Charging>
0

> <r_epik_Ionization_Penalty_Neutral>
0.000365592

> <r_epik_State_Penalty>
0.000177984

> <r_epik_Charging_Adjusted_Penalty>
0.000177984

> <i_epik_Tot_Q>
0

> <i_epik_Tot_abs_Q>
0

> <r_epik_Metal_State_Penalty>
0.00682492

> <b_epik_Metal_Only>
0

> <s_lp_Force_Field>
OPLS_2005

> <r_lp_Energy>
16.9403

> <b_lp_Chiralities_Consistent>
1

> <s_lp_Variant>
AV-unprocessed.smi:1901-1

> <Gold.Version>
5.8.1

> <Gold.Id.Protein>
6NUR|6NUR_protein|mol2

> <Gold.PLP.Fitness>
41.5573

> <Gold.PLP.PLP>
-30.1970

> <Gold.PLP.part.hbond>
-3.0000

> <Gold.PLP.part.metal>
0.0000

> <Gold.PLP.part.buried>
-2.6422

> <Gold.PLP.part.nonpolar>
-25.5074

> <Gold.PLP.part.repulsive>
0.5970

> <Gold.PLP.ligand.clash>
0.0000

> <Gold.PLP.ligand.torsion>
0.0913

> <Gold.PLP.Chemscore.Hbond>
2.0000

> <Gold.PLP.Chemscore.CHOScore>
1.8461

> <Gold.PLP.Chemscore.Metal>
0.0000

> <Gold.Chemscore.Hbonds>
donor molecule, donor type, donor heavy atom, donor atom, acceptor molecule, acceptor atom, score
      L1  H     3    16       P1  8028  1.00
      L1  H    10    26       P1  8028  1.00
      L1  C    13    27       P1  7948  1.00
      L1  C    14    28       P1 10175  0.83

> <Gold.PLP.Chemscore.Internal.Correction>
0.0046

> <Gold.Rescore>
     Score         DG    S(hbond)    S(metal)    S(lipo)     H(rot)  DE(clash)    DE(int)     intcor
     15.45     -17.76       1.94        0.00      78.36       1.32       0.95       1.36       ----

> <Gold.Chemscore.Fitness>
15.4518

> <Gold.Chemscore.DG>
-17.7614

> <Gold.Chemscore.ZeroCoef>
-5.4800

> <Gold.Chemscore.Hbond>
1.9412

> <Gold.Chemscore.Metal>
0.0000

> <Gold.Chemscore.Lipo>
78.3565

> <Gold.Chemscore.Internal_Hbond>
0.0000

> <Gold.Chemscore.DEClash>
0.9539

> <Gold.Chemscore.DEInternal>
1.3558

> <Gold.Chemscore.Rot>
1.3163

> <Gold.Chemscore.Internal.Correction>
   9.000000E+99

> <Gold.Chemscore.Hbonds>
donor molecule, donor type, donor heavy atom, donor atom, acceptor molecule, acceptor atom, score
      L1  H     3    16       P1  8028  0.98
      L1  H    10    26       P1  8028  0.95

> <Gold.Chemscore.Hbond.Weighted>
-6.4836

> <Gold.Chemscore.Metal.Weighted>
-0.0000

> <Gold.Chemscore.Lipo.Weighted>
-9.1677

> <Gold.Chemscore.Internal_Hbond.Weighted>
0.0000

> <Gold.Chemscore.DEClash.Weighted>
0.9539

> <Gold.Chemscore.DEInternal.Weighted>
1.3558

> <Gold.Chemscore.Rot.Weighted>
3.3698

> <Gold.Chemscore.Internal.Correction.Weighted>
   9.000000E+99

> <Gold.Protein.RotatedTorsions>
[ 6907 6896 6895 6894 ] final  -76.19 input  -60.11 | X-H torsion
[ 7974 7965 7964 7962 ] final  -55.11 input  175.53 | X-H torsion
[ 8008 7997 7996 7995 ] final  123.16 input   59.86 | X-H torsion
[ 10167 10162 10161 10158 ] final   16.36 input  -65.29 | X-H torsion
[ 10718 10713 10712 10709 ] final  -34.17 input   66.30 | X-H torsion
[ 10763 10752 10751 10750 ] final   40.89 input  -60.55 | X-H torsion
[ 11005 11000 10999 10996 ] final -122.28 input  -57.11 | X-H torsion

> <Gold.Protein.ActiveResidues>
 VAL166  LYS551  ARG553  GLY616  TRP617  ASP618  TYR619  PRO620  LYS621  CYS622 
 ASP623  PHE694  ASN695  SER759  ASP760  ASP761  ALA762  ILE779  LEU786  VAL792 
 PHE793  MET794  SER795  GLU796  ALA797  LYS798  CYS799  TRP800  GLU811  SER814 

> <Gold.Protein.RotatedAtoms>
  150.7035  134.4609  159.5379 H   0  0  0  0  0  0  0  0  0  0  0  0  # atno 6907 bound_to 6896
  152.2283  134.8343  160.0486 H   0  0  0  0  0  0  0  0  0  0  0  0  # atno 6908 bound_to 6896
  151.9168  133.3540  159.3920 H   0  0  0  0  0  0  0  0  0  0  0  0  # atno 6909 bound_to 6896
  145.8779  140.8166  142.9854 H   0  0  0  0  0  0  0  0  0  0  0  0  # atno 7974 bound_to 7965
  156.2755  140.2769  156.1582 H   0  0  0  0  0  0  0  0  0  0  0  0  # atno 8008 bound_to 7997
  155.0781  140.0387  157.2648 H   0  0  0  0  0  0  0  0  0  0  0  0  # atno 8009 bound_to 7997
  154.6986  140.2644  155.6747 H   0  0  0  0  0  0  0  0  0  0  0  0  # atno 8010 bound_to 7997
  140.5803  143.8994  150.6784 H   0  0  0  0  0  0  0  0  0  0  0  0  # atno 10167 bound_to 10162
  156.3537  130.4312  149.7682 H   0  0  0  0  0  0  0  0  0  0  0  0  # atno 10718 bound_to 10713
  152.9923  135.6178  154.2699 H   0  0  0  0  0  0  0  0  0  0  0  0  # atno 10763 bound_to 10752
  154.2432  135.2788  155.2847 H   0  0  0  0  0  0  0  0  0  0  0  0  # atno 10764 bound_to 10752
  154.5351  135.5777  153.6849 H   0  0  0  0  0  0  0  0  0  0  0  0  # atno 10765 bound_to 10752
  141.0007  134.0407  157.3541 H   0  0  0  0  0  0  0  0  0  0  0  0  # atno 11005 bound_to 11000
  144.6726  140.1339  143.7442 LP  0  0  0  0  0  0  0  0  0  0  0  0  # atno 17320 bound_to 7965
  145.9058  139.2457  143.1466 LP  0  0  0  0  0  0  0  0  0  0  0  0  # atno 17321 bound_to 7965
  140.2491  143.3606  152.1421 LP  0  0  0  0  0  0  0  0  0  0  0  0  # atno 17342 bound_to 10162
  139.5166  144.6980  151.5576 LP  0  0  0  0  0  0  0  0  0  0  0  0  # atno 17343 bound_to 10162
  156.4872  130.8068  151.3080 LP  0  0  0  0  0  0  0  0  0  0  0  0  # atno 17370 bound_to 10713
  157.7464  130.9987  150.2861 LP  0  0  0  0  0  0  0  0  0  0  0  0  # atno 17371 bound_to 10713
  139.9037  135.0173  156.7389 LP  0  0  0  0  0  0  0  0  0  0  0  0  # atno 17394 bound_to 11000
  140.6894  133.9404  155.7957 LP  0  0  0  0  0  0  0  0  0  0  0  0  # atno 17395 bound_to 11000

$$$$
