AV-unprocessed.smi:2677|AV-procd|sdf|10365|dock8
  -GOLD-   2272014393D 1   1.00000     0.00000
 Structure written by MMmdl.
 40 41  0  0  0  0  0  0  0  0  1 V2000
  154.5729  143.7045  164.5334 C   0  0  0  0  0  0  0  0  0  0  0  0
  155.7430  142.9010  165.1111 C   0  0  0  0  0  0  0  0  0  0  0  0
  155.6917  141.4557  164.7125 C   0  0  0  0  0  0  0  0  0  0  0  0
  155.5253  141.1249  163.3651 N   0  0  0  0  0  0  0  0  0  0  0  0
  155.4959  139.8070  163.1553 C   0  0  0  0  0  0  0  0  0  0  0  0
  155.2561  139.1889  161.8146 C   0  0  0  0  0  0  0  0  0  0  0  0
  155.3851  140.1857  160.6465 C   0  0  0  0  0  0  0  0  0  0  0  0
  154.1752  140.9820  160.4681 N   0  0  0  0  0  0  0  0  0  0  0  0
  153.2983  140.8512  159.4589 C   0  0  0  0  0  0  0  0  0  0  0  0
  153.3788  139.9381  158.6363 O   0  0  0  0  0  0  0  0  0  0  0  0
  152.3201  141.7918  159.4357 N   0  0  0  0  0  0  0  0  0  0  0  0
  151.0790  141.7327  158.6458 C   0  0  0  0  0  0  0  0  0  0  0  0
  151.2265  142.6347  157.4103 C   0  0  0  0  0  0  0  0  0  0  0  0
  151.4549  144.3725  157.9007 S   0  0  0  0  0  0  0  0  0  0  0  0
  152.7923  144.1731  159.1202 C   0  0  0  0  0  0  0  0  0  0  0  0
  152.4550  143.0722  160.1403 C   0  0  0  0  0  0  0  0  0  0  0  0
  155.6720  138.8705  164.6317 S   0  0  0  0  0  0  0  0  0  0  0  0
  155.7980  140.3583  165.5352 C   0  0  0  0  0  0  0  0  0  0  0  0
  155.9892  140.3380  167.0156 C   0  0  0  0  0  0  0  0  0  0  0  0
  154.6324  144.7502  164.8355 H   0  0  0  0  0  0  0  0  0  0  0  0
  153.6161  143.3119  164.8786 H   0  0  0  0  0  0  0  0  0  0  0  0
  154.5755  143.6715  163.4435 H   0  0  0  0  0  0  0  0  0  0  0  0
  156.6823  143.3506  164.7880 H   0  0  0  0  0  0  0  0  0  0  0  0
  155.7333  142.9867  166.1985 H   0  0  0  0  0  0  0  0  0  0  0  0
  155.9640  138.3700  161.6804 H   0  0  0  0  0  0  0  0  0  0  0  0
  154.2632  138.7388  161.8093 H   0  0  0  0  0  0  0  0  0  0  0  0
  156.2560  140.8283  160.7843 H   0  0  0  0  0  0  0  0  0  0  0  0
  155.5518  139.6363  159.7197 H   0  0  0  0  0  0  0  0  0  0  0  0
  154.0333  141.7419  161.1174 H   0  0  0  0  0  0  0  0  0  0  0  0
  150.8122  140.7196  158.3429 H   0  0  0  0  0  0  0  0  0  0  0  0
  150.2378  142.0697  159.2530 H   0  0  0  0  0  0  0  0  0  0  0  0
  152.0777  142.3185  156.8065 H   0  0  0  0  0  0  0  0  0  0  0  0
  150.3411  142.5631  156.7787 H   0  0  0  0  0  0  0  0  0  0  0  0
  153.7184  143.9339  158.5961 H   0  0  0  0  0  0  0  0  0  0  0  0
  152.9486  145.1258  159.6264 H   0  0  0  0  0  0  0  0  0  0  0  0
  151.5295  143.3131  160.6652 H   0  0  0  0  0  0  0  0  0  0  0  0
  153.2251  143.0397  160.9123 H   0  0  0  0  0  0  0  0  0  0  0  0
  155.0652  140.6085  167.5266 H   0  0  0  0  0  0  0  0  0  0  0  0
  156.7624  141.0444  167.3173 H   0  0  0  0  0  0  0  0  0  0  0  0
  156.2885  139.3484  167.3613 H   0  0  0  0  0  0  0  0  0  0  0  0
  1  2  1  0  0  0  0
  1 20  1  0  0  0  0
  1 21  1  0  0  0  0
  1 22  1  0  0  0  0
  2  3  1  0  0  0  0
  2 23  1  0  0  0  0
  2 24  1  0  0  0  0
  3 18  2  0  0  0  0
  3  4  1  0  0  0  0
  4  5  2  0  0  0  0
  5  6  1  0  0  0  0
  5 17  1  0  0  0  0
  6  7  1  0  0  0  0
  6 25  1  0  0  0  0
  6 26  1  0  0  0  0
  7  8  1  0  0  0  0
  7 27  1  0  0  0  0
  7 28  1  0  0  0  0
  8  9  1  0  0  0  0
  8 29  1  0  0  0  0
  9 10  2  0  0  0  0
  9 11  1  0  0  0  0
 11 16  1  0  0  0  0
 11 12  1  0  0  0  0
 12 13  1  0  0  0  0
 12 30  1  0  0  0  0
 12 31  1  0  0  0  0
 13 14  1  0  0  0  0
 13 32  1  0  0  0  0
 13 33  1  0  0  0  0
 14 15  1  0  0  0  0
 15 16  1  0  0  0  0
 15 34  1  0  0  0  0
 15 35  1  0  0  0  0
 16 36  1  0  0  0  0
 16 37  1  0  0  0  0
 17 18  1  0  0  0  0
 18 19  1  0  0  0  0
 19 38  1  0  0  0  0
 19 39  1  0  0  0  0
 19 40  1  0  0  0  0
M  END
> <s_m_source_file>
AV-unprocessed.smi

> <i_m_source_file_index>
2677

> <i_lp_mmshare_version>
43012

> <i_f3d_flags>
0

> <s_epik_input>
W0NIM11bQ0gyXWMxbmMoc2MxW0NIM10pW0NIMl1bQ0gyXVtOSF1DKD1PKU4yW0NIMl1bQ0gyXVNbQ0gyXVtDSDJdMg==

> <s_epik_cmdline>
J2VwaWtfcHl0aG9uJywgJy1waCcsICc3LjAnLCAnLXRuJywgJzgnLCAnLW1hJywgJzIwMCcsICctbWV0YWxfYmluZGluZycsICctaW1hZScsICc8aW5maWxlLm1hZT4nLCAnLW9tYWUnLCAnPG91dGZpbGUubWFlPic=

> <r_epik_Ionization_Penalty>
0.00440659

> <r_epik_Ionization_Penalty_Charging>
0

> <r_epik_Ionization_Penalty_Neutral>
0.00440659

> <r_epik_State_Penalty>
0.00314229

> <r_epik_Charging_Adjusted_Penalty>
0.00314229

> <i_epik_Tot_Q>
0

> <i_epik_Tot_abs_Q>
0

> <r_epik_Metal_State_Penalty>
-0

> <b_epik_Metal_Only>
0

> <s_lp_Force_Field>
OPLS_2005

> <r_lp_Energy>
14.3594

> <b_lp_Chiralities_Consistent>
1

> <s_lp_Variant>
AV-unprocessed.smi:2677-1

> <Gold.Version>
5.8.1

> <Gold.Id.Protein>
6NUR|6NUR_protein|mol2

> <Gold.PLP.Fitness>
45.6260

> <Gold.PLP.PLP>
-44.4700

> <Gold.PLP.part.hbond>
-2.0000

> <Gold.PLP.part.metal>
0.0000

> <Gold.PLP.part.buried>
-5.0351

> <Gold.PLP.part.nonpolar>
-35.9545

> <Gold.PLP.part.repulsive>
0.0408

> <Gold.PLP.ligand.clash>
0.8370

> <Gold.PLP.ligand.torsion>
0.5134

> <Gold.PLP.Chemscore.Hbond>
1.0000

> <Gold.PLP.Chemscore.CHOScore>
0.0000

> <Gold.PLP.Chemscore.Metal>
0.0000

> <Gold.Chemscore.Hbonds>
donor molecule, donor type, donor heavy atom, donor atom, acceptor molecule, acceptor atom, score
      P1  H  7997  8009       L1    10  1.00

> <Gold.PLP.Chemscore.Internal.Correction>
0.0199

> <Gold.Rescore>
     Score         DG    S(hbond)    S(metal)    S(lipo)     H(rot)  DE(clash)    DE(int)     intcor
     17.64     -19.23       0.96        0.00     120.64       1.40       1.19       0.40       ----

> <Gold.Chemscore.Fitness>
17.6369

> <Gold.Chemscore.DG>
-19.2321

> <Gold.Chemscore.ZeroCoef>
-5.4800

> <Gold.Chemscore.Hbond>
0.9646

> <Gold.Chemscore.Metal>
0.0000

> <Gold.Chemscore.Lipo>
120.6359

> <Gold.Chemscore.Internal_Hbond>
0.0000

> <Gold.Chemscore.DEClash>
1.1937

> <Gold.Chemscore.DEInternal>
0.4015

> <Gold.Chemscore.Rot>
1.4000

> <Gold.Chemscore.Internal.Correction>
   9.000000E+99

> <Gold.Chemscore.Hbonds>
donor molecule, donor type, donor heavy atom, donor atom, acceptor molecule, acceptor atom, score
      P1  H  7997  8009       L1    10  0.87

> <Gold.Chemscore.Hbond.Weighted>
-3.2216

> <Gold.Chemscore.Metal.Weighted>
-0.0000

> <Gold.Chemscore.Lipo.Weighted>
-14.1144

> <Gold.Chemscore.Internal_Hbond.Weighted>
0.0000

> <Gold.Chemscore.DEClash.Weighted>
1.1937

> <Gold.Chemscore.DEInternal.Weighted>
0.4015

> <Gold.Chemscore.Rot.Weighted>
3.5839

> <Gold.Chemscore.Internal.Correction.Weighted>
   9.000000E+99

> <Gold.Protein.RotatedTorsions>
[ 6907 6896 6895 6894 ] final  -36.24 input  -60.11 | X-H torsion
[ 7974 7965 7964 7962 ] final  144.58 input  175.53 | X-H torsion
[ 8008 7997 7996 7995 ] final  137.03 input   59.86 | X-H torsion
[ 10167 10162 10161 10158 ] final  -89.57 input  -65.29 | X-H torsion
[ 10718 10713 10712 10709 ] final  -66.88 input   66.30 | X-H torsion
[ 10763 10752 10751 10750 ] final   84.37 input  -60.55 | X-H torsion
[ 11005 11000 10999 10996 ] final   50.77 input  -57.11 | X-H torsion

> <Gold.Protein.ActiveResidues>
 VAL166  LYS551  ARG553  GLY616  TRP617  ASP618  TYR619  PRO620  LYS621  CYS622 
 ASP623  PHE694  ASN695  SER759  ASP760  ASP761  ALA762  ILE779  LEU786  VAL792 
 PHE793  MET794  SER795  GLU796  ALA797  LYS798  CYS799  TRP800  GLU811  SER814 

> <Gold.Protein.RotatedAtoms>
  151.0296  134.9529  159.8103 H   0  0  0  0  0  0  0  0  0  0  0  0  # atno 6907 bound_to 6896
  152.5343  134.2797  159.9013 H   0  0  0  0  0  0  0  0  0  0  0  0  # atno 6908 bound_to 6896
  151.2806  133.4169  159.2661 H   0  0  0  0  0  0  0  0  0  0  0  0  # atno 6909 bound_to 6896
  144.8824  139.5680  143.5837 H   0  0  0  0  0  0  0  0  0  0  0  0  # atno 7974 bound_to 7965
  156.3003  140.2430  156.3842 H   0  0  0  0  0  0  0  0  0  0  0  0  # atno 8008 bound_to 7997
  154.8673  140.0417  157.1722 H   0  0  0  0  0  0  0  0  0  0  0  0  # atno 8009 bound_to 7997
  154.8832  140.2952  155.5417 H   0  0  0  0  0  0  0  0  0  0  0  0  # atno 8010 bound_to 7997
  140.3635  143.2830  151.9586 H   0  0  0  0  0  0  0  0  0  0  0  0  # atno 10167 bound_to 10162
  156.0588  130.4269  150.1773 H   0  0  0  0  0  0  0  0  0  0  0  0  # atno 10718 bound_to 10713
  153.1375  135.4657  154.9445 H   0  0  0  0  0  0  0  0  0  0  0  0  # atno 10763 bound_to 10752
  154.7719  135.3161  154.8175 H   0  0  0  0  0  0  0  0  0  0  0  0  # atno 10764 bound_to 10752
  153.8704  135.6904  153.4829 H   0  0  0  0  0  0  0  0  0  0  0  0  # atno 10765 bound_to 10752
  140.0989  134.5108  155.8781 H   0  0  0  0  0  0  0  0  0  0  0  0  # atno 11005 bound_to 11000
  146.3003  139.7404  142.9096 LP  0  0  0  0  0  0  0  0  0  0  0  0  # atno 17320 bound_to 7965
  145.3931  141.0375  143.3113 LP  0  0  0  0  0  0  0  0  0  0  0  0  # atno 17321 bound_to 7965
  139.4811  144.5972  151.7670 LP  0  0  0  0  0  0  0  0  0  0  0  0  # atno 17342 bound_to 10162
  140.5104  144.1034  150.5993 LP  0  0  0  0  0  0  0  0  0  0  0  0  # atno 17343 bound_to 10162
  156.9845  130.9874  151.3429 LP  0  0  0  0  0  0  0  0  0  0  0  0  # atno 17370 bound_to 10713
  157.5580  130.8226  149.8228 LP  0  0  0  0  0  0  0  0  0  0  0  0  # atno 17371 bound_to 10713
  141.2100  133.6690  156.6478 LP  0  0  0  0  0  0  0  0  0  0  0  0  # atno 17394 bound_to 11000
  140.3247  134.7978  157.4280 LP  0  0  0  0  0  0  0  0  0  0  0  0  # atno 17395 bound_to 11000

$$$$
