#       Name:                AV-unprocessed.smi:814
#       Creating user name   scv26
#       Creation time:       Fri Mar 27 01:26:25 2020


#       File generated by GOLD software.
#

@<TRIPOS>MOLECULE
AV-unprocessed.smi:814
    39    40     1
SMALL
NO_CHARGES


@<TRIPOS>ATOM
      1 ****        -2.4397   3.0216  -2.6723 C.3            1 S1                 0.0000
      2 ****        -2.3881   3.5531  -1.3240 N.pl3          1 S1                 0.0000
      3 ****        -2.7719   4.8302  -0.9363 C.2            1 S1                 0.0000
      4 ****        -2.5506   4.9143   0.4171 C.2            1 S1                 0.0000
      5 ****        -2.0358   3.7068   0.8759 N.2            1 S1                 0.0000
      6 ****        -1.9682   2.9336  -0.2038 C.2            1 S1                 0.0000
      7 ****        -1.4454   1.5304  -0.1875 C.3            1 S1                 0.0000
      8 ****         0.0839   1.4753  -0.3310 C.3            1 S1                 0.0000
      9 ****         0.5746   0.1022  -0.3406 N.am           1 S1                 0.0000
     10 ****         0.7987  -0.6437   0.7523 C.2            1 S1                 0.0000
     11 ****         0.6013  -0.2371   1.8978 O.2            1 S1                 0.0000
     12 ****         1.3299  -2.0640   0.5161 C.3            1 S1                 0.0000
     13 ****         0.3502  -3.1286   1.0622 C.3            1 S1                 0.0000
     14 ****         0.9626  -4.5182   1.0731 C.2            1 S1                 0.0000
     15 ****         2.2823  -4.7455   0.9574 C.2            1 S1                 0.0000
     16 ****         3.3114  -3.6389   0.8081 C.3            1 S1                 0.0000
     17 ****         2.7291  -2.2511   1.1368 C.3            1 S1                 0.0000
     18 ****        -2.7056   3.8100  -3.3771 H              1 S1                 0.0000
     19 ****        -3.1883   2.2309  -2.7280 H              1 S1                 0.0000
     20 ****        -1.4664   2.6167  -2.9498 H              1 S1                 0.0000
     21 ****        -3.1574   5.5561  -1.6371 H              1 S1                 0.0000
     22 ****        -2.7190   5.7427   1.0894 H              1 S1                 0.0000
     23 ****        -1.7491   1.0648   0.7510 H              1 S1                 0.0000
     24 ****        -1.9220   0.9524  -0.9796 H              1 S1                 0.0000
     25 ****         0.3864   1.9479  -1.2658 H              1 S1                 0.0000
     26 ****         0.5636   2.0399   0.4706 H              1 S1                 0.0000
     27 ****         0.7661  -0.3088  -1.2429 H              1 S1                 0.0000
     28 ****         1.4250  -2.2168  -0.5607 H              1 S1                 0.0000
     29 ****         0.0335  -2.8943   2.0797 H              1 S1                 0.0000
     30 ****        -0.5502  -3.1505   0.4472 H              1 S1                 0.0000
     31 ****         0.2834  -5.3494   1.1935 H              1 S1                 0.0000
     32 ****         2.6541  -5.7595   0.9583 H              1 S1                 0.0000
     33 ****         4.1617  -3.8478   1.4578 H              1 S1                 0.0000
     34 ****         3.6821  -3.6593  -0.2171 H              1 S1                 0.0000
     35 ****         3.4138  -1.4761   0.7889 H              1 S1                 0.0000
     36 ****         2.6649  -2.1393   2.2205 H              1 S1                 0.0000
     37 ****        -1.7740   3.4716   1.8119 LP             1 S1                 0.0000
     38 ****         0.2576   0.6901   2.0470 LP             1 S1                 0.0000
     39 ****         0.7847  -0.8341   2.6788 LP             1 S1                 0.0000
@<TRIPOS>BOND
    1    1    2 1     
    2    1   18 1     
    3    1   19 1     
    4    1   20 1     
    5    2    6 1     
    6    2    3 1     
    7    3    4 2     
    8    3   21 1     
    9    4    5 1     
   10    4   22 1     
   11    5    6 2     
   12    6    7 1     
   13    7    8 1     
   14    7   23 1     
   15    7   24 1     
   16    8    9 1     
   17    8   25 1     
   18    8   26 1     
   19    9   10 am    
   20    9   27 1     
   21   10   11 2     
   22   10   12 1     
   23   12   17 1     
   24   12   13 1     
   25   12   28 1     
   26   13   14 1     
   27   13   29 1     
   28   13   30 1     
   29   14   15 2     
   30   14   31 1     
   31   15   16 1     
   32   15   32 1     
   33   16   17 1     
   34   16   33 1     
   35   16   34 1     
   36   17   35 1     
   37   17   36 1     
   38    5   37 1     
   39   11   38 1     
   40   11   39 1     
@<TRIPOS>SUBSTRUCTURE
      1 S1             1
@<TRIPOS>SET
LONE_PAIRS      STATIC     ATOMS    <user>   **** ""
3 37 38 39
DONOR_HYDROGENS      STATIC     ATOMS    <user>   **** ""
1 27
ATOM$BLUE        STATIC     ATOMS    COLORGROUP SYSTEM
3 37 38 39
ATOM$RED        STATIC     ATOMS    COLORGROUP SYSTEM
1 27
