#       Name:                AV-unprocessed.smi:3032
#       Creating user name   scv26
#       Creation time:       Fri Mar 27 16:52:54 2020


#       File generated by GOLD software.
#

@<TRIPOS>MOLECULE
AV-unprocessed.smi:3032
    41    42     1
SMALL
NO_CHARGES


@<TRIPOS>ATOM
      1 ****        -2.0917   1.5760   1.5766 C.3            1 S1                 0.0000
      2 ****        -1.4381   1.3376   0.2081 C.3            1 S1                 0.0000
      3 ****        -2.0726   2.2206  -0.8824 C.3            1 S1                 0.0000
      4 ****        -1.4032   2.0001  -2.2476 C.3            1 S1                 0.0000
      5 ****        -1.4137   0.5133  -2.6565 C.3            1 S1                 0.0000
      6 ****        -0.8546  -0.4352  -1.5672 C.3            1 S1                 0.0000
      7 ****         0.6823  -0.4328  -1.4624 C.2            1 S1                 0.0000
      8 ****         1.3464   0.5468  -1.8008 O.2            1 S1                 0.0000
      9 ****         1.2375  -1.5571  -0.9849 N.am           1 S1                 0.0000
     10 ****         2.6625  -1.7536  -0.7361 C.3            1 S1                 0.0000
     11 ****         3.1820  -0.9728   0.4899 C.3            1 S1                 0.0000
     12 ****         2.3542  -1.1603   1.7227 C.2            1 S1                 0.0000
     13 ****         2.5025  -2.2379   2.4952 N.2            1 S1                 0.0000
     14 ****         1.5623  -2.0372   3.4437 N.pl3          1 S1                 0.0000
     15 ****         0.9277  -0.8952   3.1844 C.2            1 S1                 0.0000
     16 ****         1.3754  -0.2800   2.0986 N.2            1 S1                 0.0000
     17 ****        -1.5213  -0.1467  -0.2028 C.3            1 S1                 0.0000
     18 ****        -3.1513   1.3191   1.5608 H              1 S1                 0.0000
     19 ****        -2.0060   2.6211   1.8753 H              1 S1                 0.0000
     20 ****        -1.6137   0.9736   2.3496 H              1 S1                 0.0000
     21 ****        -0.3869   1.6138   0.3010 H              1 S1                 0.0000
     22 ****        -3.1382   2.0008  -0.9614 H              1 S1                 0.0000
     23 ****        -1.9945   3.2724  -0.6052 H              1 S1                 0.0000
     24 ****        -1.9159   2.5913  -3.0069 H              1 S1                 0.0000
     25 ****        -0.3825   2.3800  -2.2152 H              1 S1                 0.0000
     26 ****        -2.4410   0.2206  -2.8768 H              1 S1                 0.0000
     27 ****        -0.8642   0.3848  -3.5901 H              1 S1                 0.0000
     28 ****        -1.1305  -1.4497  -1.8600 H              1 S1                 0.0000
     29 ****         0.6233  -2.3192  -0.7367 H              1 S1                 0.0000
     30 ****         2.8145  -2.8204  -0.5709 H              1 S1                 0.0000
     31 ****         3.2394  -1.4947  -1.6251 H              1 S1                 0.0000
     32 ****         4.2103  -1.2667   0.7026 H              1 S1                 0.0000
     33 ****         3.2183   0.0922   0.2569 H              1 S1                 0.0000
     34 ****         0.1256  -0.5090   3.7958 H              1 S1                 0.0000
     35 ****        -1.0736  -0.7701   0.5725 H              1 S1                 0.0000
     36 ****        -2.5686  -0.4482  -0.2517 H              1 S1                 0.0000
     37 ****         1.3985  -2.6779   4.2071 H              1 S1                 0.0000
     38 ****         0.8891   1.3636  -2.1525 LP             1 S1                 0.0000
     39 ****         2.3432   0.5258  -1.7240 LP             1 S1                 0.0000
     40 ****         3.1445  -2.9983   2.3971 LP             1 S1                 0.0000
     41 ****         1.0829   0.5781   1.6766 LP             1 S1                 0.0000
@<TRIPOS>BOND
    1    1    2 1     
    2    1   18 1     
    3    1   19 1     
    4    1   20 1     
    5    2   17 1     
    6    2    3 1     
    7    2   21 1     
    8    3    4 1     
    9    3   22 1     
   10    3   23 1     
   11    4    5 1     
   12    4   24 1     
   13    4   25 1     
   14    5    6 1     
   15    5   26 1     
   16    5   27 1     
   17    6    7 1     
   18    6   17 1     
   19    6   28 1     
   20    7    8 2     
   21    7    9 am    
   22    9   10 1     
   23    9   29 1     
   24   10   11 1     
   25   10   30 1     
   26   10   31 1     
   27   11   32 1     
   28   11   33 1     
   29   11   12 1     
   30   12   16 1     
   31   12   13 2     
   32   13   14 1     
   33   14   15 1     
   34   14   37 1     
   35   15   16 2     
   36   15   34 1     
   37   17   35 1     
   38   17   36 1     
   39    8   38 1     
   40    8   39 1     
   41   13   40 1     
   42   16   41 1     
@<TRIPOS>SUBSTRUCTURE
      1 S1             1
@<TRIPOS>SET
LONE_PAIRS      STATIC     ATOMS    <user>   **** ""
4 38 39 40 41
DONOR_HYDROGENS      STATIC     ATOMS    <user>   **** ""
2 29 37
ATOM$BLUE        STATIC     ATOMS    COLORGROUP SYSTEM
4 38 39 40 41
ATOM$RED        STATIC     ATOMS    COLORGROUP SYSTEM
2 29 37
