AV-unprocessed.smi:1334|AV-procd|sdf|5493|dock9
  -GOLD-   22720 5 73D 1   1.00000     0.00000
 Structure written by MMmdl.
 38 39  0  0  0  0  0  0  0  0  1 V2000
  150.3861  138.7263  154.0146 C   0  0  0  0  0  0  0  0  0  0  0  0
  151.4548  137.9794  154.8391 C   0  0  1  0  0  0  0  0  0  0  0  0
  151.9472  138.7930  156.0449 C   0  0  0  0  0  0  0  0  0  0  0  0
  153.1394  138.7964  156.3528 O   0  0  0  0  0  0  0  0  0  0  0  0
  151.0108  139.4895  156.7094 N   0  0  0  0  0  0  0  0  0  0  0  0
  151.2535  140.3924  157.8311 C   0  0  0  0  0  0  0  0  0  0  0  0
  150.9517  141.8544  157.4542 C   0  0  0  0  0  0  0  0  0  0  0  0
  151.5145  142.8730  158.4350 C   0  0  0  0  0  0  0  0  0  0  0  0
  152.1294  142.5011  159.5749 C   0  0  0  0  0  0  0  0  0  0  0  0
  152.6921  143.4747  160.5943 C   0  0  0  0  0  0  0  0  0  0  0  0
  152.1518  144.8994  160.3938 C   0  0  0  0  0  0  0  0  0  0  0  0
  152.1881  145.2937  158.9123 C   0  0  0  0  0  0  0  0  0  0  0  0
  151.3377  144.3392  158.0546 C   0  0  0  0  0  0  0  0  0  0  0  0
  150.9984  136.6656  155.2764 N   0  0  0  0  0  0  0  0  0  0  0  0
  149.8882  135.9960  154.9599 C   0  0  0  0  0  0  0  0  0  0  0  0
  149.8067  134.7943  155.5133 N   0  0  0  0  0  0  0  0  0  0  0  0
  150.9901  134.7773  156.1954 C   0  0  0  0  0  0  0  0  0  0  0  0
  151.7484  135.8666  156.0762 N   0  0  0  0  0  0  0  0  0  0  0  0
  150.7678  139.6815  153.6525 H   0  0  0  0  0  0  0  0  0  0  0  0
  149.4855  138.9302  154.5955 H   0  0  0  0  0  0  0  0  0  0  0  0
  150.0904  138.1417  153.1431 H   0  0  0  0  0  0  0  0  0  0  0  0
  152.3110  137.8171  154.1821 H   0  0  0  0  0  0  0  0  0  0  0  0
  150.0567  139.4182  156.3876 H   0  0  0  0  0  0  0  0  0  0  0  0
  150.6038  140.0892  158.6524 H   0  0  0  0  0  0  0  0  0  0  0  0
  152.2735  140.3020  158.2077 H   0  0  0  0  0  0  0  0  0  0  0  0
  151.3482  142.0562  156.4581 H   0  0  0  0  0  0  0  0  0  0  0  0
  149.8735  142.0006  157.3836 H   0  0  0  0  0  0  0  0  0  0  0  0
  152.2515  141.4526  159.8042 H   0  0  0  0  0  0  0  0  0  0  0  0
  152.4563  143.1249  161.5986 H   0  0  0  0  0  0  0  0  0  0  0  0
  153.7786  143.4663  160.5049 H   0  0  0  0  0  0  0  0  0  0  0  0
  151.1239  144.9547  160.7548 H   0  0  0  0  0  0  0  0  0  0  0  0
  152.7293  145.6056  160.9911 H   0  0  0  0  0  0  0  0  0  0  0  0
  151.8400  146.3188  158.7832 H   0  0  0  0  0  0  0  0  0  0  0  0
  153.2211  145.2726  158.5631 H   0  0  0  0  0  0  0  0  0  0  0  0
  151.5875  144.4758  157.0023 H   0  0  0  0  0  0  0  0  0  0  0  0
  150.2843  144.5955  158.1625 H   0  0  0  0  0  0  0  0  0  0  0  0
  149.1236  136.3956  154.3100 H   0  0  0  0  0  0  0  0  0  0  0  0
  151.3076  133.9319  156.7876 H   0  0  0  0  0  0  0  0  0  0  0  0
  1  2  1  0  0  0  0
  1 19  1  0  0  0  0
  1 20  1  0  0  0  0
  1 21  1  0  0  0  0
  2  3  1  0  0  0  0
  2 14  1  0  0  0  0
  2 22  1  0  0  0  0
  3  4  2  0  0  0  0
  3  5  1  0  0  0  0
  5  6  1  0  0  0  0
  5 23  1  0  0  0  0
  6  7  1  0  0  0  0
  6 24  1  0  0  0  0
  6 25  1  0  0  0  0
  7  8  1  0  0  0  0
  7 26  1  0  0  0  0
  7 27  1  0  0  0  0
  8 13  1  0  0  0  0
  8  9  2  0  0  0  0
  9 10  1  0  0  0  0
  9 28  1  0  0  0  0
 10 11  1  0  0  0  0
 10 29  1  0  0  0  0
 10 30  1  0  0  0  0
 11 12  1  0  0  0  0
 11 31  1  0  0  0  0
 11 32  1  0  0  0  0
 12 13  1  0  0  0  0
 12 33  1  0  0  0  0
 12 34  1  0  0  0  0
 13 35  1  0  0  0  0
 13 36  1  0  0  0  0
 14 18  1  0  0  0  0
 14 15  1  0  0  0  0
 15 16  2  0  0  0  0
 15 37  1  0  0  0  0
 16 17  1  0  0  0  0
 17 18  2  0  0  0  0
 17 38  1  0  0  0  0
M  END
> <s_m_source_file>
AV-unprocessed.smi

> <i_m_source_file_index>
1334

> <i_lp_mmshare_version>
43012

> <i_f3d_flags>
0

> <s_epik_input>
bjFbY0hdbltjSF1uMVtDQEhdKFtDSDNdKUMoPU8pW05IXVtDSDJdW0NIMl1DMj1bQ0hdW0NIMl1bQ0gyXVtDSDJdW0NIMl0y

> <s_epik_cmdline>
J2VwaWtfcHl0aG9uJywgJy1waCcsICc3LjAnLCAnLXRuJywgJzgnLCAnLW1hJywgJzIwMCcsICctbWV0YWxfYmluZGluZycsICctaW1hZScsICc8aW5maWxlLm1hZT4nLCAnLW9tYWUnLCAnPG91dGZpbGUubWFlPic=

> <r_lp_tautomer_probability>
1

> <r_epik_Ionization_Penalty>
1.26383e-05

> <r_epik_Ionization_Penalty_Charging>
0

> <r_epik_Ionization_Penalty_Neutral>
1.26383e-05

> <r_epik_State_Penalty>
-0

> <r_epik_Charging_Adjusted_Penalty>
0

> <i_epik_Tot_Q>
0

> <i_epik_Tot_abs_Q>
0

> <r_epik_Metal_State_Penalty>
-0

> <b_epik_Metal_Only>
0

> <s_lp_Force_Field>
OPLS_2005

> <r_lp_Energy>
11.5149

> <b_lp_Chiralities_Consistent>
1

> <s_lp_Variant>
AV-unprocessed.smi:1334-2

> <Gold.Version>
5.8.1

> <Gold.Id.Protein>
6NUR|6NUR_protein|mol2

> <Gold.PLP.Fitness>
46.7770

> <Gold.PLP.PLP>
-39.6122

> <Gold.PLP.part.hbond>
-2.0000

> <Gold.PLP.part.metal>
0.0000

> <Gold.PLP.part.buried>
-5.2394

> <Gold.PLP.part.nonpolar>
-32.3238

> <Gold.PLP.part.repulsive>
0.1492

> <Gold.PLP.ligand.clash>
0.0000

> <Gold.PLP.ligand.torsion>
0.9070

> <Gold.PLP.Chemscore.Hbond>
2.0000

> <Gold.PLP.Chemscore.CHOScore>
0.9570

> <Gold.PLP.Chemscore.Metal>
0.0000

> <Gold.Chemscore.Hbonds>
donor molecule, donor type, donor heavy atom, donor atom, acceptor molecule, acceptor atom, score
      P1  H  7997  8010       L1     4  1.00
      P1  H 10752 10763       L1    18  1.00
      L1  C    15    37       P1  7948  0.95

> <Gold.PLP.Chemscore.Internal.Correction>
0.1079

> <Gold.Rescore>
     Score         DG    S(hbond)    S(metal)    S(lipo)     H(rot)  DE(clash)    DE(int)     intcor
     14.77     -16.14       1.73        0.00      94.11       2.40       0.53       0.84       ----

> <Gold.Chemscore.Fitness>
14.7669

> <Gold.Chemscore.DG>
-16.1387

> <Gold.Chemscore.ZeroCoef>
-5.4800

> <Gold.Chemscore.Hbond>
1.7348

> <Gold.Chemscore.Metal>
0.0000

> <Gold.Chemscore.Lipo>
94.1141

> <Gold.Chemscore.Internal_Hbond>
0.0000

> <Gold.Chemscore.DEClash>
0.5279

> <Gold.Chemscore.DEInternal>
0.8439

> <Gold.Chemscore.Rot>
2.4011

> <Gold.Chemscore.Internal.Correction>
   9.000000E+99

> <Gold.Chemscore.Hbonds>
donor molecule, donor type, donor heavy atom, donor atom, acceptor molecule, acceptor atom, score
      P1  H  7997  8010       L1     4  0.99
      P1  H 10752 10763       L1    18  0.20

> <Gold.Chemscore.Hbond.Weighted>
-5.7943

> <Gold.Chemscore.Metal.Weighted>
-0.0000

> <Gold.Chemscore.Lipo.Weighted>
-11.0114

> <Gold.Chemscore.Internal_Hbond.Weighted>
0.0000

> <Gold.Chemscore.DEClash.Weighted>
0.5279

> <Gold.Chemscore.DEInternal.Weighted>
0.8439

> <Gold.Chemscore.Rot.Weighted>
6.1469

> <Gold.Chemscore.Internal.Correction.Weighted>
   9.000000E+99

> <Gold.Protein.RotatedTorsions>
[ 6907 6896 6895 6894 ] final -145.55 input  -60.11 | X-H torsion
[ 7974 7965 7964 7962 ] final -103.20 input  175.53 | X-H torsion
[ 8008 7997 7996 7995 ] final   73.85 input   59.86 | X-H torsion
[ 10167 10162 10161 10158 ] final    9.45 input  -65.29 | X-H torsion
[ 10718 10713 10712 10709 ] final    3.79 input   66.30 | X-H torsion
[ 10763 10752 10751 10750 ] final   84.75 input  -60.55 | X-H torsion
[ 11005 11000 10999 10996 ] final  170.70 input  -57.11 | X-H torsion

> <Gold.Protein.ActiveResidues>
 VAL166  LYS551  ARG553  GLY616  TRP617  ASP618  TYR619  PRO620  LYS621  CYS622 
 ASP623  PHE694  ASN695  SER759  ASP760  ASP761  ALA762  ILE779  LEU786  VAL792 
 PHE793  MET794  SER795  GLU796  ALA797  LYS798  CYS799  TRP800  GLU811  SER814 

> <Gold.Protein.RotatedAtoms>
  151.1294  133.5048  159.2599 H   0  0  0  0  0  0  0  0  0  0  0  0  # atno 6907 bound_to 6896
  151.1774  135.0345  159.8788 H   0  0  0  0  0  0  0  0  0  0  0  0  # atno 6908 bound_to 6896
  152.5459  134.1150  159.8428 H   0  0  0  0  0  0  0  0  0  0  0  0  # atno 6909 bound_to 6896
  145.2590  140.9263  143.3052 H   0  0  0  0  0  0  0  0  0  0  0  0  # atno 7974 bound_to 7965
  155.7898  140.3479  155.5343 H   0  0  0  0  0  0  0  0  0  0  0  0  # atno 8008 bound_to 7997
  155.8645  140.0976  157.1612 H   0  0  0  0  0  0  0  0  0  0  0  0  # atno 8009 bound_to 7997
  154.4014  140.1352  156.3989 H   0  0  0  0  0  0  0  0  0  0  0  0  # atno 8010 bound_to 7997
  140.6254  143.8113  150.7226 H   0  0  0  0  0  0  0  0  0  0  0  0  # atno 10167 bound_to 10162
  156.8830  130.5660  149.5652 H   0  0  0  0  0  0  0  0  0  0  0  0  # atno 10718 bound_to 10713
  153.1411  135.4642  154.9496 H   0  0  0  0  0  0  0  0  0  0  0  0  # atno 10763 bound_to 10752
  154.7747  135.3169  154.8118 H   0  0  0  0  0  0  0  0  0  0  0  0  # atno 10764 bound_to 10752
  153.8641  135.6910  153.4834 H   0  0  0  0  0  0  0  0  0  0  0  0  # atno 10765 bound_to 10752
  140.3111  134.7516  157.3992 H   0  0  0  0  0  0  0  0  0  0  0  0  # atno 11005 bound_to 11000
  144.9435  139.4162  143.6437 LP  0  0  0  0  0  0  0  0  0  0  0  0  # atno 17320 bound_to 7965
  146.3281  139.8407  142.8891 LP  0  0  0  0  0  0  0  0  0  0  0  0  # atno 17321 bound_to 7965
  140.1712  143.4193  152.1999 LP  0  0  0  0  0  0  0  0  0  0  0  0  # atno 17342 bound_to 10162
  139.5475  144.7311  151.4537 LP  0  0  0  0  0  0  0  0  0  0  0  0  # atno 17343 bound_to 10162
  156.0667  130.5709  150.9303 LP  0  0  0  0  0  0  0  0  0  0  0  0  # atno 17370 bound_to 10713
  157.6129  131.0935  150.8763 LP  0  0  0  0  0  0  0  0  0  0  0  0  # atno 17371 bound_to 10713
  140.1024  134.5455  155.8341 LP  0  0  0  0  0  0  0  0  0  0  0  0  # atno 17394 bound_to 11000
  141.2108  133.6699  156.6534 LP  0  0  0  0  0  0  0  0  0  0  0  0  # atno 17395 bound_to 11000

$$$$
