AV-unprocessed.smi:1705|AV-procd|sdf|6884|dock1
  -GOLD-   22720 8 93D 1   1.00000     0.00000
 Structure written by MMmdl.
 38 39  0  0  0  0  0  0  0  0  1 V2000
  152.0435  143.4021  158.0551 C   0  0  0  0  0  0  0  0  0  0  0  0
  151.4367  142.1374  158.6787 C   0  0  2  0  0  0  0  0  0  0  0  0
  152.4205  141.4830  159.5317 N   0  0  0  0  0  0  0  0  0  0  0  0
  152.9422  141.8148  160.7823 C   0  0  0  0  0  0  0  0  0  0  0  0
  152.5630  142.9218  161.4884 C   0  0  0  0  0  0  0  0  0  0  0  0
  151.5670  143.8565  161.0680 C   0  0  0  0  0  0  0  0  0  0  0  0
  150.7790  144.6099  160.6756 N   0  0  0  0  0  0  0  0  0  0  0  0
  153.1392  143.2441  162.7939 C   0  0  0  0  0  0  0  0  0  0  0  0
  152.8012  144.2198  163.4688 O   0  0  0  0  0  0  0  0  0  0  0  0
  154.1216  142.3428  163.2495 N   0  0  0  0  0  0  0  0  0  0  0  0
  154.7187  142.6107  164.5439 C   0  0  0  0  0  0  0  0  0  0  0  0
  154.5148  141.1825  162.5554 C   0  0  0  0  0  0  0  0  0  0  0  0
  155.3617  140.4113  163.0173 O   0  0  0  0  0  0  0  0  0  0  0  0
  153.8921  140.9301  161.3083 N   0  0  0  0  0  0  0  0  0  0  0  0
  154.3413  139.7152  160.6537 C   0  0  0  0  0  0  0  0  0  0  0  0
  150.8948  141.1690  157.6056 C   0  0  1  0  0  0  0  0  0  0  0  0
  150.3388  141.8180  156.3319 C   0  0  0  0  0  0  0  0  0  0  0  0
  150.5469  140.7217  155.3120 C   0  0  0  0  0  0  0  0  0  0  0  0
  151.8910  140.1514  155.7507 C   0  0  0  0  0  0  0  0  0  0  0  0
  151.9062  140.2628  157.1702 O   0  0  0  0  0  0  0  0  0  0  0  0
  151.3163  143.9155  157.4255 H   0  0  0  0  0  0  0  0  0  0  0  0
  152.9127  143.1699  157.4390 H   0  0  0  0  0  0  0  0  0  0  0  0
  152.3628  144.1030  158.8270 H   0  0  0  0  0  0  0  0  0  0  0  0
  150.6035  142.4850  159.2828 H   0  0  0  0  0  0  0  0  0  0  0  0
  152.9603  140.7937  159.0285 H   0  0  0  0  0  0  0  0  0  0  0  0
  155.6920  142.1255  164.6236 H   0  0  0  0  0  0  0  0  0  0  0  0
  154.0252  142.2329  165.2967 H   0  0  0  0  0  0  0  0  0  0  0  0
  154.8736  143.6860  164.6465 H   0  0  0  0  0  0  0  0  0  0  0  0
  155.3805  139.8726  160.3606 H   0  0  0  0  0  0  0  0  0  0  0  0
  153.7320  139.4949  159.7805 H   0  0  0  0  0  0  0  0  0  0  0  0
  154.2396  138.8914  161.3629 H   0  0  0  0  0  0  0  0  0  0  0  0
  150.1082  140.5554  158.0476 H   0  0  0  0  0  0  0  0  0  0  0  0
  149.2952  142.1178  156.4291 H   0  0  0  0  0  0  0  0  0  0  0  0
  150.9180  142.6963  156.0451 H   0  0  0  0  0  0  0  0  0  0  0  0
  149.7665  139.9657  155.4071 H   0  0  0  0  0  0  0  0  0  0  0  0
  150.5520  141.0850  154.2841 H   0  0  0  0  0  0  0  0  0  0  0  0
  152.0358  139.1200  155.4283 H   0  0  0  0  0  0  0  0  0  0  0  0
  152.7078  140.7515  155.3477 H   0  0  0  0  0  0  0  0  0  0  0  0
  1  2  1  0  0  0  0
  1 21  1  0  0  0  0
  1 22  1  0  0  0  0
  1 23  1  0  0  0  0
  2  3  1  0  0  0  0
  2 16  1  0  0  0  0
  2 24  1  0  0  0  0
  3  4  1  0  0  0  0
  3 25  1  0  0  0  0
  4 14  1  0  0  0  0
  4  5  2  0  0  0  0
  5  6  1  0  0  0  0
  5  8  1  0  0  0  0
  6  7  3  0  0  0  0
  8  9  2  0  0  0  0
  8 10  1  0  0  0  0
 10 11  1  0  0  0  0
 10 12  1  0  0  0  0
 11 26  1  0  0  0  0
 11 27  1  0  0  0  0
 11 28  1  0  0  0  0
 12 13  2  0  0  0  0
 12 14  1  0  0  0  0
 14 15  1  0  0  0  0
 15 29  1  0  0  0  0
 15 30  1  0  0  0  0
 15 31  1  0  0  0  0
 16 20  1  0  0  0  0
 16 17  1  0  0  0  0
 16 32  1  0  0  0  0
 17 18  1  0  0  0  0
 17 33  1  0  0  0  0
 17 34  1  0  0  0  0
 18 19  1  0  0  0  0
 18 35  1  0  0  0  0
 18 36  1  0  0  0  0
 19 20  1  0  0  0  0
 19 37  1  0  0  0  0
 19 38  1  0  0  0  0
M  END
> <s_m_source_file>
AV-unprocessed.smi

> <i_m_source_file_index>
1705

> <i_lp_mmshare_version>
43012

> <i_f3d_flags>
0

> <s_epik_input>
TzFbQ0gyXVtDSDJdW0NIMl1bQ0BIXTFbQ0BIXShbQ0gzXSlbTkhdYzJjKEMjTiljKD1PKW4oW0NIM10pYyg9TyluMltDSDNd

> <s_epik_cmdline>
J2VwaWtfcHl0aG9uJywgJy1waCcsICc3LjAnLCAnLXRuJywgJzgnLCAnLW1hJywgJzIwMCcsICctbWV0YWxfYmluZGluZycsICctaW1hZScsICc8aW5maWxlLm1hZT4nLCAnLW9tYWUnLCAnPG91dGZpbGUubWFlPic=

> <r_epik_Ionization_Penalty>
0.000446268

> <r_epik_Ionization_Penalty_Charging>
9.41922e-10

> <r_epik_Ionization_Penalty_Neutral>
0.000446267

> <r_epik_State_Penalty>
0.000275531

> <r_epik_Charging_Adjusted_Penalty>
0.000275532

> <i_epik_Tot_Q>
0

> <i_epik_Tot_abs_Q>
0

> <r_epik_Metal_State_Penalty>
-0

> <b_epik_Metal_Only>
0

> <s_lp_Force_Field>
OPLS_2005

> <r_lp_Energy>
40.5078

> <b_lp_Chiralities_Consistent>
1

> <s_lp_Variant>
AV-unprocessed.smi:1705-3

> <Gold.Version>
5.8.1

> <Gold.Id.Protein>
6NUR|6NUR_protein|mol2

> <Gold.PLP.Fitness>
37.5693

> <Gold.PLP.PLP>
-39.1663

> <Gold.PLP.part.hbond>
-0.6580

> <Gold.PLP.part.metal>
0.0000

> <Gold.PLP.part.buried>
-0.2725

> <Gold.PLP.part.nonpolar>
-39.8605

> <Gold.PLP.part.repulsive>
1.7629

> <Gold.PLP.ligand.clash>
1.7701

> <Gold.PLP.ligand.torsion>
0.8072

> <Gold.PLP.Chemscore.Hbond>
0.0000

> <Gold.PLP.Chemscore.CHOScore>
0.0000

> <Gold.PLP.Chemscore.Metal>
0.0000

> <Gold.PLP.Chemscore.Internal.Correction>
1.7873

> <Gold.Rescore>
     Score         DG    S(hbond)    S(metal)    S(lipo)     H(rot)  DE(clash)    DE(int)     intcor
      8.09     -10.92       0.00        0.00      74.45       1.28       0.87       1.96       ----

> <Gold.Chemscore.Fitness>
8.0926

> <Gold.Chemscore.DG>
-10.9195

> <Gold.Chemscore.ZeroCoef>
-5.4800

> <Gold.Chemscore.Hbond>
0.0000

> <Gold.Chemscore.Metal>
0.0000

> <Gold.Chemscore.Lipo>
74.4541

> <Gold.Chemscore.Internal_Hbond>
0.0000

> <Gold.Chemscore.DEClash>
0.8690

> <Gold.Chemscore.DEInternal>
1.9579

> <Gold.Chemscore.Rot>
1.2780

> <Gold.Chemscore.Internal.Correction>
   9.000000E+99

> <Gold.Chemscore.Hbond.Weighted>
-0.0000

> <Gold.Chemscore.Metal.Weighted>
-0.0000

> <Gold.Chemscore.Lipo.Weighted>
-8.7111

> <Gold.Chemscore.Internal_Hbond.Weighted>
0.0000

> <Gold.Chemscore.DEClash.Weighted>
0.8690

> <Gold.Chemscore.DEInternal.Weighted>
1.9579

> <Gold.Chemscore.Rot.Weighted>
3.2717

> <Gold.Chemscore.Internal.Correction.Weighted>
   9.000000E+99

> <Gold.Protein.RotatedTorsions>
[ 6907 6896 6895 6894 ] final   21.92 input  -60.11 | X-H torsion
[ 7974 7965 7964 7962 ] final   11.04 input  175.53 | X-H torsion
[ 8008 7997 7996 7995 ] final -117.30 input   59.86 | X-H torsion
[ 10167 10162 10161 10158 ] final -171.55 input  -65.29 | X-H torsion
[ 10718 10713 10712 10709 ] final  146.50 input   66.30 | X-H torsion
[ 10763 10752 10751 10750 ] final   65.15 input  -60.55 | X-H torsion
[ 11005 11000 10999 10996 ] final   15.66 input  -57.11 | X-H torsion

> <Gold.Protein.ActiveResidues>
 VAL166  LYS551  ARG553  GLY616  TRP617  ASP618  TYR619  PRO620  LYS621  CYS622 
 ASP623  PHE694  ASN695  SER759  ASP760  ASP761  ALA762  ILE779  LEU786  VAL792 
 PHE793  MET794  SER795  GLU796  ALA797  LYS798  CYS799  TRP800  GLU811  SER814 

> <Gold.Protein.RotatedAtoms>
  151.9191  135.0306  160.0520 H   0  0  0  0  0  0  0  0  0  0  0  0  # atno 6907 bound_to 6896
  152.2214  133.4982  159.5173 H   0  0  0  0  0  0  0  0  0  0  0  0  # atno 6908 bound_to 6896
  150.7001  134.1254  159.4092 H   0  0  0  0  0  0  0  0  0  0  0  0  # atno 6909 bound_to 6896
  146.2378  139.9544  142.8466 H   0  0  0  0  0  0  0  0  0  0  0  0  # atno 7974 bound_to 7965
  155.0815  140.0394  157.2640 H   0  0  0  0  0  0  0  0  0  0  0  0  # atno 8008 bound_to 7997
  154.6903  140.2652  155.6794 H   0  0  0  0  0  0  0  0  0  0  0  0  # atno 8009 bound_to 7997
  156.2726  140.2761  156.1479 H   0  0  0  0  0  0  0  0  0  0  0  0  # atno 8010 bound_to 7997
  139.5796  144.1454  152.1497 H   0  0  0  0  0  0  0  0  0  0  0  0  # atno 10167 bound_to 10162
  157.3324  131.0922  151.1151 H   0  0  0  0  0  0  0  0  0  0  0  0  # atno 10718 bound_to 10713
  153.0085  135.5367  154.6623 H   0  0  0  0  0  0  0  0  0  0  0  0  # atno 10763 bound_to 10752
  154.5828  135.2851  155.0717 H   0  0  0  0  0  0  0  0  0  0  0  0  # atno 10764 bound_to 10752
  154.1840  135.6511  153.5094 H   0  0  0  0  0  0  0  0  0  0  0  0  # atno 10765 bound_to 10752
  140.4558  134.1177  155.7709 H   0  0  0  0  0  0  0  0  0  0  0  0  # atno 11005 bound_to 11000
  145.1830  140.9776  143.4255 LP  0  0  0  0  0  0  0  0  0  0  0  0  # atno 17320 bound_to 7965
  144.9925  139.3676  143.6208 LP  0  0  0  0  0  0  0  0  0  0  0  0  # atno 17321 bound_to 7965
  140.1005  144.5544  150.6992 LP  0  0  0  0  0  0  0  0  0  0  0  0  # atno 17342 bound_to 10162
  140.7075  143.2479  151.4682 LP  0  0  0  0  0  0  0  0  0  0  0  0  # atno 17343 bound_to 10162
  157.2394  130.6562  149.5883 LP  0  0  0  0  0  0  0  0  0  0  0  0  # atno 17370 bound_to 10713
  155.9697  130.4573  150.5957 LP  0  0  0  0  0  0  0  0  0  0  0  0  # atno 17371 bound_to 10713
  141.1643  133.8732  157.1758 LP  0  0  0  0  0  0  0  0  0  0  0  0  # atno 17394 bound_to 11000
  139.9977  135.0040  157.0119 LP  0  0  0  0  0  0  0  0  0  0  0  0  # atno 17395 bound_to 11000

$$$$
