#       Name:                AV-unprocessed.smi:266
#       Creating user name   scv26
#       Creation time:       Thu Mar 26 21:25:03 2020


#       File generated by GOLD software.
#

@<TRIPOS>MOLECULE
AV-unprocessed.smi:266
    60    63     1
SMALL
NO_CHARGES


@<TRIPOS>ATOM
      1 ****        -5.6963   3.1267   0.0476 C.3            1 S1                 0.0000
      2 ****        -4.9364   1.9863   0.7471 C.3            1 S1                 0.0000
      3 ****        -5.1374   2.1610   2.1511 O.3            1 S1                 0.0000
      4 ****        -3.8939   2.1606   2.8375 C.3            1 S1                 0.0000
      5 ****        -2.9017   2.6523   1.7953 C.3            1 S1                 0.0000
      6 ****        -3.4018   1.9664   0.5288 C.3            1 S1                 0.0000
      7 ****        -2.9972   2.7278  -0.5955 O.3            1 S1                 0.0000
      8 ****        -2.8851   0.5135   0.3472 C.3            1 S1                 0.0000
      9 ****        -1.4352   0.3878   0.3393 N.pl3          1 S1                 0.0000
     10 ****        -0.6330   0.0720   1.4119 C.2            1 S1                 0.0000
     11 ****         0.6444   0.0175   1.1536 N.2            1 S1                 0.0000
     12 ****         0.7328   0.2952  -0.2059 C.ar           1 S1                 0.0000
     13 ****         1.8050   0.3928  -1.1415 C.ar           1 S1                 0.0000
     14 ****         3.1173   0.2034  -0.8599 N.3            1 S1                 0.0000
     15 ****         3.8680   1.4509  -0.8212 C.3            1 S1                 0.0000
     16 ****         3.4994  -0.8292   0.1030 C.3            1 S1                 0.0000
     17 ****         2.9630  -2.2358  -0.2394 C.3            1 S1                 0.0000
     18 ****         3.4942  -2.7768  -1.5827 C.3            1 S1                 0.0000
     19 ****         3.1490  -4.2662  -1.6813 C.3            1 S1                 0.0000
     20 ****         3.2260  -4.9069   0.0329 S.o2           1 S1                 0.0000
     21 ****         1.9432  -5.5469   0.3615 O.2            1 S1                 0.0000
     22 ****         4.4996  -5.6130   0.2391 O.2            1 S1                 0.0000
     23 ****         3.3160  -3.2656   0.8436 C.3            1 S1                 0.0000
     24 ****         1.4942   0.7128  -2.4232 N.ar           1 S1                 0.0000
     25 ****         0.2214   0.9053  -2.7802 C.ar           1 S1                 0.0000
     26 ****        -0.8760   0.8358  -2.0251 N.ar           1 S1                 0.0000
     27 ****        -0.5700   0.5311  -0.7318 C.ar           1 S1                 0.0000
     28 ****        -5.6308   3.0411  -1.0373 H              1 S1                 0.0000
     29 ****        -5.3029   4.1024   0.3347 H              1 S1                 0.0000
     30 ****        -6.7538   3.1054   0.3121 H              1 S1                 0.0000
     31 ****        -5.3799   1.0370   0.4433 H              1 S1                 0.0000
     32 ****        -3.9260   2.7967   3.7223 H              1 S1                 0.0000
     33 ****        -3.6540   1.1454   3.1557 H              1 S1                 0.0000
     34 ****        -2.9962   3.7356   1.7031 H              1 S1                 0.0000
     35 ****        -1.8654   2.4394   2.0537 H              1 S1                 0.0000
     36 ****        -2.0574   2.6684  -0.6761 H              1 S1                 0.0000
     37 ****        -3.2698  -0.1267   1.1421 H              1 S1                 0.0000
     38 ****        -3.2688   0.0936  -0.5837 H              1 S1                 0.0000
     39 ****        -1.0275  -0.1081   2.4015 H              1 S1                 0.0000
     40 ****         3.7933   1.9857  -1.7687 H              1 S1                 0.0000
     41 ****         4.9248   1.2594  -0.6332 H              1 S1                 0.0000
     42 ****         3.4939   2.0992  -0.0278 H              1 S1                 0.0000
     43 ****         4.5882  -0.8697   0.1475 H              1 S1                 0.0000
     44 ****         3.1762  -0.5316   1.1003 H              1 S1                 0.0000
     45 ****         1.8750  -2.2128  -0.3048 H              1 S1                 0.0000
     46 ****         3.0923  -2.2218  -2.4310 H              1 S1                 0.0000
     47 ****         4.5787  -2.6622  -1.6125 H              1 S1                 0.0000
     48 ****         2.1314  -4.4039  -2.0473 H              1 S1                 0.0000
     49 ****         3.8311  -4.8218  -2.3250 H              1 S1                 0.0000
     50 ****         4.3374  -3.1273   1.1996 H              1 S1                 0.0000
     51 ****         2.6424  -3.2305   1.7000 H              1 S1                 0.0000
     52 ****         0.0588   1.1498  -3.8196 H              1 S1                 0.0000
     53 ****        -5.7044   1.4136   2.4975 LP             1 S1                 0.0000
     54 ****        -5.6008   3.0326   2.3109 LP             1 S1                 0.0000
     55 ****        -3.2652   3.6830  -0.4700 LP             1 S1                 0.0000
     56 ****        -3.4300   2.3659  -1.4212 LP             1 S1                 0.0000
     57 ****         1.3909  -0.1794   1.7892 LP             1 S1                 0.0000
     58 ****         3.4416  -0.2883  -1.6680 LP             1 S1                 0.0000
     59 ****         2.2213   0.8049  -3.1035 LP             1 S1                 0.0000
     60 ****        -1.8044   0.9877  -2.3642 LP             1 S1                 0.0000
@<TRIPOS>BOND
    1    1    2 1     
    2    1   28 1     
    3    1   29 1     
    4    1   30 1     
    5    2    6 1     
    6    2    3 1     
    7    2   31 1     
    8    3    4 1     
    9    4    5 1     
   10    4   32 1     
   11    4   33 1     
   12    5    6 1     
   13    5   34 1     
   14    5   35 1     
   15    6    7 1     
   16    6    8 1     
   17    7   36 1     
   18    8    9 1     
   19    8   37 1     
   20    8   38 1     
   21    9   27 1     
   22    9   10 1     
   23   10   11 2     
   24   10   39 1     
   25   11   12 1     
   26   12   27 ar    
   27   12   13 ar    
   28   13   14 1     
   29   13   24 ar    
   30   14   15 1     
   31   14   16 1     
   32   15   40 1     
   33   15   41 1     
   34   15   42 1     
   35   16   17 1     
   36   16   43 1     
   37   16   44 1     
   38   17   23 1     
   39   17   18 1     
   40   17   45 1     
   41   18   19 1     
   42   18   46 1     
   43   18   47 1     
   44   19   20 1     
   45   19   48 1     
   46   19   49 1     
   47   20   21 2     
   48   20   22 2     
   49   20   23 1     
   50   23   50 1     
   51   23   51 1     
   52   24   25 ar    
   53   25   26 ar    
   54   25   52 1     
   55   26   27 ar    
   56    3   53 1     
   57    3   54 1     
   58    7   55 1     
   59    7   56 1     
   60   11   57 1     
   61   14   58 1     
   62   24   59 1     
   63   26   60 1     
@<TRIPOS>SUBSTRUCTURE
      1 S1             1
@<TRIPOS>SET
LONE_PAIRS      STATIC     ATOMS    <user>   **** ""
10 53 54 55 56 57 58 21 22 59 60
DONOR_HYDROGENS      STATIC     ATOMS    <user>   **** ""
1 36
ATOM$BLUE        STATIC     ATOMS    COLORGROUP SYSTEM
10 53 54 55 56 57 58 21 22 59 60
ATOM$RED        STATIC     ATOMS    COLORGROUP SYSTEM
1 36
