AV-unprocessed.smi:1982|AV-procd|sdf|8026|dock1
  -GOLD-   2272010223D 1   1.00000     0.00000
 Structure written by MMmdl.
 36 37  0  0  0  0  0  0  0  0  1 V2000
  151.2486  145.5310  160.5004 C   0  0  0  0  0  0  0  0  0  0  0  0
  151.4625  144.0302  160.2422 C   0  0  2  0  0  0  0  0  0  0  0  0
  152.7988  143.5337  160.8303 C   0  0  0  0  0  0  0  0  0  0  0  0
  152.9570  142.0146  160.6626 C   0  0  0  0  0  0  0  0  0  0  0  0
  152.7971  141.5910  159.1953 C   0  0  0  0  0  0  0  0  0  0  0  0
  151.4596  142.0859  158.6118 C   0  0  2  0  0  0  0  0  0  0  0  0
  151.3372  141.6438  157.2256 N   0  0  0  0  0  0  0  0  0  0  0  0
  150.7957  140.4835  156.8215 C   0  0  0  0  0  0  0  0  0  0  0  0
  150.3896  139.6181  157.5962 O   0  0  0  0  0  0  0  0  0  0  0  0
  150.6883  140.2682  155.3108 C   0  0  0  0  0  0  0  0  0  0  0  0
  151.5320  139.1710  154.8727 N   0  0  0  0  0  0  0  0  0  0  0  0
  151.2386  138.0508  154.2092 C   0  0  0  0  0  0  0  0  0  0  0  0
  152.3105  137.2954  154.0264 N   0  0  0  0  0  0  0  0  0  0  0  0
  153.3191  138.0299  154.6275 N   0  0  0  0  0  0  0  0  0  0  0  0
  152.8636  139.1442  155.1310 N   0  0  0  0  0  0  0  0  0  0  0  0
  151.3068  143.6267  158.7516 C   0  0  2  0  0  0  0  0  0  0  0  0
  152.2275  144.4204  157.7942 C   0  0  0  0  0  0  0  0  0  0  0  0
  152.0539  146.1342  160.0812 H   0  0  0  0  0  0  0  0  0  0  0  0
  151.2128  145.7383  161.5703 H   0  0  0  0  0  0  0  0  0  0  0  0
  150.3086  145.8751  160.0681 H   0  0  0  0  0  0  0  0  0  0  0  0
  150.6684  143.5171  160.7871 H   0  0  0  0  0  0  0  0  0  0  0  0
  153.6345  144.0458  160.3526 H   0  0  0  0  0  0  0  0  0  0  0  0
  152.8539  143.7856  161.8898 H   0  0  0  0  0  0  0  0  0  0  0  0
  153.9309  141.6980  161.0374 H   0  0  0  0  0  0  0  0  0  0  0  0
  152.2111  141.5020  161.2713 H   0  0  0  0  0  0  0  0  0  0  0  0
  153.6318  141.9786  158.6101 H   0  0  0  0  0  0  0  0  0  0  0  0
  152.8542  140.5042  159.1247 H   0  0  0  0  0  0  0  0  0  0  0  0
  150.6617  141.6099  159.1855 H   0  0  0  0  0  0  0  0  0  0  0  0
  151.6503  142.2918  156.5176 H   0  0  0  0  0  0  0  0  0  0  0  0
  149.6538  140.0495  155.0438 H   0  0  0  0  0  0  0  0  0  0  0  0
  150.9778  141.1745  154.7768 H   0  0  0  0  0  0  0  0  0  0  0  0
  150.2472  137.7878  153.8707 H   0  0  0  0  0  0  0  0  0  0  0  0
  150.2844  143.8761  158.4632 H   0  0  0  0  0  0  0  0  0  0  0  0
  153.2828  144.2560  158.0092 H   0  0  0  0  0  0  0  0  0  0  0  0
  152.0413  145.4919  157.8572 H   0  0  0  0  0  0  0  0  0  0  0  0
  152.0583  144.1446  156.7532 H   0  0  0  0  0  0  0  0  0  0  0  0
  1  2  1  0  0  0  0
  1 18  1  0  0  0  0
  1 19  1  0  0  0  0
  1 20  1  0  0  0  0
  2 16  1  0  0  0  0
  2  3  1  0  0  0  0
  2 21  1  0  0  0  0
  3  4  1  0  0  0  0
  3 22  1  0  0  0  0
  3 23  1  0  0  0  0
  4  5  1  0  0  0  0
  4 24  1  0  0  0  0
  4 25  1  0  0  0  0
  5  6  1  0  0  0  0
  5 26  1  0  0  0  0
  5 27  1  0  0  0  0
  6  7  1  0  0  0  0
  6 16  1  0  0  0  0
  6 28  1  0  0  0  0
  7  8  1  0  0  0  0
  7 29  1  0  0  0  0
  8  9  2  0  0  0  0
  8 10  1  0  0  0  0
 10 11  1  0  0  0  0
 10 30  1  0  0  0  0
 10 31  1  0  0  0  0
 11 15  1  0  0  0  0
 11 12  1  0  0  0  0
 12 13  2  0  0  0  0
 12 32  1  0  0  0  0
 13 14  1  0  0  0  0
 14 15  2  0  0  0  0
 16 17  1  0  0  0  0
 16 33  1  0  0  0  0
 17 34  1  0  0  0  0
 17 35  1  0  0  0  0
 17 36  1  0  0  0  0
M  END
> <s_m_source_file>
AV-unprocessed.smi

> <i_m_source_file_index>
1982

> <i_lp_mmshare_version>
43012

> <i_f3d_flags>
0

> <s_epik_input>
W0NIM11bQ0BASF0xW0NIMl1bQ0gyXVtDSDJdW0NASF0oW0NASF0xW0NIM10pW05IXUMoPU8pW0NIMl1uMltjSF1ubm4y

> <s_epik_cmdline>
J2VwaWtfcHl0aG9uJywgJy1waCcsICc3LjAnLCAnLXRuJywgJzgnLCAnLW1hJywgJzIwMCcsICctbWV0YWxfYmluZGluZycsICctaW1hZScsICc8aW5maWxlLm1hZT4nLCAnLW9tYWUnLCAnPG91dGZpbGUubWFlPic=

> <r_lp_tautomer_probability>
1

> <r_epik_Ionization_Penalty>
5.03816e-07

> <r_epik_Ionization_Penalty_Charging>
0

> <r_epik_Ionization_Penalty_Neutral>
5.03816e-07

> <r_epik_State_Penalty>
-0

> <r_epik_Charging_Adjusted_Penalty>
0

> <i_epik_Tot_Q>
0

> <i_epik_Tot_abs_Q>
0

> <r_epik_Metal_State_Penalty>
-0

> <b_epik_Metal_Only>
0

> <s_lp_Force_Field>
OPLS_2005

> <r_lp_Energy>
15.5937

> <b_lp_Chiralities_Consistent>
1

> <s_lp_Variant>
AV-unprocessed.smi:1982-7

> <Gold.Version>
5.8.1

> <Gold.Id.Protein>
6NUR|6NUR_protein|mol2

> <Gold.PLP.Fitness>
44.6639

> <Gold.PLP.PLP>
-39.2394

> <Gold.PLP.part.hbond>
-2.9565

> <Gold.PLP.part.metal>
0.0000

> <Gold.PLP.part.buried>
-4.1714

> <Gold.PLP.part.nonpolar>
-33.2384

> <Gold.PLP.part.repulsive>
0.4548

> <Gold.PLP.ligand.clash>
0.0000

> <Gold.PLP.ligand.torsion>
0.4137

> <Gold.PLP.Chemscore.Hbond>
1.8065

> <Gold.PLP.Chemscore.CHOScore>
0.2725

> <Gold.PLP.Chemscore.Metal>
0.0000

> <Gold.Chemscore.Hbonds>
donor molecule, donor type, donor heavy atom, donor atom, acceptor molecule, acceptor atom, score
      P1  H  7997  8009       L1    15  0.98
      P1  H 10752 10765       L1    13  0.85
      L1  C    12    32       P1  7948  0.30

> <Gold.PLP.Chemscore.Internal.Correction>
0.0148

> <Gold.Rescore>
     Score         DG    S(hbond)    S(metal)    S(lipo)     H(rot)  DE(clash)    DE(int)     intcor
     15.83     -16.40       1.35        0.00      96.53       1.91       0.17       0.40       ----

> <Gold.Chemscore.Fitness>
15.8254

> <Gold.Chemscore.DG>
-16.3958

> <Gold.Chemscore.ZeroCoef>
-5.4800

> <Gold.Chemscore.Hbond>
1.3474

> <Gold.Chemscore.Metal>
0.0000

> <Gold.Chemscore.Lipo>
96.5342

> <Gold.Chemscore.Internal_Hbond>
0.0000

> <Gold.Chemscore.DEClash>
0.1738

> <Gold.Chemscore.DEInternal>
0.3966

> <Gold.Chemscore.Rot>
1.9058

> <Gold.Chemscore.Internal.Correction>
   9.000000E+99

> <Gold.Chemscore.Hbonds>
donor molecule, donor type, donor heavy atom, donor atom, acceptor molecule, acceptor atom, score
      P1  H  7997  8009       L1    15  0.64
      P1  H 10752 10765       L1    13  0.22

> <Gold.Chemscore.Hbond.Weighted>
-4.5002

> <Gold.Chemscore.Metal.Weighted>
-0.0000

> <Gold.Chemscore.Lipo.Weighted>
-11.2945

> <Gold.Chemscore.Internal_Hbond.Weighted>
0.0000

> <Gold.Chemscore.DEClash.Weighted>
0.1738

> <Gold.Chemscore.DEInternal.Weighted>
0.3966

> <Gold.Chemscore.Rot.Weighted>
4.8788

> <Gold.Chemscore.Internal.Correction.Weighted>
   9.000000E+99

> <Gold.Protein.RotatedTorsions>
[ 6907 6896 6895 6894 ] final   -6.53 input  -60.11 | X-H torsion
[ 7974 7965 7964 7962 ] final  121.25 input  175.53 | X-H torsion
[ 8008 7997 7996 7995 ] final -139.90 input   59.86 | X-H torsion
[ 10167 10162 10161 10158 ] final  -60.70 input  -65.29 | X-H torsion
[ 10718 10713 10712 10709 ] final  156.89 input   66.30 | X-H torsion
[ 10763 10752 10751 10750 ] final  151.69 input  -60.55 | X-H torsion
[ 11005 11000 10999 10996 ] final -130.02 input  -57.11 | X-H torsion

> <Gold.Protein.ActiveResidues>
 VAL166  LYS551  ARG553  GLY616  TRP617  ASP618  TYR619  PRO620  LYS621  CYS622 
 ASP623  PHE694  ASN695  SER759  ASP760  ASP761  ALA762  ILE779  LEU786  VAL792 
 PHE793  MET794  SER795  GLU796  ALA797  LYS798  CYS799  TRP800  GLU811  SER814 

> <Gold.Protein.RotatedAtoms>
  151.4641  135.1041  159.9732 H   0  0  0  0  0  0  0  0  0  0  0  0  # atno 6907 bound_to 6896
  152.4841  133.8325  159.7121 H   0  0  0  0  0  0  0  0  0  0  0  0  # atno 6908 bound_to 6896
  150.8937  133.7149  159.2924 H   0  0  0  0  0  0  0  0  0  0  0  0  # atno 6909 bound_to 6896
  145.1215  139.3386  143.4712 H   0  0  0  0  0  0  0  0  0  0  0  0  # atno 7974 bound_to 7965
  155.4525  140.0539  157.2999 H   0  0  0  0  0  0  0  0  0  0  0  0  # atno 8008 bound_to 7997
  154.4771  140.2065  155.9807 H   0  0  0  0  0  0  0  0  0  0  0  0  # atno 8009 bound_to 7997
  156.1149  140.3198  155.8129 H   0  0  0  0  0  0  0  0  0  0  0  0  # atno 8010 bound_to 7997
  140.6054  143.2372  151.5833 H   0  0  0  0  0  0  0  0  0  0  0  0  # atno 10167 bound_to 10162
  157.1988  131.0671  151.2037 H   0  0  0  0  0  0  0  0  0  0  0  0  # atno 10718 bound_to 10713
  154.1079  135.2841  155.3237 H   0  0  0  0  0  0  0  0  0  0  0  0  # atno 10763 bound_to 10752
  154.6510  135.5369  153.7905 H   0  0  0  0  0  0  0  0  0  0  0  0  # atno 10764 bound_to 10752
  153.0356  135.6510  154.1239 H   0  0  0  0  0  0  0  0  0  0  0  0  # atno 10765 bound_to 10752
  140.9381  134.1229  157.4175 H   0  0  0  0  0  0  0  0  0  0  0  0  # atno 11005 bound_to 11000
  146.3520  140.1176  142.8601 LP  0  0  0  0  0  0  0  0  0  0  0  0  # atno 17320 bound_to 7965
  145.0735  140.9172  143.4868 LP  0  0  0  0  0  0  0  0  0  0  0  0  # atno 17321 bound_to 7965
  139.5321  144.2885  152.1171 LP  0  0  0  0  0  0  0  0  0  0  0  0  # atno 17342 bound_to 10162
  140.2074  144.4597  150.6402 LP  0  0  0  0  0  0  0  0  0  0  0  0  # atno 17343 bound_to 10162
  157.3787  130.7220  149.6615 LP  0  0  0  0  0  0  0  0  0  0  0  0  # atno 17370 bound_to 10713
  155.9703  130.4178  150.4298 LP  0  0  0  0  0  0  0  0  0  0  0  0  # atno 17371 bound_to 10713
  139.8813  135.0028  156.6146 LP  0  0  0  0  0  0  0  0  0  0  0  0  # atno 17394 bound_to 11000
  140.7771  133.8690  155.8538 LP  0  0  0  0  0  0  0  0  0  0  0  0  # atno 17395 bound_to 11000

$$$$
