AV-unprocessed.smi:1826|AV-procd|sdf|7416|dock3
  -GOLD-   22720 9 93D 1   1.00000     0.00000
 Structure written by MMmdl.
 39 41  0  0  0  0  0  0  0  0  1 V2000
  143.1829  131.8788  148.5125 O   0  0  0  0  0  0  0  0  0  0  0  0
  143.9318  132.7946  149.2826 C   0  0  0  0  0  0  0  0  0  0  0  0
  144.7835  132.1212  150.3146 C   0  0  0  0  0  0  0  0  0  0  0  0
  144.8842  130.7930  150.3866 N   0  0  0  0  0  0  0  0  0  0  0  0
  145.7419  130.6104  151.4535 C   0  0  0  0  0  0  0  0  0  0  0  0
  146.2454  129.4248  152.0354 C   0  0  0  0  0  0  0  0  0  0  0  0
  147.1231  129.4877  153.1376 C   0  0  0  0  0  0  0  0  0  0  0  0
  147.5088  130.7337  153.6730 C   0  0  0  0  0  0  0  0  0  0  0  0
  147.0187  131.9270  153.1084 C   0  0  0  0  0  0  0  0  0  0  0  0
  146.1435  131.8585  152.0080 C   0  0  0  0  0  0  0  0  0  0  0  0
  145.4980  132.8176  151.2350 N   0  0  0  0  0  0  0  0  0  0  0  0
  145.5924  134.2609  151.4115 C   0  0  0  0  0  0  0  0  0  0  0  0
  145.3227  134.6989  152.8651 C   0  0  1  0  0  0  0  0  0  0  0  0
  146.3909  135.4968  153.3378 O   0  0  0  0  0  0  0  0  0  0  0  0
  143.9814  135.4041  152.9907 C   0  0  0  0  0  0  0  0  0  0  0  0
  143.9249  136.7385  153.4447 C   0  0  0  0  0  0  0  0  0  0  0  0
  142.6849  137.3948  153.5675 C   0  0  0  0  0  0  0  0  0  0  0  0
  141.4863  136.7268  153.2388 C   0  0  0  0  0  0  0  0  0  0  0  0
  140.1572  137.4535  153.3824 C   0  0  0  0  0  0  0  0  0  0  0  0
  139.1228  136.6514  153.1275 F   0  0  0  0  0  0  0  0  0  0  0  0
  140.0405  137.9165  154.6265 F   0  0  0  0  0  0  0  0  0  0  0  0
  140.1093  138.4817  152.5353 F   0  0  0  0  0  0  0  0  0  0  0  0
  141.5430  135.3881  152.7922 C   0  0  0  0  0  0  0  0  0  0  0  0
  142.7828  134.7315  152.6691 C   0  0  0  0  0  0  0  0  0  0  0  0
  142.2789  131.9302  148.7822 H   0  0  0  0  0  0  0  0  0  0  0  0
  144.5682  133.3741  148.6127 H   0  0  0  0  0  0  0  0  0  0  0  0
  143.2574  133.5034  149.7627 H   0  0  0  0  0  0  0  0  0  0  0  0
  145.9555  128.4656  151.6329 H   0  0  0  0  0  0  0  0  0  0  0  0
  147.5017  128.5754  153.5747 H   0  0  0  0  0  0  0  0  0  0  0  0
  148.1811  130.7729  154.5177 H   0  0  0  0  0  0  0  0  0  0  0  0
  147.3118  132.8831  153.5156 H   0  0  0  0  0  0  0  0  0  0  0  0
  146.5695  134.6097  151.0784 H   0  0  0  0  0  0  0  0  0  0  0  0
  144.8650  134.7262  150.7451 H   0  0  0  0  0  0  0  0  0  0  0  0
  145.2993  133.8111  153.4984 H   0  0  0  0  0  0  0  0  0  0  0  0
  146.9528  135.7072  152.6076 H   0  0  0  0  0  0  0  0  0  0  0  0
  144.8323  137.2649  153.7023 H   0  0  0  0  0  0  0  0  0  0  0  0
  142.6536  138.4163  153.9173 H   0  0  0  0  0  0  0  0  0  0  0  0
  140.6386  134.8537  152.5426 H   0  0  0  0  0  0  0  0  0  0  0  0
  142.8103  133.7065  152.3290 H   0  0  0  0  0  0  0  0  0  0  0  0
  1  2  1  0  0  0  0
  1 25  1  0  0  0  0
  2  3  1  0  0  0  0
  2 26  1  0  0  0  0
  2 27  1  0  0  0  0
  3 11  1  0  0  0  0
  3  4  2  0  0  0  0
  4  5  1  0  0  0  0
  5 10  2  0  0  0  0
  5  6  1  0  0  0  0
  6  7  2  0  0  0  0
  6 28  1  0  0  0  0
  7  8  1  0  0  0  0
  7 29  1  0  0  0  0
  8  9  2  0  0  0  0
  8 30  1  0  0  0  0
  9 10  1  0  0  0  0
  9 31  1  0  0  0  0
 10 11  1  0  0  0  0
 11 12  1  0  0  0  0
 12 13  1  0  0  0  0
 12 32  1  0  0  0  0
 12 33  1  0  0  0  0
 13 14  1  0  0  0  0
 13 15  1  0  0  0  0
 13 34  1  0  0  0  0
 14 35  1  0  0  0  0
 15 24  1  0  0  0  0
 15 16  2  0  0  0  0
 16 17  1  0  0  0  0
 16 36  1  0  0  0  0
 17 18  2  0  0  0  0
 17 37  1  0  0  0  0
 18 19  1  0  0  0  0
 18 23  1  0  0  0  0
 19 20  1  0  0  0  0
 19 21  1  0  0  0  0
 19 22  1  0  0  0  0
 23 24  2  0  0  0  0
 23 38  1  0  0  0  0
 24 39  1  0  0  0  0
M  END
> <s_m_source_file>
AV-unprocessed.smi

> <i_m_source_file_index>
1826

> <i_lp_mmshare_version>
43012

> <i_f3d_flags>
0

> <s_epik_input>
W2NIXTFbY0hdW2NIXVtjSF1jKGMxMiluKGMobjIpW0NIMl1bT0hdKVtDSDJdW0NASF0oW09IXSljM1tjSF1bY0hdYyhDKEYpKEYpRilbY0hdW2NIXTM=

> <s_epik_cmdline>
J2VwaWtfcHl0aG9uJywgJy1waCcsICc3LjAnLCAnLXRuJywgJzgnLCAnLW1hJywgJzIwMCcsICctbWV0YWxfYmluZGluZycsICctaW1hZScsICc8aW5maWxlLm1hZT4nLCAnLW9tYWUnLCAnPG91dGZpbGUubWFlPic=

> <r_epik_Ionization_Penalty>
0.0634718

> <r_epik_Ionization_Penalty_Charging>
0

> <r_epik_Ionization_Penalty_Neutral>
0.0634718

> <r_epik_State_Penalty>
0.0551572

> <r_epik_Charging_Adjusted_Penalty>
0.0551572

> <i_epik_Tot_Q>
0

> <i_epik_Tot_abs_Q>
0

> <r_epik_Metal_State_Penalty>
5.78034e-05

> <b_epik_Metal_Only>
0

> <s_lp_Force_Field>
OPLS_2005

> <r_lp_Energy>
14.1967

> <b_lp_Chiralities_Consistent>
1

> <s_lp_Variant>
AV-unprocessed.smi:1826-2

> <Gold.Version>
5.8.1

> <Gold.Id.Protein>
6NUR|6NUR_protein|mol2

> <Gold.PLP.Fitness>
50.5750

> <Gold.PLP.PLP>
-45.0267

> <Gold.PLP.part.hbond>
-4.1568

> <Gold.PLP.part.metal>
0.0000

> <Gold.PLP.part.buried>
-4.7498

> <Gold.PLP.part.nonpolar>
-36.6589

> <Gold.PLP.part.repulsive>
0.1014

> <Gold.PLP.ligand.clash>
0.0000

> <Gold.PLP.ligand.torsion>
0.8978

> <Gold.PLP.Chemscore.Hbond>
2.4007

> <Gold.PLP.Chemscore.CHOScore>
0.0000

> <Gold.PLP.Chemscore.Metal>
0.0000

> <Gold.Chemscore.Hbonds>
donor molecule, donor type, donor heavy atom, donor atom, acceptor molecule, acceptor atom, score
      L1  H     1    25       P1 10952  0.25
      L1  H    14    35       P1  7948  0.61
      P1  H 10785 10796       L1     1  0.49

> <Gold.PLP.Chemscore.Internal.Correction>
0.1417

> <Gold.Rescore>
     Score         DG    S(hbond)    S(metal)    S(lipo)     H(rot)  DE(clash)    DE(int)     intcor
     12.50     -14.97       1.95        0.00      89.12       2.91       1.44       1.03       ----

> <Gold.Chemscore.Fitness>
12.4994

> <Gold.Chemscore.DG>
-14.9700

> <Gold.Chemscore.ZeroCoef>
-5.4800

> <Gold.Chemscore.Hbond>
1.9530

> <Gold.Chemscore.Metal>
0.0000

> <Gold.Chemscore.Lipo>
89.1201

> <Gold.Chemscore.Internal_Hbond>
0.0000

> <Gold.Chemscore.DEClash>
1.4365

> <Gold.Chemscore.DEInternal>
1.0341

> <Gold.Chemscore.Rot>
2.9141

> <Gold.Chemscore.Internal.Correction>
   9.000000E+99

> <Gold.Chemscore.Hbonds>
donor molecule, donor type, donor heavy atom, donor atom, acceptor molecule, acceptor atom, score
      L1  H     1    25       P1 10952  0.25
      L1  H    14    35       P1  7948  0.59
      P1  H 10785 10796       L1     1  0.03

> <Gold.Chemscore.Hbond.Weighted>
-6.5230

> <Gold.Chemscore.Metal.Weighted>
-0.0000

> <Gold.Chemscore.Lipo.Weighted>
-10.4271

> <Gold.Chemscore.Internal_Hbond.Weighted>
0.0000

> <Gold.Chemscore.DEClash.Weighted>
1.4365

> <Gold.Chemscore.DEInternal.Weighted>
1.0341

> <Gold.Chemscore.Rot.Weighted>
7.4600

> <Gold.Chemscore.Internal.Correction.Weighted>
   9.000000E+99

> <Gold.Protein.RotatedTorsions>
[ 6907 6896 6895 6894 ] final  117.47 input  -60.11 | X-H torsion
[ 7974 7965 7964 7962 ] final  -14.79 input  175.53 | X-H torsion
[ 8008 7997 7996 7995 ] final -153.97 input   59.86 | X-H torsion
[ 10167 10162 10161 10158 ] final  150.57 input  -65.29 | X-H torsion
[ 10718 10713 10712 10709 ] final  108.35 input   66.30 | X-H torsion
[ 10763 10752 10751 10750 ] final  -83.72 input  -60.55 | X-H torsion
[ 11005 11000 10999 10996 ] final -108.62 input  -57.11 | X-H torsion

> <Gold.Protein.ActiveResidues>
 VAL166  LYS551  ARG553  GLY616  TRP617  ASP618  TYR619  PRO620  LYS621  CYS622 
 ASP623  PHE694  ASN695  SER759  ASP760  ASP761  ALA762  ILE779  LEU786  VAL792 
 PHE793  MET794  SER795  GLU796  ALA797  LYS798  CYS799  TRP800  GLU811  SER814 

> <Gold.Protein.RotatedAtoms>
  152.4609  133.7821  159.6855 H   0  0  0  0  0  0  0  0  0  0  0  0  # atno 6907 bound_to 6896
  150.8553  133.7715  159.3017 H   0  0  0  0  0  0  0  0  0  0  0  0  # atno 6908 bound_to 6896
  151.5297  135.1071  159.9951 H   0  0  0  0  0  0  0  0  0  0  0  0  # atno 6909 bound_to 6896
  146.2060  140.3399  142.8407 H   0  0  0  0  0  0  0  0  0  0  0  0  # atno 7974 bound_to 7965
  155.6790  140.0742  157.2492 H   0  0  0  0  0  0  0  0  0  0  0  0  # atno 8008 bound_to 7997
  154.4109  140.1685  156.2014 H   0  0  0  0  0  0  0  0  0  0  0  0  # atno 8009 bound_to 7997
  155.9551  140.3374  155.6444 H   0  0  0  0  0  0  0  0  0  0  0  0  # atno 8010 bound_to 7997
  139.4849  144.5511  151.7398 H   0  0  0  0  0  0  0  0  0  0  0  0  # atno 10167 bound_to 10162
  157.6590  131.0892  150.6292 H   0  0  0  0  0  0  0  0  0  0  0  0  # atno 10718 bound_to 10713
  154.5911  135.5546  153.7279 H   0  0  0  0  0  0  0  0  0  0  0  0  # atno 10763 bound_to 10752
  153.0117  135.6343  154.1848 H   0  0  0  0  0  0  0  0  0  0  0  0  # atno 10764 bound_to 10752
  154.1789  135.2888  155.3038 H   0  0  0  0  0  0  0  0  0  0  0  0  # atno 10765 bound_to 10752
  141.0892  133.9085  157.2116 H   0  0  0  0  0  0  0  0  0  0  0  0  # atno 11005 bound_to 11000
  144.8793  140.7379  143.5997 LP  0  0  0  0  0  0  0  0  0  0  0  0  # atno 17320 bound_to 7965
  145.3319  139.1757  143.4532 LP  0  0  0  0  0  0  0  0  0  0  0  0  # atno 17321 bound_to 7965
  140.5065  144.1089  150.5984 LP  0  0  0  0  0  0  0  0  0  0  0  0  # atno 17342 bound_to 10162
  140.4001  143.2708  151.9958 LP  0  0  0  0  0  0  0  0  0  0  0  0  # atno 17343 bound_to 10162
  156.6596  130.4508  149.5692 LP  0  0  0  0  0  0  0  0  0  0  0  0  # atno 17370 bound_to 10713
  156.2077  130.6659  151.1236 LP  0  0  0  0  0  0  0  0  0  0  0  0  # atno 17371 bound_to 10713
  139.9714  135.0127  156.9523 LP  0  0  0  0  0  0  0  0  0  0  0  0  # atno 17394 bound_to 11000
  140.5292  134.0830  155.7311 LP  0  0  0  0  0  0  0  0  0  0  0  0  # atno 17395 bound_to 11000

$$$$
