AV-unprocessed.smi:145|AV-procd|sdf|1197|dock5
  -GOLD-   2262018353D 1   1.00000     0.00000
 Structure written by MMmdl.
 40 42  0  0  0  0  0  0  0  0  1 V2000
  153.1264  138.7027  157.5394 O   0  0  0  0  0  0  0  0  0  0  0  0
  151.9318  138.9901  157.4544 C   0  0  0  0  0  0  0  0  0  0  0  0
  150.9662  138.0924  156.6640 C   0  0  0  0  0  0  0  0  0  0  0  0
  149.7011  137.8059  157.3765 N   0  0  0  0  0  0  0  0  0  0  0  0
  148.4750  138.0950  156.7273 C   0  0  0  0  0  0  0  0  0  0  0  0
  148.4502  138.5930  155.6009 O   0  0  0  0  0  0  0  0  0  0  0  0
  147.2706  137.7528  157.4754 C   0  0  0  0  0  0  0  0  0  0  0  0
  146.0623  137.9771  156.9317 F   0  0  0  0  0  0  0  0  0  0  0  0
  147.3498  137.2085  158.7069 C   0  0  0  0  0  0  0  0  0  0  0  0
  148.5510  136.9517  159.3379 N   0  0  0  0  0  0  0  0  0  0  0  0
  148.5440  136.2932  160.6981 C   0  0  2  0  0  0  0  0  0  0  0  0
  147.8707  134.9076  160.7099 C   0  0  0  0  0  0  0  0  0  0  0  0
  146.7597  135.0783  161.7329 C   0  0  0  0  0  0  0  0  0  0  0  0
  147.2326  136.2742  162.5523 C   0  0  0  0  0  0  0  0  0  0  0  0
  147.8458  137.1118  161.5849 O   0  0  0  0  0  0  0  0  0  0  0  0
  149.7648  137.2193  158.6634 C   0  0  0  0  0  0  0  0  0  0  0  0
  150.8507  136.9433  159.1760 O   0  0  0  0  0  0  0  0  0  0  0  0
  151.3724  140.0872  157.9963 N   0  0  0  0  0  0  0  0  0  0  0  0
  151.9860  141.1019  158.7798 C   0  0  0  0  0  0  0  0  0  0  0  0
  153.1414  140.8881  159.5706 C   0  0  0  0  0  0  0  0  0  0  0  0
  153.6808  141.9400  160.3366 C   0  0  0  0  0  0  0  0  0  0  0  0
  153.0688  143.2074  160.3279 C   0  0  0  0  0  0  0  0  0  0  0  0
  151.9108  143.4217  159.5573 C   0  0  0  0  0  0  0  0  0  0  0  0
  150.9911  145.2995  159.5507 I   0  0  0  0  0  0  0  0  0  0  0  0
  151.3697  142.3709  158.7914 C   0  0  0  0  0  0  0  0  0  0  0  0
  150.7686  138.5607  155.6983 H   0  0  0  0  0  0  0  0  0  0  0  0
  151.4877  137.1693  156.4061 H   0  0  0  0  0  0  0  0  0  0  0  0
  146.4277  136.9680  159.2156 H   0  0  0  0  0  0  0  0  0  0  0  0
  149.5876  136.2355  161.0103 H   0  0  0  0  0  0  0  0  0  0  0  0
  147.5033  134.6106  159.7272 H   0  0  0  0  0  0  0  0  0  0  0  0
  148.6013  134.1697  161.0426 H   0  0  0  0  0  0  0  0  0  0  0  0
  145.8215  135.3188  161.2323 H   0  0  0  0  0  0  0  0  0  0  0  0
  146.5986  134.1864  162.3388 H   0  0  0  0  0  0  0  0  0  0  0  0
  146.4171  136.7834  163.0661 H   0  0  0  0  0  0  0  0  0  0  0  0
  147.9730  135.9701  163.2942 H   0  0  0  0  0  0  0  0  0  0  0  0
  150.4026  140.2463  157.7651 H   0  0  0  0  0  0  0  0  0  0  0  0
  153.6225  139.9233  159.6168 H   0  0  0  0  0  0  0  0  0  0  0  0
  154.5630  141.7714  160.9363 H   0  0  0  0  0  0  0  0  0  0  0  0
  153.4846  144.0115  160.9170 H   0  0  0  0  0  0  0  0  0  0  0  0
  150.4791  142.5455  158.2053 H   0  0  0  0  0  0  0  0  0  0  0  0
  1  2  2  0  0  0  0
  2  3  1  0  0  0  0
  2 18  1  0  0  0  0
  3  4  1  0  0  0  0
  3 26  1  0  0  0  0
  3 27  1  0  0  0  0
  4 16  1  0  0  0  0
  4  5  1  0  0  0  0
  5  6  2  0  0  0  0
  5  7  1  0  0  0  0
  7  8  1  0  0  0  0
  7  9  2  0  0  0  0
  9 10  1  0  0  0  0
  9 28  1  0  0  0  0
 10 11  1  0  0  0  0
 10 16  1  0  0  0  0
 11 15  1  0  0  0  0
 11 12  1  0  0  0  0
 11 29  1  0  0  0  0
 12 13  1  0  0  0  0
 12 30  1  0  0  0  0
 12 31  1  0  0  0  0
 13 14  1  0  0  0  0
 13 32  1  0  0  0  0
 13 33  1  0  0  0  0
 14 15  1  0  0  0  0
 14 34  1  0  0  0  0
 14 35  1  0  0  0  0
 16 17  2  0  0  0  0
 18 19  1  0  0  0  0
 18 36  1  0  0  0  0
 19 25  1  0  0  0  0
 19 20  2  0  0  0  0
 20 21  1  0  0  0  0
 20 37  1  0  0  0  0
 21 22  2  0  0  0  0
 21 38  1  0  0  0  0
 22 23  1  0  0  0  0
 22 39  1  0  0  0  0
 23 24  1  0  0  0  0
 23 25  2  0  0  0  0
 25 40  1  0  0  0  0
M  END
> <s_m_source_file>
AV-unprocessed.smi

> <i_m_source_file_index>
145

> <i_lp_mmshare_version>
43012

> <i_f3d_flags>
0

> <s_epik_input>
SWMoW2NIXTEpW2NIXVtjSF1bY0hdYzFbTkhdQyg9TylbQ0gyXW4yYyg9TyljKEYpW2NIXW4oYzI9TylbQ0BASF0zW0NIMl1bQ0gyXVtDSDJdTzM=

> <s_epik_cmdline>
J2VwaWtfcHl0aG9uJywgJy1waCcsICc3LjAnLCAnLXRuJywgJzgnLCAnLW1hJywgJzIwMCcsICctbWV0YWxfYmluZGluZycsICctaW1hZScsICc8aW5maWxlLm1hZT4nLCAnLW9tYWUnLCAnPG91dGZpbGUubWFlPic=

> <r_lp_tautomer_probability>
1

> <r_epik_Ionization_Penalty>
9.72367e-07

> <r_epik_Ionization_Penalty_Charging>
3.88729e-08

> <r_epik_Ionization_Penalty_Neutral>
9.33494e-07

> <r_epik_State_Penalty>
-0

> <r_epik_Charging_Adjusted_Penalty>
3.88729e-08

> <i_epik_Tot_Q>
0

> <i_epik_Tot_abs_Q>
0

> <r_epik_Metal_State_Penalty>
-0

> <b_epik_Metal_Only>
0

> <s_epik_Chemistry_Notes>
This compound contains an acetal/aminal-like group ( X-CH(R)-Y where X, Y are N, S, or O) that may be acid/base labile, releasing an aldehyde.

> <s_lp_Force_Field>
OPLS_2005

> <r_lp_Energy>
28.2642

> <b_lp_Chiralities_Consistent>
1

> <s_lp_Variant>
AV-unprocessed.smi:145-1

> <Gold.Version>
5.8.1

> <Gold.Id.Protein>
6NUR|6NUR_protein|mol2

> <Gold.PLP.Fitness>
52.3590

> <Gold.PLP.PLP>
-42.2849

> <Gold.PLP.part.hbond>
-4.0000

> <Gold.PLP.part.metal>
0.0000

> <Gold.PLP.part.buried>
-5.8479

> <Gold.PLP.part.nonpolar>
-32.5233

> <Gold.PLP.part.repulsive>
0.1206

> <Gold.PLP.ligand.clash>
0.0000

> <Gold.PLP.ligand.torsion>
0.3339

> <Gold.PLP.Chemscore.Hbond>
3.5720

> <Gold.PLP.Chemscore.CHOScore>
0.0000

> <Gold.PLP.Chemscore.Metal>
0.0000

> <Gold.Chemscore.Hbonds>
donor molecule, donor type, donor heavy atom, donor atom, acceptor molecule, acceptor atom, score
      P1  H  6896  6909       L1    17  1.00
      P1  H  6931  6943       L1    15  1.00
      P1  H  6934  6947       L1    15  0.55
      P1  H  7997  8008       L1     1  1.00

> <Gold.PLP.Chemscore.Internal.Correction>
0.0258

> <Gold.Rescore>
     Score         DG    S(hbond)    S(metal)    S(lipo)     H(rot)  DE(clash)    DE(int)     intcor
     21.25     -23.66       3.29        0.00      97.95       1.66       0.05       2.36       ----

> <Gold.Chemscore.Fitness>
21.2456

> <Gold.Chemscore.DG>
-23.6592

> <Gold.Chemscore.ZeroCoef>
-5.4800

> <Gold.Chemscore.Hbond>
3.2858

> <Gold.Chemscore.Metal>
0.0000

> <Gold.Chemscore.Lipo>
97.9453

> <Gold.Chemscore.Internal_Hbond>
0.0000

> <Gold.Chemscore.DEClash>
0.0515

> <Gold.Chemscore.DEInternal>
2.3621

> <Gold.Chemscore.Rot>
1.6621

> <Gold.Chemscore.Internal.Correction>
   9.000000E+99

> <Gold.Chemscore.Hbonds>
donor molecule, donor type, donor heavy atom, donor atom, acceptor molecule, acceptor atom, score
      P1  H  6896  6909       L1    17  0.83
      P1  H  6931  6943       L1    15  0.25
      P1  H  6934  6947       L1    15  0.52
      P1  H  7997  8008       L1     1  0.90

> <Gold.Chemscore.Hbond.Weighted>
-10.9746

> <Gold.Chemscore.Metal.Weighted>
-0.0000

> <Gold.Chemscore.Lipo.Weighted>
-11.4596

> <Gold.Chemscore.Internal_Hbond.Weighted>
0.0000

> <Gold.Chemscore.DEClash.Weighted>
0.0515

> <Gold.Chemscore.DEInternal.Weighted>
2.3621

> <Gold.Chemscore.Rot.Weighted>
4.2550

> <Gold.Chemscore.Internal.Correction.Weighted>
   9.000000E+99

> <Gold.Protein.RotatedTorsions>
[ 6907 6896 6895 6894 ] final   84.28 input  -60.11 | X-H torsion
[ 7974 7965 7964 7962 ] final  141.12 input  175.53 | X-H torsion
[ 8008 7997 7996 7995 ] final  -73.89 input   59.86 | X-H torsion
[ 10167 10162 10161 10158 ] final -141.76 input  -65.29 | X-H torsion
[ 10718 10713 10712 10709 ] final   49.05 input   66.30 | X-H torsion
[ 10763 10752 10751 10750 ] final   -2.68 input  -60.55 | X-H torsion
[ 11005 11000 10999 10996 ] final   -5.03 input  -57.11 | X-H torsion

> <Gold.Protein.ActiveResidues>
 VAL166  LYS551  ARG553  GLY616  TRP617  ASP618  TYR619  PRO620  LYS621  CYS622 
 ASP623  PHE694  ASN695  SER759  ASP760  ASP761  ALA762  ILE779  LEU786  VAL792 
 PHE793  MET794  SER795  GLU796  ALA797  LYS798  CYS799  TRP800  GLU811  SER814 

> <Gold.Protein.RotatedAtoms>
  152.5348  134.2765  159.8990 H   0  0  0  0  0  0  0  0  0  0  0  0  # atno 6907 bound_to 6896
  151.2720  133.4244  159.2629 H   0  0  0  0  0  0  0  0  0  0  0  0  # atno 6908 bound_to 6896
  151.0359  134.9588  159.8192 H   0  0  0  0  0  0  0  0  0  0  0  0  # atno 6909 bound_to 6896
  144.9125  139.5274  143.5702 H   0  0  0  0  0  0  0  0  0  0  0  0  # atno 7974 bound_to 7965
  154.5285  140.0771  156.8302 H   0  0  0  0  0  0  0  0  0  0  0  0  # atno 8008 bound_to 7997
  155.3425  140.3408  155.4221 H   0  0  0  0  0  0  0  0  0  0  0  0  # atno 8009 bound_to 7997
  156.1757  140.1635  156.8354 H   0  0  0  0  0  0  0  0  0  0  0  0  # atno 8010 bound_to 7997
  139.8153  143.7647  152.2665 H   0  0  0  0  0  0  0  0  0  0  0  0  # atno 10167 bound_to 10162
  157.4748  130.8278  149.8027 H   0  0  0  0  0  0  0  0  0  0  0  0  # atno 10718 bound_to 10713
  153.3613  135.6990  153.6710 H   0  0  0  0  0  0  0  0  0  0  0  0  # atno 10763 bound_to 10752
  153.5398  135.3575  155.2713 H   0  0  0  0  0  0  0  0  0  0  0  0  # atno 10764 bound_to 10752
  154.8668  135.4201  154.2870 H   0  0  0  0  0  0  0  0  0  0  0  0  # atno 10765 bound_to 10752
  140.6867  133.9107  155.8590 H   0  0  0  0  0  0  0  0  0  0  0  0  # atno 11005 bound_to 11000
  146.3166  139.7942  142.8979 LP  0  0  0  0  0  0  0  0  0  0  0  0  # atno 17320 bound_to 7965
  145.3430  141.0292  143.3381 LP  0  0  0  0  0  0  0  0  0  0  0  0  # atno 17321 bound_to 7965
  139.7808  144.7445  151.0091 LP  0  0  0  0  0  0  0  0  0  0  0  0  # atno 17342 bound_to 10162
  140.7816  143.4544  151.0367 LP  0  0  0  0  0  0  0  0  0  0  0  0  # atno 17343 bound_to 10162
  156.0091  130.3841  150.2326 LP  0  0  0  0  0  0  0  0  0  0  0  0  # atno 17370 bound_to 10713
  157.0510  131.0062  151.3253 LP  0  0  0  0  0  0  0  0  0  0  0  0  # atno 17371 bound_to 10713
  141.0274  134.0803  157.4052 LP  0  0  0  0  0  0  0  0  0  0  0  0  # atno 17394 bound_to 11000
  139.8935  135.0131  156.6905 LP  0  0  0  0  0  0  0  0  0  0  0  0  # atno 17395 bound_to 11000

$$$$
