AV-unprocessed.smi:224|AV-procd|sdf|1708|dock3
  -GOLD-   2262020173D 1   1.00000     0.00000
 Structure written by MMmdl.
 56 59  0  0  0  0  0  0  0  0  2 V2000
  144.7968  132.7187  149.5722 C   0  0  0  0  0  0  0  0  0  0  0  0
  145.2162  133.7404  150.6372 C   0  0  1  0  0  0  0  0  0  0  0  0
  145.2557  135.0172  150.0324 O   0  0  0  0  0  0  0  0  0  0  0  0
  144.2369  133.7781  151.8254 C   0  0  0  0  0  0  0  0  0  0  0  0
  144.8025  133.1001  153.0258 N   0  3  2  0  0  0  0  0  0  0  0  0
  145.2792  134.0983  154.0246 C   0  0  0  0  0  0  0  0  0  0  0  0
  145.8163  133.4322  155.2978 C   0  0  0  0  0  0  0  0  0  0  0  0
  146.8657  132.4816  154.9596 N   0  0  0  0  0  0  0  0  0  0  0  0
  148.1274  132.9803  154.8666 C   0  0  0  0  0  0  0  0  0  0  0  0
  149.0769  132.2948  154.1753 N   0  0  0  0  0  0  0  0  0  0  0  0
  150.3172  132.7789  154.0648 C   0  0  0  0  0  0  0  0  0  0  0  0
  150.8175  133.9098  154.5640 N   0  0  0  0  0  0  0  0  0  0  0  0
  149.8768  134.5971  155.2721 C   0  0  0  0  0  0  0  0  0  0  0  0
  148.5209  134.2094  155.4695 C   0  0  0  0  0  0  0  0  0  0  0  0
  147.8698  135.1571  156.2507 N   0  0  0  0  0  0  0  0  0  0  0  0
  148.7848  136.0552  156.4943 C   0  0  0  0  0  0  0  0  0  0  0  0
  150.0219  135.7953  155.9498 N   0  0  0  0  0  0  0  0  0  0  0  0
  151.2152  136.6194  156.0700 C   0  0  0  0  0  0  0  0  0  0  0  0
  151.4040  137.6007  154.8899 C   0  0  1  0  0  0  0  0  0  0  0  0
  151.7681  136.8654  153.7340 O   0  0  0  0  0  0  0  0  0  0  0  0
  150.1667  138.4330  154.5655 C   0  0  0  0  0  0  0  0  0  0  0  0
  150.7605  139.7363  154.0503 C   0  0  0  0  0  0  0  0  0  0  0  0
  151.8692  139.9310  154.9111 O   0  0  0  0  0  0  0  0  0  0  0  0
  152.4857  138.6690  155.1473 C   0  0  0  0  0  0  0  0  0  0  0  0
  146.4301  131.4546  154.0182 C   0  0  0  0  0  0  0  0  0  0  0  0
  145.8210  132.0446  152.7212 C   0  0  1  0  0  0  0  0  0  0  0  0
  145.2357  130.8758  151.9015 C   0  0  0  0  0  0  0  0  0  0  0  0
  144.7723  131.7105  149.9865 H   0  0  0  0  0  0  0  0  0  0  0  0
  145.4969  132.7122  148.7359 H   0  0  0  0  0  0  0  0  0  0  0  0
  143.8052  132.9391  149.1749 H   0  0  0  0  0  0  0  0  0  0  0  0
  146.2213  133.4929  150.9784 H   0  0  0  0  0  0  0  0  0  0  0  0
  145.2082  134.9111  149.0941 H   0  0  0  0  0  0  0  0  0  0  0  0
  143.9749  134.8155  152.0196 H   0  0  0  0  0  0  0  0  0  0  0  0
  143.2946  133.3007  151.5515 H   0  0  0  0  0  0  0  0  0  0  0  0
  146.0659  134.7095  153.5786 H   0  0  0  0  0  0  0  0  0  0  0  0
  144.4697  134.7771  154.2921 H   0  0  0  0  0  0  0  0  0  0  0  0
  146.1639  134.1951  155.9929 H   0  0  0  0  0  0  0  0  0  0  0  0
  145.0129  132.8982  155.8065 H   0  0  0  0  0  0  0  0  0  0  0  0
  151.0074  132.1735  153.4958 H   0  0  0  0  0  0  0  0  0  0  0  0
  148.5844  136.9349  157.0887 H   0  0  0  0  0  0  0  0  0  0  0  0
  151.1569  137.1700  157.0098 H   0  0  0  0  0  0  0  0  0  0  0  0
  152.0804  135.9605  156.1559 H   0  0  0  0  0  0  0  0  0  0  0  0
  151.2791  137.2022  152.9988 H   0  0  0  0  0  0  0  0  0  0  0  0
  149.4865  137.9570  153.8578 H   0  0  0  0  0  0  0  0  0  0  0  0
  149.6049  138.6445  155.4759 H   0  0  0  0  0  0  0  0  0  0  0  0
  151.1051  139.6325  153.0203 H   0  0  0  0  0  0  0  0  0  0  0  0
  150.0594  140.5697  154.1004 H   0  0  0  0  0  0  0  0  0  0  0  0
  152.8599  138.6433  156.1712 H   0  0  0  0  0  0  0  0  0  0  0  0
  153.3444  138.5529  154.4842 H   0  0  0  0  0  0  0  0  0  0  0  0
  147.2517  130.7755  153.7853 H   0  0  0  0  0  0  0  0  0  0  0  0
  145.6804  130.8474  154.5273 H   0  0  0  0  0  0  0  0  0  0  0  0
  146.6177  132.5114  152.1408 H   0  0  0  0  0  0  0  0  0  0  0  0
  145.9633  130.0688  151.8086 H   0  0  0  0  0  0  0  0  0  0  0  0
  144.9658  131.1554  150.8849 H   0  0  0  0  0  0  0  0  0  0  0  0
  144.3491  130.4613  152.3824 H   0  0  0  0  0  0  0  0  0  0  0  0
  144.0325  132.6091  153.4577 H   0  0  0  0  0  0  0  0  0  0  0  0
  1  2  1  0  0  0  0
  1 28  1  0  0  0  0
  1 29  1  0  0  0  0
  1 30  1  0  0  0  0
  2  3  1  0  0  0  0
  2  4  1  0  0  0  0
  2 31  1  0  0  0  0
  3 32  1  0  0  0  0
  4  5  1  0  0  0  0
  4 33  1  0  0  0  0
  4 34  1  0  0  0  0
  5 26  1  0  0  0  0
  5  6  1  0  0  0  0
  5 56  1  0  0  0  0
  6  7  1  0  0  0  0
  6 35  1  0  0  0  0
  6 36  1  0  0  0  0
  7  8  1  0  0  0  0
  7 37  1  0  0  0  0
  7 38  1  0  0  0  0
  8  9  1  0  0  0  0
  8 25  1  0  0  0  0
  9 14  1  0  0  0  0
  9 10  2  0  0  0  0
 10 11  1  0  0  0  0
 11 12  2  0  0  0  0
 11 39  1  0  0  0  0
 12 13  1  0  0  0  0
 13 17  1  0  0  0  0
 13 14  2  0  0  0  0
 14 15  1  0  0  0  0
 15 16  2  0  0  0  0
 16 17  1  0  0  0  0
 16 40  1  0  0  0  0
 17 18  1  0  0  0  0
 18 19  1  0  0  0  0
 18 41  1  0  0  0  0
 18 42  1  0  0  0  0
 19 24  1  0  0  0  0
 19 20  1  0  0  0  0
 19 21  1  0  0  0  0
 20 43  1  0  0  0  0
 21 22  1  0  0  0  0
 21 44  1  0  0  0  0
 21 45  1  0  0  0  0
 22 23  1  0  0  0  0
 22 46  1  0  0  0  0
 22 47  1  0  0  0  0
 23 24  1  0  0  0  0
 24 48  1  0  0  0  0
 24 49  1  0  0  0  0
 25 26  1  0  0  0  0
 25 50  1  0  0  0  0
 25 51  1  0  0  0  0
 26 27  1  0  0  0  0
 26 52  1  0  0  0  0
 27 53  1  0  0  0  0
 27 54  1  0  0  0  0
 27 55  1  0  0  0  0
M  CHG  1   5   1
M  END
> <s_m_source_file>
AV-unprocessed.smi

> <i_m_source_file_index>
224

> <i_lp_mmshare_version>
43012

> <i_f3d_flags>
0

> <s_epik_input>
W0NIM11bQ0BIXShbT0hdKVtDSDJdTjFbQ0gyXVtDSDJdTihbQ0gyXVtDQEhdMVtDSDNdKWMobltjSF1uMiljKGMyMyluW2NIXW4zW0NIMl1bQ0BAXTQoW09IXSlbQ0gyXVtDSDJdT1tDSDJdNA==

> <s_epik_cmdline>
J2VwaWtfcHl0aG9uJywgJy1waCcsICc3LjAnLCAnLXRuJywgJzgnLCAnLW1hJywgJzIwMCcsICctbWV0YWxfYmluZGluZycsICctaW1hZScsICc8aW5maWxlLm1hZT4nLCAnLW9tYWUnLCAnPG91dGZpbGUubWFlPic=

> <r_lp_tautomer_probability>
1

> <r_epik_Ionization_Penalty>
0.00516958

> <r_epik_Ionization_Penalty_Charging>
0.00509693

> <r_epik_Ionization_Penalty_Neutral>
7.26542e-05

> <r_epik_State_Penalty>
-0

> <r_epik_Charging_Adjusted_Penalty>
0.00509693

> <i_epik_Tot_Q>
1

> <i_epik_Tot_abs_Q>
1

> <r_epik_Metal_State_Penalty>
-0

> <b_epik_Metal_Only>
0

> <s_lp_Force_Field>
OPLS_2005

> <r_lp_Energy>
48.4109

> <b_lp_Chiralities_Consistent>
1

> <s_lp_Variant>
AV-unprocessed.smi:224-2

> <Gold.Version>
5.8.1

> <Gold.Id.Protein>
6NUR|6NUR_protein|mol2

> <Gold.PLP.Fitness>
38.3834

> <Gold.PLP.PLP>
-29.7175

> <Gold.PLP.part.hbond>
-4.9555

> <Gold.PLP.part.metal>
0.0000

> <Gold.PLP.part.buried>
-1.8113

> <Gold.PLP.part.nonpolar>
-22.1944

> <Gold.PLP.part.repulsive>
0.2595

> <Gold.PLP.ligand.clash>
0.0000

> <Gold.PLP.ligand.torsion>
2.1506

> <Gold.PLP.Chemscore.Hbond>
4.1487

> <Gold.PLP.Chemscore.CHOScore>
0.0000

> <Gold.PLP.Chemscore.Metal>
0.0000

> <Gold.Chemscore.Hbonds>
donor molecule, donor type, donor heavy atom, donor atom, acceptor molecule, acceptor atom, score
      L1  H     3    32       P1  7921  0.90
      L1  H     5    56       P1 10957  1.79
      L1  H    20    43       P1  7949  0.29
      P1  H 10752 10765       L1    20  1.00

> <Gold.PLP.Chemscore.Internal.Correction>
0.5210

> <Gold.Rescore>
     Score         DG    S(hbond)    S(metal)    S(lipo)     H(rot)  DE(clash)    DE(int)     intcor
      9.64     -14.40       2.76        0.00      71.10       3.36       1.52       3.24       ----

> <Gold.Chemscore.Fitness>
9.6362

> <Gold.Chemscore.DG>
-14.4001

> <Gold.Chemscore.ZeroCoef>
-5.4800

> <Gold.Chemscore.Hbond>
2.7563

> <Gold.Chemscore.Metal>
0.0000

> <Gold.Chemscore.Lipo>
71.0995

> <Gold.Chemscore.Internal_Hbond>
0.0000

> <Gold.Chemscore.DEClash>
1.5242

> <Gold.Chemscore.DEInternal>
3.2398

> <Gold.Chemscore.Rot>
3.3611

> <Gold.Chemscore.Internal.Correction>
   9.000000E+99

> <Gold.Chemscore.Hbonds>
donor molecule, donor type, donor heavy atom, donor atom, acceptor molecule, acceptor atom, score
      L1  H     3    32       P1  7921  0.88
      L1  H     5    56       P1 10957  0.35
      L1  H    20    43       P1  7949  0.21
      P1  H 10752 10765       L1    20  0.78

> <Gold.Chemscore.Hbond.Weighted>
-9.2059

> <Gold.Chemscore.Metal.Weighted>
-0.0000

> <Gold.Chemscore.Lipo.Weighted>
-8.3186

> <Gold.Chemscore.Internal_Hbond.Weighted>
0.0000

> <Gold.Chemscore.DEClash.Weighted>
1.5242

> <Gold.Chemscore.DEInternal.Weighted>
3.2398

> <Gold.Chemscore.Rot.Weighted>
8.6045

> <Gold.Chemscore.Internal.Correction.Weighted>
   9.000000E+99

> <Gold.Protein.RotatedTorsions>
[ 6907 6896 6895 6894 ] final   67.32 input  -60.11 | X-H torsion
[ 7974 7965 7964 7962 ] final  120.95 input  175.53 | X-H torsion
[ 8008 7997 7996 7995 ] final  -38.79 input   59.86 | X-H torsion
[ 10167 10162 10161 10158 ] final   24.64 input  -65.29 | X-H torsion
[ 10718 10713 10712 10709 ] final -119.37 input   66.30 | X-H torsion
[ 10763 10752 10751 10750 ] final  150.57 input  -60.55 | X-H torsion
[ 11005 11000 10999 10996 ] final   35.67 input  -57.11 | X-H torsion

> <Gold.Protein.ActiveResidues>
 VAL166  LYS551  ARG553  GLY616  TRP617  ASP618  TYR619  PRO620  LYS621  CYS622 
 ASP623  PHE694  ASN695  SER759  ASP760  ASP761  ALA762  ILE779  LEU786  VAL792 
 PHE793  MET794  SER795  GLU796  ALA797  LYS798  CYS799  TRP800  GLU811  SER814 

> <Gold.Protein.RotatedAtoms>
  152.4543  134.5325  159.9814 H   0  0  0  0  0  0  0  0  0  0  0  0  # atno 6907 bound_to 6896
  151.5390  133.3430  159.2940 H   0  0  0  0  0  0  0  0  0  0  0  0  # atno 6908 bound_to 6896
  150.8482  134.7830  159.7051 H   0  0  0  0  0  0  0  0  0  0  0  0  # atno 6909 bound_to 6896
  145.1251  139.3364  143.4694 H   0  0  0  0  0  0  0  0  0  0  0  0  # atno 7974 bound_to 7965
  154.4032  140.1568  156.2757 H   0  0  0  0  0  0  0  0  0  0  0  0  # atno 8008 bound_to 7997
  155.8914  140.3438  155.5937 H   0  0  0  0  0  0  0  0  0  0  0  0  # atno 8009 bound_to 7997
  155.7554  140.0810  157.2172 H   0  0  0  0  0  0  0  0  0  0  0  0  # atno 8010 bound_to 7997
  140.5172  144.0063  150.6399 H   0  0  0  0  0  0  0  0  0  0  0  0  # atno 10167 bound_to 10162
  156.1176  130.6298  150.9408 H   0  0  0  0  0  0  0  0  0  0  0  0  # atno 10718 bound_to 10713
  154.0896  135.2853  155.3274 H   0  0  0  0  0  0  0  0  0  0  0  0  # atno 10763 bound_to 10752
  154.6629  135.5328  153.8043 H   0  0  0  0  0  0  0  0  0  0  0  0  # atno 10764 bound_to 10752
  153.0418  135.6538  154.1066 H   0  0  0  0  0  0  0  0  0  0  0  0  # atno 10765 bound_to 10752
  140.2404  134.3422  155.7928 H   0  0  0  0  0  0  0  0  0  0  0  0  # atno 11005 bound_to 11000
  146.3518  140.1226  142.8600 LP  0  0  0  0  0  0  0  0  0  0  0  0  # atno 17320 bound_to 7965
  145.0697  140.9147  143.4889 LP  0  0  0  0  0  0  0  0  0  0  0  0  # atno 17321 bound_to 7965
  140.3402  143.3024  152.0596 LP  0  0  0  0  0  0  0  0  0  0  0  0  # atno 17342 bound_to 10162
  139.4912  144.6448  151.6802 LP  0  0  0  0  0  0  0  0  0  0  0  0  # atno 17343 bound_to 10162
  157.6360  131.0916  150.8348 LP  0  0  0  0  0  0  0  0  0  0  0  0  # atno 17370 bound_to 10713
  156.8449  130.5060  149.5317 LP  0  0  0  0  0  0  0  0  0  0  0  0  # atno 17371 bound_to 10713
  141.2211  133.7295  156.8875 LP  0  0  0  0  0  0  0  0  0  0  0  0  # atno 17394 bound_to 11000
  140.1659  134.9133  157.2774 LP  0  0  0  0  0  0  0  0  0  0  0  0  # atno 17395 bound_to 11000

$$$$
