AV-unprocessed.smi:1703|AV-procd|sdf|6863|dock5
  -GOLD-   22720 8 53D 1   1.00000     0.00000
 Structure written by MMmdl.
 49 51  0  0  0  0  0  0  0  0  2 V2000
  144.7522  145.0746  153.0213 C   0  0  0  0  0  0  0  0  0  0  0  0
  145.6632  144.3765  154.0372 C   0  0  2  0  0  0  0  0  0  0  0  0
  146.3876  143.1615  153.4275 C   0  0  0  0  0  0  0  0  0  0  0  0
  147.1951  142.4653  154.4567 N   0  3  2  0  0  0  0  0  0  0  0  0
  147.9634  141.3249  153.8958 C   0  0  0  0  0  0  0  0  0  0  0  0
  149.3365  141.1368  154.5778 C   0  0  2  0  0  0  0  0  0  0  0  0
  150.0885  140.1918  153.8437 O   0  0  0  0  0  0  0  0  0  0  0  0
  149.2427  140.6348  156.0329 C   0  0  0  0  0  0  0  0  0  0  0  0
  150.5142  140.7174  156.7399 N   0  0  0  0  0  0  0  0  0  0  0  0
  151.5509  139.8402  156.7277 C   0  0  0  0  0  0  0  0  0  0  0  0
  151.5264  138.5753  155.9252 C   0  0  0  0  0  0  0  0  0  0  0  0
  152.6982  137.8053  156.0851 O   0  0  0  0  0  0  0  0  0  0  0  0
  152.5990  140.1713  157.4822 N   0  0  0  0  0  0  0  0  0  0  0  0
  152.2141  141.3809  158.0256 C   0  0  0  0  0  0  0  0  0  0  0  0
  152.8922  142.2466  158.9132 C   0  0  0  0  0  0  0  0  0  0  0  0
  152.2896  143.4491  159.3370 C   0  0  0  0  0  0  0  0  0  0  0  0
  151.0033  143.8024  158.8804 C   0  0  0  0  0  0  0  0  0  0  0  0
  150.3097  142.9533  157.9968 C   0  0  0  0  0  0  0  0  0  0  0  0
  150.9150  141.7534  157.5780 C   0  0  0  0  0  0  0  0  0  0  0  0
  146.3454  142.1009  155.6173 C   0  0  0  0  0  0  0  0  0  0  0  0
  145.6267  143.3463  156.1698 C   0  0  2  0  0  0  0  0  0  0  0  0
  144.6807  143.0037  157.3260 C   0  0  0  0  0  0  0  0  0  0  0  0
  144.8597  143.9403  155.1282 O   0  0  0  0  0  0  0  0  0  0  0  0
  145.3241  145.4445  152.1700 H   0  0  0  0  0  0  0  0  0  0  0  0
  144.2440  145.9260  153.4747 H   0  0  0  0  0  0  0  0  0  0  0  0
  143.9885  144.3951  152.6420 H   0  0  0  0  0  0  0  0  0  0  0  0
  146.3969  145.0991  154.3987 H   0  0  0  0  0  0  0  0  0  0  0  0
  145.6648  142.4641  153.0001 H   0  0  0  0  0  0  0  0  0  0  0  0
  147.0348  143.4917  152.6139 H   0  0  0  0  0  0  0  0  0  0  0  0
  147.3554  140.4231  153.9784 H   0  0  0  0  0  0  0  0  0  0  0  0
  148.1278  141.4841  152.8290 H   0  0  0  0  0  0  0  0  0  0  0  0
  149.8895  142.0750  154.5755 H   0  0  0  0  0  0  0  0  0  0  0  0
  149.7211  140.1199  152.9756 H   0  0  0  0  0  0  0  0  0  0  0  0
  148.4825  141.1929  156.5787 H   0  0  0  0  0  0  0  0  0  0  0  0
  148.9185  139.5934  156.0476 H   0  0  0  0  0  0  0  0  0  0  0  0
  150.6698  137.9723  156.2286 H   0  0  0  0  0  0  0  0  0  0  0  0
  151.3848  138.8096  154.8704 H   0  0  0  0  0  0  0  0  0  0  0  0
  152.5438  136.9434  155.7298 H   0  0  0  0  0  0  0  0  0  0  0  0
  153.8787  141.9861  159.2670 H   0  0  0  0  0  0  0  0  0  0  0  0
  152.8178  144.1042  160.0145 H   0  0  0  0  0  0  0  0  0  0  0  0
  150.5503  144.7269  159.2077 H   0  0  0  0  0  0  0  0  0  0  0  0
  149.3257  143.2235  157.6439 H   0  0  0  0  0  0  0  0  0  0  0  0
  145.6153  141.3488  155.3132 H   0  0  0  0  0  0  0  0  0  0  0  0
  146.9495  141.6562  156.4071 H   0  0  0  0  0  0  0  0  0  0  0  0
  146.3642  144.0667  156.5287 H   0  0  0  0  0  0  0  0  0  0  0  0
  145.2231  142.5499  158.1560 H   0  0  0  0  0  0  0  0  0  0  0  0
  143.9059  142.3045  157.0102 H   0  0  0  0  0  0  0  0  0  0  0  0
  144.1871  143.8993  157.7038 H   0  0  0  0  0  0  0  0  0  0  0  0
  147.8768  143.1348  154.7855 H   0  0  0  0  0  0  0  0  0  0  0  0
  1  2  1  0  0  0  0
  1 24  1  0  0  0  0
  1 25  1  0  0  0  0
  1 26  1  0  0  0  0
  2 23  1  0  0  0  0
  2  3  1  0  0  0  0
  2 27  1  0  0  0  0
  3  4  1  0  0  0  0
  3 28  1  0  0  0  0
  3 29  1  0  0  0  0
  4  5  1  0  0  0  0
  4 20  1  0  0  0  0
  4 49  1  0  0  0  0
  5  6  1  0  0  0  0
  5 30  1  0  0  0  0
  5 31  1  0  0  0  0
  6  7  1  0  0  0  0
  6  8  1  0  0  0  0
  6 32  1  0  0  0  0
  7 33  1  0  0  0  0
  8  9  1  0  0  0  0
  8 34  1  0  0  0  0
  8 35  1  0  0  0  0
  9 19  1  0  0  0  0
  9 10  1  0  0  0  0
 10 11  1  0  0  0  0
 10 13  2  0  0  0  0
 11 12  1  0  0  0  0
 11 36  1  0  0  0  0
 11 37  1  0  0  0  0
 12 38  1  0  0  0  0
 13 14  1  0  0  0  0
 14 19  2  0  0  0  0
 14 15  1  0  0  0  0
 15 16  2  0  0  0  0
 15 39  1  0  0  0  0
 16 17  1  0  0  0  0
 16 40  1  0  0  0  0
 17 18  2  0  0  0  0
 17 41  1  0  0  0  0
 18 19  1  0  0  0  0
 18 42  1  0  0  0  0
 20 21  1  0  0  0  0
 20 43  1  0  0  0  0
 20 44  1  0  0  0  0
 21 22  1  0  0  0  0
 21 23  1  0  0  0  0
 21 45  1  0  0  0  0
 22 46  1  0  0  0  0
 22 47  1  0  0  0  0
 22 48  1  0  0  0  0
M  CHG  1   4   1
M  END
> <s_m_source_file>
AV-unprocessed.smi

> <i_m_source_file_index>
1703

> <i_lp_mmshare_version>
43012

> <i_f3d_flags>
0

> <s_epik_input>
W0NIM11bQ0BASF0xW0NIMl1OKFtDSDJdW0NASF0oTzEpW0NIM10pW0NIMl1bQ0BIXShbT0hdKVtDSDJdbihjKG4yKVtDSDJdW09IXSljKGMyMylbY0hdW2NIXVtjSF1bY0hdMw==

> <s_epik_cmdline>
J2VwaWtfcHl0aG9uJywgJy1waCcsICc3LjAnLCAnLXRuJywgJzgnLCAnLW1hJywgJzIwMCcsICctbWV0YWxfYmluZGluZycsICctaW1hZScsICc8aW5maWxlLm1hZT4nLCAnLW9tYWUnLCAnPG91dGZpbGUubWFlPic=

> <r_epik_Ionization_Penalty>
0.655661

> <r_epik_Ionization_Penalty_Charging>
0.608065

> <r_epik_Ionization_Penalty_Neutral>
0.0475963

> <r_epik_State_Penalty>
0.695267

> <r_epik_Charging_Adjusted_Penalty>
1.30333

> <i_epik_Tot_Q>
1

> <i_epik_Tot_abs_Q>
1

> <r_epik_Metal_State_Penalty>
0.653591

> <b_epik_Metal_Only>
0

> <s_lp_Force_Field>
OPLS_2005

> <r_lp_Energy>
21.8251

> <b_lp_Chiralities_Consistent>
1

> <s_lp_Variant>
AV-unprocessed.smi:1703-11

> <Gold.Version>
5.8.1

> <Gold.Id.Protein>
6NUR|6NUR_protein|mol2

> <Gold.PLP.Fitness>
52.9272

> <Gold.PLP.PLP>
-40.2245

> <Gold.PLP.part.hbond>
-3.9793

> <Gold.PLP.part.metal>
0.0000

> <Gold.PLP.part.buried>
-5.8819

> <Gold.PLP.part.nonpolar>
-29.1399

> <Gold.PLP.part.repulsive>
0.2940

> <Gold.PLP.ligand.clash>
0.0000

> <Gold.PLP.ligand.torsion>
0.8471

> <Gold.PLP.Chemscore.Hbond>
4.7680

> <Gold.PLP.Chemscore.CHOScore>
0.0000

> <Gold.PLP.Chemscore.Metal>
0.0000

> <Gold.Chemscore.Hbonds>
donor molecule, donor type, donor heavy atom, donor atom, acceptor molecule, acceptor atom, score
      L1  H     4    49       P1  8028  1.98
      L1  H     7    33       P1  7957  1.00
      P1  H  7989  7998       L1     7  0.80
      P1  H  7997  8009       L1    13  1.00

> <Gold.PLP.Chemscore.Internal.Correction>
0.0929

> <Gold.Rescore>
     Score         DG    S(hbond)    S(metal)    S(lipo)     H(rot)  DE(clash)    DE(int)     intcor
     16.38     -17.66       2.27        0.00     104.13       2.96       0.16       1.12       ----

> <Gold.Chemscore.Fitness>
16.3825

> <Gold.Chemscore.DG>
-17.6578

> <Gold.Chemscore.ZeroCoef>
-5.4800

> <Gold.Chemscore.Hbond>
2.2681

> <Gold.Chemscore.Metal>
0.0000

> <Gold.Chemscore.Lipo>
104.1256

> <Gold.Chemscore.Internal_Hbond>
0.0000

> <Gold.Chemscore.DEClash>
0.1573

> <Gold.Chemscore.DEInternal>
1.1180

> <Gold.Chemscore.Rot>
2.9611

> <Gold.Chemscore.Internal.Correction>
   9.000000E+99

> <Gold.Chemscore.Hbonds>
donor molecule, donor type, donor heavy atom, donor atom, acceptor molecule, acceptor atom, score
      L1  H     4    49       P1  8028  0.76
      L1  H     7    33       P1  7957  1.00
      P1  H  7989  7998       L1     7  0.14
      P1  H  7997  8009       L1    13  0.86

> <Gold.Chemscore.Hbond.Weighted>
-7.5754

> <Gold.Chemscore.Metal.Weighted>
-0.0000

> <Gold.Chemscore.Lipo.Weighted>
-12.1827

> <Gold.Chemscore.Internal_Hbond.Weighted>
0.0000

> <Gold.Chemscore.DEClash.Weighted>
0.1573

> <Gold.Chemscore.DEInternal.Weighted>
1.1180

> <Gold.Chemscore.Rot.Weighted>
7.5803

> <Gold.Chemscore.Internal.Correction.Weighted>
   9.000000E+99

> <Gold.Protein.RotatedTorsions>
[ 6907 6896 6895 6894 ] final -156.89 input  -60.11 | X-H torsion
[ 7974 7965 7964 7962 ] final  -58.78 input  175.53 | X-H torsion
[ 8008 7997 7996 7995 ] final  168.88 input   59.86 | X-H torsion
[ 10167 10162 10161 10158 ] final   30.51 input  -65.29 | X-H torsion
[ 10718 10713 10712 10709 ] final  150.88 input   66.30 | X-H torsion
[ 10763 10752 10751 10750 ] final   39.77 input  -60.55 | X-H torsion
[ 11005 11000 10999 10996 ] final  161.64 input  -57.11 | X-H torsion

> <Gold.Protein.ActiveResidues>
 VAL166  LYS551  ARG553  GLY616  TRP617  ASP618  TYR619  PRO620  LYS621  CYS622 
 ASP623  PHE694  ASN695  SER759  ASP760  ASP761  ALA762  ILE779  LEU786  VAL792 
 PHE793  MET794  SER795  GLU796  ALA797  LYS798  CYS799  TRP800  GLU811  SER814 

> <Gold.Protein.RotatedAtoms>
  151.2945  133.4150  159.2635 H   0  0  0  0  0  0  0  0  0  0  0  0  # atno 6907 bound_to 6896
  151.0248  134.9497  159.8090 H   0  0  0  0  0  0  0  0  0  0  0  0  # atno 6908 bound_to 6896
  152.5332  134.2907  159.9094 H   0  0  0  0  0  0  0  0  0  0  0  0  # atno 6909 bound_to 6896
  145.8353  140.8453  143.0062 H   0  0  0  0  0  0  0  0  0  0  0  0  # atno 7974 bound_to 7965
  156.1507  140.1579  156.8774 H   0  0  0  0  0  0  0  0  0  0  0  0  # atno 8008 bound_to 7997
  154.5069  140.0811  156.7948 H   0  0  0  0  0  0  0  0  0  0  0  0  # atno 8009 bound_to 7997
  155.3901  140.3409  155.4253 H   0  0  0  0  0  0  0  0  0  0  0  0  # atno 8010 bound_to 7997
  140.4671  144.0819  150.6227 H   0  0  0  0  0  0  0  0  0  0  0  0  # atno 10167 bound_to 10162
  157.2778  131.0829  151.1553 H   0  0  0  0  0  0  0  0  0  0  0  0  # atno 10718 bound_to 10713
  152.9957  135.6211  154.2518 H   0  0  0  0  0  0  0  0  0  0  0  0  # atno 10763 bound_to 10752
  154.2257  135.2794  155.2910 H   0  0  0  0  0  0  0  0  0  0  0  0  # atno 10764 bound_to 10752
  154.5492  135.5738  153.6965 H   0  0  0  0  0  0  0  0  0  0  0  0  # atno 10765 bound_to 10752
  140.2178  134.8219  157.3188 H   0  0  0  0  0  0  0  0  0  0  0  0  # atno 11005 bound_to 11000
  144.6737  140.0732  143.7472 LP  0  0  0  0  0  0  0  0  0  0  0  0  # atno 17320 bound_to 7965
  145.9525  139.2744  143.1203 LP  0  0  0  0  0  0  0  0  0  0  0  0  # atno 17321 bound_to 7965
  140.4022  143.2698  151.9933 LP  0  0  0  0  0  0  0  0  0  0  0  0  # atno 17342 bound_to 10162
  139.4813  144.5987  151.7644 LP  0  0  0  0  0  0  0  0  0  0  0  0  # atno 17343 bound_to 10162
  157.2999  130.6838  149.6158 LP  0  0  0  0  0  0  0  0  0  0  0  0  # atno 17370 bound_to 10713
  155.9664  130.4395  150.5261 LP  0  0  0  0  0  0  0  0  0  0  0  0  # atno 17371 bound_to 10713
  140.1882  134.4404  155.7731 LP  0  0  0  0  0  0  0  0  0  0  0  0  # atno 17394 bound_to 11000
  141.2224  133.7015  156.7983 LP  0  0  0  0  0  0  0  0  0  0  0  0  # atno 17395 bound_to 11000

$$$$
