AV-unprocessed.smi:1527|AV-procd|sdf|6147|dock2
  -GOLD-   22720 6293D 1   1.00000     0.00000
 Structure written by MMmdl.
 30 30  0  0  0  0  0  0  0  0  2 V2000
  152.5670  142.6029  162.4128 C   0  0  0  0  0  0  0  0  0  0  0  0
  152.1774  143.4263  161.1765 C   0  0  0  0  0  0  0  0  0  0  0  0
  152.6231  142.7938  159.8445 C   0  0  2  0  0  0  0  0  0  0  0  0
  152.4215  143.7597  158.6658 C   0  0  0  0  0  0  0  0  0  0  0  0
  151.8916  141.5517  159.6055 N   0  0  0  0  0  0  0  0  0  0  0  0
  152.4389  140.3818  159.2414 C   0  0  0  0  0  0  0  0  0  0  0  0
  153.6493  140.2293  159.0688 O   0  0  0  0  0  0  0  0  0  0  0  0
  151.4560  139.2140  159.0630 C   0  0  0  0  0  0  0  0  0  0  0  0
  151.4674  138.6214  157.7174 N   0  0  0  0  0  0  0  0  0  0  0  0
  151.3167  139.5967  156.6410 N   0  5  0  0  0  0  0  0  0  0  0  0
  151.2891  139.1627  155.3530 C   0  0  0  0  0  0  0  0  0  0  0  0
  151.1474  139.9216  154.3968 O   0  0  0  0  0  0  0  0  0  0  0  0
  151.4397  137.7380  155.1076 C   0  0  0  0  0  0  0  0  0  0  0  0
  151.6040  136.8633  156.1196 C   0  0  0  0  0  0  0  0  0  0  0  0
  151.6344  137.2830  157.5154 C   0  0  0  0  0  0  0  0  0  0  0  0
  151.7953  136.4907  158.4443 O   0  0  0  0  0  0  0  0  0  0  0  0
  152.2698  143.1156  163.3276 H   0  0  0  0  0  0  0  0  0  0  0  0
  153.6449  142.4454  162.4559 H   0  0  0  0  0  0  0  0  0  0  0  0
  152.0846  141.6251  162.4129 H   0  0  0  0  0  0  0  0  0  0  0  0
  151.0974  143.5789  161.1709 H   0  0  0  0  0  0  0  0  0  0  0  0
  152.6221  144.4180  161.2671 H   0  0  0  0  0  0  0  0  0  0  0  0
  153.6886  142.5695  159.9228 H   0  0  0  0  0  0  0  0  0  0  0  0
  152.9741  144.6866  158.8203 H   0  0  0  0  0  0  0  0  0  0  0  0
  151.3694  144.0166  158.5382 H   0  0  0  0  0  0  0  0  0  0  0  0
  152.7729  143.3221  157.7307 H   0  0  0  0  0  0  0  0  0  0  0  0
  150.8904  141.5825  159.7308 H   0  0  0  0  0  0  0  0  0  0  0  0
  151.6919  138.4592  159.8151 H   0  0  0  0  0  0  0  0  0  0  0  0
  150.4463  139.5550  159.2982 H   0  0  0  0  0  0  0  0  0  0  0  0
  151.4222  137.3732  154.0913 H   0  0  0  0  0  0  0  0  0  0  0  0
  151.7140  135.8138  155.8909 H   0  0  0  0  0  0  0  0  0  0  0  0
  1  2  1  0  0  0  0
  1 17  1  0  0  0  0
  1 18  1  0  0  0  0
  1 19  1  0  0  0  0
  2  3  1  0  0  0  0
  2 20  1  0  0  0  0
  2 21  1  0  0  0  0
  3  4  1  0  0  0  0
  3  5  1  0  0  0  0
  3 22  1  0  0  0  0
  4 23  1  0  0  0  0
  4 24  1  0  0  0  0
  4 25  1  0  0  0  0
  5  6  1  0  0  0  0
  5 26  1  0  0  0  0
  6  7  2  0  0  0  0
  6  8  1  0  0  0  0
  8 27  1  0  0  0  0
  8 28  1  0  0  0  0
  8  9  1  0  0  0  0
  9 10  1  0  0  0  0
  9 15  1  0  0  0  0
 10 11  1  0  0  0  0
 11 12  2  0  0  0  0
 11 13  1  0  0  0  0
 13 29  1  0  0  0  0
 13 14  2  0  0  0  0
 14 30  1  0  0  0  0
 14 15  1  0  0  0  0
 15 16  2  0  0  0  0
M  CHG  1  10  -1
M  END
> <s_m_source_file>
AV-unprocessed.smi

> <i_m_source_file_index>
1527

> <i_lp_mmshare_version>
43012

> <i_f3d_flags>
0

> <s_epik_input>
W0NIM11bQ0gyXVtDQEhdKFtDSDNdKVtOSF1DKD1PKVtDSDJdbjFbbkhdYyg9TylbY0hdW2NIXWMxPU8=

> <s_epik_cmdline>
J2VwaWtfcHl0aG9uJywgJy1waCcsICc3LjAnLCAnLXRuJywgJzgnLCAnLW1hJywgJzIwMCcsICctbWV0YWxfYmluZGluZycsICctaW1hZScsICc8aW5maWxlLm1hZT4nLCAnLW9tYWUnLCAnPG91dGZpbGUubWFlPic=

> <r_lp_tautomer_probability>
1

> <r_epik_Ionization_Penalty>
0.0984334

> <r_epik_Ionization_Penalty_Charging>
0.0984334

> <r_epik_Ionization_Penalty_Neutral>
1.93017e-08

> <r_epik_State_Penalty>
0.0346952

> <r_epik_Charging_Adjusted_Penalty>
0.133129

> <i_epik_Tot_Q>
-1

> <i_epik_Tot_abs_Q>
1

> <r_epik_Metal_State_Penalty>
0.0346952

> <b_epik_Metal_Only>
0

> <s_lp_Force_Field>
OPLS_2005

> <r_lp_Energy>
18.7632

> <b_lp_Chiralities_Consistent>
1

> <s_lp_Variant>
AV-unprocessed.smi:1527-1

> <Gold.Version>
5.8.1

> <Gold.Id.Protein>
6NUR|6NUR_protein|mol2

> <Gold.PLP.Fitness>
38.1997

> <Gold.PLP.PLP>
-31.1349

> <Gold.PLP.part.hbond>
-3.0000

> <Gold.PLP.part.metal>
0.0000

> <Gold.PLP.part.buried>
-4.9209

> <Gold.PLP.part.nonpolar>
-23.9090

> <Gold.PLP.part.repulsive>
0.2218

> <Gold.PLP.ligand.clash>
0.0000

> <Gold.PLP.ligand.torsion>
0.2554

> <Gold.PLP.Chemscore.Hbond>
2.5200

> <Gold.PLP.Chemscore.CHOScore>
0.0000

> <Gold.PLP.Chemscore.Metal>
0.0000

> <Gold.Chemscore.Hbonds>
donor molecule, donor type, donor heavy atom, donor atom, acceptor molecule, acceptor atom, score
      P1  H  6896  6907       L1    16  0.59
      P1  H  7989  7998       L1    12  0.65
      P1  H  7997  8008       L1     7  0.54

> <Gold.PLP.Chemscore.Internal.Correction>
0.0156

> <Gold.Rescore>
     Score         DG    S(hbond)    S(metal)    S(lipo)     H(rot)  DE(clash)    DE(int)     intcor
     16.59     -16.95       2.65        0.00      64.84       1.94       0.08       0.28       ----

> <Gold.Chemscore.Fitness>
16.5942

> <Gold.Chemscore.DG>
-16.9458

> <Gold.Chemscore.ZeroCoef>
-5.4800

> <Gold.Chemscore.Hbond>
2.6521

> <Gold.Chemscore.Metal>
0.0000

> <Gold.Chemscore.Lipo>
64.8442

> <Gold.Chemscore.Internal_Hbond>
0.0000

> <Gold.Chemscore.DEClash>
0.0757

> <Gold.Chemscore.DEInternal>
0.2759

> <Gold.Chemscore.Rot>
1.9449

> <Gold.Chemscore.Internal.Correction>
   9.000000E+99

> <Gold.Chemscore.Hbonds>
donor molecule, donor type, donor heavy atom, donor atom, acceptor molecule, acceptor atom, score
      P1  H  6896  6907       L1    16  0.56
      P1  H  7989  7998       L1    12  0.65
      P1  H  7997  8008       L1     7  0.53

> <Gold.Chemscore.Hbond.Weighted>
-8.8581

> <Gold.Chemscore.Metal.Weighted>
-0.0000

> <Gold.Chemscore.Lipo.Weighted>
-7.5868

> <Gold.Chemscore.Internal_Hbond.Weighted>
0.0000

> <Gold.Chemscore.DEClash.Weighted>
0.0757

> <Gold.Chemscore.DEInternal.Weighted>
0.2759

> <Gold.Chemscore.Rot.Weighted>
4.9791

> <Gold.Chemscore.Internal.Correction.Weighted>
   9.000000E+99

> <Gold.Protein.RotatedTorsions>
[ 6907 6896 6895 6894 ] final    0.20 input  -60.11 | X-H torsion
[ 7974 7965 7964 7962 ] final -140.90 input  175.53 | X-H torsion
[ 8008 7997 7996 7995 ] final -103.86 input   59.86 | X-H torsion
[ 10167 10162 10161 10158 ] final   69.84 input  -65.29 | X-H torsion
[ 10718 10713 10712 10709 ] final   48.55 input   66.30 | X-H torsion
[ 10763 10752 10751 10750 ] final  -54.63 input  -60.55 | X-H torsion
[ 11005 11000 10999 10996 ] final  -33.54 input  -57.11 | X-H torsion

> <Gold.Protein.ActiveResidues>
 VAL166  LYS551  ARG553  GLY616  TRP617  ASP618  TYR619  PRO620  LYS621  CYS622 
 ASP623  PHE694  ASN695  SER759  ASP760  ASP761  ALA762  ILE779  LEU786  VAL792 
 PHE793  MET794  SER795  GLU796  ALA797  LYS798  CYS799  TRP800  GLU811  SER814 

> <Gold.Protein.RotatedAtoms>
  151.5726  135.1062  159.9998 H   0  0  0  0  0  0  0  0  0  0  0  0  # atno 6907 bound_to 6896
  152.4393  133.7415  159.6654 H   0  0  0  0  0  0  0  0  0  0  0  0  # atno 6908 bound_to 6896
  150.8296  133.8044  159.3127 H   0  0  0  0  0  0  0  0  0  0  0  0  # atno 6909 bound_to 6896
  144.8561  140.6144  143.5359 H   0  0  0  0  0  0  0  0  0  0  0  0  # atno 7974 bound_to 7965
  154.8770  140.0420  157.1759 H   0  0  0  0  0  0  0  0  0  0  0  0  # atno 8008 bound_to 7997
  154.8679  140.2954  155.5478 H   0  0  0  0  0  0  0  0  0  0  0  0  # atno 8009 bound_to 7997
  156.2999  140.2434  156.3663 H   0  0  0  0  0  0  0  0  0  0  0  0  # atno 8010 bound_to 7997
  140.0634  144.5214  150.7278 H   0  0  0  0  0  0  0  0  0  0  0  0  # atno 10167 bound_to 10162
  157.4698  130.8248  149.7975 H   0  0  0  0  0  0  0  0  0  0  0  0  # atno 10718 bound_to 10713
  154.1780  135.6448  153.5026 H   0  0  0  0  0  0  0  0  0  0  0  0  # atno 10763 bound_to 10752
  153.0067  135.5399  154.6544 H   0  0  0  0  0  0  0  0  0  0  0  0  # atno 10764 bound_to 10752
  154.5900  135.2933  155.0617 H   0  0  0  0  0  0  0  0  0  0  0  0  # atno 10765 bound_to 10752
  140.9643  133.7146  156.1420 H   0  0  0  0  0  0  0  0  0  0  0  0  # atno 11005 bound_to 11000
  145.4404  139.1536  143.3973 LP  0  0  0  0  0  0  0  0  0  0  0  0  # atno 17320 bound_to 7965
  146.2824  140.4525  142.8771 LP  0  0  0  0  0  0  0  0  0  0  0  0  # atno 17321 bound_to 7965
  140.7161  143.2546  151.4430 LP  0  0  0  0  0  0  0  0  0  0  0  0  # atno 17342 bound_to 10162
  139.5880  144.1562  152.2053 LP  0  0  0  0  0  0  0  0  0  0  0  0  # atno 17343 bound_to 10162
  156.0068  130.3852  150.2404 LP  0  0  0  0  0  0  0  0  0  0  0  0  # atno 17370 bound_to 10713
  157.0586  131.0083  151.3230 LP  0  0  0  0  0  0  0  0  0  0  0  0  # atno 17371 bound_to 10713
  140.7422  134.4138  157.5553 LP  0  0  0  0  0  0  0  0  0  0  0  0  # atno 17394 bound_to 11000
  139.8889  134.8844  156.2449 LP  0  0  0  0  0  0  0  0  0  0  0  0  # atno 17395 bound_to 11000

$$$$
