AV-unprocessed.smi:2764|AV-procd|sdf|10640|dock7
  -GOLD-   2272015 93D 1   1.00000     0.00000
 Structure written by MMmdl.
 47 49  0  0  0  0  0  0  0  0  2 V2000
  150.4316  140.7449  156.8400 O   0  0  0  0  0  0  0  0  0  0  0  0
  149.9194  141.8559  156.7022 C   0  0  0  0  0  0  0  0  0  0  0  0
  150.0760  142.8916  157.5457 N   0  0  0  0  0  0  0  0  0  0  0  0
  150.8743  142.9557  158.7190 C   0  0  0  0  0  0  0  0  0  0  0  0
  150.7012  144.1232  159.4969 C   0  0  0  0  0  0  0  0  0  0  0  0
  151.4511  144.2866  160.6781 C   0  0  0  0  0  0  0  0  0  0  0  0
  152.3557  143.2761  161.0491 C   0  0  0  0  0  0  0  0  0  0  0  0
  153.0992  143.3893  162.1751 F   0  0  0  0  0  0  0  0  0  0  0  0
  152.4685  142.1450  160.2199 C   0  0  0  0  0  0  0  0  0  0  0  0
  151.7500  141.9869  159.0877 N   0  0  0  0  0  0  0  0  0  0  0  0
  149.1218  142.1873  155.6731 N   0  0  0  0  0  0  0  0  0  0  0  0
  148.7255  141.3434  154.5430 C   0  0  2  0  0  0  0  0  0  0  0  0
  147.4399  141.8350  153.8505 C   0  0  0  0  0  0  0  0  0  0  0  0
  147.0859  140.9366  152.6532 C   0  0  0  0  0  0  0  0  0  0  0  0
  146.9582  139.5142  153.0675 N   0  3  1  0  0  0  0  0  0  0  0  0
  146.4659  138.6359  151.9743 C   0  0  0  0  0  0  0  0  0  0  0  0
  145.9183  137.2986  152.5090 C   0  0  2  0  0  0  0  0  0  0  0  0
  145.5657  136.2658  151.4553 C   0  0  0  0  0  0  0  0  0  0  0  0
  144.6266  135.3348  152.2170 C   0  0  0  0  0  0  0  0  0  0  0  0
  143.9837  136.1437  153.1974 O   0  0  0  0  0  0  0  0  0  0  0  0
  144.5740  137.4385  153.2238 C   0  0  0  0  0  0  0  0  0  0  0  0
  148.2098  139.0137  153.6959 C   0  0  0  0  0  0  0  0  0  0  0  0
  148.5874  139.8565  154.9247 C   0  0  0  0  0  0  0  0  0  0  0  0
  149.5807  143.7395  157.3130 H   0  0  0  0  0  0  0  0  0  0  0  0
  150.0023  144.8900  159.1954 H   0  0  0  0  0  0  0  0  0  0  0  0
  151.3341  145.1714  161.2863 H   0  0  0  0  0  0  0  0  0  0  0  0
  153.1528  141.3476  160.4693 H   0  0  0  0  0  0  0  0  0  0  0  0
  148.7542  143.1278  155.6659 H   0  0  0  0  0  0  0  0  0  0  0  0
  149.5405  141.4251  153.8226 H   0  0  0  0  0  0  0  0  0  0  0  0
  146.6026  141.8375  154.5489 H   0  0  0  0  0  0  0  0  0  0  0  0
  147.5649  142.8648  153.5140 H   0  0  0  0  0  0  0  0  0  0  0  0
  146.1455  141.2800  152.2203 H   0  0  0  0  0  0  0  0  0  0  0  0
  147.8463  141.0243  151.8753 H   0  0  0  0  0  0  0  0  0  0  0  0
  145.6507  139.1342  151.4472 H   0  0  0  0  0  0  0  0  0  0  0  0
  147.2426  138.4753  151.2246 H   0  0  0  0  0  0  0  0  0  0  0  0
  146.6341  136.8626  153.2085 H   0  0  0  0  0  0  0  0  0  0  0  0
  145.0331  136.7325  150.6253 H   0  0  0  0  0  0  0  0  0  0  0  0
  146.4350  135.7430  151.0556 H   0  0  0  0  0  0  0  0  0  0  0  0
  143.9021  134.8506  151.5621 H   0  0  0  0  0  0  0  0  0  0  0  0
  145.1939  134.5566  152.7289 H   0  0  0  0  0  0  0  0  0  0  0  0
  144.6795  137.8062  154.2448 H   0  0  0  0  0  0  0  0  0  0  0  0
  143.9194  138.1250  152.6849 H   0  0  0  0  0  0  0  0  0  0  0  0
  148.0907  137.9742  153.9984 H   0  0  0  0  0  0  0  0  0  0  0  0
  149.0194  139.0355  152.9645 H   0  0  0  0  0  0  0  0  0  0  0  0
  149.5221  139.4900  155.3507 H   0  0  0  0  0  0  0  0  0  0  0  0
  147.8239  139.7220  155.6914 H   0  0  0  0  0  0  0  0  0  0  0  0
  146.2448  139.4988  153.7825 H   0  0  0  0  0  0  0  0  0  0  0  0
  1  2  2  0  0  0  0
  2  3  1  0  0  0  0
  2 11  1  0  0  0  0
  3  4  1  0  0  0  0
  3 24  1  0  0  0  0
  4 10  1  0  0  0  0
  4  5  2  0  0  0  0
  5  6  1  0  0  0  0
  5 25  1  0  0  0  0
  6  7  2  0  0  0  0
  6 26  1  0  0  0  0
  7  8  1  0  0  0  0
  7  9  1  0  0  0  0
  9 10  2  0  0  0  0
  9 27  1  0  0  0  0
 11 12  1  0  0  0  0
 11 28  1  0  0  0  0
 12 23  1  0  0  0  0
 12 13  1  0  0  0  0
 12 29  1  0  0  0  0
 13 14  1  0  0  0  0
 13 30  1  0  0  0  0
 13 31  1  0  0  0  0
 14 15  1  0  0  0  0
 14 32  1  0  0  0  0
 14 33  1  0  0  0  0
 15 16  1  0  0  0  0
 15 22  1  0  0  0  0
 15 47  1  0  0  0  0
 16 17  1  0  0  0  0
 16 34  1  0  0  0  0
 16 35  1  0  0  0  0
 17 21  1  0  0  0  0
 17 18  1  0  0  0  0
 17 36  1  0  0  0  0
 18 19  1  0  0  0  0
 18 37  1  0  0  0  0
 18 38  1  0  0  0  0
 19 20  1  0  0  0  0
 19 39  1  0  0  0  0
 19 40  1  0  0  0  0
 20 21  1  0  0  0  0
 21 41  1  0  0  0  0
 21 42  1  0  0  0  0
 22 23  1  0  0  0  0
 22 43  1  0  0  0  0
 22 44  1  0  0  0  0
 23 45  1  0  0  0  0
 23 46  1  0  0  0  0
M  CHG  1  15   1
M  END
> <s_m_source_file>
AV-unprocessed.smi

> <i_m_source_file_index>
2764

> <i_lp_mmshare_version>
43012

> <i_f3d_flags>
0

> <s_epik_input>
bjFbY0hdYyhGKVtjSF1bY0hdYzFbTkhdQyg9TylbTkhdW0NIXTJbQ0gyXVtDSDJdTihbQ0gyXVtDSDJdMilbQ0gyXVtDQEBIXTNbQ0gyXVtDSDJdT1tDSDJdMw==

> <s_epik_cmdline>
J2VwaWtfcHl0aG9uJywgJy1waCcsICc3LjAnLCAnLXRuJywgJzgnLCAnLW1hJywgJzIwMCcsICctbWV0YWxfYmluZGluZycsICctaW1hZScsICc8aW5maWxlLm1hZT4nLCAnLW9tYWUnLCAnPG91dGZpbGUubWFlPic=

> <r_epik_Ionization_Penalty>
0.0075076

> <r_epik_Ionization_Penalty_Charging>
0.00747775

> <r_epik_Ionization_Penalty_Neutral>
2.98483e-05

> <r_epik_State_Penalty>
0.00558817

> <r_epik_Charging_Adjusted_Penalty>
0.0130659

> <i_epik_Tot_Q>
1

> <i_epik_Tot_abs_Q>
1

> <r_epik_Metal_State_Penalty>
-0

> <b_epik_Metal_Only>
0

> <s_lp_Force_Field>
OPLS_2005

> <r_lp_Energy>
38.4399

> <b_lp_Chiralities_Consistent>
1

> <s_lp_Variant>
AV-unprocessed.smi:2764-1

> <Gold.Version>
5.8.1

> <Gold.Id.Protein>
6NUR|6NUR_protein|mol2

> <Gold.PLP.Fitness>
47.0228

> <Gold.PLP.PLP>
-42.4869

> <Gold.PLP.part.hbond>
-2.2410

> <Gold.PLP.part.metal>
0.0000

> <Gold.PLP.part.buried>
-4.1938

> <Gold.PLP.part.nonpolar>
-35.8946

> <Gold.PLP.part.repulsive>
0.2912

> <Gold.PLP.ligand.clash>
0.0000

> <Gold.PLP.ligand.torsion>
0.5044

> <Gold.PLP.Chemscore.Hbond>
1.8320

> <Gold.PLP.Chemscore.CHOScore>
0.0000

> <Gold.PLP.Chemscore.Metal>
0.0000

> <Gold.Chemscore.Hbonds>
donor molecule, donor type, donor heavy atom, donor atom, acceptor molecule, acceptor atom, score
      L1  H     3    24       P1  8028  0.80
      L1  H    11    28       P1  8028  1.00

> <Gold.PLP.Chemscore.Internal.Correction>
0.0486

> <Gold.Rescore>
     Score         DG    S(hbond)    S(metal)    S(lipo)     H(rot)  DE(clash)    DE(int)     intcor
     15.47     -20.45       1.94        0.00     105.28       1.49       1.79       3.19       ----

> <Gold.Chemscore.Fitness>
15.4669

> <Gold.Chemscore.DG>
-20.4503

> <Gold.Chemscore.ZeroCoef>
-5.4800

> <Gold.Chemscore.Hbond>
1.9355

> <Gold.Chemscore.Metal>
0.0000

> <Gold.Chemscore.Lipo>
105.2805

> <Gold.Chemscore.Internal_Hbond>
0.0000

> <Gold.Chemscore.DEClash>
1.7938

> <Gold.Chemscore.DEInternal>
3.1895

> <Gold.Chemscore.Rot>
1.4891

> <Gold.Chemscore.Internal.Correction>
   9.000000E+99

> <Gold.Chemscore.Hbonds>
donor molecule, donor type, donor heavy atom, donor atom, acceptor molecule, acceptor atom, score
      L1  H     3    24       P1  8028  0.52
      L1  H    11    28       P1  8028  0.96

> <Gold.Chemscore.Hbond.Weighted>
-6.4646

> <Gold.Chemscore.Metal.Weighted>
-0.0000

> <Gold.Chemscore.Lipo.Weighted>
-12.3178

> <Gold.Chemscore.Internal_Hbond.Weighted>
0.0000

> <Gold.Chemscore.DEClash.Weighted>
1.7938

> <Gold.Chemscore.DEInternal.Weighted>
3.1895

> <Gold.Chemscore.Rot.Weighted>
3.8121

> <Gold.Chemscore.Internal.Correction.Weighted>
   9.000000E+99

> <Gold.Protein.RotatedTorsions>
[ 6907 6896 6895 6894 ] final   33.62 input  -60.11 | X-H torsion
[ 7974 7965 7964 7962 ] final -125.11 input  175.53 | X-H torsion
[ 8008 7997 7996 7995 ] final   93.54 input   59.86 | X-H torsion
[ 10167 10162 10161 10158 ] final   64.77 input  -65.29 | X-H torsion
[ 10718 10713 10712 10709 ] final -131.62 input   66.30 | X-H torsion
[ 10763 10752 10751 10750 ] final -115.16 input  -60.55 | X-H torsion
[ 11005 11000 10999 10996 ] final   57.21 input  -57.11 | X-H torsion

> <Gold.Protein.ActiveResidues>
 VAL166  LYS551  ARG553  GLY616  TRP617  ASP618  TYR619  PRO620  LYS621  CYS622 
 ASP623  PHE694  ASN695  SER759  ASP760  ASP761  ALA762  ILE779  LEU786  VAL792 
 PHE793  MET794  SER795  GLU796  ALA797  LYS798  CYS799  TRP800  GLU811  SER814 

> <Gold.Protein.RotatedAtoms>
  152.0910  134.9407  160.0571 H   0  0  0  0  0  0  0  0  0  0  0  0  # atno 6907 bound_to 6896
  152.0658  133.4078  159.4446 H   0  0  0  0  0  0  0  0  0  0  0  0  # atno 6908 bound_to 6896
  150.6837  134.3068  159.4773 H   0  0  0  0  0  0  0  0  0  0  0  0  # atno 6909 bound_to 6896
  145.0010  140.7820  143.4496 H   0  0  0  0  0  0  0  0  0  0  0  0  # atno 7974 bound_to 7965
  156.0479  140.3311  155.7317 H   0  0  0  0  0  0  0  0  0  0  0  0  # atno 8008 bound_to 7997
  155.5646  140.0622  157.2838 H   0  0  0  0  0  0  0  0  0  0  0  0  # atno 8009 bound_to 7997
  154.4422  140.1871  156.0805 H   0  0  0  0  0  0  0  0  0  0  0  0  # atno 8010 bound_to 7997
  140.1185  144.4753  150.6935 H   0  0  0  0  0  0  0  0  0  0  0  0  # atno 10167 bound_to 10162
  156.2263  130.7010  151.0810 H   0  0  0  0  0  0  0  0  0  0  0  0  # atno 10718 bound_to 10713
  154.8470  135.4391  154.1620 H   0  0  0  0  0  0  0  0  0  0  0  0  # atno 10763 bound_to 10752
  153.2754  135.6949  153.7444 H   0  0  0  0  0  0  0  0  0  0  0  0  # atno 10764 bound_to 10752
  153.6668  135.3425  155.3117 H   0  0  0  0  0  0  0  0  0  0  0  0  # atno 10765 bound_to 10752
  140.0470  134.5791  155.9310 H   0  0  0  0  0  0  0  0  0  0  0  0  # atno 11005 bound_to 11000
  145.2153  139.2185  143.5121 LP  0  0  0  0  0  0  0  0  0  0  0  0  # atno 17320 bound_to 7965
  146.3452  140.2000  142.8589 LP  0  0  0  0  0  0  0  0  0  0  0  0  # atno 17321 bound_to 7965
  140.6885  143.2363  151.5194 LP  0  0  0  0  0  0  0  0  0  0  0  0  # atno 17342 bound_to 10162
  139.5581  144.2224  152.1646 LP  0  0  0  0  0  0  0  0  0  0  0  0  # atno 17343 bound_to 10162
  157.7112  131.0733  150.6494 LP  0  0  0  0  0  0  0  0  0  0  0  0  # atno 17370 bound_to 10713
  156.6559  130.4498  149.5703 LP  0  0  0  0  0  0  0  0  0  0  0  0  # atno 17371 bound_to 10713
  141.1912  133.6571  156.5445 LP  0  0  0  0  0  0  0  0  0  0  0  0  # atno 17394 bound_to 11000
  140.3978  134.7384  157.4761 LP  0  0  0  0  0  0  0  0  0  0  0  0  # atno 17395 bound_to 11000

$$$$
