AV-unprocessed.smi:3280|AV-procd|sdf|12553|dock10
  -GOLD-   2272018473D 1   1.00000     0.00000
 Structure written by MMmdl.
 39 40  0  0  0  0  0  0  0  0  2 V2000
  155.3743  137.9742  154.5105 C   0  0  0  0  0  0  0  0  0  0  0  0
  153.9784  138.1295  153.8892 C   0  0  0  0  0  0  0  0  0  0  0  0
  153.8523  137.4435  152.5207 C   0  0  0  0  0  0  0  0  0  0  0  0
  153.5532  139.5650  153.8317 C   0  0  0  0  0  0  0  0  0  0  0  0
  154.1729  140.4369  153.0441 N   0  0  0  0  0  0  0  0  0  0  0  0
  153.4817  141.6347  153.2751 O   0  0  0  0  0  0  0  0  0  0  0  0
  152.5325  141.3406  154.1948 C   0  0  0  0  0  0  0  0  0  0  0  0
  151.5841  142.4105  154.6198 C   0  0  0  0  0  0  0  0  0  0  0  0
  151.6224  142.6543  156.1335 C   0  0  0  0  0  0  0  0  0  0  0  0
  151.6199  144.0987  156.4403 N   0  3  0  0  0  0  0  0  0  0  0  0
  152.0368  144.4402  157.8177 C   0  0  1  0  0  0  0  0  0  0  0  0
  150.8122  144.4203  158.7523 C   0  0  0  0  0  0  0  0  0  0  0  0
  151.1589  144.8257  160.1945 C   0  0  0  0  0  0  0  0  0  0  0  0
  152.1845  143.8825  160.8385 C   0  0  0  0  0  0  0  0  0  0  0  0
  153.7547  143.9067  159.9321 S   0  0  0  0  0  0  0  0  0  0  0  0
  153.1267  143.4617  158.2898 C   0  0  0  0  0  0  0  0  0  0  0  0
  152.5152  140.0624  154.5620 N   0  0  0  0  0  0  0  0  0  0  0  0
  155.4093  138.4095  155.5096 H   0  0  0  0  0  0  0  0  0  0  0  0
  156.1363  138.4661  153.9052 H   0  0  0  0  0  0  0  0  0  0  0  0
  155.6493  136.9228  154.5987 H   0  0  0  0  0  0  0  0  0  0  0  0
  153.2863  137.6127  154.5564 H   0  0  0  0  0  0  0  0  0  0  0  0
  152.8315  137.5078  152.1424 H   0  0  0  0  0  0  0  0  0  0  0  0
  154.1142  136.3872  152.5863 H   0  0  0  0  0  0  0  0  0  0  0  0
  154.5109  137.9028  151.7830 H   0  0  0  0  0  0  0  0  0  0  0  0
  151.8330  143.3276  154.0841 H   0  0  0  0  0  0  0  0  0  0  0  0
  150.5781  142.1274  154.3072 H   0  0  0  0  0  0  0  0  0  0  0  0
  150.7602  142.1850  156.6093 H   0  0  0  0  0  0  0  0  0  0  0  0
  152.5173  142.1992  156.5607 H   0  0  0  0  0  0  0  0  0  0  0  0
  152.2448  144.5626  155.7964 H   0  0  0  0  0  0  0  0  0  0  0  0
  152.4565  145.4480  157.8251 H   0  0  0  0  0  0  0  0  0  0  0  0
  150.0520  145.1021  158.3688 H   0  0  0  0  0  0  0  0  0  0  0  0
  150.3598  143.4276  158.7522 H   0  0  0  0  0  0  0  0  0  0  0  0
  151.5385  145.8482  160.2106 H   0  0  0  0  0  0  0  0  0  0  0  0
  150.2488  144.8295  160.7951 H   0  0  0  0  0  0  0  0  0  0  0  0
  152.3727  144.1773  161.8712 H   0  0  0  0  0  0  0  0  0  0  0  0
  151.8018  142.8617  160.8623 H   0  0  0  0  0  0  0  0  0  0  0  0
  152.7403  142.4423  158.3246 H   0  0  0  0  0  0  0  0  0  0  0  0
  153.9661  143.4617  157.5935 H   0  0  0  0  0  0  0  0  0  0  0  0
  150.6866  144.4561  156.2931 H   0  0  0  0  0  0  0  0  0  0  0  0
  1  2  1  0  0  0  0
  1 18  1  0  0  0  0
  1 19  1  0  0  0  0
  1 20  1  0  0  0  0
  2  3  1  0  0  0  0
  2  4  1  0  0  0  0
  2 21  1  0  0  0  0
  3 22  1  0  0  0  0
  3 23  1  0  0  0  0
  3 24  1  0  0  0  0
  4 17  1  0  0  0  0
  4  5  2  0  0  0  0
  5  6  1  0  0  0  0
  6  7  1  0  0  0  0
  7  8  1  0  0  0  0
  7 17  2  0  0  0  0
  8  9  1  0  0  0  0
  8 25  1  0  0  0  0
  8 26  1  0  0  0  0
  9 10  1  0  0  0  0
  9 27  1  0  0  0  0
  9 28  1  0  0  0  0
 10 11  1  0  0  0  0
 10 29  1  0  0  0  0
 10 39  1  0  0  0  0
 11 16  1  0  0  0  0
 11 12  1  0  0  0  0
 11 30  1  0  0  0  0
 12 13  1  0  0  0  0
 12 31  1  0  0  0  0
 12 32  1  0  0  0  0
 13 14  1  0  0  0  0
 13 33  1  0  0  0  0
 13 34  1  0  0  0  0
 14 15  1  0  0  0  0
 14 35  1  0  0  0  0
 14 36  1  0  0  0  0
 15 16  1  0  0  0  0
 16 37  1  0  0  0  0
 16 38  1  0  0  0  0
M  CHG  1  10   1
M  END
> <s_m_source_file>
AV-unprocessed.smi

> <i_m_source_file_index>
3280

> <i_lp_mmshare_version>
43012

> <i_f3d_flags>
0

> <s_epik_input>
W0NIM11bQ0hdKFtDSDNdKWMxbm9jKG4xKVtDSDJdW0NIMl1bTkhdW0NAQEhdMltDSDJdW0NIMl1bQ0gyXVNbQ0gyXTI=

> <s_epik_cmdline>
J2VwaWtfcHl0aG9uJywgJy1waCcsICc3LjAnLCAnLXRuJywgJzgnLCAnLW1hJywgJzIwMCcsICctbWV0YWxfYmluZGluZycsICctaW1hZScsICc8aW5maWxlLm1hZT4nLCAnLW9tYWUnLCAnPG91dGZpbGUubWFlPic=

> <r_lp_tautomer_probability>
1

> <r_epik_Ionization_Penalty>
0.0103043

> <r_epik_Ionization_Penalty_Charging>
0.0103043

> <r_epik_Ionization_Penalty_Neutral>
2.61801e-13

> <r_epik_State_Penalty>
0.0078728

> <r_epik_Charging_Adjusted_Penalty>
0.0181771

> <i_epik_Tot_Q>
1

> <i_epik_Tot_abs_Q>
1

> <r_epik_Metal_State_Penalty>
0.0078728

> <b_epik_Metal_Only>
0

> <s_lp_Force_Field>
OPLS_2005

> <r_lp_Energy>
2.51022

> <b_lp_Chiralities_Consistent>
1

> <s_lp_Variant>
AV-unprocessed.smi:3280-2

> <Gold.Version>
5.8.1

> <Gold.Id.Protein>
6NUR|6NUR_protein|mol2

> <Gold.PLP.Fitness>
42.7129

> <Gold.PLP.PLP>
-35.1070

> <Gold.PLP.part.hbond>
-2.0000

> <Gold.PLP.part.metal>
0.0000

> <Gold.PLP.part.buried>
-4.1303

> <Gold.PLP.part.nonpolar>
-28.9177

> <Gold.PLP.part.repulsive>
0.3286

> <Gold.PLP.ligand.clash>
0.0000

> <Gold.PLP.ligand.torsion>
0.7384

> <Gold.PLP.Chemscore.Hbond>
3.0000

> <Gold.PLP.Chemscore.CHOScore>
0.0000

> <Gold.PLP.Chemscore.Metal>
0.0000

> <Gold.Chemscore.Hbonds>
donor molecule, donor type, donor heavy atom, donor atom, acceptor molecule, acceptor atom, score
      L1  H    10    39       P1  8028  2.00

> <Gold.PLP.Chemscore.Internal.Correction>
0.0828

> <Gold.Rescore>
     Score         DG    S(hbond)    S(metal)    S(lipo)     H(rot)  DE(clash)    DE(int)     intcor
     17.59     -18.01       1.91        0.00      90.99       1.76       0.02       0.40       ----

> <Gold.Chemscore.Fitness>
17.5864

> <Gold.Chemscore.DG>
-18.0095

> <Gold.Chemscore.ZeroCoef>
-5.4800

> <Gold.Chemscore.Hbond>
1.9109

> <Gold.Chemscore.Metal>
0.0000

> <Gold.Chemscore.Lipo>
90.9855

> <Gold.Chemscore.Internal_Hbond>
0.0000

> <Gold.Chemscore.DEClash>
0.0186

> <Gold.Chemscore.DEInternal>
0.4045

> <Gold.Chemscore.Rot>
1.7572

> <Gold.Chemscore.Internal.Correction>
   9.000000E+99

> <Gold.Chemscore.Hbonds>
donor molecule, donor type, donor heavy atom, donor atom, acceptor molecule, acceptor atom, score
      L1  H    10    39       P1  8028  1.00

> <Gold.Chemscore.Hbond.Weighted>
-6.3825

> <Gold.Chemscore.Metal.Weighted>
-0.0000

> <Gold.Chemscore.Lipo.Weighted>
-10.6453

> <Gold.Chemscore.Internal_Hbond.Weighted>
0.0000

> <Gold.Chemscore.DEClash.Weighted>
0.0186

> <Gold.Chemscore.DEInternal.Weighted>
0.4045

> <Gold.Chemscore.Rot.Weighted>
4.4984

> <Gold.Chemscore.Internal.Correction.Weighted>
   9.000000E+99

> <Gold.Protein.RotatedTorsions>
[ 6907 6896 6895 6894 ] final   93.94 input  -60.11 | X-H torsion
[ 7974 7965 7964 7962 ] final  -91.16 input  175.53 | X-H torsion
[ 8008 7997 7996 7995 ] final   50.62 input   59.86 | X-H torsion
[ 10167 10162 10161 10158 ] final   32.93 input  -65.29 | X-H torsion
[ 10718 10713 10712 10709 ] final  144.82 input   66.30 | X-H torsion
[ 10763 10752 10751 10750 ] final  156.26 input  -60.55 | X-H torsion
[ 11005 11000 10999 10996 ] final   47.37 input  -57.11 | X-H torsion

> <Gold.Protein.ActiveResidues>
 VAL166  LYS551  ARG553  GLY616  TRP617  ASP618  TYR619  PRO620  LYS621  CYS622 
 ASP623  PHE694  ASN695  SER759  ASP760  ASP761  ALA762  ILE779  LEU786  VAL792 
 PHE793  MET794  SER795  GLU796  ALA797  LYS798  CYS799  TRP800  GLU811  SER814 

> <Gold.Protein.RotatedAtoms>
  152.5451  134.1270  159.8422 H   0  0  0  0  0  0  0  0  0  0  0  0  # atno 6907 bound_to 6896
  151.1319  133.5023  159.2606 H   0  0  0  0  0  0  0  0  0  0  0  0  # atno 6908 bound_to 6896
  151.1666  135.0308  159.8788 H   0  0  0  0  0  0  0  0  0  0  0  0  # atno 6909 bound_to 6896
  145.4169  140.9549  143.2203 H   0  0  0  0  0  0  0  0  0  0  0  0  # atno 7974 bound_to 7965
  155.4218  140.3447  155.4272 H   0  0  0  0  0  0  0  0  0  0  0  0  # atno 8008 bound_to 7997
  156.1388  140.1536  156.8983 H   0  0  0  0  0  0  0  0  0  0  0  0  # atno 8009 bound_to 7997
  154.4954  140.0829  156.7666 H   0  0  0  0  0  0  0  0  0  0  0  0  # atno 8010 bound_to 7997
  140.4453  144.1127  150.6181 H   0  0  0  0  0  0  0  0  0  0  0  0  # atno 10167 bound_to 10162
  157.3526  131.0953  151.0986 H   0  0  0  0  0  0  0  0  0  0  0  0  # atno 10718 bound_to 10713
  154.1815  135.2799  155.3050 H   0  0  0  0  0  0  0  0  0  0  0  0  # atno 10763 bound_to 10752
  154.5999  135.5533  153.7367 H   0  0  0  0  0  0  0  0  0  0  0  0  # atno 10764 bound_to 10752
  153.0137  135.6389  154.1954 H   0  0  0  0  0  0  0  0  0  0  0  0  # atno 10765 bound_to 10752
  140.1285  134.4736  155.8540 H   0  0  0  0  0  0  0  0  0  0  0  0  # atno 11005 bound_to 11000
  144.8271  139.5691  143.6960 LP  0  0  0  0  0  0  0  0  0  0  0  0  # atno 17320 bound_to 7965
  146.2676  139.6558  142.9318 LP  0  0  0  0  0  0  0  0  0  0  0  0  # atno 17321 bound_to 7965
  140.4270  143.2585  151.9643 LP  0  0  0  0  0  0  0  0  0  0  0  0  # atno 17342 bound_to 10162
  139.4792  144.5778  151.7982 LP  0  0  0  0  0  0  0  0  0  0  0  0  # atno 17343 bound_to 10162
  157.2156  130.6458  149.5791 LP  0  0  0  0  0  0  0  0  0  0  0  0  # atno 17370 bound_to 10713
  155.9724  130.4645  150.6222 LP  0  0  0  0  0  0  0  0  0  0  0  0  # atno 17371 bound_to 10713
  141.2166  133.6787  156.7024 LP  0  0  0  0  0  0  0  0  0  0  0  0  # atno 17394 bound_to 11000
  140.2873  134.8269  157.3986 LP  0  0  0  0  0  0  0  0  0  0  0  0  # atno 17395 bound_to 11000

$$$$
