#       Name:                AV-unprocessed.smi:51
#       Creating user name   scv26
#       Creation time:       Thu Mar 26 16:37:33 2020


#       File generated by GOLD software.
#

@<TRIPOS>MOLECULE
AV-unprocessed.smi:51
    34    35     1
SMALL
NO_CHARGES


@<TRIPOS>ATOM
      1 ****        -3.1479   1.1094   0.3336 O.co2          1 S1                 0.0000
      2 ****        -2.1849   0.8277   1.0793 C.2            1 S1                 0.0000
      3 ****        -2.2772   0.3849   2.2463 O.co2          1 S1                -1.0000
      4 ****        -0.7791   1.0346   0.5011 C.3            1 S1                 0.0000
      5 ****         0.1350   1.8677   1.4211 C.3            1 S1                 0.0000
      6 ****         1.0355   0.8261   2.0823 C.3            1 S1                 0.0000
      7 ****         2.2787   1.3620   2.4843 O.3            1 S1                 0.0000
      8 ****         1.1807  -0.2259   0.9851 C.3            1 S1                 0.0000
      9 ****        -0.1212  -0.2627   0.3356 N.3            1 S1                 0.0000
     10 ****        -0.1337  -0.8140  -0.9534 C.ar           1 S1                 0.0000
     11 ****        -0.6799  -2.0983  -1.1574 C.ar           1 S1                 0.0000
     12 ****        -0.6522  -2.5911  -2.4772 C.ar           1 S1                 0.0000
     13 ****        -0.1235  -1.8756  -3.4933 N.ar           1 S1                 0.0000
     14 ****         0.3696  -0.6732  -3.1865 C.ar           1 S1                 0.0000
     15 ****         0.3981  -0.1055  -1.9785 N.ar           1 S1                 0.0000
     16 ****        -0.8836   1.5505  -0.4545 H              1 S1                 0.0000
     17 ****         0.7308   2.5451   0.8076 H              1 S1                 0.0000
     18 ****        -0.4031   2.4774   2.1488 H              1 S1                 0.0000
     19 ****         0.5277   0.3939   2.9460 H              1 S1                 0.0000
     20 ****         2.6967   1.7439   1.7280 H              1 S1                 0.0000
     21 ****         1.9551   0.0624   0.2714 H              1 S1                 0.0000
     22 ****         1.4443  -1.2015   1.3948 H              1 S1                 0.0000
     23 ****        -1.1048  -2.6714  -0.3463 H              1 S1                 0.0000
     24 ****        -1.0548  -3.5637  -2.7179 H              1 S1                 0.0000
     25 ****         0.7931  -0.1018  -3.9992 H              1 S1                 0.0000
     26 ****        -4.0853   0.9848   0.6588 LP             1 S1                 0.0000
     27 ****        -2.9808   1.4592  -0.5882 LP             1 S1                 0.0000
     28 ****        -3.1777   0.2297   2.6524 LP             1 S1                 0.0000
     29 ****        -1.4504   0.1862   2.7725 LP             1 S1                 0.0000
     30 ****         2.8550   0.6351   2.8579 LP             1 S1                 0.0000
     31 ****         2.1344   2.0644   3.1812 LP             1 S1                 0.0000
     32 ****        -0.6898  -0.9383   0.8049 LP             1 S1                 0.0000
     33 ****        -0.1023  -2.2287  -4.4287 LP             1 S1                 0.0000
     34 ****         0.7941   0.8017  -1.8367 LP             1 S1                 0.0000
@<TRIPOS>BOND
    1    1    2 ar    
    2    2    3 ar    
    3    2    4 1     
    4    4    9 1     
    5    4    5 1     
    6    4   16 1     
    7    5    6 1     
    8    5   17 1     
    9    5   18 1     
   10    6    7 1     
   11    6    8 1     
   12    6   19 1     
   13    7   20 1     
   14    8    9 1     
   15    8   21 1     
   16    8   22 1     
   17    9   10 1     
   18   10   15 ar    
   19   10   11 ar    
   20   11   12 ar    
   21   11   23 1     
   22   12   13 ar    
   23   12   24 1     
   24   13   14 ar    
   25   14   15 ar    
   26   14   25 1     
   27    1   26 1     
   28    1   27 1     
   29    3   28 1     
   30    3   29 1     
   31    7   30 1     
   32    7   31 1     
   33    9   32 1     
   34   13   33 1     
   35   15   34 1     
@<TRIPOS>SUBSTRUCTURE
      1 S1             1
@<TRIPOS>SET
LONE_PAIRS      STATIC     ATOMS    <user>   **** ""
9 26 27 28 29 30 31 32 33 34
DONOR_HYDROGENS      STATIC     ATOMS    <user>   **** ""
1 20
ATOM$BLUE        STATIC     ATOMS    COLORGROUP SYSTEM
9 26 27 28 29 30 31 32 33 34
ATOM$RED        STATIC     ATOMS    COLORGROUP SYSTEM
1 20
