AV-unprocessed.smi:2332|AV-procd|sdf|9319|dock4
  -GOLD-   2272012543D 1   1.00000     0.00000
 Structure written by MMmdl.
 32 33  0  0  0  0  0  0  0  0  1 V2000
  146.7312  138.7592  152.4708 C   0  0  0  0  0  0  0  0  0  0  0  0
  148.0610  139.1092  152.9452 N   0  0  0  0  0  0  0  0  0  0  0  0
  148.5979  138.6656  154.0919 C   0  0  0  0  0  0  0  0  0  0  0  0
  147.9965  137.9163  154.8627 O   0  0  0  0  0  0  0  0  0  0  0  0
  150.0151  139.1519  154.4325 C   0  0  1  0  0  0  0  0  0  0  0  0
  150.0300  140.0777  155.6706 C   0  0  0  0  0  0  0  0  0  0  0  0
  151.3996  140.4280  156.0404 N   0  0  0  0  0  0  0  0  0  0  0  0
  151.5265  141.4691  156.9860 C   0  0  0  0  0  0  0  0  0  0  0  0
  152.2046  141.2421  158.2079 C   0  0  0  0  0  0  0  0  0  0  0  0
  152.3233  142.2956  159.1352 C   0  0  0  0  0  0  0  0  0  0  0  0
  151.7600  143.5460  158.8178 C   0  0  0  0  0  0  0  0  0  0  0  0
  151.8560  144.6637  159.7408 C   0  0  0  0  0  0  0  0  0  0  0  0
  151.9322  145.5540  160.4759 N   0  0  0  0  0  0  0  0  0  0  0  0
  151.0976  143.6833  157.5825 C   0  0  0  0  0  0  0  0  0  0  0  0
  150.9803  142.6756  156.6914 N   0  0  0  0  0  0  0  0  0  0  0  0
  152.2800  139.2702  156.1771 C   0  0  0  0  0  0  0  0  0  0  0  0
  152.2044  138.3918  154.9192 C   0  0  0  0  0  0  0  0  0  0  0  0
  150.8517  138.0210  154.6808 O   0  0  0  0  0  0  0  0  0  0  0  0
  146.5528  139.2132  151.4962 H   0  0  0  0  0  0  0  0  0  0  0  0
  145.9667  139.1192  153.1604 H   0  0  0  0  0  0  0  0  0  0  0  0
  146.6266  137.6782  152.3676 H   0  0  0  0  0  0  0  0  0  0  0  0
  148.6153  139.7219  152.3642 H   0  0  0  0  0  0  0  0  0  0  0  0
  150.3928  139.6920  153.5625 H   0  0  0  0  0  0  0  0  0  0  0  0
  149.4407  140.9687  155.4576 H   0  0  0  0  0  0  0  0  0  0  0  0
  149.5564  139.5813  156.5191 H   0  0  0  0  0  0  0  0  0  0  0  0
  152.6195  140.2749  158.4500 H   0  0  0  0  0  0  0  0  0  0  0  0
  152.8359  142.1384  160.0733 H   0  0  0  0  0  0  0  0  0  0  0  0
  150.6474  144.6228  157.2962 H   0  0  0  0  0  0  0  0  0  0  0  0
  153.3102  139.5949  156.3293 H   0  0  0  0  0  0  0  0  0  0  0  0
  151.9853  138.6923  157.0542 H   0  0  0  0  0  0  0  0  0  0  0  0
  152.6096  138.9155  154.0517 H   0  0  0  0  0  0  0  0  0  0  0  0
  152.8011  137.4899  155.0545 H   0  0  0  0  0  0  0  0  0  0  0  0
  1  2  1  0  0  0  0
  1 19  1  0  0  0  0
  1 20  1  0  0  0  0
  1 21  1  0  0  0  0
  2  3  1  0  0  0  0
  2 22  1  0  0  0  0
  3  4  2  0  0  0  0
  3  5  1  0  0  0  0
  5 18  1  0  0  0  0
  5  6  1  0  0  0  0
  5 23  1  0  0  0  0
  6  7  1  0  0  0  0
  6 24  1  0  0  0  0
  6 25  1  0  0  0  0
  7  8  1  0  0  0  0
  7 16  1  0  0  0  0
  8 15  1  0  0  0  0
  8  9  2  0  0  0  0
  9 10  1  0  0  0  0
  9 26  1  0  0  0  0
 10 11  2  0  0  0  0
 10 27  1  0  0  0  0
 11 12  1  0  0  0  0
 11 14  1  0  0  0  0
 12 13  3  0  0  0  0
 14 15  2  0  0  0  0
 14 28  1  0  0  0  0
 16 17  1  0  0  0  0
 16 29  1  0  0  0  0
 16 30  1  0  0  0  0
 17 18  1  0  0  0  0
 17 31  1  0  0  0  0
 17 32  1  0  0  0  0
M  END
> <s_m_source_file>
AV-unprocessed.smi

> <i_m_source_file_index>
2332

> <i_lp_mmshare_version>
43012

> <i_f3d_flags>
0

> <s_epik_input>
W0NIM11bTkhdQyg9TylbQ0BASF0xW0NIMl1OKFtDSDJdW0NIMl1PMSljMltjSF1bY0hdYyhDI04pW2NIXW4y

> <s_epik_cmdline>
J2VwaWtfcHl0aG9uJywgJy1waCcsICc3LjAnLCAnLXRuJywgJzgnLCAnLW1hJywgJzIwMCcsICctbWV0YWxfYmluZGluZycsICctaW1hZScsICc8aW5maWxlLm1hZT4nLCAnLW9tYWUnLCAnPG91dGZpbGUubWFlPic=

> <r_lp_tautomer_probability>
1

> <r_epik_Ionization_Penalty>
6.95229e-08

> <r_epik_Ionization_Penalty_Charging>
0

> <r_epik_Ionization_Penalty_Neutral>
6.95229e-08

> <r_epik_State_Penalty>
-0

> <r_epik_Charging_Adjusted_Penalty>
0

> <i_epik_Tot_Q>
0

> <i_epik_Tot_abs_Q>
0

> <r_epik_Metal_State_Penalty>
-0

> <b_epik_Metal_Only>
0

> <s_lp_Force_Field>
OPLS_2005

> <r_lp_Energy>
17.7289

> <b_lp_Chiralities_Consistent>
1

> <s_lp_Variant>
AV-unprocessed.smi:2332-2

> <Gold.Version>
5.8.1

> <Gold.Id.Protein>
6NUR|6NUR_protein|mol2

> <Gold.PLP.Fitness>
38.0497

> <Gold.PLP.PLP>
-32.7023

> <Gold.PLP.part.hbond>
-1.6404

> <Gold.PLP.part.metal>
0.0000

> <Gold.PLP.part.buried>
-3.8488

> <Gold.PLP.part.nonpolar>
-28.4624

> <Gold.PLP.part.repulsive>
0.8627

> <Gold.PLP.ligand.clash>
0.0000

> <Gold.PLP.ligand.torsion>
0.3000

> <Gold.PLP.Chemscore.Hbond>
1.0000

> <Gold.PLP.Chemscore.CHOScore>
0.8708

> <Gold.PLP.Chemscore.Metal>
0.0000

> <Gold.Chemscore.Hbonds>
donor molecule, donor type, donor heavy atom, donor atom, acceptor molecule, acceptor atom, score
      L1  H     2    22       P1  7957  1.00
      L1  C    14    28       P1  8028  0.86

> <Gold.PLP.Chemscore.Internal.Correction>
0.3350

> <Gold.Rescore>
     Score         DG    S(hbond)    S(metal)    S(lipo)     H(rot)  DE(clash)    DE(int)     intcor
     13.01     -14.26       1.00        0.00      76.17       1.35       1.04       0.21       ----

> <Gold.Chemscore.Fitness>
13.0115

> <Gold.Chemscore.DG>
-14.2628

> <Gold.Chemscore.ZeroCoef>
-5.4800

> <Gold.Chemscore.Hbond>
0.9961

> <Gold.Chemscore.Metal>
0.0000

> <Gold.Chemscore.Lipo>
76.1669

> <Gold.Chemscore.Internal_Hbond>
0.0000

> <Gold.Chemscore.DEClash>
1.0418

> <Gold.Chemscore.DEInternal>
0.2095

> <Gold.Chemscore.Rot>
1.3498

> <Gold.Chemscore.Internal.Correction>
   9.000000E+99

> <Gold.Chemscore.Hbonds>
donor molecule, donor type, donor heavy atom, donor atom, acceptor molecule, acceptor atom, score
      L1  H     2    22       P1  7957  0.95

> <Gold.Chemscore.Hbond.Weighted>
-3.3268

> <Gold.Chemscore.Metal.Weighted>
-0.0000

> <Gold.Chemscore.Lipo.Weighted>
-8.9115

> <Gold.Chemscore.Internal_Hbond.Weighted>
0.0000

> <Gold.Chemscore.DEClash.Weighted>
1.0418

> <Gold.Chemscore.DEInternal.Weighted>
0.2095

> <Gold.Chemscore.Rot.Weighted>
3.4556

> <Gold.Chemscore.Internal.Correction.Weighted>
   9.000000E+99

> <Gold.Protein.RotatedTorsions>
[ 6907 6896 6895 6894 ] final  179.71 input  -60.11 | X-H torsion
[ 7974 7965 7964 7962 ] final  -39.26 input  175.53 | X-H torsion
[ 8008 7997 7996 7995 ] final -170.34 input   59.86 | X-H torsion
[ 10167 10162 10161 10158 ] final   73.74 input  -65.29 | X-H torsion
[ 10718 10713 10712 10709 ] final   72.42 input   66.30 | X-H torsion
[ 10763 10752 10751 10750 ] final  -96.77 input  -60.55 | X-H torsion
[ 11005 11000 10999 10996 ] final  -91.07 input  -57.11 | X-H torsion

> <Gold.Protein.ActiveResidues>
 VAL166  LYS551  ARG553  GLY616  TRP617  ASP618  TYR619  PRO620  LYS621  CYS622 
 ASP623  PHE694  ASN695  SER759  ASP760  ASP761  ALA762  ILE779  LEU786  VAL792 
 PHE793  MET794  SER795  GLU796  ALA797  LYS798  CYS799  TRP800  GLU811  SER814 

> <Gold.Protein.RotatedAtoms>
  151.6672  133.3315  159.3187 H   0  0  0  0  0  0  0  0  0  0  0  0  # atno 6907 bound_to 6896
  150.7885  134.6893  159.6497 H   0  0  0  0  0  0  0  0  0  0  0  0  # atno 6908 bound_to 6896
  152.3960  134.6369  160.0141 H   0  0  0  0  0  0  0  0  0  0  0  0  # atno 6909 bound_to 6896
  146.0412  140.6606  142.9086 H   0  0  0  0  0  0  0  0  0  0  0  0  # atno 7974 bound_to 7965
  155.9171  140.1067  157.1235 H   0  0  0  0  0  0  0  0  0  0  0  0  # atno 8008 bound_to 7997
  154.4048  140.1263  156.4696 H   0  0  0  0  0  0  0  0  0  0  0  0  # atno 8009 bound_to 7997
  155.7241  140.3469  155.5031 H   0  0  0  0  0  0  0  0  0  0  0  0  # atno 8010 bound_to 7997
  140.0213  144.5538  150.7580 H   0  0  0  0  0  0  0  0  0  0  0  0  # atno 10167 bound_to 10162
  157.6500  130.9578  150.0927 H   0  0  0  0  0  0  0  0  0  0  0  0  # atno 10718 bound_to 10713
  154.7269  135.5071  153.8900 H   0  0  0  0  0  0  0  0  0  0  0  0  # atno 10763 bound_to 10752
  153.0913  135.6660  153.9857 H   0  0  0  0  0  0  0  0  0  0  0  0  # atno 10764 bound_to 10752
  153.9668  135.3042  155.3409 H   0  0  0  0  0  0  0  0  0  0  0  0  # atno 10765 bound_to 10752
  141.1553  133.7732  156.9826 H   0  0  0  0  0  0  0  0  0  0  0  0  # atno 11005 bound_to 11000
  144.7075  140.3911  143.7106 LP  0  0  0  0  0  0  0  0  0  0  0  0  # atno 17320 bound_to 7965
  145.6881  139.1633  143.2662 LP  0  0  0  0  0  0  0  0  0  0  0  0  # atno 17321 bound_to 7965
  140.7341  143.2725  151.3843 LP  0  0  0  0  0  0  0  0  0  0  0  0  # atno 17342 bound_to 10162
  139.6138  144.1044  152.2325 LP  0  0  0  0  0  0  0  0  0  0  0  0  # atno 17343 bound_to 10162
  156.1871  130.3653  149.8958 LP  0  0  0  0  0  0  0  0  0  0  0  0  # atno 17370 bound_to 10713
  156.6895  130.8890  151.3586 LP  0  0  0  0  0  0  0  0  0  0  0  0  # atno 17371 bound_to 10713
  140.1055  134.9509  157.1988 LP  0  0  0  0  0  0  0  0  0  0  0  0  # atno 17394 bound_to 11000
  140.3262  134.2861  155.7236 LP  0  0  0  0  0  0  0  0  0  0  0  0  # atno 17395 bound_to 11000

$$$$
