AV-unprocessed.smi:311|AV-procd|sdf|2303|dock6
  -GOLD-   2262022203D 1   1.00000     0.00000
 Structure written by MMmdl.
 44 46  0  0  0  0  0  0  0  0  2 V2000
  147.0010  129.3995  155.9671 C   0  0  0  0  0  0  0  0  0  0  0  0
  147.1838  128.6900  154.6561 C   0  0  0  0  0  0  0  0  0  0  0  0
  146.2701  127.8241  154.2512 N   0  0  0  0  0  0  0  0  0  0  0  0
  146.7166  127.3447  153.0161 O   0  0  0  0  0  0  0  0  0  0  0  0
  147.8955  127.9492  152.7220 C   0  0  0  0  0  0  0  0  0  0  0  0
  148.5352  127.5806  151.4265 C   0  0  0  0  0  0  0  0  0  0  0  0
  148.2491  128.8168  153.7187 C   0  0  0  0  0  0  0  0  0  0  0  0
  149.4610  129.7104  153.7996 C   0  0  0  0  0  0  0  0  0  0  0  0
  149.0026  131.1656  153.8818 C   0  0  0  0  0  0  0  0  0  0  0  0
  149.2120  131.8249  154.8994 O   0  0  0  0  0  0  0  0  0  0  0  0
  148.4127  131.6664  152.7857 N   0  0  0  0  0  0  0  0  0  0  0  0
  148.0459  133.0666  152.6018 C   0  0  2  0  0  0  0  0  0  0  0  0
  147.3355  133.6717  153.8203 C   0  0  0  0  0  0  0  0  0  0  0  0
  146.3466  134.6993  153.2406 C   0  0  0  0  0  0  0  0  0  0  0  0
  146.5000  134.6352  151.7701 N   0  3  2  0  0  0  0  0  0  0  0  0
  145.3296  135.0652  150.9627 C   0  0  0  0  0  0  0  0  0  0  0  0
  144.2361  133.9869  150.8787 C   0  0  0  0  0  0  0  0  0  0  0  0
  144.8223  132.6596  150.3877 C   0  0  0  0  0  0  0  0  0  0  0  0
  145.9507  132.2191  151.3253 C   0  0  0  0  0  0  0  0  0  0  0  0
  147.0552  133.3019  151.4475 C   0  0  2  0  0  0  0  0  0  0  0  0
  145.9569  129.4004  156.2820 H   0  0  0  0  0  0  0  0  0  0  0  0
  147.3236  130.4384  155.9007 H   0  0  0  0  0  0  0  0  0  0  0  0
  147.5849  128.9197  156.7525 H   0  0  0  0  0  0  0  0  0  0  0  0
  148.4900  128.4143  150.7259 H   0  0  0  0  0  0  0  0  0  0  0  0
  148.0359  126.7261  150.9692 H   0  0  0  0  0  0  0  0  0  0  0  0
  149.5832  127.3196  151.5740 H   0  0  0  0  0  0  0  0  0  0  0  0
  150.0771  129.4796  154.6692 H   0  0  0  0  0  0  0  0  0  0  0  0
  150.1048  129.5848  152.9281 H   0  0  0  0  0  0  0  0  0  0  0  0
  148.2771  131.0490  151.9984 H   0  0  0  0  0  0  0  0  0  0  0  0
  148.9488  133.6517  152.4132 H   0  0  0  0  0  0  0  0  0  0  0  0
  146.7863  132.9072  154.3725 H   0  0  0  0  0  0  0  0  0  0  0  0
  148.0447  134.1287  154.5115 H   0  0  0  0  0  0  0  0  0  0  0  0
  145.3291  134.4441  153.5391 H   0  0  0  0  0  0  0  0  0  0  0  0
  146.5531  135.7100  153.5938 H   0  0  0  0  0  0  0  0  0  0  0  0
  144.9258  135.9952  151.3647 H   0  0  0  0  0  0  0  0  0  0  0  0
  145.6845  135.2919  149.9566 H   0  0  0  0  0  0  0  0  0  0  0  0
  143.7687  133.8467  151.8538 H   0  0  0  0  0  0  0  0  0  0  0  0
  143.4443  134.3149  150.2044 H   0  0  0  0  0  0  0  0  0  0  0  0
  144.0457  131.8951  150.3502 H   0  0  0  0  0  0  0  0  0  0  0  0
  145.2037  132.7707  149.3718 H   0  0  0  0  0  0  0  0  0  0  0  0
  145.5287  131.9961  152.3061 H   0  0  0  0  0  0  0  0  0  0  0  0
  146.3770  131.2852  150.9582 H   0  0  0  0  0  0  0  0  0  0  0  0
  147.5882  133.3649  150.4977 H   0  0  0  0  0  0  0  0  0  0  0  0
  147.2404  135.2898  151.5613 H   0  0  0  0  0  0  0  0  0  0  0  0
  1  2  1  0  0  0  0
  1 21  1  0  0  0  0
  1 22  1  0  0  0  0
  1 23  1  0  0  0  0
  2  7  1  0  0  0  0
  2  3  2  0  0  0  0
  3  4  1  0  0  0  0
  4  5  1  0  0  0  0
  5  6  1  0  0  0  0
  5  7  2  0  0  0  0
  6 24  1  0  0  0  0
  6 25  1  0  0  0  0
  6 26  1  0  0  0  0
  7  8  1  0  0  0  0
  8  9  1  0  0  0  0
  8 27  1  0  0  0  0
  8 28  1  0  0  0  0
  9 10  2  0  0  0  0
  9 11  1  0  0  0  0
 11 12  1  0  0  0  0
 11 29  1  0  0  0  0
 12 20  1  0  0  0  0
 12 13  1  0  0  0  0
 12 30  1  0  0  0  0
 13 14  1  0  0  0  0
 13 31  1  0  0  0  0
 13 32  1  0  0  0  0
 14 15  1  0  0  0  0
 14 33  1  0  0  0  0
 14 34  1  0  0  0  0
 15 20  1  0  0  0  0
 15 16  1  0  0  0  0
 15 44  1  0  0  0  0
 16 17  1  0  0  0  0
 16 35  1  0  0  0  0
 16 36  1  0  0  0  0
 17 18  1  0  0  0  0
 17 37  1  0  0  0  0
 17 38  1  0  0  0  0
 18 19  1  0  0  0  0
 18 39  1  0  0  0  0
 18 40  1  0  0  0  0
 19 20  1  0  0  0  0
 19 41  1  0  0  0  0
 19 42  1  0  0  0  0
 20 43  1  0  0  0  0
M  CHG  1  15   1
M  END
> <s_m_source_file>
AV-unprocessed.smi

> <i_m_source_file_index>
311

> <i_lp_mmshare_version>
43012

> <i_f3d_flags>
0

> <s_epik_input>
W0NIM11jMW5vYyhbQ0gzXSljMVtDSDJdQyg9TylbTkhdW0NASF0oW0NIMl1bQ0gyXTIpW0NAQEhdKE4yMylbQ0gyXVtDSDJdW0NIMl1bQ0gyXTM=

> <s_epik_cmdline>
J2VwaWtfcHl0aG9uJywgJy1waCcsICc3LjAnLCAnLXRuJywgJzgnLCAnLW1hJywgJzIwMCcsICctbWV0YWxfYmluZGluZycsICctaW1hZScsICc8aW5maWxlLm1hZT4nLCAnLW9tYWUnLCAnPG91dGZpbGUubWFlPic=

> <r_epik_Ionization_Penalty>
0.00173669

> <r_epik_Ionization_Penalty_Charging>
0.0017366

> <r_epik_Ionization_Penalty_Neutral>
9.2145e-08

> <r_epik_State_Penalty>
0.00117499

> <r_epik_Charging_Adjusted_Penalty>
0.00291159

> <i_epik_Tot_Q>
1

> <i_epik_Tot_abs_Q>
1

> <r_epik_Metal_State_Penalty>
-0

> <b_epik_Metal_Only>
0

> <s_lp_Force_Field>
OPLS_2005

> <r_lp_Energy>
29.2013

> <b_lp_Chiralities_Consistent>
1

> <s_lp_Variant>
AV-unprocessed.smi:311-7

> <Gold.Version>
5.8.1

> <Gold.Id.Protein>
6NUR|6NUR_protein|mol2

> <Gold.PLP.Fitness>
41.4175

> <Gold.PLP.PLP>
-33.5216

> <Gold.PLP.part.hbond>
-2.6280

> <Gold.PLP.part.metal>
0.0000

> <Gold.PLP.part.buried>
-5.8104

> <Gold.PLP.part.nonpolar>
-25.5674

> <Gold.PLP.part.repulsive>
0.1754

> <Gold.PLP.ligand.clash>
0.0000

> <Gold.PLP.ligand.torsion>
0.2303

> <Gold.PLP.Chemscore.Hbond>
2.7840

> <Gold.PLP.Chemscore.CHOScore>
0.0000

> <Gold.PLP.Chemscore.Metal>
0.0000

> <Gold.Chemscore.Hbonds>
donor molecule, donor type, donor heavy atom, donor atom, acceptor molecule, acceptor atom, score
      L1  H    11    29       P1 10747  0.74
      L1  H    15    44       P1  7948  2.00

> <Gold.PLP.Chemscore.Internal.Correction>
0.0045

> <Gold.Rescore>
     Score         DG    S(hbond)    S(metal)    S(lipo)     H(rot)  DE(clash)    DE(int)     intcor
     15.45     -16.96       1.87        0.00      74.42       1.36       0.11       1.39       ----

> <Gold.Chemscore.Fitness>
15.4541

> <Gold.Chemscore.DG>
-16.9583

> <Gold.Chemscore.ZeroCoef>
-5.4800

> <Gold.Chemscore.Hbond>
1.8696

> <Gold.Chemscore.Metal>
0.0000

> <Gold.Chemscore.Lipo>
74.4176

> <Gold.Chemscore.Internal_Hbond>
0.0000

> <Gold.Chemscore.DEClash>
0.1132

> <Gold.Chemscore.DEInternal>
1.3911

> <Gold.Chemscore.Rot>
1.3567

> <Gold.Chemscore.Internal.Correction>
   9.000000E+99

> <Gold.Chemscore.Hbonds>
donor molecule, donor type, donor heavy atom, donor atom, acceptor molecule, acceptor atom, score
      L1  H    11    29       P1 10747  0.74
      L1  H    15    44       P1  7948  0.93

> <Gold.Chemscore.Hbond.Weighted>
-6.2445

> <Gold.Chemscore.Metal.Weighted>
-0.0000

> <Gold.Chemscore.Lipo.Weighted>
-8.7069

> <Gold.Chemscore.Internal_Hbond.Weighted>
0.0000

> <Gold.Chemscore.DEClash.Weighted>
0.1132

> <Gold.Chemscore.DEInternal.Weighted>
1.3911

> <Gold.Chemscore.Rot.Weighted>
3.4731

> <Gold.Chemscore.Internal.Correction.Weighted>
   9.000000E+99

> <Gold.Protein.RotatedTorsions>
[ 6907 6896 6895 6894 ] final  -59.02 input  -60.11 | X-H torsion
[ 7974 7965 7964 7962 ] final  149.08 input  175.53 | X-H torsion
[ 8008 7997 7996 7995 ] final  173.37 input   59.86 | X-H torsion
[ 10167 10162 10161 10158 ] final   12.23 input  -65.29 | X-H torsion
[ 10718 10713 10712 10709 ] final   75.16 input   66.30 | X-H torsion
[ 10763 10752 10751 10750 ] final  -57.01 input  -60.55 | X-H torsion
[ 11005 11000 10999 10996 ] final -123.48 input  -57.11 | X-H torsion

> <Gold.Protein.ActiveResidues>
 VAL166  LYS551  ARG553  GLY616  TRP617  ASP618  TYR619  PRO620  LYS621  CYS622 
 ASP623  PHE694  ASN695  SER759  ASP760  ASP761  ALA762  ILE779  LEU786  VAL792 
 PHE793  MET794  SER795  GLU796  ALA797  LYS798  CYS799  TRP800  GLU811  SER814 

> <Gold.Protein.RotatedAtoms>
  150.7962  134.7023  159.6556 H   0  0  0  0  0  0  0  0  0  0  0  0  # atno 6907 bound_to 6896
  152.4074  134.6179  160.0053 H   0  0  0  0  0  0  0  0  0  0  0  0  # atno 6908 bound_to 6896
  151.6432  133.3288  159.3171 H   0  0  0  0  0  0  0  0  0  0  0  0  # atno 6909 bound_to 6896
  144.8465  139.6235  143.5993 H   0  0  0  0  0  0  0  0  0  0  0  0  # atno 7974 bound_to 7965
  156.1082  140.1462  156.9375 H   0  0  0  0  0  0  0  0  0  0  0  0  # atno 8008 bound_to 7997
  154.4748  140.0898  156.7279 H   0  0  0  0  0  0  0  0  0  0  0  0  # atno 8009 bound_to 7997
  155.4643  140.3439  155.4319 H   0  0  0  0  0  0  0  0  0  0  0  0  # atno 8010 bound_to 7997
  140.6081  143.8465  150.7035 H   0  0  0  0  0  0  0  0  0  0  0  0  # atno 10167 bound_to 10162
  157.6623  130.9713  150.1314 H   0  0  0  0  0  0  0  0  0  0  0  0  # atno 10718 bound_to 10713
  154.2156  135.6387  153.5129 H   0  0  0  0  0  0  0  0  0  0  0  0  # atno 10763 bound_to 10752
  152.9980  135.5484  154.6168 H   0  0  0  0  0  0  0  0  0  0  0  0  # atno 10764 bound_to 10752
  154.5616  135.2909  155.0887 H   0  0  0  0  0  0  0  0  0  0  0  0  # atno 10765 bound_to 10752
  140.9915  134.0532  157.3648 H   0  0  0  0  0  0  0  0  0  0  0  0  # atno 11005 bound_to 11000
  146.2748  139.6725  142.9270 LP  0  0  0  0  0  0  0  0  0  0  0  0  # atno 17320 bound_to 7965
  145.4587  141.0432  143.2763 LP  0  0  0  0  0  0  0  0  0  0  0  0  # atno 17321 bound_to 7965
  140.2027  143.3946  152.1779 LP  0  0  0  0  0  0  0  0  0  0  0  0  # atno 17342 bound_to 10162
  139.5340  144.7190  151.4957 LP  0  0  0  0  0  0  0  0  0  0  0  0  # atno 17343 bound_to 10162
  156.2160  130.3670  149.8613 LP  0  0  0  0  0  0  0  0  0  0  0  0  # atno 17370 bound_to 10713
  156.6479  130.8731  151.3526 LP  0  0  0  0  0  0  0  0  0  0  0  0  # atno 17371 bound_to 10713
  139.8994  135.0158  156.7196 LP  0  0  0  0  0  0  0  0  0  0  0  0  # atno 17394 bound_to 11000
  140.7032  133.9288  155.8037 LP  0  0  0  0  0  0  0  0  0  0  0  0  # atno 17395 bound_to 11000

$$$$
