AV-unprocessed.smi:2526|AV-procd|sdf|9939|dock6
  -GOLD-   2272013583D 1   1.00000     0.00000
 Structure written by MMmdl.
 28 29  0  0  0  0  0  0  0  0  1 V2000
  152.3146  144.6913  158.4597 C   0  0  0  0  0  0  0  0  0  0  0  0
  151.9207  143.3077  158.3028 N   0  0  0  0  0  0  0  0  0  0  0  0
  150.9426  142.7785  157.4897 C   0  0  0  0  0  0  0  0  0  0  0  0
  150.9375  141.4222  157.6740 C   0  0  0  0  0  0  0  0  0  0  0  0
  150.0675  140.3612  157.0274 C   0  0  1  0  0  0  0  0  0  0  0  0
  148.6635  140.5417  157.4070 N   0  0  0  0  0  0  0  0  0  0  0  0
  147.7061  141.1473  156.6790 C   0  0  0  0  0  0  0  0  0  0  0  0
  146.5852  141.3505  157.1394 O   0  0  0  0  0  0  0  0  0  0  0  0
  148.0059  141.5469  155.2237 C   0  0  0  0  0  0  0  0  0  0  0  0
  149.5008  141.5326  154.8572 C   0  0  0  0  0  0  0  0  0  0  0  0
  150.2031  140.3222  155.4852 C   0  0  1  0  0  0  0  0  0  0  0  0
  151.5856  140.2412  155.0489 N   0  0  0  0  0  0  0  0  0  0  0  0
  151.9653  141.2262  158.6419 C   0  0  0  0  0  0  0  0  0  0  0  0
  152.5503  142.3524  159.0151 N   0  0  0  0  0  0  0  0  0  0  0  0
  151.7258  145.3253  157.7961 H   0  0  0  0  0  0  0  0  0  0  0  0
  153.3705  144.8050  158.2126 H   0  0  0  0  0  0  0  0  0  0  0  0
  152.1505  145.0076  159.4902 H   0  0  0  0  0  0  0  0  0  0  0  0
  150.3390  143.4038  156.8483 H   0  0  0  0  0  0  0  0  0  0  0  0
  150.3584  139.3818  157.4090 H   0  0  0  0  0  0  0  0  0  0  0  0
  148.4156  140.2528  158.3424 H   0  0  0  0  0  0  0  0  0  0  0  0
  147.4748  140.8423  154.5831 H   0  0  0  0  0  0  0  0  0  0  0  0
  147.5811  142.5301  155.0202 H   0  0  0  0  0  0  0  0  0  0  0  0
  149.6052  141.5081  153.7720 H   0  0  0  0  0  0  0  0  0  0  0  0
  149.9713  142.4597  155.1878 H   0  0  0  0  0  0  0  0  0  0  0  0
  149.7080  139.4213  155.1199 H   0  0  0  0  0  0  0  0  0  0  0  0
  152.1989  140.5041  155.8070 H   0  0  0  0  0  0  0  0  0  0  0  0
  151.8127  139.2863  154.8103 H   0  0  0  0  0  0  0  0  0  0  0  0
  152.3027  140.2988  159.0804 H   0  0  0  0  0  0  0  0  0  0  0  0
  1  2  1  0  0  0  0
  1 15  1  0  0  0  0
  1 16  1  0  0  0  0
  1 17  1  0  0  0  0
  2 14  1  0  0  0  0
  2  3  1  0  0  0  0
  3  4  2  0  0  0  0
  3 18  1  0  0  0  0
  4  5  1  0  0  0  0
  4 13  1  0  0  0  0
  5 11  1  0  0  0  0
  5  6  1  0  0  0  0
  5 19  1  0  0  0  0
  6  7  1  0  0  0  0
  6 20  1  0  0  0  0
  7  8  2  0  0  0  0
  7  9  1  0  0  0  0
  9 10  1  0  0  0  0
  9 21  1  0  0  0  0
  9 22  1  0  0  0  0
 10 11  1  0  0  0  0
 10 23  1  0  0  0  0
 10 24  1  0  0  0  0
 11 12  1  0  0  0  0
 11 25  1  0  0  0  0
 12 26  1  0  0  0  0
 12 27  1  0  0  0  0
 13 14  2  0  0  0  0
 13 28  1  0  0  0  0
M  END
> <s_m_source_file>
AV-unprocessed.smi

> <i_m_source_file_index>
2526

> <i_lp_mmshare_version>
43012

> <i_f3d_flags>
0

> <s_epik_input>
W0NIM11uMVtjSF1jKFtjSF1uMSlbQ0BASF0yW05IXUMoPU8pW0NIMl1bQ0gyXVtDQEhdMltOSDJd

> <s_epik_cmdline>
J2VwaWtfcHl0aG9uJywgJy1waCcsICc3LjAnLCAnLXRuJywgJzgnLCAnLW1hJywgJzIwMCcsICctbWV0YWxfYmluZGluZycsICctaW1hZScsICc8aW5maWxlLm1hZT4nLCAnLW9tYWUnLCAnPG91dGZpbGUubWFlPic=

> <r_lp_tautomer_probability>
1

> <r_epik_Ionization_Penalty>
2.50279

> <r_epik_Ionization_Penalty_Charging>
0

> <r_epik_Ionization_Penalty_Neutral>
2.50279

> <r_epik_State_Penalty>
2.66754

> <r_epik_Charging_Adjusted_Penalty>
2.66754

> <i_epik_Tot_Q>
0

> <i_epik_Tot_abs_Q>
0

> <r_epik_Metal_State_Penalty>
2.66721

> <b_epik_Metal_Only>
0

> <s_lp_Force_Field>
OPLS_2005

> <r_lp_Energy>
9.07018

> <b_lp_Chiralities_Consistent>
1

> <s_lp_Variant>
AV-unprocessed.smi:2526-6

> <Gold.Version>
5.8.1

> <Gold.Id.Protein>
6NUR|6NUR_protein|mol2

> <Gold.PLP.Fitness>
32.2600

> <Gold.PLP.PLP>
-26.2853

> <Gold.PLP.part.hbond>
-1.0000

> <Gold.PLP.part.metal>
0.0000

> <Gold.PLP.part.buried>
-3.6369

> <Gold.PLP.part.nonpolar>
-22.0357

> <Gold.PLP.part.repulsive>
0.1530

> <Gold.PLP.ligand.clash>
0.0000

> <Gold.PLP.ligand.torsion>
0.0215

> <Gold.PLP.Chemscore.Hbond>
1.0000

> <Gold.PLP.Chemscore.CHOScore>
1.0000

> <Gold.PLP.Chemscore.Metal>
0.0000

> <Gold.Chemscore.Hbonds>
donor molecule, donor type, donor heavy atom, donor atom, acceptor molecule, acceptor atom, score
      P1  H  7989  7998       L1    12  0.88
      L1  C     3    18       P1  8028  1.00

> <Gold.PLP.Chemscore.Internal.Correction>
0.0176

> <Gold.Rescore>
     Score         DG    S(hbond)    S(metal)    S(lipo)     H(rot)  DE(clash)    DE(int)     intcor
     11.16     -11.22       0.46        0.00      57.99       1.00       0.01       0.06       ----

> <Gold.Chemscore.Fitness>
11.1631

> <Gold.Chemscore.DG>
-11.2247

> <Gold.Chemscore.ZeroCoef>
-5.4800

> <Gold.Chemscore.Hbond>
0.4551

> <Gold.Chemscore.Metal>
0.0000

> <Gold.Chemscore.Lipo>
57.9882

> <Gold.Chemscore.Internal_Hbond>
0.0000

> <Gold.Chemscore.DEClash>
0.0060

> <Gold.Chemscore.DEInternal>
0.0556

> <Gold.Chemscore.Rot>
1.0000

> <Gold.Chemscore.Internal.Correction>
   9.000000E+99

> <Gold.Chemscore.Hbonds>
donor molecule, donor type, donor heavy atom, donor atom, acceptor molecule, acceptor atom, score
      P1  H  7989  7998       L1    12  0.10

> <Gold.Chemscore.Hbond.Weighted>
-1.5200

> <Gold.Chemscore.Metal.Weighted>
-0.0000

> <Gold.Chemscore.Lipo.Weighted>
-6.7846

> <Gold.Chemscore.Internal_Hbond.Weighted>
0.0000

> <Gold.Chemscore.DEClash.Weighted>
0.0060

> <Gold.Chemscore.DEInternal.Weighted>
0.0556

> <Gold.Chemscore.Rot.Weighted>
2.5600

> <Gold.Chemscore.Internal.Correction.Weighted>
   9.000000E+99

> <Gold.Protein.RotatedTorsions>
[ 6907 6896 6895 6894 ] final  140.09 input  -60.11 | X-H torsion
[ 7974 7965 7964 7962 ] final  112.04 input  175.53 | X-H torsion
[ 8008 7997 7996 7995 ] final -143.08 input   59.86 | X-H torsion
[ 10167 10162 10161 10158 ] final  107.14 input  -65.29 | X-H torsion
[ 10718 10713 10712 10709 ] final   60.11 input   66.30 | X-H torsion
[ 10763 10752 10751 10750 ] final  125.82 input  -60.55 | X-H torsion
[ 11005 11000 10999 10996 ] final  157.88 input  -57.11 | X-H torsion

> <Gold.Protein.ActiveResidues>
 VAL166  LYS551  ARG553  GLY616  TRP617  ASP618  TYR619  PRO620  LYS621  CYS622 
 ASP623  PHE694  ASN695  SER759  ASP760  ASP761  ALA762  ILE779  LEU786  VAL792 
 PHE793  MET794  SER795  GLU796  ALA797  LYS798  CYS799  TRP800  GLU811  SER814 

> <Gold.Protein.RotatedAtoms>
  152.2472  133.5184  159.5303 H   0  0  0  0  0  0  0  0  0  0  0  0  # atno 6907 bound_to 6896
  150.7082  134.1009  159.3974 H   0  0  0  0  0  0  0  0  0  0  0  0  # atno 6908 bound_to 6896
  151.8930  135.0409  160.0550 H   0  0  0  0  0  0  0  0  0  0  0  0  # atno 6909 bound_to 6896
  145.2346  139.2805  143.4150 H   0  0  0  0  0  0  0  0  0  0  0  0  # atno 7974 bound_to 7965
  155.5048  140.0578  157.2933 H   0  0  0  0  0  0  0  0  0  0  0  0  # atno 8008 bound_to 7997
  154.4574  140.1979  156.0291 H   0  0  0  0  0  0  0  0  0  0  0  0  # atno 8009 bound_to 7997
  156.0824  140.3245  155.7715 H   0  0  0  0  0  0  0  0  0  0  0  0  # atno 8010 bound_to 7997
  139.6951  144.7102  151.1281 H   0  0  0  0  0  0  0  0  0  0  0  0  # atno 10167 bound_to 10162
  157.5728  130.8920  149.9296 H   0  0  0  0  0  0  0  0  0  0  0  0  # atno 10718 bound_to 10713
  153.6834  135.3311  155.3184 H   0  0  0  0  0  0  0  0  0  0  0  0  # atno 10763 bound_to 10752
  154.8460  135.4414  154.1583 H   0  0  0  0  0  0  0  0  0  0  0  0  # atno 10764 bound_to 10752
  153.2605  135.6990  153.7660 H   0  0  0  0  0  0  0  0  0  0  0  0  # atno 10765 bound_to 10752
  140.1812  134.8474  157.2805 H   0  0  0  0  0  0  0  0  0  0  0  0  # atno 11005 bound_to 11000
  146.3344  140.2691  142.8605 LP  0  0  0  0  0  0  0  0  0  0  0  0  # atno 17320 bound_to 7965
  144.9645  140.8308  143.5493 LP  0  0  0  0  0  0  0  0  0  0  0  0  # atno 17321 bound_to 7965
  140.7694  143.5503  150.9212 LP  0  0  0  0  0  0  0  0  0  0  0  0  # atno 17342 bound_to 10162
  139.9183  143.6637  152.3102 LP  0  0  0  0  0  0  0  0  0  0  0  0  # atno 17343 bound_to 10162
  156.0773  130.3677  150.0652 LP  0  0  0  0  0  0  0  0  0  0  0  0  # atno 17370 bound_to 10713
  156.8802  130.9554  151.3600 LP  0  0  0  0  0  0  0  0  0  0  0  0  # atno 17371 bound_to 10713
  140.2265  134.3960  155.7541 LP  0  0  0  0  0  0  0  0  0  0  0  0  # atno 17394 bound_to 11000
  141.2223  133.7193  156.8573 LP  0  0  0  0  0  0  0  0  0  0  0  0  # atno 17395 bound_to 11000

$$$$
