AV-unprocessed.smi:167|AV-procd|sdf|1393|dock4
  -GOLD-   2262019133D 1   1.00000     0.00000
 Structure written by MMmdl.
 51 55  0  0  0  0  0  0  0  0  1 V2000
  150.1628  142.6991  156.8710 O   0  0  0  0  0  0  0  0  0  0  0  0
  150.2186  141.3454  156.4751 C   0  0  0  0  0  0  0  0  0  0  0  0
  148.8000  140.8084  156.2075 C   0  0  1  0  0  0  0  0  0  0  0  0
  148.1151  141.3932  154.9592 C   0  0  0  0  0  0  0  0  0  0  0  0
  147.6330  140.1153  154.2506 C   0  0  1  0  0  0  0  0  0  0  0  0
  148.8443  139.4404  153.5728 C   0  0  0  0  0  0  0  0  0  0  0  0
  149.5549  138.8181  154.7839 C   0  0  0  0  0  0  0  0  0  0  0  0
  148.6507  139.2915  155.9433 C   0  0  2  0  0  0  0  0  0  0  0  0
  147.3148  139.2343  155.3675 N   0  0  0  0  0  0  0  0  0  0  0  0
  146.6993  138.0378  155.1553 C   0  0  0  0  0  0  0  0  0  0  0  0
  146.4063  137.2529  156.2267 N   0  0  0  0  0  0  0  0  0  0  0  0
  145.8005  136.0742  156.0614 C   0  0  0  0  0  0  0  0  0  0  0  0
  145.4148  135.4877  154.9278 N   0  0  0  0  0  0  0  0  0  0  0  0
  145.7245  136.2556  153.8446 C   0  0  0  0  0  0  0  0  0  0  0  0
  146.3585  137.5320  153.8661 C   0  0  0  0  0  0  0  0  0  0  0  0
  146.5026  137.9997  152.5647 N   0  0  0  0  0  0  0  0  0  0  0  0
  145.9704  137.0679  151.8229 C   0  0  0  0  0  0  0  0  0  0  0  0
  145.5016  135.9712  152.5090 N   0  0  0  0  0  0  0  0  0  0  0  0
  144.8441  134.8223  151.9582 C   0  0  0  0  0  0  0  0  0  0  0  0
  145.3958  133.4136  152.1958 C   0  0  0  0  0  0  0  0  0  0  0  0
  144.8701  132.9866  150.8055 C   0  0  0  0  0  0  0  0  0  0  0  0
  145.7682  132.0604  149.9615 C   0  0  0  0  0  0  0  0  0  0  0  0
  146.2698  130.9667  150.7035 O   0  0  0  0  0  0  0  0  0  0  0  0
  143.4533  132.3818  150.7932 C   0  0  0  0  0  0  0  0  0  0  0  0
  143.0257  132.0873  149.4786 O   0  0  0  0  0  0  0  0  0  0  0  0
  144.9169  134.4938  150.4629 C   0  0  0  0  0  0  0  0  0  0  0  0
  149.6599  143.1793  156.2310 H   0  0  0  0  0  0  0  0  0  0  0  0
  150.8156  141.2789  155.5653 H   0  0  0  0  0  0  0  0  0  0  0  0
  150.7424  140.7623  157.2314 H   0  0  0  0  0  0  0  0  0  0  0  0
  148.1833  141.0555  157.0738 H   0  0  0  0  0  0  0  0  0  0  0  0
  147.2731  142.0243  155.2461 H   0  0  0  0  0  0  0  0  0  0  0  0
  148.7834  141.9884  154.3355 H   0  0  0  0  0  0  0  0  0  0  0  0
  146.8065  140.3086  153.5659 H   0  0  0  0  0  0  0  0  0  0  0  0
  148.5292  138.6663  152.8722 H   0  0  0  0  0  0  0  0  0  0  0  0
  149.4721  140.1489  153.0315 H   0  0  0  0  0  0  0  0  0  0  0  0
  149.5420  137.7296  154.7110 H   0  0  0  0  0  0  0  0  0  0  0  0
  150.5958  139.1228  154.8796 H   0  0  0  0  0  0  0  0  0  0  0  0
  148.7910  138.7128  156.8542 H   0  0  0  0  0  0  0  0  0  0  0  0
  145.5977  135.5217  156.9666 H   0  0  0  0  0  0  0  0  0  0  0  0
  145.9130  137.1557  150.7477 H   0  0  0  0  0  0  0  0  0  0  0  0
  143.8056  134.8877  152.2868 H   0  0  0  0  0  0  0  0  0  0  0  0
  146.4842  133.4057  152.2742 H   0  0  0  0  0  0  0  0  0  0  0  0
  144.9448  132.8942  153.0418 H   0  0  0  0  0  0  0  0  0  0  0  0
  145.2235  131.6536  149.1090 H   0  0  0  0  0  0  0  0  0  0  0  0
  146.6197  132.6093  149.5577 H   0  0  0  0  0  0  0  0  0  0  0  0
  147.1989  130.8972  150.5450 H   0  0  0  0  0  0  0  0  0  0  0  0
  143.4104  131.4584  151.3710 H   0  0  0  0  0  0  0  0  0  0  0  0
  142.7332  133.0602  151.2519 H   0  0  0  0  0  0  0  0  0  0  0  0
  142.4381  132.7707  149.1939 H   0  0  0  0  0  0  0  0  0  0  0  0
  144.0688  134.8569  149.8814 H   0  0  0  0  0  0  0  0  0  0  0  0
  145.8585  134.8126  150.0132 H   0  0  0  0  0  0  0  0  0  0  0  0
  1  2  1  0  0  0  0
  1 27  1  0  0  0  0
  2  3  1  0  0  0  0
  2 28  1  0  0  0  0
  2 29  1  0  0  0  0
  3  8  1  0  0  0  0
  3  4  1  0  0  0  0
  3 30  1  0  0  0  0
  4  5  1  0  0  0  0
  4 31  1  0  0  0  0
  4 32  1  0  0  0  0
  5  9  1  0  0  0  0
  5  6  1  0  0  0  0
  5 33  1  0  0  0  0
  6  7  1  0  0  0  0
  6 34  1  0  0  0  0
  6 35  1  0  0  0  0
  7  8  1  0  0  0  0
  7 36  1  0  0  0  0
  7 37  1  0  0  0  0
  8  9  1  0  0  0  0
  8 38  1  0  0  0  0
  9 10  1  0  0  0  0
 10 15  1  0  0  0  0
 10 11  2  0  0  0  0
 11 12  1  0  0  0  0
 12 13  2  0  0  0  0
 12 39  1  0  0  0  0
 13 14  1  0  0  0  0
 14 18  1  0  0  0  0
 14 15  2  0  0  0  0
 15 16  1  0  0  0  0
 16 17  2  0  0  0  0
 17 18  1  0  0  0  0
 17 40  1  0  0  0  0
 18 19  1  0  0  0  0
 19 26  1  0  0  0  0
 19 20  1  0  0  0  0
 19 41  1  0  0  0  0
 20 21  1  0  0  0  0
 20 42  1  0  0  0  0
 20 43  1  0  0  0  0
 21 22  1  0  0  0  0
 21 24  1  0  0  0  0
 21 26  1  0  0  0  0
 22 23  1  0  0  0  0
 22 44  1  0  0  0  0
 22 45  1  0  0  0  0
 23 46  1  0  0  0  0
 24 25  1  0  0  0  0
 24 47  1  0  0  0  0
 24 48  1  0  0  0  0
 25 49  1  0  0  0  0
 26 50  1  0  0  0  0
 26 51  1  0  0  0  0
M  END
> <s_m_source_file>
AV-unprocessed.smi

> <i_m_source_file_index>
167

> <i_lp_mmshare_version>
43012

> <i_f3d_flags>
0

> <s_epik_input>
W09IXVtDSDJdW0NASF0oW0NIMl1bQ0BASF0xMilbQ0BIXShbQ0gyXVtDSDJdMSlOMmMobltjSF1uMyljKGMzNCluW2NIXW40W0NIXShbQ0gyXTUpW0NIMl1DNShbQ0gyXVtPSF0pW0NIMl1bT0hd

> <s_epik_cmdline>
J2VwaWtfcHl0aG9uJywgJy1waCcsICc3LjAnLCAnLXRuJywgJzgnLCAnLW1hJywgJzIwMCcsICctbWV0YWxfYmluZGluZycsICctaW1hZScsICc8aW5maWxlLm1hZT4nLCAnLW9tYWUnLCAnPG91dGZpbGUubWFlPic=

> <r_lp_tautomer_probability>
1

> <r_epik_Ionization_Penalty>
0.0047903

> <r_epik_Ionization_Penalty_Charging>
0

> <r_epik_Ionization_Penalty_Neutral>
0.0047903

> <r_epik_State_Penalty>
0.00341021

> <r_epik_Charging_Adjusted_Penalty>
0.00341021

> <i_epik_Tot_Q>
0

> <i_epik_Tot_abs_Q>
0

> <r_epik_Metal_State_Penalty>
-0

> <b_epik_Metal_Only>
0

> <s_lp_Force_Field>
OPLS_2005

> <r_lp_Energy>
89.0066

> <b_lp_Chiralities_Consistent>
1

> <s_lp_Variant>
AV-unprocessed.smi:167-2

> <Gold.Version>
5.8.1

> <Gold.Id.Protein>
6NUR|6NUR_protein|mol2

> <Gold.PLP.Fitness>
47.3927

> <Gold.PLP.PLP>
-34.8324

> <Gold.PLP.part.hbond>
-4.4832

> <Gold.PLP.part.metal>
0.0000

> <Gold.PLP.part.buried>
-0.3682

> <Gold.PLP.part.nonpolar>
-30.8087

> <Gold.PLP.part.repulsive>
0.3697

> <Gold.PLP.ligand.clash>
0.0000

> <Gold.PLP.ligand.torsion>
0.7658

> <Gold.PLP.Chemscore.Hbond>
3.5845

> <Gold.PLP.Chemscore.CHOScore>
0.9564

> <Gold.PLP.Chemscore.Metal>
0.0000

> <Gold.Chemscore.Hbonds>
donor molecule, donor type, donor heavy atom, donor atom, acceptor molecule, acceptor atom, score
      L1  H     1    27       P1  8028  1.00
      L1  H    23    46       P1 10747  1.00
      L1  H    25    49       P1 10186  0.57
      P1  H 10785 10796       L1    25  0.86
      L1  C    17    40       P1 10171  0.50

> <Gold.PLP.Chemscore.Internal.Correction>
0.4692

> <Gold.Rescore>
     Score         DG    S(hbond)    S(metal)    S(lipo)     H(rot)  DE(clash)    DE(int)     intcor
     12.32     -14.81       3.43        0.00      73.89       4.20       0.05       2.44       ----

> <Gold.Chemscore.Fitness>
12.3194

> <Gold.Chemscore.DG>
-14.8053

> <Gold.Chemscore.ZeroCoef>
-5.4800

> <Gold.Chemscore.Hbond>
3.4255

> <Gold.Chemscore.Metal>
0.0000

> <Gold.Chemscore.Lipo>
73.8949

> <Gold.Chemscore.Internal_Hbond>
0.0000

> <Gold.Chemscore.DEClash>
0.0458

> <Gold.Chemscore.DEInternal>
2.4400

> <Gold.Chemscore.Rot>
4.2038

> <Gold.Chemscore.Internal.Correction>
   9.000000E+99

> <Gold.Chemscore.Hbonds>
donor molecule, donor type, donor heavy atom, donor atom, acceptor molecule, acceptor atom, score
      L1  H     1    27       P1  8028  0.94
      L1  H    23    46       P1 10747  1.00
      L1  H    25    49       P1 10186  0.55
      P1  H 10785 10796       L1    25  0.82

> <Gold.Chemscore.Hbond.Weighted>
-11.4412

> <Gold.Chemscore.Metal.Weighted>
-0.0000

> <Gold.Chemscore.Lipo.Weighted>
-8.6457

> <Gold.Chemscore.Internal_Hbond.Weighted>
0.0000

> <Gold.Chemscore.DEClash.Weighted>
0.0458

> <Gold.Chemscore.DEInternal.Weighted>
2.4400

> <Gold.Chemscore.Rot.Weighted>
10.7617

> <Gold.Chemscore.Internal.Correction.Weighted>
   9.000000E+99

> <Gold.Protein.RotatedTorsions>
[ 6907 6896 6895 6894 ] final   59.50 input  -60.11 | X-H torsion
[ 7974 7965 7964 7962 ] final  160.45 input  175.53 | X-H torsion
[ 8008 7997 7996 7995 ] final  -95.28 input   59.86 | X-H torsion
[ 10167 10162 10161 10158 ] final  -38.83 input  -65.29 | X-H torsion
[ 10718 10713 10712 10709 ] final  -52.79 input   66.30 | X-H torsion
[ 10763 10752 10751 10750 ] final   -5.91 input  -60.55 | X-H torsion
[ 11005 11000 10999 10996 ] final  -52.22 input  -57.11 | X-H torsion

> <Gold.Protein.ActiveResidues>
 VAL166  LYS551  ARG553  GLY616  TRP617  ASP618  TYR619  PRO620  LYS621  CYS622 
 ASP623  PHE694  ASN695  SER759  ASP760  ASP761  ALA762  ILE779  LEU786  VAL792 
 PHE793  MET794  SER795  GLU796  ALA797  LYS798  CYS799  TRP800  GLU811  SER814 

> <Gold.Protein.RotatedAtoms>
  152.3920  134.6426  160.0103 H   0  0  0  0  0  0  0  0  0  0  0  0  # atno 6907 bound_to 6896
  151.6657  133.3310  159.3192 H   0  0  0  0  0  0  0  0  0  0  0  0  # atno 6908 bound_to 6896
  150.7834  134.6842  159.6506 H   0  0  0  0  0  0  0  0  0  0  0  0  # atno 6909 bound_to 6896
  144.7736  139.7759  143.6287 H   0  0  0  0  0  0  0  0  0  0  0  0  # atno 7974 bound_to 7965
  154.7594  140.0481  157.0960 H   0  0  0  0  0  0  0  0  0  0  0  0  # atno 8008 bound_to 7997
  154.9957  140.3118  155.4868 H   0  0  0  0  0  0  0  0  0  0  0  0  # atno 8009 bound_to 7997
  156.2901  140.2210  156.5064 H   0  0  0  0  0  0  0  0  0  0  0  0  # atno 8010 bound_to 7997
  140.7081  143.3252  151.2696 H   0  0  0  0  0  0  0  0  0  0  0  0  # atno 10167 bound_to 10162
  156.1591  130.4150  149.9822 H   0  0  0  0  0  0  0  0  0  0  0  0  # atno 10718 bound_to 10713
  153.4051  135.7006  153.6398 H   0  0  0  0  0  0  0  0  0  0  0  0  # atno 10763 bound_to 10752
  153.4916  135.3671  155.2495 H   0  0  0  0  0  0  0  0  0  0  0  0  # atno 10764 bound_to 10752
  154.8713  135.4090  154.3393 H   0  0  0  0  0  0  0  0  0  0  0  0  # atno 10765 bound_to 10752
  141.0913  133.6632  156.3992 H   0  0  0  0  0  0  0  0  0  0  0  0  # atno 11005 bound_to 11000
  146.1900  139.5136  142.9811 LP  0  0  0  0  0  0  0  0  0  0  0  0  # atno 17320 bound_to 7965
  145.6251  141.0315  143.1894 LP  0  0  0  0  0  0  0  0  0  0  0  0  # atno 17321 bound_to 7965
  139.6718  144.0006  152.2758 LP  0  0  0  0  0  0  0  0  0  0  0  0  # atno 17342 bound_to 10162
  139.9607  144.6559  150.8082 LP  0  0  0  0  0  0  0  0  0  0  0  0  # atno 17343 bound_to 10162
  156.7657  130.9167  151.3643 LP  0  0  0  0  0  0  0  0  0  0  0  0  # atno 17370 bound_to 10713
  157.6718  130.9058  150.0058 LP  0  0  0  0  0  0  0  0  0  0  0  0  # atno 17371 bound_to 10713
  140.5246  134.6271  157.5329 LP  0  0  0  0  0  0  0  0  0  0  0  0  # atno 17394 bound_to 11000
  139.9739  134.7247  155.9987 LP  0  0  0  0  0  0  0  0  0  0  0  0  # atno 17395 bound_to 11000

$$$$
