AV-unprocessed.smi:32|AV-procd|sdf|198|dock9
  -GOLD-   2262015473D 1   1.00000     0.00000
 Structure written by MMmdl.
 49 51  0  0  0  0  0  0  0  0  1 V2000
  152.2100  136.3399  156.4008 O   0  0  0  0  0  0  0  0  0  0  0  0
  151.6914  137.2781  155.7945 C   0  0  0  0  0  0  0  0  0  0  0  0
  152.4364  138.6110  155.6272 C   0  0  0  0  0  0  0  0  0  0  0  0
  151.6408  139.7811  156.0579 N   0  0  0  0  0  0  0  0  0  0  0  0
  150.6728  140.3026  155.1637 C   0  0  0  0  0  0  0  0  0  0  0  0
  150.4847  139.7922  154.0583 O   0  0  0  0  0  0  0  0  0  0  0  0
  149.9392  141.4697  155.6394 C   0  0  0  0  0  0  0  0  0  0  0  0
  149.0031  142.0324  154.8562 F   0  0  0  0  0  0  0  0  0  0  0  0
  150.1882  141.9984  156.8549 C   0  0  0  0  0  0  0  0  0  0  0  0
  151.1376  141.4802  157.7173 N   0  0  0  0  0  0  0  0  0  0  0  0
  151.4081  142.1100  159.0671 C   0  0  1  0  0  0  0  0  0  0  0  0
  152.8420  142.6469  159.1236 C   0  0  0  0  0  0  0  0  0  0  0  0
  152.6554  144.0727  158.6529 C   0  0  0  0  0  0  0  0  0  0  0  0
  151.2925  144.4187  159.2438 C   0  0  0  0  0  0  0  0  0  0  0  0
  150.5501  143.2001  159.2477 O   0  0  0  0  0  0  0  0  0  0  0  0
  151.8965  140.3557  157.3259 C   0  0  0  0  0  0  0  0  0  0  0  0
  152.7670  139.8958  158.0681 O   0  0  0  0  0  0  0  0  0  0  0  0
  150.4614  137.2257  155.2546 N   0  0  0  0  0  0  0  0  0  0  0  0
  149.5253  136.0975  155.2660 C   0  0  0  0  0  0  0  0  0  0  0  0
  149.1899  135.6968  156.7223 C   0  0  0  0  0  0  0  0  0  0  0  0
  147.9458  134.8120  156.8882 C   0  0  0  0  0  0  0  0  0  0  0  0
  147.9806  133.4875  156.1083 C   0  0  0  0  0  0  0  0  0  0  0  0
  147.7585  133.6831  154.6009 C   0  0  0  0  0  0  0  0  0  0  0  0
  149.0201  134.0019  153.7801 C   0  0  0  0  0  0  0  0  0  0  0  0
  150.0743  134.9138  154.4348 C   0  0  0  0  0  0  0  0  0  0  0  0
  153.3786  138.5687  156.1767 H   0  0  0  0  0  0  0  0  0  0  0  0
  152.7441  138.6978  154.5845 H   0  0  0  0  0  0  0  0  0  0  0  0
  149.6178  142.8664  157.1489 H   0  0  0  0  0  0  0  0  0  0  0  0
  151.1899  141.3400  159.8090 H   0  0  0  0  0  0  0  0  0  0  0  0
  153.1805  142.6278  160.1602 H   0  0  0  0  0  0  0  0  0  0  0  0
  153.5321  142.0625  158.5141 H   0  0  0  0  0  0  0  0  0  0  0  0
  153.4480  144.7428  158.9870 H   0  0  0  0  0  0  0  0  0  0  0  0
  152.6162  144.1075  157.5636 H   0  0  0  0  0  0  0  0  0  0  0  0
  151.4022  144.7621  160.2733 H   0  0  0  0  0  0  0  0  0  0  0  0
  150.7782  145.1971  158.6800 H   0  0  0  0  0  0  0  0  0  0  0  0
  150.1383  138.0566  154.7807 H   0  0  0  0  0  0  0  0  0  0  0  0
  148.6229  136.4778  154.7861 H   0  0  0  0  0  0  0  0  0  0  0  0
  150.0443  135.1955  157.1784 H   0  0  0  0  0  0  0  0  0  0  0  0
  149.0311  136.6005  157.3125 H   0  0  0  0  0  0  0  0  0  0  0  0
  147.8335  134.5854  157.9490 H   0  0  0  0  0  0  0  0  0  0  0  0
  147.0546  135.3782  156.6147 H   0  0  0  0  0  0  0  0  0  0  0  0
  148.9010  132.9360  156.3038 H   0  0  0  0  0  0  0  0  0  0  0  0
  147.1717  132.8619  156.4872 H   0  0  0  0  0  0  0  0  0  0  0  0
  147.3128  132.7770  154.1892 H   0  0  0  0  0  0  0  0  0  0  0  0
  147.0132  134.4637  154.4427 H   0  0  0  0  0  0  0  0  0  0  0  0
  149.5101  133.0670  153.5065 H   0  0  0  0  0  0  0  0  0  0  0  0
  148.7029  134.4483  152.8370 H   0  0  0  0  0  0  0  0  0  0  0  0
  150.7153  135.2883  153.6352 H   0  0  0  0  0  0  0  0  0  0  0  0
  150.7282  134.3070  155.0623 H   0  0  0  0  0  0  0  0  0  0  0  0
  1  2  2  0  0  0  0
  2  3  1  0  0  0  0
  2 18  1  0  0  0  0
  3  4  1  0  0  0  0
  3 26  1  0  0  0  0
  3 27  1  0  0  0  0
  4 16  1  0  0  0  0
  4  5  1  0  0  0  0
  5  6  2  0  0  0  0
  5  7  1  0  0  0  0
  7  8  1  0  0  0  0
  7  9  2  0  0  0  0
  9 10  1  0  0  0  0
  9 28  1  0  0  0  0
 10 11  1  0  0  0  0
 10 16  1  0  0  0  0
 11 15  1  0  0  0  0
 11 12  1  0  0  0  0
 11 29  1  0  0  0  0
 12 13  1  0  0  0  0
 12 30  1  0  0  0  0
 12 31  1  0  0  0  0
 13 14  1  0  0  0  0
 13 32  1  0  0  0  0
 13 33  1  0  0  0  0
 14 15  1  0  0  0  0
 14 34  1  0  0  0  0
 14 35  1  0  0  0  0
 16 17  2  0  0  0  0
 18 19  1  0  0  0  0
 18 36  1  0  0  0  0
 19 25  1  0  0  0  0
 19 20  1  0  0  0  0
 19 37  1  0  0  0  0
 20 21  1  0  0  0  0
 20 38  1  0  0  0  0
 20 39  1  0  0  0  0
 21 22  1  0  0  0  0
 21 40  1  0  0  0  0
 21 41  1  0  0  0  0
 22 23  1  0  0  0  0
 22 42  1  0  0  0  0
 22 43  1  0  0  0  0
 23 24  1  0  0  0  0
 23 44  1  0  0  0  0
 23 45  1  0  0  0  0
 24 25  1  0  0  0  0
 24 46  1  0  0  0  0
 24 47  1  0  0  0  0
 25 48  1  0  0  0  0
 25 49  1  0  0  0  0
M  END
> <s_m_source_file>
AV-unprocessed.smi

> <i_m_source_file_index>
32

> <i_lp_mmshare_version>
43012

> <i_f3d_flags>
0

> <s_epik_input>
W0NIMl0xW0NIMl1bQ0gyXVtDSDJdW0NIMl1bQ0gyXVtDSF0xW05IXUMoPU8pW0NIMl1uMmMoPU8pYyhGKVtjSF1uKGMyPU8pW0NAQEhdM1tDSDJdW0NIMl1bQ0gyXU8z

> <s_epik_cmdline>
J2VwaWtfcHl0aG9uJywgJy1waCcsICc3LjAnLCAnLXRuJywgJzgnLCAnLW1hJywgJzIwMCcsICctbWV0YWxfYmluZGluZycsICctaW1hZScsICc8aW5maWxlLm1hZT4nLCAnLW9tYWUnLCAnPG91dGZpbGUubWFlPic=

> <r_lp_tautomer_probability>
1

> <r_epik_Ionization_Penalty>
2.43741e-08

> <r_epik_Ionization_Penalty_Charging>
4.15308e-09

> <r_epik_Ionization_Penalty_Neutral>
2.0221e-08

> <r_epik_State_Penalty>
-0

> <r_epik_Charging_Adjusted_Penalty>
4.15308e-09

> <i_epik_Tot_Q>
0

> <i_epik_Tot_abs_Q>
0

> <r_epik_Metal_State_Penalty>
-0

> <b_epik_Metal_Only>
0

> <s_epik_Chemistry_Notes>
This compound contains an acetal/aminal-like group ( X-CH(R)-Y where X, Y are N, S, or O) that may be acid/base labile, releasing an aldehyde.

> <s_lp_Force_Field>
OPLS_2005

> <r_lp_Energy>
36.3437

> <b_lp_Chiralities_Consistent>
1

> <s_lp_Variant>
AV-unprocessed.smi:32-2

> <Gold.Version>
5.8.1

> <Gold.Id.Protein>
6NUR|6NUR_protein|mol2

> <Gold.PLP.Fitness>
51.3801

> <Gold.PLP.PLP>
-42.7228

> <Gold.PLP.part.hbond>
-3.0000

> <Gold.PLP.part.metal>
0.0000

> <Gold.PLP.part.buried>
-1.1016

> <Gold.PLP.part.nonpolar>
-38.2770

> <Gold.PLP.part.repulsive>
0.6250

> <Gold.PLP.ligand.clash>
0.0000

> <Gold.PLP.ligand.torsion>
0.3756

> <Gold.PLP.Chemscore.Hbond>
2.2000

> <Gold.PLP.Chemscore.CHOScore>
0.9233

> <Gold.PLP.Chemscore.Metal>
0.0000

> <Gold.Chemscore.Hbonds>
donor molecule, donor type, donor heavy atom, donor atom, acceptor molecule, acceptor atom, score
      P1  H  7989  7998       L1     6  0.35
      P1  H  7997  8009       L1    17  0.84
      P1  H 10752 10763       L1     1  1.00
      L1  C     9    28       P1  8028  0.94

> <Gold.PLP.Chemscore.Internal.Correction>
0.0385

> <Gold.Rescore>
     Score         DG    S(hbond)    S(metal)    S(lipo)     H(rot)  DE(clash)    DE(int)     intcor
     15.34     -16.88       1.94        0.00      81.99       1.82       0.00       1.54       ----

> <Gold.Chemscore.Fitness>
15.3439

> <Gold.Chemscore.DG>
-16.8849

> <Gold.Chemscore.ZeroCoef>
-5.4800

> <Gold.Chemscore.Hbond>
1.9410

> <Gold.Chemscore.Metal>
0.0000

> <Gold.Chemscore.Lipo>
81.9948

> <Gold.Chemscore.Internal_Hbond>
0.0000

> <Gold.Chemscore.DEClash>
0.0033

> <Gold.Chemscore.DEInternal>
1.5376

> <Gold.Chemscore.Rot>
1.8248

> <Gold.Chemscore.Internal.Correction>
   9.000000E+99

> <Gold.Chemscore.Hbonds>
donor molecule, donor type, donor heavy atom, donor atom, acceptor molecule, acceptor atom, score
      P1  H  7989  7998       L1     6  0.01
      P1  H  7997  8009       L1    17  0.21
      P1  H 10752 10763       L1     1  0.35

> <Gold.Chemscore.Hbond.Weighted>
-6.4829

> <Gold.Chemscore.Metal.Weighted>
-0.0000

> <Gold.Chemscore.Lipo.Weighted>
-9.5934

> <Gold.Chemscore.Internal_Hbond.Weighted>
0.0000

> <Gold.Chemscore.DEClash.Weighted>
0.0033

> <Gold.Chemscore.DEInternal.Weighted>
1.5376

> <Gold.Chemscore.Rot.Weighted>
4.6714

> <Gold.Chemscore.Internal.Correction.Weighted>
   9.000000E+99

> <Gold.Protein.RotatedTorsions>
[ 6907 6896 6895 6894 ] final  109.67 input  -60.11 | X-H torsion
[ 7974 7965 7964 7962 ] final   32.78 input  175.53 | X-H torsion
[ 8008 7997 7996 7995 ] final  168.82 input   59.86 | X-H torsion
[ 10167 10162 10161 10158 ] final  -97.70 input  -65.29 | X-H torsion
[ 10718 10713 10712 10709 ] final    7.64 input   66.30 | X-H torsion
[ 10763 10752 10751 10750 ] final   89.37 input  -60.55 | X-H torsion
[ 11005 11000 10999 10996 ] final   33.04 input  -57.11 | X-H torsion

> <Gold.Protein.ActiveResidues>
 VAL166  LYS551  ARG553  GLY616  TRP617  ASP618  TYR619  PRO620  LYS621  CYS622 
 ASP623  PHE694  ASN695  SER759  ASP760  ASP761  ALA762  ILE779  LEU786  VAL792 
 PHE793  MET794  SER795  GLU796  ALA797  LYS798  CYS799  TRP800  GLU811  SER814 

> <Gold.Protein.RotatedAtoms>
  152.5056  133.8910  159.7393 H   0  0  0  0  0  0  0  0  0  0  0  0  # atno 6907 bound_to 6896
  150.9349  133.6715  159.2809 H   0  0  0  0  0  0  0  0  0  0  0  0  # atno 6908 bound_to 6896
  151.4046  135.0981  159.9619 H   0  0  0  0  0  0  0  0  0  0  0  0  # atno 6909 bound_to 6896
  146.1464  139.6481  142.9128 H   0  0  0  0  0  0  0  0  0  0  0  0  # atno 7974 bound_to 7965
  156.1513  140.1580  156.8765 H   0  0  0  0  0  0  0  0  0  0  0  0  # atno 8008 bound_to 7997
  154.5073  140.0810  156.7957 H   0  0  0  0  0  0  0  0  0  0  0  0  # atno 8009 bound_to 7997
  155.3891  140.3409  155.4252 H   0  0  0  0  0  0  0  0  0  0  0  0  # atno 8010 bound_to 7997
  140.2806  143.3284  152.0445 H   0  0  0  0  0  0  0  0  0  0  0  0  # atno 10167 bound_to 10162
  156.9399  130.5857  149.5652 H   0  0  0  0  0  0  0  0  0  0  0  0  # atno 10718 bound_to 10713
  153.1864  135.4473  155.0093 H   0  0  0  0  0  0  0  0  0  0  0  0  # atno 10763 bound_to 10752
  154.8063  135.3275  154.7426 H   0  0  0  0  0  0  0  0  0  0  0  0  # atno 10764 bound_to 10752
  153.7884  135.6972  153.4931 H   0  0  0  0  0  0  0  0  0  0  0  0  # atno 10765 bound_to 10752
  140.2672  134.3124  155.7839 H   0  0  0  0  0  0  0  0  0  0  0  0  # atno 11005 bound_to 11000
  145.4928  141.0438  143.2584 LP  0  0  0  0  0  0  0  0  0  0  0  0  # atno 17320 bound_to 7965
  144.7851  139.6444  143.7137 LP  0  0  0  0  0  0  0  0  0  0  0  0  # atno 17321 bound_to 7965
  139.4963  144.6594  151.6499 LP  0  0  0  0  0  0  0  0  0  0  0  0  # atno 17342 bound_to 10162
  140.5815  143.9938  150.6271 LP  0  0  0  0  0  0  0  0  0  0  0  0  # atno 17343 bound_to 10162
  156.0409  130.5492  150.8768 LP  0  0  0  0  0  0  0  0  0  0  0  0  # atno 17370 bound_to 10713
  157.5792  131.0946  150.9298 LP  0  0  0  0  0  0  0  0  0  0  0  0  # atno 17371 bound_to 10713
  141.2182  133.7445  156.9278 LP  0  0  0  0  0  0  0  0  0  0  0  0  # atno 17394 bound_to 11000
  140.1408  134.9295  157.2464 LP  0  0  0  0  0  0  0  0  0  0  0  0  # atno 17395 bound_to 11000

$$$$
