AV-unprocessed.smi:1029|AV-procd|sdf|4477|dock5
  -GOLD-   22720 2453D 1   1.00000     0.00000
 Structure written by MMmdl.
 46 47  0  0  0  0  0  0  0  0  2 V2000
  152.3154  141.7093  158.7386 C   0  0  0  0  0  0  0  0  0  0  0  0
  151.8590  140.9933  157.5020 C   0  0  0  0  0  0  0  0  0  0  0  0
  150.7684  141.3153  156.6471 C   0  0  0  0  0  0  0  0  0  0  0  0
  150.8271  140.3304  155.6974 C   0  0  0  0  0  0  0  0  0  0  0  0
  150.0123  140.1391  154.6272 N   0  0  0  0  0  0  0  0  0  0  0  0
  148.6690  140.1675  154.5732 C   0  0  0  0  0  0  0  0  0  0  0  0
  147.9189  140.3966  155.5224 O   0  0  0  0  0  0  0  0  0  0  0  0
  148.2290  139.9147  153.3323 N   0  0  0  0  0  0  0  0  0  0  0  0
  146.8263  139.8734  152.9326 C   0  0  0  0  0  0  0  0  0  0  0  0
  146.4900  138.5962  152.1358 C   0  0  1  0  0  0  0  0  0  0  0  0
  147.6363  138.2066  151.4041 O   0  0  0  0  0  0  0  0  0  0  0  0
  146.1225  137.4261  153.0719 C   0  0  0  0  0  0  0  0  0  0  0  0
  146.1425  136.1102  152.3813 N   0  3  2  0  0  0  0  0  0  0  0  0
  145.2711  136.0613  151.1771 C   0  0  0  0  0  0  0  0  0  0  0  0
  145.4287  134.7253  150.4288 C   0  0  0  0  0  0  0  0  0  0  0  0
  145.1638  133.5119  151.3385 C   0  0  2  0  0  0  0  0  0  0  0  0
  143.6702  133.3175  151.6539 C   0  0  0  0  0  0  0  0  0  0  0  0
  146.0296  133.6254  152.6058 C   0  0  0  0  0  0  0  0  0  0  0  0
  145.8591  134.9845  153.3082 C   0  0  0  0  0  0  0  0  0  0  0  0
  151.8510  139.4760  155.9383 O   0  0  0  0  0  0  0  0  0  0  0  0
  152.5070  139.9116  157.0955 N   0  0  0  0  0  0  0  0  0  0  0  0
  151.7185  142.6037  158.9182 H   0  0  0  0  0  0  0  0  0  0  0  0
  153.3575  142.0178  158.6526 H   0  0  0  0  0  0  0  0  0  0  0  0
  152.2272  141.0698  159.6171 H   0  0  0  0  0  0  0  0  0  0  0  0
  150.0713  142.1348  156.7356 H   0  0  0  0  0  0  0  0  0  0  0  0
  150.4882  139.9539  153.7566 H   0  0  0  0  0  0  0  0  0  0  0  0
  148.9139  139.7418  152.6109 H   0  0  0  0  0  0  0  0  0  0  0  0
  146.1590  140.0022  153.7873 H   0  0  0  0  0  0  0  0  0  0  0  0
  146.6717  140.7464  152.2979 H   0  0  0  0  0  0  0  0  0  0  0  0
  145.6731  138.8014  151.4443 H   0  0  0  0  0  0  0  0  0  0  0  0
  148.0986  137.5432  151.8939 H   0  0  0  0  0  0  0  0  0  0  0  0
  146.8281  137.4173  153.9045 H   0  0  0  0  0  0  0  0  0  0  0  0
  145.1370  137.5815  153.5137 H   0  0  0  0  0  0  0  0  0  0  0  0
  144.2314  136.2140  151.4696 H   0  0  0  0  0  0  0  0  0  0  0  0
  145.5226  136.8719  150.4946 H   0  0  0  0  0  0  0  0  0  0  0  0
  144.7659  134.7004  149.5631 H   0  0  0  0  0  0  0  0  0  0  0  0
  146.4433  134.6600  150.0333 H   0  0  0  0  0  0  0  0  0  0  0  0
  145.4834  132.6193  150.7988 H   0  0  0  0  0  0  0  0  0  0  0  0
  143.2499  134.1620  152.1992 H   0  0  0  0  0  0  0  0  0  0  0  0
  143.5131  132.4244  152.2593 H   0  0  0  0  0  0  0  0  0  0  0  0
  143.0909  133.1961  150.7382 H   0  0  0  0  0  0  0  0  0  0  0  0
  145.7968  132.8142  153.2966 H   0  0  0  0  0  0  0  0  0  0  0  0
  147.0782  133.4973  152.3340 H   0  0  0  0  0  0  0  0  0  0  0  0
  146.5417  135.0290  154.1579 H   0  0  0  0  0  0  0  0  0  0  0  0
  144.8505  135.0855  153.7111 H   0  0  0  0  0  0  0  0  0  0  0  0
  147.0922  135.9773  152.0627 H   0  0  0  0  0  0  0  0  0  0  0  0
  1  2  1  0  0  0  0
  1 22  1  0  0  0  0
  1 23  1  0  0  0  0
  1 24  1  0  0  0  0
  2 21  2  0  0  0  0
  2  3  1  0  0  0  0
  3  4  2  0  0  0  0
  3 25  1  0  0  0  0
  4  5  1  0  0  0  0
  4 20  1  0  0  0  0
  5  6  1  0  0  0  0
  5 26  1  0  0  0  0
  6  7  2  0  0  0  0
  6  8  1  0  0  0  0
  8  9  1  0  0  0  0
  8 27  1  0  0  0  0
  9 10  1  0  0  0  0
  9 28  1  0  0  0  0
  9 29  1  0  0  0  0
 10 11  1  0  0  0  0
 10 12  1  0  0  0  0
 10 30  1  0  0  0  0
 11 31  1  0  0  0  0
 12 13  1  0  0  0  0
 12 32  1  0  0  0  0
 12 33  1  0  0  0  0
 13 19  1  0  0  0  0
 13 14  1  0  0  0  0
 13 46  1  0  0  0  0
 14 15  1  0  0  0  0
 14 34  1  0  0  0  0
 14 35  1  0  0  0  0
 15 16  1  0  0  0  0
 15 36  1  0  0  0  0
 15 37  1  0  0  0  0
 16 17  1  0  0  0  0
 16 18  1  0  0  0  0
 16 38  1  0  0  0  0
 17 39  1  0  0  0  0
 17 40  1  0  0  0  0
 17 41  1  0  0  0  0
 18 19  1  0  0  0  0
 18 42  1  0  0  0  0
 18 43  1  0  0  0  0
 19 44  1  0  0  0  0
 19 45  1  0  0  0  0
 20 21  1  0  0  0  0
M  CHG  1  13   1
M  END
> <s_m_source_file>
AV-unprocessed.smi

> <i_m_source_file_index>
1029

> <i_lp_mmshare_version>
43012

> <i_f3d_flags>
0

> <s_epik_input>
W0NIM11jMVtjSF1jKG9uMSlbTkhdQyg9TylbTkhdW0NIMl1bQ0BIXShbT0hdKVtDSDJdTjJbQ0gyXVtDSDJdW0NIXShbQ0gzXSlbQ0gyXVtDSDJdMg==

> <s_epik_cmdline>
J2VwaWtfcHl0aG9uJywgJy1waCcsICc3LjAnLCAnLXRuJywgJzgnLCAnLW1hJywgJzIwMCcsICctbWV0YWxfYmluZGluZycsICctaW1hZScsICc8aW5maWxlLm1hZT4nLCAnLW9tYWUnLCAnPG91dGZpbGUubWFlPic=

> <r_lp_tautomer_probability>
1

> <r_epik_Ionization_Penalty>
0.00211787

> <r_epik_Ionization_Penalty_Charging>
0.00153238

> <r_epik_Ionization_Penalty_Neutral>
0.000585488

> <r_epik_State_Penalty>
-0

> <r_epik_Charging_Adjusted_Penalty>
0.00153238

> <i_epik_Tot_Q>
1

> <i_epik_Tot_abs_Q>
1

> <r_epik_Metal_State_Penalty>
-0

> <b_epik_Metal_Only>
0

> <s_lp_Force_Field>
OPLS_2005

> <r_lp_Energy>
22.6481

> <b_lp_Chiralities_Consistent>
1

> <s_lp_Variant>
AV-unprocessed.smi:1029-4

> <Gold.Version>
5.8.1

> <Gold.Id.Protein>
6NUR|6NUR_protein|mol2

> <Gold.PLP.Fitness>
50.6046

> <Gold.PLP.PLP>
-34.5924

> <Gold.PLP.part.hbond>
-5.4839

> <Gold.PLP.part.metal>
0.0000

> <Gold.PLP.part.buried>
-1.7892

> <Gold.PLP.part.nonpolar>
-27.3807

> <Gold.PLP.part.repulsive>
1.1814

> <Gold.PLP.ligand.clash>
0.0000

> <Gold.PLP.ligand.torsion>
0.8815

> <Gold.PLP.Chemscore.Hbond>
5.9120

> <Gold.PLP.Chemscore.CHOScore>
0.0000

> <Gold.PLP.Chemscore.Metal>
0.0000

> <Gold.Chemscore.Hbonds>
donor molecule, donor type, donor heavy atom, donor atom, acceptor molecule, acceptor atom, score
      L1  H     8    27       P1  7957  1.00
      L1  H    11    31       P1  7948  0.91
      L1  H    13    46       P1  7948  2.00
      P1  H  7954  7966       L1    11  1.00
      P1  H  7997  8010       L1    21  1.00

> <Gold.PLP.Chemscore.Internal.Correction>
0.0392

> <Gold.Rescore>
     Score         DG    S(hbond)    S(metal)    S(lipo)     H(rot)  DE(clash)    DE(int)     intcor
     19.15     -20.84       4.02        0.00      70.47       2.46       0.81       0.89       ----

> <Gold.Chemscore.Fitness>
19.1452

> <Gold.Chemscore.DG>
-20.8387

> <Gold.Chemscore.ZeroCoef>
-5.4800

> <Gold.Chemscore.Hbond>
4.0170

> <Gold.Chemscore.Metal>
0.0000

> <Gold.Chemscore.Lipo>
70.4746

> <Gold.Chemscore.Internal_Hbond>
0.0000

> <Gold.Chemscore.DEClash>
0.8074

> <Gold.Chemscore.DEInternal>
0.8860

> <Gold.Chemscore.Rot>
2.4624

> <Gold.Chemscore.Internal.Correction>
   9.000000E+99

> <Gold.Chemscore.Hbonds>
donor molecule, donor type, donor heavy atom, donor atom, acceptor molecule, acceptor atom, score
      L1  H     8    27       P1  7957  0.96
      L1  H    11    31       P1  7948  0.84
      L1  H    13    46       P1  7948  1.00
      P1  H  7954  7966       L1    11  0.25
      P1  H  7997  8010       L1    21  0.66

> <Gold.Chemscore.Hbond.Weighted>
-13.4168

> <Gold.Chemscore.Metal.Weighted>
-0.0000

> <Gold.Chemscore.Lipo.Weighted>
-8.2455

> <Gold.Chemscore.Internal_Hbond.Weighted>
0.0000

> <Gold.Chemscore.DEClash.Weighted>
0.8074

> <Gold.Chemscore.DEInternal.Weighted>
0.8860

> <Gold.Chemscore.Rot.Weighted>
6.3037

> <Gold.Chemscore.Internal.Correction.Weighted>
   9.000000E+99

> <Gold.Protein.RotatedTorsions>
[ 6907 6896 6895 6894 ] final    9.08 input  -60.11 | X-H torsion
[ 7974 7965 7964 7962 ] final   33.80 input  175.53 | X-H torsion
[ 8008 7997 7996 7995 ] final   53.83 input   59.86 | X-H torsion
[ 10167 10162 10161 10158 ] final  163.46 input  -65.29 | X-H torsion
[ 10718 10713 10712 10709 ] final   64.82 input   66.30 | X-H torsion
[ 10763 10752 10751 10750 ] final  -50.52 input  -60.55 | X-H torsion
[ 11005 11000 10999 10996 ] final  -27.00 input  -57.11 | X-H torsion

> <Gold.Protein.ActiveResidues>
 VAL166  LYS551  ARG553  GLY616  TRP617  ASP618  TYR619  PRO620  LYS621  CYS622 
 ASP623  PHE694  ASN695  SER759  ASP760  ASP761  ALA762  ILE779  LEU786  VAL792 
 PHE793  MET794  SER795  GLU796  ALA797  LYS798  CYS799  TRP800  GLU811  SER814 

> <Gold.Protein.RotatedAtoms>
  151.7164  135.0903  160.0276 H   0  0  0  0  0  0  0  0  0  0  0  0  # atno 6907 bound_to 6896
  152.3630  133.6316  159.6037 H   0  0  0  0  0  0  0  0  0  0  0  0  # atno 6908 bound_to 6896
  150.7617  133.9310  159.3468 H   0  0  0  0  0  0  0  0  0  0  0  0  # atno 6909 bound_to 6896
  146.1396  139.6350  142.9172 H   0  0  0  0  0  0  0  0  0  0  0  0  # atno 7974 bound_to 7965
  155.4746  140.3466  155.4331 H   0  0  0  0  0  0  0  0  0  0  0  0  # atno 8008 bound_to 7997
  156.1078  140.1452  156.9409 H   0  0  0  0  0  0  0  0  0  0  0  0  # atno 8009 bound_to 7997
  154.4736  140.0892  156.7185 H   0  0  0  0  0  0  0  0  0  0  0  0  # atno 8010 bound_to 7997
  139.4874  144.4335  151.9041 H   0  0  0  0  0  0  0  0  0  0  0  0  # atno 10167 bound_to 10162
  157.6065  130.9181  149.9896 H   0  0  0  0  0  0  0  0  0  0  0  0  # atno 10718 bound_to 10713
  154.1117  135.6548  153.4886 H   0  0  0  0  0  0  0  0  0  0  0  0  # atno 10763 bound_to 10752
  153.0254  135.5249  154.7186 H   0  0  0  0  0  0  0  0  0  0  0  0  # atno 10764 bound_to 10752
  154.6367  135.2983  155.0121 H   0  0  0  0  0  0  0  0  0  0  0  0  # atno 10765 bound_to 10752
  140.9080  133.7480  156.0632 H   0  0  0  0  0  0  0  0  0  0  0  0  # atno 11005 bound_to 11000
  145.5077  141.0436  143.2505 LP  0  0  0  0  0  0  0  0  0  0  0  0  # atno 17320 bound_to 7965
  144.7777  139.6593  143.7167 LP  0  0  0  0  0  0  0  0  0  0  0  0  # atno 17321 bound_to 7965
  140.3784  144.2768  150.5911 LP  0  0  0  0  0  0  0  0  0  0  0  0  # atno 17342 bound_to 10162
  140.5256  143.2255  151.8320 LP  0  0  0  0  0  0  0  0  0  0  0  0  # atno 17343 bound_to 10162
  156.1153  130.3648  149.9979 LP  0  0  0  0  0  0  0  0  0  0  0  0  # atno 17370 bound_to 10713
  156.8069  130.9311  151.3645 LP  0  0  0  0  0  0  0  0  0  0  0  0  # atno 17371 bound_to 10713
  140.8147  134.3359  157.5401 LP  0  0  0  0  0  0  0  0  0  0  0  0  # atno 17394 bound_to 11000
  139.8752  134.9274  156.3425 LP  0  0  0  0  0  0  0  0  0  0  0  0  # atno 17395 bound_to 11000

$$$$
