#       Name:                AV-unprocessed.smi:1298
#       Creating user name   scv26
#       Creation time:       Fri Mar 27 04:57:33 2020


#       File generated by GOLD software.
#

@<TRIPOS>MOLECULE
AV-unprocessed.smi:1298
    34    35     1
SMALL
NO_CHARGES


@<TRIPOS>ATOM
      1 ****        -4.9617   1.8816   2.0279 C.2            1 S1                 0.0000
      2 ****        -3.9474   2.5490   1.4578 C.2            1 S1                 0.0000
      3 ****        -4.1834   4.0331   0.6064 Cl             1 S1                 0.0000
      4 ****        -2.4933   2.1275   1.4931 C.3            1 S1                 0.0000
      5 ****        -2.0626   1.0636   0.0847 S.3            1 S1                 0.0000
      6 ****        -0.3597   0.7416   0.4416 C.2            1 S1                 0.0000
      7 ****         0.3140   1.2734   1.4669 N.2            1 S1                 0.0000
      8 ****         1.5866   0.7560   1.3884 N.2            1 S1                 0.0000
      9 ****         1.5812  -0.0306   0.3111 C.2            1 S1                 0.0000
     10 ****         2.7649  -0.8322  -0.1299 C.3            1 S1                 0.0000
     11 ****         4.1579  -0.2411  -0.1224 C.3            1 S1                 0.0000
     12 ****         3.4729  -0.5290  -1.4323 C.3            1 S1                 0.0000
     13 ****         0.3881  -0.0891  -0.3164 N.pl3          1 S1                 0.0000
     14 ****         0.0053  -0.8647  -1.4899 C.3            1 S1                 0.0000
     15 ****        -0.4113  -2.2846  -1.1005 C.2            1 S1                 0.0000
     16 ****         0.3447  -3.2874  -1.5546 N.am           1 S1                 0.0000
     17 ****        -1.3993  -2.4745  -0.3944 O.2            1 S1                 0.0000
     18 ****        -5.9755   2.2493   1.9672 H              1 S1                 0.0000
     19 ****        -4.7915   0.9582   2.5620 H              1 S1                 0.0000
     20 ****        -1.8559   3.0126   1.4901 H              1 S1                 0.0000
     21 ****        -2.2999   1.5920   2.4236 H              1 S1                 0.0000
     22 ****         2.6535  -1.8750   0.1611 H              1 S1                 0.0000
     23 ****         4.2674   0.8028   0.1655 H              1 S1                 0.0000
     24 ****         4.9775  -0.8937   0.1709 H              1 S1                 0.0000
     25 ****         3.8337  -1.3740  -2.0150 H              1 S1                 0.0000
     26 ****         3.1246   0.3235  -2.0124 H              1 S1                 0.0000
     27 ****        -0.8199  -0.3722  -2.0042 H              1 S1                 0.0000
     28 ****         0.8356  -0.8843  -2.1959 H              1 S1                 0.0000
     29 ****         0.1123  -4.2419  -1.3222 H              1 S1                 0.0000
     30 ****         1.1508  -3.0852  -2.1285 H              1 S1                 0.0000
     31 ****        -0.0351   1.9150   2.1500 LP             1 S1                 0.0000
     32 ****         2.3522   0.9322   2.0071 LP             1 S1                 0.0000
     33 ****        -1.9384  -1.6974  -0.0693 LP             1 S1                 0.0000
     34 ****        -1.6641  -3.4060  -0.1449 LP             1 S1                 0.0000
@<TRIPOS>BOND
    1    1    2 2     
    2    1   18 1     
    3    1   19 1     
    4    2    3 1     
    5    2    4 1     
    6    4    5 1     
    7    4   20 1     
    8    4   21 1     
    9    5    6 1     
   10    6   13 1     
   11    6    7 2     
   12    7    8 1     
   13    8    9 2     
   14    9   10 1     
   15    9   13 1     
   16   10   12 1     
   17   10   11 1     
   18   10   22 1     
   19   11   12 1     
   20   11   23 1     
   21   11   24 1     
   22   12   25 1     
   23   12   26 1     
   24   13   14 1     
   25   14   15 1     
   26   14   27 1     
   27   14   28 1     
   28   15   16 am    
   29   15   17 2     
   30   16   29 1     
   31   16   30 1     
   32    7   31 1     
   33    8   32 1     
   34   17   33 1     
   35   17   34 1     
@<TRIPOS>SUBSTRUCTURE
      1 S1             1
@<TRIPOS>SET
LONE_PAIRS      STATIC     ATOMS    <user>   **** ""
4 31 32 33 34
DONOR_HYDROGENS      STATIC     ATOMS    <user>   **** ""
2 29 30
ATOM$BLUE        STATIC     ATOMS    COLORGROUP SYSTEM
4 31 32 33 34
ATOM$RED        STATIC     ATOMS    COLORGROUP SYSTEM
2 29 30
