#       Name:                AV-unprocessed.smi:1286
#       Creating user name   scv26
#       Creation time:       Fri Mar 27 04:52:32 2020


#       File generated by GOLD software.
#

@<TRIPOS>MOLECULE
AV-unprocessed.smi:1286
    39    40     1
SMALL
NO_CHARGES


@<TRIPOS>ATOM
      1 ****        -2.0462  -1.1685  -1.8770 C.3            1 S1                 0.0000
      2 ****        -1.5121  -0.5293  -0.5820 C.3            1 S1                 0.0000
      3 ****        -2.0585  -1.1928   0.6978 C.3            1 S1                 0.0000
      4 ****        -3.5090  -1.1789   0.7635 N.pl3          1 S1                 0.0000
      5 ****        -4.3416  -0.1157   1.0415 C.2            1 S1                 0.0000
      6 ****        -5.6245  -0.5802   0.9897 C.2            1 S1                 0.0000
      7 ****        -5.4722  -1.9591   0.6730 C.2            1 S1                 0.0000
      8 ****        -4.2047  -2.3151   0.5404 N.2            1 S1                 0.0000
      9 ****        -0.0532  -0.5854  -0.5607 N.am           1 S1                 0.0000
     10 ****         0.7711   0.3198  -1.1102 C.2            1 S1                 0.0000
     11 ****         0.3759   1.3171  -1.7141 O.2            1 S1                 0.0000
     12 ****         2.2729   0.0531  -0.9591 C.3            1 S1                 0.0000
     13 ****         3.0853   1.2915  -0.5210 C.3            1 S1                 0.0000
     14 ****         2.6777   1.8413   0.8250 C.2            1 S1                 0.0000
     15 ****         3.7030   1.9567   1.6657 C.2            1 S1                 0.0000
     16 ****         5.0010   1.5055   1.0564 C.3            1 S1                 0.0000
     17 ****         4.5968   0.9949  -0.3449 C.3            1 S1                 0.0000
     18 ****        -3.1298  -1.0745  -1.9519 H              1 S1                 0.0000
     19 ****        -1.8000  -2.2298  -1.9245 H              1 S1                 0.0000
     20 ****        -1.6215  -0.6884  -2.7591 H              1 S1                 0.0000
     21 ****        -1.8230   0.5171  -0.5683 H              1 S1                 0.0000
     22 ****        -1.7110  -2.2251   0.7676 H              1 S1                 0.0000
     23 ****        -1.6774  -0.6767   1.5800 H              1 S1                 0.0000
     24 ****        -3.9553   0.8719   1.2472 H              1 S1                 0.0000
     25 ****        -6.5332  -0.0205   1.1531 H              1 S1                 0.0000
     26 ****        -6.2394  -2.7069   0.5371 H              1 S1                 0.0000
     27 ****         0.3630  -1.3746  -0.0879 H              1 S1                 0.0000
     28 ****         2.4281  -0.7579  -0.2453 H              1 S1                 0.0000
     29 ****         2.6466  -0.3069  -1.9183 H              1 S1                 0.0000
     30 ****         2.9597   2.0914  -1.2525 H              1 S1                 0.0000
     31 ****         1.6591   2.1210   1.0510 H              1 S1                 0.0000
     32 ****         3.6420   2.3394   2.6737 H              1 S1                 0.0000
     33 ****         5.6950   2.3443   0.9963 H              1 S1                 0.0000
     34 ****         5.4549   0.7189   1.6600 H              1 S1                 0.0000
     35 ****         4.7960  -0.0753  -0.4170 H              1 S1                 0.0000
     36 ****         5.1849   1.4794  -1.1251 H              1 S1                 0.0000
     37 ****        -3.8430  -3.2219   0.3237 LP             1 S1                 0.0000
     38 ****        -0.6048   1.4848  -1.8146 LP             1 S1                 0.0000
     39 ****         1.0356   1.9595  -2.1042 LP             1 S1                 0.0000
@<TRIPOS>BOND
    1    1    2 1     
    2    1   18 1     
    3    1   19 1     
    4    1   20 1     
    5    2    3 1     
    6    2    9 1     
    7    2   21 1     
    8    3    4 1     
    9    3   22 1     
   10    3   23 1     
   11    4    8 1     
   12    4    5 1     
   13    5    6 2     
   14    5   24 1     
   15    6    7 1     
   16    6   25 1     
   17    7    8 2     
   18    7   26 1     
   19    9   10 am    
   20    9   27 1     
   21   10   11 2     
   22   10   12 1     
   23   12   13 1     
   24   12   28 1     
   25   12   29 1     
   26   13   17 1     
   27   13   14 1     
   28   13   30 1     
   29   14   15 2     
   30   14   31 1     
   31   15   16 1     
   32   15   32 1     
   33   16   17 1     
   34   16   33 1     
   35   16   34 1     
   36   17   35 1     
   37   17   36 1     
   38    8   37 1     
   39   11   38 1     
   40   11   39 1     
@<TRIPOS>SUBSTRUCTURE
      1 S1             1
@<TRIPOS>SET
LONE_PAIRS      STATIC     ATOMS    <user>   **** ""
3 37 38 39
DONOR_HYDROGENS      STATIC     ATOMS    <user>   **** ""
1 27
ATOM$BLUE        STATIC     ATOMS    COLORGROUP SYSTEM
3 37 38 39
ATOM$RED        STATIC     ATOMS    COLORGROUP SYSTEM
1 27
