AV-unprocessed.smi:2946|AV-procd|sdf|11281|dock4
  -GOLD-   2272016173D 1   1.00000     0.00000
 Structure written by MMmdl.
 35 36  0  0  0  0  0  0  0  0  1 V2000
  147.1629  142.4305  158.1499 C   0  0  0  0  0  0  0  0  0  0  0  0
  148.0267  141.8427  157.1459 N   0  0  0  0  0  0  0  0  0  0  0  0
  149.3780  141.5418  157.3389 C   0  0  0  0  0  0  0  0  0  0  0  0
  149.9360  141.8399  158.5775 N   0  0  0  0  0  0  0  0  0  0  0  0
  151.3146  141.6091  158.9836 C   0  0  0  0  0  0  0  0  0  0  0  0
  151.9980  142.9024  159.4542 C   0  0  1  0  0  0  0  0  0  0  0  0
  151.8373  144.1076  158.5239 C   0  0  0  0  0  0  0  0  0  0  0  0
  151.9989  145.2580  159.4915 C   0  0  0  0  0  0  0  0  0  0  0  0
  151.2883  144.7234  160.7314 C   0  0  0  0  0  0  0  0  0  0  0  0
  151.5045  143.3149  160.7267 O   0  0  0  0  0  0  0  0  0  0  0  0
  150.1152  140.9693  156.3464 C   0  0  0  0  0  0  0  0  0  0  0  0
  151.4824  140.5844  156.5057 C   0  0  0  0  0  0  0  0  0  0  0  0
  152.5848  140.2536  156.6340 N   0  0  0  0  0  0  0  0  0  0  0  0
  149.5458  140.6644  155.0357 C   0  0  0  0  0  0  0  0  0  0  0  0
  150.1780  140.1340  154.1190 O   0  0  0  0  0  0  0  0  0  0  0  0
  148.1905  141.0208  154.8832 N   0  0  0  0  0  0  0  0  0  0  0  0
  147.5882  140.7332  153.5961 C   0  0  0  0  0  0  0  0  0  0  0  0
  147.4004  141.5993  155.8988 C   0  0  0  0  0  0  0  0  0  0  0  0
  146.2120  141.8798  155.7161 O   0  0  0  0  0  0  0  0  0  0  0  0
  147.6742  142.4914  159.1078 H   0  0  0  0  0  0  0  0  0  0  0  0
  146.2867  141.7880  158.2560 H   0  0  0  0  0  0  0  0  0  0  0  0
  146.8944  143.4293  157.8009 H   0  0  0  0  0  0  0  0  0  0  0  0
  149.5430  142.6549  159.0267 H   0  0  0  0  0  0  0  0  0  0  0  0
  151.3199  140.8702  159.7853 H   0  0  0  0  0  0  0  0  0  0  0  0
  151.8896  141.1898  158.1584 H   0  0  0  0  0  0  0  0  0  0  0  0
  153.0645  142.7097  159.5793 H   0  0  0  0  0  0  0  0  0  0  0  0
  152.5696  144.1214  157.7164 H   0  0  0  0  0  0  0  0  0  0  0  0
  150.8427  144.1401  158.0791 H   0  0  0  0  0  0  0  0  0  0  0  0
  153.0559  145.4228  159.7048 H   0  0  0  0  0  0  0  0  0  0  0  0
  151.5725  146.1921  159.1245 H   0  0  0  0  0  0  0  0  0  0  0  0
  151.6528  145.1802  161.6517 H   0  0  0  0  0  0  0  0  0  0  0  0
  150.2159  144.9096  160.6634 H   0  0  0  0  0  0  0  0  0  0  0  0
  146.6060  141.1956  153.5041 H   0  0  0  0  0  0  0  0  0  0  0  0
  147.5097  139.6478  153.5167 H   0  0  0  0  0  0  0  0  0  0  0  0
  148.2412  141.1433  152.8231 H   0  0  0  0  0  0  0  0  0  0  0  0
  1  2  1  0  0  0  0
  1 20  1  0  0  0  0
  1 21  1  0  0  0  0
  1 22  1  0  0  0  0
  2 18  1  0  0  0  0
  2  3  1  0  0  0  0
  3  4  1  0  0  0  0
  3 11  2  0  0  0  0
  4  5  1  0  0  0  0
  4 23  1  0  0  0  0
  5  6  1  0  0  0  0
  5 24  1  0  0  0  0
  5 25  1  0  0  0  0
  6 10  1  0  0  0  0
  6  7  1  0  0  0  0
  6 26  1  0  0  0  0
  7  8  1  0  0  0  0
  7 27  1  0  0  0  0
  7 28  1  0  0  0  0
  8  9  1  0  0  0  0
  8 29  1  0  0  0  0
  8 30  1  0  0  0  0
  9 10  1  0  0  0  0
  9 31  1  0  0  0  0
  9 32  1  0  0  0  0
 11 12  1  0  0  0  0
 11 14  1  0  0  0  0
 12 13  3  0  0  0  0
 14 15  2  0  0  0  0
 14 16  1  0  0  0  0
 16 17  1  0  0  0  0
 16 18  1  0  0  0  0
 17 33  1  0  0  0  0
 17 34  1  0  0  0  0
 17 35  1  0  0  0  0
 18 19  2  0  0  0  0
M  END
> <s_m_source_file>
AV-unprocessed.smi

> <i_m_source_file_index>
2946

> <i_lp_mmshare_version>
43012

> <i_f3d_flags>
0

> <s_epik_input>
Tz1jMW4oW0NIM10pYyg9TyljKEMjTiljKG4xW0NIM10pW05IXVtDSDJdW0NAQEhdMltDSDJdW0NIMl1bQ0gyXU8y

> <s_epik_cmdline>
J2VwaWtfcHl0aG9uJywgJy1waCcsICc3LjAnLCAnLXRuJywgJzgnLCAnLW1hJywgJzIwMCcsICctbWV0YWxfYmluZGluZycsICctaW1hZScsICc8aW5maWxlLm1hZT4nLCAnLW9tYWUnLCAnPG91dGZpbGUubWFlPic=

> <r_epik_Ionization_Penalty>
0.000541801

> <r_epik_Ionization_Penalty_Charging>
8.97317e-10

> <r_epik_Ionization_Penalty_Neutral>
0.000541801

> <r_epik_State_Penalty>
0.000338907

> <r_epik_Charging_Adjusted_Penalty>
0.000338908

> <i_epik_Tot_Q>
0

> <i_epik_Tot_abs_Q>
0

> <r_epik_Metal_State_Penalty>
-0

> <b_epik_Metal_Only>
0

> <s_lp_Force_Field>
OPLS_2005

> <r_lp_Energy>
39.9681

> <b_lp_Chiralities_Consistent>
1

> <s_lp_Variant>
AV-unprocessed.smi:2946-2

> <Gold.Version>
5.8.1

> <Gold.Id.Protein>
6NUR|6NUR_protein|mol2

> <Gold.PLP.Fitness>
42.0428

> <Gold.PLP.PLP>
-36.1937

> <Gold.PLP.part.hbond>
-2.0000

> <Gold.PLP.part.metal>
0.0000

> <Gold.PLP.part.buried>
-3.5806

> <Gold.PLP.part.nonpolar>
-31.3253

> <Gold.PLP.part.repulsive>
1.4475

> <Gold.PLP.ligand.clash>
9.8971

> <Gold.PLP.ligand.torsion>
0.0756

> <Gold.PLP.Chemscore.Hbond>
2.0000

> <Gold.PLP.Chemscore.CHOScore>
0.0000

> <Gold.PLP.Chemscore.Metal>
0.0000

> <Gold.Chemscore.Hbonds>
donor molecule, donor type, donor heavy atom, donor atom, acceptor molecule, acceptor atom, score
      P1  H  7989  7998       L1    15  0.98
      P1  H  7997  8009       L1    13  1.00

> <Gold.PLP.Chemscore.Internal.Correction>
9.8975

> <Gold.Rescore>
     Score         DG    S(hbond)    S(metal)    S(lipo)     H(rot)  DE(clash)    DE(int)     intcor
     13.85     -16.74       1.87        0.00      71.25       1.29       0.08       2.81       ----

> <Gold.Chemscore.Fitness>
13.8453

> <Gold.Chemscore.DG>
-16.7406

> <Gold.Chemscore.ZeroCoef>
-5.4800

> <Gold.Chemscore.Hbond>
1.8679

> <Gold.Chemscore.Metal>
0.0000

> <Gold.Chemscore.Lipo>
71.2480

> <Gold.Chemscore.Internal_Hbond>
0.0000

> <Gold.Chemscore.DEClash>
0.0814

> <Gold.Chemscore.DEInternal>
2.8139

> <Gold.Chemscore.Rot>
1.2946

> <Gold.Chemscore.Internal.Correction>
   9.000000E+99

> <Gold.Chemscore.Hbonds>
donor molecule, donor type, donor heavy atom, donor atom, acceptor molecule, acceptor atom, score
      P1  H  7989  7998       L1    15  0.92
      P1  H  7997  8009       L1    13  0.95

> <Gold.Chemscore.Hbond.Weighted>
-6.2386

> <Gold.Chemscore.Metal.Weighted>
-0.0000

> <Gold.Chemscore.Lipo.Weighted>
-8.3360

> <Gold.Chemscore.Internal_Hbond.Weighted>
0.0000

> <Gold.Chemscore.DEClash.Weighted>
0.0814

> <Gold.Chemscore.DEInternal.Weighted>
2.8139

> <Gold.Chemscore.Rot.Weighted>
3.3141

> <Gold.Chemscore.Internal.Correction.Weighted>
   9.000000E+99

> <Gold.Protein.RotatedTorsions>
[ 6907 6896 6895 6894 ] final -135.08 input  -60.11 | X-H torsion
[ 7974 7965 7964 7962 ] final   73.59 input  175.53 | X-H torsion
[ 8008 7997 7996 7995 ] final -176.16 input   59.86 | X-H torsion
[ 10167 10162 10161 10158 ] final  -95.61 input  -65.29 | X-H torsion
[ 10718 10713 10712 10709 ] final  147.26 input   66.30 | X-H torsion
[ 10763 10752 10751 10750 ] final  153.76 input  -60.55 | X-H torsion
[ 11005 11000 10999 10996 ] final   58.87 input  -57.11 | X-H torsion

> <Gold.Protein.ActiveResidues>
 VAL166  LYS551  ARG553  GLY616  TRP617  ASP618  TYR619  PRO620  LYS621  CYS622 
 ASP623  PHE694  ASN695  SER759  ASP760  ASP761  ALA762  ILE779  LEU786  VAL792 
 PHE793  MET794  SER795  GLU796  ALA797  LYS798  CYS799  TRP800  GLU811  SER814 

> <Gold.Protein.RotatedAtoms>
  150.9935  133.6125  159.2704 H   0  0  0  0  0  0  0  0  0  0  0  0  # atno 6907 bound_to 6896
  151.3337  135.0847  159.9357 H   0  0  0  0  0  0  0  0  0  0  0  0  # atno 6908 bound_to 6896
  152.5253  133.9560  159.7749 H   0  0  0  0  0  0  0  0  0  0  0  0  # atno 6909 bound_to 6896
  145.7389  139.2713  143.1498 H   0  0  0  0  0  0  0  0  0  0  0  0  # atno 7974 bound_to 7965
  155.9915  140.1202  157.0634 H   0  0  0  0  0  0  0  0  0  0  0  0  # atno 8008 bound_to 7997
  154.4213  140.1125  156.5640 H   0  0  0  0  0  0  0  0  0  0  0  0  # atno 8009 bound_to 7997
  155.6336  140.3473  155.4693 H   0  0  0  0  0  0  0  0  0  0  0  0  # atno 8010 bound_to 7997
  140.3024  143.3154  152.0234 H   0  0  0  0  0  0  0  0  0  0  0  0  # atno 10167 bound_to 10162
  157.3232  131.0908  151.1223 H   0  0  0  0  0  0  0  0  0  0  0  0  # atno 10718 bound_to 10713
  154.1415  135.2820  155.3159 H   0  0  0  0  0  0  0  0  0  0  0  0  # atno 10763 bound_to 10752
  154.6284  135.5444  153.7656 H   0  0  0  0  0  0  0  0  0  0  0  0  # atno 10764 bound_to 10752
  153.0249  135.6456  154.1562 H   0  0  0  0  0  0  0  0  0  0  0  0  # atno 10765 bound_to 10752
  140.0345  134.5963  155.9462 H   0  0  0  0  0  0  0  0  0  0  0  0  # atno 11005 bound_to 11000
  146.0467  140.8111  142.9802 LP  0  0  0  0  0  0  0  0  0  0  0  0  # atno 17320 bound_to 7965
  144.6875  140.2991  143.7266 LP  0  0  0  0  0  0  0  0  0  0  0  0  # atno 17321 bound_to 7965
  139.4912  144.6446  151.6806 LP  0  0  0  0  0  0  0  0  0  0  0  0  # atno 17342 bound_to 10162
  140.5639  144.0222  150.6183 LP  0  0  0  0  0  0  0  0  0  0  0  0  # atno 17343 bound_to 10162
  157.2500  130.6610  149.5927 LP  0  0  0  0  0  0  0  0  0  0  0  0  # atno 17370 bound_to 10713
  155.9688  130.4541  150.5838 LP  0  0  0  0  0  0  0  0  0  0  0  0  # atno 17371 bound_to 10713
  141.1850  133.6554  156.5179 LP  0  0  0  0  0  0  0  0  0  0  0  0  # atno 17394 bound_to 11000
  140.4170  134.7221  157.4868 LP  0  0  0  0  0  0  0  0  0  0  0  0  # atno 17395 bound_to 11000

$$$$
