AV-unprocessed.smi:1601|AV-procd|sdf|6438|dock4
  -GOLD-   22720 7 83D 1   1.00000     0.00000
 Structure written by MMmdl.
 42 43  0  0  0  0  0  0  0  0  2 V2000
  147.7431  138.1050  154.3195 C   0  0  0  0  0  0  0  0  0  0  0  0
  146.7576  138.8265  153.3669 C   0  0  1  0  0  0  0  0  0  0  0  0
  145.6950  137.8360  152.8212 C   0  0  0  0  0  0  0  0  0  0  0  0
  146.2544  136.5325  152.4705 N   0  0  0  0  0  0  0  0  0  0  0  0
  145.6756  135.3436  152.7062 C   0  0  0  0  0  0  0  0  0  0  0  0
  144.5860  135.2251  153.2680 O   0  0  0  0  0  0  0  0  0  0  0  0
  146.4576  134.1056  152.2398 C   0  0  1  0  0  0  0  0  0  0  0  0
  146.8347  133.1657  153.3995 C   0  0  0  0  0  0  0  0  0  0  0  0
  145.7159  133.3899  151.2100 N   0  0  0  0  0  0  0  0  0  0  0  0
  146.1425  132.3684  150.3832 C   0  0  0  0  0  0  0  0  0  0  0  0
  145.0952  132.0317  149.5747 C   0  0  0  0  0  0  0  0  0  0  0  0
  144.0578  132.9162  149.9805 C   0  0  0  0  0  0  0  0  0  0  0  0
  144.4319  133.7272  150.9567 N   0  0  0  0  0  0  0  0  0  0  0  0
  146.0848  140.0111  153.9971 N   0  3  0  0  0  0  0  0  0  0  0  0
  145.6177  139.8164  155.3984 C   0  0  0  0  0  0  0  0  0  0  0  0
  144.9194  141.0784  155.9342 C   0  0  0  0  0  0  0  0  0  0  0  0
  145.7951  142.1916  155.8421 O   0  0  0  0  0  0  0  0  0  0  0  0
  146.1537  142.4581  154.4948 C   0  0  0  0  0  0  0  0  0  0  0  0
  146.9077  141.2496  153.9165 C   0  0  0  0  0  0  0  0  0  0  0  0
  148.2162  137.2479  153.8417 H   0  0  0  0  0  0  0  0  0  0  0  0
  147.2377  137.7422  155.2151 H   0  0  0  0  0  0  0  0  0  0  0  0
  148.5662  138.7500  154.6263 H   0  0  0  0  0  0  0  0  0  0  0  0
  147.3500  139.1919  152.5265 H   0  0  0  0  0  0  0  0  0  0  0  0
  144.8805  137.7327  153.5401 H   0  0  0  0  0  0  0  0  0  0  0  0
  145.2383  138.2125  151.9082 H   0  0  0  0  0  0  0  0  0  0  0  0
  147.1486  136.5322  152.0005 H   0  0  0  0  0  0  0  0  0  0  0  0
  147.3898  134.4641  151.7983 H   0  0  0  0  0  0  0  0  0  0  0  0
  147.4076  133.6915  154.1640 H   0  0  0  0  0  0  0  0  0  0  0  0
  147.4491  132.3385  153.0430 H   0  0  0  0  0  0  0  0  0  0  0  0
  145.9530  132.7378  153.8779 H   0  0  0  0  0  0  0  0  0  0  0  0
  147.1454  131.9711  150.4392 H   0  0  0  0  0  0  0  0  0  0  0  0
  145.0746  131.2720  148.8078 H   0  0  0  0  0  0  0  0  0  0  0  0
  143.0513  132.9939  149.5965 H   0  0  0  0  0  0  0  0  0  0  0  0
  144.8987  139.0000  155.4595 H   0  0  0  0  0  0  0  0  0  0  0  0
  146.4653  139.5580  156.0353 H   0  0  0  0  0  0  0  0  0  0  0  0
  143.9985  141.2775  155.3836 H   0  0  0  0  0  0  0  0  0  0  0  0
  144.6391  140.9363  156.9782 H   0  0  0  0  0  0  0  0  0  0  0  0
  145.2658  142.6865  153.9029 H   0  0  0  0  0  0  0  0  0  0  0  0
  146.7893  143.3433  154.4693 H   0  0  0  0  0  0  0  0  0  0  0  0
  147.8409  141.1030  154.4630 H   0  0  0  0  0  0  0  0  0  0  0  0
  147.1782  141.4786  152.8877 H   0  0  0  0  0  0  0  0  0  0  0  0
  145.2496  140.1794  153.4542 H   0  0  0  0  0  0  0  0  0  0  0  0
  1  2  1  0  0  0  0
  1 20  1  0  0  0  0
  1 21  1  0  0  0  0
  1 22  1  0  0  0  0
  2  3  1  0  0  0  0
  2 14  1  0  0  0  0
  2 23  1  0  0  0  0
  3  4  1  0  0  0  0
  3 24  1  0  0  0  0
  3 25  1  0  0  0  0
  4  5  1  0  0  0  0
  4 26  1  0  0  0  0
  5  6  2  0  0  0  0
  5  7  1  0  0  0  0
  7  8  1  0  0  0  0
  7  9  1  0  0  0  0
  7 27  1  0  0  0  0
  8 28  1  0  0  0  0
  8 29  1  0  0  0  0
  8 30  1  0  0  0  0
  9 13  1  0  0  0  0
  9 10  1  0  0  0  0
 10 11  2  0  0  0  0
 10 31  1  0  0  0  0
 11 12  1  0  0  0  0
 11 32  1  0  0  0  0
 12 13  2  0  0  0  0
 12 33  1  0  0  0  0
 14 19  1  0  0  0  0
 14 15  1  0  0  0  0
 14 42  1  0  0  0  0
 15 16  1  0  0  0  0
 15 34  1  0  0  0  0
 15 35  1  0  0  0  0
 16 17  1  0  0  0  0
 16 36  1  0  0  0  0
 16 37  1  0  0  0  0
 17 18  1  0  0  0  0
 18 19  1  0  0  0  0
 18 38  1  0  0  0  0
 18 39  1  0  0  0  0
 19 40  1  0  0  0  0
 19 41  1  0  0  0  0
M  CHG  1  14   1
M  END
> <s_m_source_file>
AV-unprocessed.smi

> <i_m_source_file_index>
1601

> <i_lp_mmshare_version>
43012

> <i_f3d_flags>
0

> <s_epik_input>
W0NIMl0xW0NIMl1PW0NIMl1bQ0gyXU4xW0NASF0oW0NIM10pW0NIMl1bTkhdQyg9TylbQ0BIXShbQ0gzXSluMltjSF1bY0hdW2NIXW4y

> <s_epik_cmdline>
J2VwaWtfcHl0aG9uJywgJy1waCcsICc3LjAnLCAnLXRuJywgJzgnLCAnLW1hJywgJzIwMCcsICctbWV0YWxfYmluZGluZycsICctaW1hZScsICc8aW5maWxlLm1hZT4nLCAnLW9tYWUnLCAnPG91dGZpbGUubWFlPic=

> <r_lp_tautomer_probability>
1

> <r_epik_Ionization_Penalty>
0.732551

> <r_epik_Ionization_Penalty_Charging>
0.732531

> <r_epik_Ionization_Penalty_Neutral>
2.04647e-05

> <r_epik_State_Penalty>
0.757939

> <r_epik_Charging_Adjusted_Penalty>
1.49047

> <i_epik_Tot_Q>
1

> <i_epik_Tot_abs_Q>
1

> <r_epik_Metal_State_Penalty>
0.757952

> <b_epik_Metal_Only>
0

> <s_lp_Force_Field>
OPLS_2005

> <r_lp_Energy>
25.2472

> <b_lp_Chiralities_Consistent>
1

> <s_lp_Variant>
AV-unprocessed.smi:1601-8

> <Gold.Version>
5.8.1

> <Gold.Id.Protein>
6NUR|6NUR_protein|mol2

> <Gold.PLP.Fitness>
42.7130

> <Gold.PLP.PLP>
-29.4099

> <Gold.PLP.part.hbond>
-2.0000

> <Gold.PLP.part.metal>
0.0000

> <Gold.PLP.part.buried>
-5.1895

> <Gold.PLP.part.nonpolar>
-24.4351

> <Gold.PLP.part.repulsive>
0.4022

> <Gold.PLP.ligand.clash>
0.0000

> <Gold.PLP.ligand.torsion>
0.9148

> <Gold.PLP.Chemscore.Hbond>
3.0000

> <Gold.PLP.Chemscore.CHOScore>
2.0000

> <Gold.PLP.Chemscore.Metal>
0.0000

> <Gold.Chemscore.Hbonds>
donor molecule, donor type, donor heavy atom, donor atom, acceptor molecule, acceptor atom, score
      L1  H     4    26       P1  7948  1.00
      L1  H    14    42       P1 10175  2.00
      L1  C    10    31       P1 10747  1.00
      L1  C    12    33       P1 10186  1.00

> <Gold.PLP.Chemscore.Internal.Correction>
0.1327

> <Gold.Rescore>
     Score         DG    S(hbond)    S(metal)    S(lipo)     H(rot)  DE(clash)    DE(int)     intcor
     13.51     -16.17       1.97        0.00      75.80       1.86       0.15       2.51       ----

> <Gold.Chemscore.Fitness>
13.5089

> <Gold.Chemscore.DG>
-16.1725

> <Gold.Chemscore.ZeroCoef>
-5.4800

> <Gold.Chemscore.Hbond>
1.9741

> <Gold.Chemscore.Metal>
0.0000

> <Gold.Chemscore.Lipo>
75.8002

> <Gold.Chemscore.Internal_Hbond>
0.0000

> <Gold.Chemscore.DEClash>
0.1550

> <Gold.Chemscore.DEInternal>
2.5086

> <Gold.Chemscore.Rot>
1.8631

> <Gold.Chemscore.Internal.Correction>
   9.000000E+99

> <Gold.Chemscore.Hbonds>
donor molecule, donor type, donor heavy atom, donor atom, acceptor molecule, acceptor atom, score
      L1  H     4    26       P1  7948  0.99
      L1  H    14    42       P1 10175  1.00

> <Gold.Chemscore.Hbond.Weighted>
-6.5935

> <Gold.Chemscore.Metal.Weighted>
-0.0000

> <Gold.Chemscore.Lipo.Weighted>
-8.8686

> <Gold.Chemscore.Internal_Hbond.Weighted>
0.0000

> <Gold.Chemscore.DEClash.Weighted>
0.1550

> <Gold.Chemscore.DEInternal.Weighted>
2.5086

> <Gold.Chemscore.Rot.Weighted>
4.7697

> <Gold.Chemscore.Internal.Correction.Weighted>
   9.000000E+99

> <Gold.Protein.RotatedTorsions>
[ 6907 6896 6895 6894 ] final   -9.77 input  -60.11 | X-H torsion
[ 7974 7965 7964 7962 ] final  156.34 input  175.53 | X-H torsion
[ 8008 7997 7996 7995 ] final   36.26 input   59.86 | X-H torsion
[ 10167 10162 10161 10158 ] final  -86.21 input  -65.29 | X-H torsion
[ 10718 10713 10712 10709 ] final   23.39 input   66.30 | X-H torsion
[ 10763 10752 10751 10750 ] final   14.39 input  -60.55 | X-H torsion
[ 11005 11000 10999 10996 ] final  -29.67 input  -57.11 | X-H torsion

> <Gold.Protein.ActiveResidues>
 VAL166  LYS551  ARG553  GLY616  TRP617  ASP618  TYR619  PRO620  LYS621  CYS622 
 ASP623  PHE694  ASN695  SER759  ASP760  ASP761  ALA762  ILE779  LEU786  VAL792 
 PHE793  MET794  SER795  GLU796  ALA797  LYS798  CYS799  TRP800  GLU811  SER814 

> <Gold.Protein.RotatedAtoms>
  151.4125  135.0987  159.9589 H   0  0  0  0  0  0  0  0  0  0  0  0  # atno 6907 bound_to 6896
  152.5015  133.8784  159.7344 H   0  0  0  0  0  0  0  0  0  0  0  0  # atno 6908 bound_to 6896
  150.9282  133.6741  159.2845 H   0  0  0  0  0  0  0  0  0  0  0  0  # atno 6909 bound_to 6896
  144.7969  139.7190  143.6198 H   0  0  0  0  0  0  0  0  0  0  0  0  # atno 7974 bound_to 7965
  155.1844  140.3302  155.4369 H   0  0  0  0  0  0  0  0  0  0  0  0  # atno 8008 bound_to 7997
  156.2465  140.1921  156.6891 H   0  0  0  0  0  0  0  0  0  0  0  0  # atno 8009 bound_to 7997
  154.6249  140.0590  156.9646 H   0  0  0  0  0  0  0  0  0  0  0  0  # atno 8010 bound_to 7997
  140.3963  143.2682  151.9200 H   0  0  0  0  0  0  0  0  0  0  0  0  # atno 10167 bound_to 10162
  157.1655  130.6736  149.6059 H   0  0  0  0  0  0  0  0  0  0  0  0  # atno 10718 bound_to 10713
  153.1627  135.6798  153.8719 H   0  0  0  0  0  0  0  0  0  0  0  0  # atno 10763 bound_to 10752
  153.8109  135.3143  155.3402 H   0  0  0  0  0  0  0  0  0  0  0  0  # atno 10764 bound_to 10752
  154.7944  135.4816  154.0215 H   0  0  0  0  0  0  0  0  0  0  0  0  # atno 10765 bound_to 10752
  140.9316  133.7334  156.0945 H   0  0  0  0  0  0  0  0  0  0  0  0  # atno 11005 bound_to 11000
  146.2240  139.5688  142.9599 LP  0  0  0  0  0  0  0  0  0  0  0  0  # atno 17320 bound_to 7965
  145.5650  141.0400  143.2205 LP  0  0  0  0  0  0  0  0  0  0  0  0  # atno 17321 bound_to 7965
  139.4786  144.5678  151.8137 LP  0  0  0  0  0  0  0  0  0  0  0  0  # atno 17342 bound_to 10162
  140.4787  144.1482  150.5929 LP  0  0  0  0  0  0  0  0  0  0  0  0  # atno 17343 bound_to 10162
  155.9747  130.4697  150.6404 LP  0  0  0  0  0  0  0  0  0  0  0  0  # atno 17370 bound_to 10713
  157.4093  131.0821  151.1236 LP  0  0  0  0  0  0  0  0  0  0  0  0  # atno 17371 bound_to 10713
  140.7854  134.3677  157.5477 LP  0  0  0  0  0  0  0  0  0  0  0  0  # atno 17394 bound_to 11000
  139.8798  134.9108  156.3021 LP  0  0  0  0  0  0  0  0  0  0  0  0  # atno 17395 bound_to 11000

$$$$
