#       Name:                AV-unprocessed.smi:759
#       Creating user name   scv26
#       Creation time:       Fri Mar 27 01:01:54 2020


#       File generated by GOLD software.
#

@<TRIPOS>MOLECULE
AV-unprocessed.smi:759
    26    27     1
SMALL
NO_CHARGES


@<TRIPOS>ATOM
      1 ****        -3.6701   1.1685   0.0161 C.2            1 S1                 0.0000
      2 ****        -3.8218  -0.1561   0.0536 N.2            1 S1                 0.0000
      3 ****        -2.5315  -0.6607   0.0474 N.2            1 S1                 0.0000
      4 ****        -1.7251   0.4081   0.0095 C.2            1 S1                 0.0000
      5 ****        -0.2281   0.3521  -0.0085 C.3            1 S1                 0.0000
      6 ****         0.3103  -0.3317  -1.2802 C.3            1 S1                 0.0000
      7 ****         1.8456  -0.3888  -1.2533 C.3            1 S1                 0.0000
      8 ****         2.3487  -1.0581   0.0364 C.3            1 S1                 0.0000
      9 ****         1.8147  -0.3635   1.2280 N.4            1 S1                 1.0000
     10 ****         0.3359  -0.3222   1.2595 C.3            1 S1                 0.0000
     11 ****        -2.3944   1.5714  -0.0128 N.pl3          1 S1                 0.0000
     12 ****        -2.0311   2.5130  -0.0446 H              1 S1                 0.0000
     13 ****        -4.5040   1.8551   0.0101 H              1 S1                 0.0000
     14 ****         0.1315   1.3828  -0.0164 H              1 S1                 0.0000
     15 ****        -0.0880  -1.3445  -1.3566 H              1 S1                 0.0000
     16 ****        -0.0269   0.2030  -2.1691 H              1 S1                 0.0000
     17 ****         2.2138  -0.9325  -2.1238 H              1 S1                 0.0000
     18 ****         2.2518   0.6211  -1.3249 H              1 S1                 0.0000
     19 ****         2.0455  -2.1058   0.0645 H              1 S1                 0.0000
     20 ****         3.4383  -1.0399   0.0724 H              1 S1                 0.0000
     21 ****         2.1464  -0.8344   2.0578 H              1 S1                 0.0000
     22 ****         0.0186   0.2194   2.1513 H              1 S1                 0.0000
     23 ****        -0.0430  -1.3410   1.3540 H              1 S1                 0.0000
     24 ****         2.1636   0.5843   1.2300 H              1 S1                 0.0000
     25 ****        -4.6784  -0.6715   0.0803 LP             1 S1                 0.0000
     26 ****        -2.2590  -1.6227   0.0671 LP             1 S1                 0.0000
@<TRIPOS>BOND
    1    1   11 1     
    2    1    2 2     
    3    1   13 1     
    4    2    3 1     
    5    3    4 2     
    6    4    5 1     
    7    4   11 1     
    8    5   10 1     
    9    5    6 1     
   10    5   14 1     
   11    6    7 1     
   12    6   15 1     
   13    6   16 1     
   14    7    8 1     
   15    7   17 1     
   16    7   18 1     
   17    8    9 1     
   18    8   19 1     
   19    8   20 1     
   20    9   10 1     
   21    9   21 1     
   22    9   24 1     
   23   10   22 1     
   24   10   23 1     
   25   11   12 1     
   26    2   25 1     
   27    3   26 1     
@<TRIPOS>SUBSTRUCTURE
      1 S1             1
@<TRIPOS>SET
LONE_PAIRS      STATIC     ATOMS    <user>   **** ""
2 25 26
DONOR_HYDROGENS      STATIC     ATOMS    <user>   **** ""
3 21 24 12
ATOM$BLUE        STATIC     ATOMS    COLORGROUP SYSTEM
2 25 26
ATOM$RED        STATIC     ATOMS    COLORGROUP SYSTEM
3 21 24 12
