AV-unprocessed.smi:2698|AV-procd|sdf|10417|dock3
  -GOLD-   2272014453D 1   1.00000     0.00000
 Structure written by MMmdl.
 34 34  0  0  0  0  0  0  0  0  3 V2000
  151.6353  145.6977  159.8122 C   0  0  0  0  0  0  0  0  0  0  0  0
  151.4457  144.2157  159.4386 C   0  0  0  0  0  0  0  0  0  0  0  0
  152.5237  143.3513  160.1092 C   0  0  0  0  0  0  0  0  0  0  0  0
  151.4243  143.9667  157.9126 C   0  0  0  0  0  0  0  0  0  0  0  0
  150.9308  142.5681  157.5343 C   0  0  0  0  0  0  0  0  0  0  0  0
  150.6218  141.7645  158.4139 O   0  0  0  0  0  0  0  0  0  0  0  0
  150.8660  142.2975  156.2218 N   0  0  0  0  0  0  0  0  0  0  0  0
  150.4569  141.0299  155.6175 C   0  0  2  0  0  0  0  0  0  0  0  0
  149.0342  140.6622  156.0906 C   0  0  0  0  0  0  0  0  0  0  0  0
  147.9093  141.0619  155.1633 C   0  0  0  0  0  0  0  0  0  0  0  0
  146.9317  140.3166  154.5271 C   0  0  0  0  0  0  0  0  0  0  0  0
  146.1445  141.1941  153.8004 N   0  0  0  0  0  0  0  0  0  0  0  0
  146.6307  142.4142  154.0163 C   0  0  0  0  0  0  0  0  0  0  0  0
  147.6831  142.3891  154.8318 N   0  3  0  0  0  0  0  0  0  0  0  0
  151.4618  139.9400  156.0049 C   0  0  0  0  0  0  0  0  0  0  0  0
  152.3860  140.2600  156.7856 O   0  0  0  0  0  0  0  0  0  0  0  0
  151.2834  138.8020  155.5195 O   0  5  0  0  0  0  0  0  0  0  0  0
  145.3499  140.9536  153.2248 H   0  0  0  0  0  0  0  0  0  0  0  0
  152.5564  146.0976  159.3873 H   0  0  0  0  0  0  0  0  0  0  0  0
  151.6866  145.8249  160.8939 H   0  0  0  0  0  0  0  0  0  0  0  0
  150.8090  146.3143  159.4589 H   0  0  0  0  0  0  0  0  0  0  0  0
  150.4841  143.8974  159.8450 H   0  0  0  0  0  0  0  0  0  0  0  0
  153.5197  143.6095  159.7481 H   0  0  0  0  0  0  0  0  0  0  0  0
  152.3607  142.2921  159.9078 H   0  0  0  0  0  0  0  0  0  0  0  0
  152.5179  143.4820  161.1917 H   0  0  0  0  0  0  0  0  0  0  0  0
  150.7909  144.7067  157.4216 H   0  0  0  0  0  0  0  0  0  0  0  0
  152.4249  144.1055  157.4996 H   0  0  0  0  0  0  0  0  0  0  0  0
  151.1081  143.0369  155.5776 H   0  0  0  0  0  0  0  0  0  0  0  0
  150.4546  141.1032  154.5282 H   0  0  0  0  0  0  0  0  0  0  0  0
  148.9604  139.5839  156.2393 H   0  0  0  0  0  0  0  0  0  0  0  0
  148.8446  141.1162  157.0648 H   0  0  0  0  0  0  0  0  0  0  0  0
  146.7251  139.2568  154.5227 H   0  0  0  0  0  0  0  0  0  0  0  0
  146.2200  143.3155  153.5850 H   0  0  0  0  0  0  0  0  0  0  0  0
  148.2212  143.1847  155.1447 H   0  0  0  0  0  0  0  0  0  0  0  0
  1  2  1  0  0  0  0
  1 19  1  0  0  0  0
  1 20  1  0  0  0  0
  1 21  1  0  0  0  0
  2  3  1  0  0  0  0
  2  4  1  0  0  0  0
  2 22  1  0  0  0  0
  3 23  1  0  0  0  0
  3 24  1  0  0  0  0
  3 25  1  0  0  0  0
  4  5  1  0  0  0  0
  4 26  1  0  0  0  0
  4 27  1  0  0  0  0
  5  6  2  0  0  0  0
  5  7  1  0  0  0  0
  7  8  1  0  0  0  0
  7 28  1  0  0  0  0
  8  9  1  0  0  0  0
  8 15  1  0  0  0  0
  8 29  1  0  0  0  0
  9 10  1  0  0  0  0
  9 30  1  0  0  0  0
  9 31  1  0  0  0  0
 10 14  1  0  0  0  0
 10 11  2  0  0  0  0
 11 12  1  0  0  0  0
 11 32  1  0  0  0  0
 12 18  1  0  0  0  0
 12 13  1  0  0  0  0
 13 14  2  0  0  0  0
 13 33  1  0  0  0  0
 14 34  1  0  0  0  0
 15 16  2  0  0  0  0
 15 17  1  0  0  0  0
M  CHG  1  14   1
M  CHG  1  17  -1
M  END
> <s_m_source_file>
AV-unprocessed.smi

> <i_m_source_file_index>
2698

> <i_lp_mmshare_version>
43012

> <i_f3d_flags>
0

> <s_epik_input>
W0NIM11bQ0hdKFtDSDNdKVtDSDJdQyg9TylbTkhdW0NAQEhdKEMoPU8pW09IXSlbQ0gyXWMxW2NIXVtuSF1bY0hdbjE=

> <s_epik_cmdline>
J2VwaWtfcHl0aG9uJywgJy1waCcsICc3LjAnLCAnLXRuJywgJzgnLCAnLW1hJywgJzIwMCcsICctbWV0YWxfYmluZGluZycsICctaW1hZScsICc8aW5maWxlLm1hZT4nLCAnLW9tYWUnLCAnPG91dGZpbGUubWFlPic=

> <r_lp_tautomer_probability>
1

> <r_epik_Ionization_Penalty>
0.478676

> <r_epik_Ionization_Penalty_Charging>
5.56794e-05

> <r_epik_Ionization_Penalty_Neutral>
0.478621

> <r_epik_State_Penalty>
0.385221

> <r_epik_Charging_Adjusted_Penalty>
0.385276

> <i_epik_Tot_Q>
0

> <i_epik_Tot_abs_Q>
2

> <r_epik_Metal_State_Penalty>
0.800557

> <b_epik_Metal_Only>
0

> <s_lp_Force_Field>
OPLS_2005

> <r_lp_Energy>
0.68782

> <b_lp_Chiralities_Consistent>
1

> <s_lp_Variant>
AV-unprocessed.smi:2698-1

> <Gold.Version>
5.8.1

> <Gold.Id.Protein>
6NUR|6NUR_protein|mol2

> <Gold.PLP.Fitness>
52.3589

> <Gold.PLP.PLP>
-35.4594

> <Gold.PLP.part.hbond>
-3.1596

> <Gold.PLP.part.metal>
0.0000

> <Gold.PLP.part.buried>
-3.2571

> <Gold.PLP.part.nonpolar>
-28.6867

> <Gold.PLP.part.repulsive>
0.3409

> <Gold.PLP.ligand.clash>
0.0000

> <Gold.PLP.ligand.torsion>
0.5805

> <Gold.PLP.Chemscore.Hbond>
6.0000

> <Gold.PLP.Chemscore.CHOScore>
0.0000

> <Gold.PLP.Chemscore.Metal>
0.0000

> <Gold.Chemscore.Hbonds>
donor molecule, donor type, donor heavy atom, donor atom, acceptor molecule, acceptor atom, score
      L1  H    12    18       P1 10175  2.00
      L1  H    14    34       P1  8028  2.00
      P1  H  7997  8008       L1    16  2.00

> <Gold.PLP.Chemscore.Internal.Correction>
0.0604

> <Gold.Rescore>
     Score         DG    S(hbond)    S(metal)    S(lipo)     H(rot)  DE(clash)    DE(int)     intcor
     11.43     -14.99       2.92        0.00      65.47       3.09       0.06       3.50       ----

> <Gold.Chemscore.Fitness>
11.4330

> <Gold.Chemscore.DG>
-14.9940

> <Gold.Chemscore.ZeroCoef>
-5.4800

> <Gold.Chemscore.Hbond>
2.9225

> <Gold.Chemscore.Metal>
0.0000

> <Gold.Chemscore.Lipo>
65.4680

> <Gold.Chemscore.Internal_Hbond>
0.0000

> <Gold.Chemscore.DEClash>
0.0595

> <Gold.Chemscore.DEInternal>
3.5015

> <Gold.Chemscore.Rot>
3.0887

> <Gold.Chemscore.Internal.Correction>
   9.000000E+99

> <Gold.Chemscore.Hbonds>
donor molecule, donor type, donor heavy atom, donor atom, acceptor molecule, acceptor atom, score
      L1  H    12    18       P1 10175  0.50
      L1  H    14    34       P1  8028  0.97
      P1  H  7997  8008       L1    16  0.91

> <Gold.Chemscore.Hbond.Weighted>
-9.7612

> <Gold.Chemscore.Metal.Weighted>
-0.0000

> <Gold.Chemscore.Lipo.Weighted>
-7.6598

> <Gold.Chemscore.Internal_Hbond.Weighted>
0.0000

> <Gold.Chemscore.DEClash.Weighted>
0.0595

> <Gold.Chemscore.DEInternal.Weighted>
3.5015

> <Gold.Chemscore.Rot.Weighted>
7.9070

> <Gold.Chemscore.Internal.Correction.Weighted>
   9.000000E+99

> <Gold.Protein.RotatedTorsions>
[ 6907 6896 6895 6894 ] final  -52.29 input  -60.11 | X-H torsion
[ 7974 7965 7964 7962 ] final   -5.95 input  175.53 | X-H torsion
[ 8008 7997 7996 7995 ] final  -59.19 input   59.86 | X-H torsion
[ 10167 10162 10161 10158 ] final  146.98 input  -65.29 | X-H torsion
[ 10718 10713 10712 10709 ] final  -34.13 input   66.30 | X-H torsion
[ 10763 10752 10751 10750 ] final  170.32 input  -60.55 | X-H torsion
[ 11005 11000 10999 10996 ] final -152.66 input  -57.11 | X-H torsion

> <Gold.Protein.ActiveResidues>
 VAL166  LYS551  ARG553  GLY616  TRP617  ASP618  TYR619  PRO620  LYS621  CYS622 
 ASP623  PHE694  ASN695  SER759  ASP760  ASP761  ALA762  ILE779  LEU786  VAL792 
 PHE793  MET794  SER795  GLU796  ALA797  LYS798  CYS799  TRP800  GLU811  SER814 

> <Gold.Protein.RotatedAtoms>
  150.8532  134.7863  159.7024 H   0  0  0  0  0  0  0  0  0  0  0  0  # atno 6907 bound_to 6896
  152.4591  134.5222  159.9796 H   0  0  0  0  0  0  0  0  0  0  0  0  # atno 6908 bound_to 6896
  151.5339  133.3406  159.2959 H   0  0  0  0  0  0  0  0  0  0  0  0  # atno 6909 bound_to 6896
  146.2342  140.2097  142.8335 H   0  0  0  0  0  0  0  0  0  0  0  0  # atno 7974 bound_to 7965
  154.4341  140.1067  156.6076 H   0  0  0  0  0  0  0  0  0  0  0  0  # atno 8008 bound_to 7997
  155.5844  140.3491  155.4530 H   0  0  0  0  0  0  0  0  0  0  0  0  # atno 8009 bound_to 7997
  156.0294  140.1257  157.0264 H   0  0  0  0  0  0  0  0  0  0  0  0  # atno 8010 bound_to 7997
  139.4898  144.5789  151.6910 H   0  0  0  0  0  0  0  0  0  0  0  0  # atno 10167 bound_to 10162
  156.3542  130.4313  149.7678 H   0  0  0  0  0  0  0  0  0  0  0  0  # atno 10718 bound_to 10713
  154.3959  135.2754  155.2126 H   0  0  0  0  0  0  0  0  0  0  0  0  # atno 10763 bound_to 10752
  154.4172  135.6008  153.5992 H   0  0  0  0  0  0  0  0  0  0  0  0  # atno 10764 bound_to 10752
  152.9831  135.5964  154.4220 H   0  0  0  0  0  0  0  0  0  0  0  0  # atno 10765 bound_to 10752
  140.7165  134.3775  157.5190 H   0  0  0  0  0  0  0  0  0  0  0  0  # atno 11005 bound_to 11000
  144.9716  140.8374  143.5452 LP  0  0  0  0  0  0  0  0  0  0  0  0  # atno 17320 bound_to 7965
  145.2080  139.2219  143.5158 LP  0  0  0  0  0  0  0  0  0  0  0  0  # atno 17321 bound_to 7965
  140.5391  144.0607  150.6082 LP  0  0  0  0  0  0  0  0  0  0  0  0  # atno 17342 bound_to 10162
  140.3624  143.2901  152.0369 LP  0  0  0  0  0  0  0  0  0  0  0  0  # atno 17343 bound_to 10162
  156.4867  130.8066  151.3078 LP  0  0  0  0  0  0  0  0  0  0  0  0  # atno 17370 bound_to 10713
  157.7465  130.9988  150.2868 LP  0  0  0  0  0  0  0  0  0  0  0  0  # atno 17371 bound_to 10713
  139.8858  134.8926  156.2619 LP  0  0  0  0  0  0  0  0  0  0  0  0  # atno 17394 bound_to 11000
  141.0040  133.7134  156.1005 LP  0  0  0  0  0  0  0  0  0  0  0  0  # atno 17395 bound_to 11000

$$$$
