AV-unprocessed.smi:1504|AV-procd|sdf|6071|dock9
  -GOLD-   22720 6193D 1   1.00000     0.00000
 Structure written by MMmdl.
 39 40  0  0  0  0  0  0  0  0  1 V2000
  145.9737  138.6332  153.9157 O   0  0  0  0  0  0  0  0  0  0  0  0
  146.8458  137.9172  153.4235 C   0  0  0  0  0  0  0  0  0  0  0  0
  146.5983  136.7681  152.7804 N   0  0  0  0  0  0  0  0  0  0  0  0
  145.2729  136.1886  152.5819 C   0  0  0  0  0  0  0  0  0  0  0  0
  145.0855  135.5701  151.1819 C   0  0  0  0  0  0  0  0  0  0  0  0
  144.8751  134.0657  151.2031 C   0  0  0  0  0  0  0  0  0  0  0  0
  145.9226  133.1956  151.5745 C   0  0  0  0  0  0  0  0  0  0  0  0
  145.6739  131.8096  151.5803 C   0  0  0  0  0  0  0  0  0  0  0  0
  144.3942  131.3490  151.2155 C   0  0  0  0  0  0  0  0  0  0  0  0
  143.4163  132.2992  150.8595 C   0  0  0  0  0  0  0  0  0  0  0  0
  143.6440  133.6304  150.8518 N   0  0  0  0  0  0  0  0  0  0  0  0
  148.1576  138.1885  153.4708 N   0  0  0  0  0  0  0  0  0  0  0  0
  148.7558  139.3653  154.0944 C   0  0  0  0  0  0  0  0  0  0  0  0
  150.0196  139.0211  154.9085 C   0  0  2  0  0  0  0  0  0  0  0  0
  150.6510  140.2286  155.6346 C   0  0  0  0  0  0  0  0  0  0  0  0
  152.0352  139.8245  156.1497 C   0  0  0  0  0  0  0  0  0  0  0  0
  152.7036  138.6666  154.9002 S   0  0  0  0  0  0  0  0  0  0  0  0
  153.6125  139.3902  153.9983 O   0  0  0  0  0  0  0  0  0  0  0  0
  153.1295  137.4295  155.5720 O   0  0  0  0  0  0  0  0  0  0  0  0
  151.1117  138.3811  154.0356 C   0  0  0  0  0  0  0  0  0  0  0  0
  147.3810  136.2514  152.4065 H   0  0  0  0  0  0  0  0  0  0  0  0
  145.1380  135.4165  153.3397 H   0  0  0  0  0  0  0  0  0  0  0  0
  144.5045  136.9400  152.7700 H   0  0  0  0  0  0  0  0  0  0  0  0
  144.2338  136.0385  150.6872 H   0  0  0  0  0  0  0  0  0  0  0  0
  145.9519  135.7979  150.5594 H   0  0  0  0  0  0  0  0  0  0  0  0
  146.8933  133.5799  151.8518 H   0  0  0  0  0  0  0  0  0  0  0  0
  146.4506  131.1130  151.8590 H   0  0  0  0  0  0  0  0  0  0  0  0
  144.1677  130.2931  151.2071 H   0  0  0  0  0  0  0  0  0  0  0  0
  142.4246  131.9810  150.5737 H   0  0  0  0  0  0  0  0  0  0  0  0
  148.7924  137.5351  153.0355 H   0  0  0  0  0  0  0  0  0  0  0  0
  149.0187  140.0578  153.2943 H   0  0  0  0  0  0  0  0  0  0  0  0
  148.0271  139.8864  154.7179 H   0  0  0  0  0  0  0  0  0  0  0  0
  149.7489  138.2901  155.6722 H   0  0  0  0  0  0  0  0  0  0  0  0
  150.7645  141.0520  154.9281 H   0  0  0  0  0  0  0  0  0  0  0  0
  150.0233  140.5911  156.4488 H   0  0  0  0  0  0  0  0  0  0  0  0
  152.7087  140.6716  156.2812 H   0  0  0  0  0  0  0  0  0  0  0  0
  151.9545  139.2898  157.0964 H   0  0  0  0  0  0  0  0  0  0  0  0
  150.9571  137.3135  153.8786 H   0  0  0  0  0  0  0  0  0  0  0  0
  151.1734  138.8679  153.0619 H   0  0  0  0  0  0  0  0  0  0  0  0
  1  2  2  0  0  0  0
  2  3  1  0  0  0  0
  2 12  1  0  0  0  0
  3  4  1  0  0  0  0
  3 21  1  0  0  0  0
  4  5  1  0  0  0  0
  4 22  1  0  0  0  0
  4 23  1  0  0  0  0
  5  6  1  0  0  0  0
  5 24  1  0  0  0  0
  5 25  1  0  0  0  0
  6 11  1  0  0  0  0
  6  7  2  0  0  0  0
  7  8  1  0  0  0  0
  7 26  1  0  0  0  0
  8  9  2  0  0  0  0
  8 27  1  0  0  0  0
  9 10  1  0  0  0  0
  9 28  1  0  0  0  0
 10 11  2  0  0  0  0
 10 29  1  0  0  0  0
 12 13  1  0  0  0  0
 12 30  1  0  0  0  0
 13 14  1  0  0  0  0
 13 31  1  0  0  0  0
 13 32  1  0  0  0  0
 14 20  1  0  0  0  0
 14 15  1  0  0  0  0
 14 33  1  0  0  0  0
 15 16  1  0  0  0  0
 15 34  1  0  0  0  0
 15 35  1  0  0  0  0
 16 17  1  0  0  0  0
 16 36  1  0  0  0  0
 16 37  1  0  0  0  0
 17 18  2  0  0  0  0
 17 19  2  0  0  0  0
 17 20  1  0  0  0  0
 20 38  1  0  0  0  0
 20 39  1  0  0  0  0
M  END
> <s_m_source_file>
AV-unprocessed.smi

> <i_m_source_file_index>
1504

> <i_lp_mmshare_version>
43012

> <i_f3d_flags>
0

> <s_epik_input>
Tz1TMSg9TylbQ0gyXVtDSDJdW0NASF0oW0NIMl0xKVtDSDJdW05IXUMoPU8pW05IXVtDSDJdW0NIMl1jMltjSF1bY0hdW2NIXVtjSF1uMg==

> <s_epik_cmdline>
J2VwaWtfcHl0aG9uJywgJy1waCcsICc3LjAnLCAnLXRuJywgJzgnLCAnLW1hJywgJzIwMCcsICctbWV0YWxfYmluZGluZycsICctaW1hZScsICc8aW5maWxlLm1hZT4nLCAnLW9tYWUnLCAnPG91dGZpbGUubWFlPic=

> <r_epik_Ionization_Penalty>
0.0431785

> <r_epik_Ionization_Penalty_Charging>
0

> <r_epik_Ionization_Penalty_Neutral>
0.0431785

> <r_epik_State_Penalty>
0.0364691

> <r_epik_Charging_Adjusted_Penalty>
0.0364691

> <i_epik_Tot_Q>
0

> <i_epik_Tot_abs_Q>
0

> <r_epik_Metal_State_Penalty>
0.0339827

> <b_epik_Metal_Only>
0

> <s_lp_Force_Field>
OPLS_2005

> <r_lp_Energy>
2.61241

> <b_lp_Chiralities_Consistent>
1

> <s_lp_Variant>
AV-unprocessed.smi:1504-1

> <Gold.Version>
5.8.1

> <Gold.Id.Protein>
6NUR|6NUR_protein|mol2

> <Gold.PLP.Fitness>
47.9664

> <Gold.PLP.PLP>
-36.2772

> <Gold.PLP.part.hbond>
-5.5680

> <Gold.PLP.part.metal>
0.0000

> <Gold.PLP.part.buried>
-3.3456

> <Gold.PLP.part.nonpolar>
-30.9385

> <Gold.PLP.part.repulsive>
2.5842

> <Gold.PLP.ligand.clash>
0.0000

> <Gold.PLP.ligand.torsion>
0.7005

> <Gold.PLP.Chemscore.Hbond>
3.0853

> <Gold.PLP.Chemscore.CHOScore>
1.2724

> <Gold.PLP.Chemscore.Metal>
0.0000

> <Gold.Chemscore.Hbonds>
donor molecule, donor type, donor heavy atom, donor atom, acceptor molecule, acceptor atom, score
      L1  H     3    21       P1  7948  0.99
      L1  H    12    30       P1  7948  0.93
      P1  H  7997  8008       L1    18  0.23
      P1  H 10752 10764       L1    19  0.20
      L1  C    10    29       P1 10952  1.00

> <Gold.PLP.Chemscore.Internal.Correction>
0.0170

> <Gold.Rescore>
     Score         DG    S(hbond)    S(metal)    S(lipo)     H(rot)  DE(clash)    DE(int)     intcor
     20.38     -21.42       3.42        0.00      80.38       1.91       0.12       0.92       ----

> <Gold.Chemscore.Fitness>
20.3794

> <Gold.Chemscore.DG>
-21.4199

> <Gold.Chemscore.ZeroCoef>
-5.4800

> <Gold.Chemscore.Hbond>
3.4211

> <Gold.Chemscore.Metal>
0.0000

> <Gold.Chemscore.Lipo>
80.3773

> <Gold.Chemscore.Internal_Hbond>
0.0000

> <Gold.Chemscore.DEClash>
0.1243

> <Gold.Chemscore.DEInternal>
0.9162

> <Gold.Chemscore.Rot>
1.9105

> <Gold.Chemscore.Internal.Correction>
   9.000000E+99

> <Gold.Chemscore.Hbonds>
donor molecule, donor type, donor heavy atom, donor atom, acceptor molecule, acceptor atom, score
      L1  H     3    21       P1  7948  0.94
      L1  H    12    30       P1  7948  0.90
      P1  H 10752 10764       L1    19  0.21

> <Gold.Chemscore.Hbond.Weighted>
-11.4265

> <Gold.Chemscore.Metal.Weighted>
-0.0000

> <Gold.Chemscore.Lipo.Weighted>
-9.4041

> <Gold.Chemscore.Internal_Hbond.Weighted>
0.0000

> <Gold.Chemscore.DEClash.Weighted>
0.1243

> <Gold.Chemscore.DEInternal.Weighted>
0.9162

> <Gold.Chemscore.Rot.Weighted>
4.8908

> <Gold.Chemscore.Internal.Correction.Weighted>
   9.000000E+99

> <Gold.Protein.RotatedTorsions>
[ 6907 6896 6895 6894 ] final  112.90 input  -60.11 | X-H torsion
[ 7974 7965 7964 7962 ] final   30.59 input  175.53 | X-H torsion
[ 8008 7997 7996 7995 ] final  -10.11 input   59.86 | X-H torsion
[ 10167 10162 10161 10158 ] final  -31.34 input  -65.29 | X-H torsion
[ 10718 10713 10712 10709 ] final  -43.10 input   66.30 | X-H torsion
[ 10763 10752 10751 10750 ] final   -0.16 input  -60.55 | X-H torsion
[ 11005 11000 10999 10996 ] final   37.61 input  -57.11 | X-H torsion

> <Gold.Protein.ActiveResidues>
 VAL166  LYS551  ARG553  GLY616  TRP617  ASP618  TYR619  PRO620  LYS621  CYS622 
 ASP623  PHE694  ASN695  SER759  ASP760  ASP761  ALA762  ILE779  LEU786  VAL792 
 PHE793  MET794  SER795  GLU796  ALA797  LYS798  CYS799  TRP800  GLU811  SER814 

> <Gold.Protein.RotatedAtoms>
  152.4891  133.8451  159.7172 H   0  0  0  0  0  0  0  0  0  0  0  0  # atno 6907 bound_to 6896
  150.9004  133.7117  159.2887 H   0  0  0  0  0  0  0  0  0  0  0  0  # atno 6908 bound_to 6896
  151.4560  135.1038  159.9763 H   0  0  0  0  0  0  0  0  0  0  0  0  # atno 6909 bound_to 6896
  146.1602  139.6768  142.9039 H   0  0  0  0  0  0  0  0  0  0  0  0  # atno 7974 bound_to 7965
  154.5585  140.2337  155.8373 H   0  0  0  0  0  0  0  0  0  0  0  0  # atno 8008 bound_to 7997
  156.2009  140.3053  155.9484 H   0  0  0  0  0  0  0  0  0  0  0  0  # atno 8009 bound_to 7997
  155.2934  140.0428  157.3015 H   0  0  0  0  0  0  0  0  0  0  0  0  # atno 8010 bound_to 7997
  140.7237  143.3778  151.1656 H   0  0  0  0  0  0  0  0  0  0  0  0  # atno 10167 bound_to 10162
  156.2525  130.4189  149.8633 H   0  0  0  0  0  0  0  0  0  0  0  0  # atno 10718 bound_to 10713
  153.3284  135.6973  153.6969 H   0  0  0  0  0  0  0  0  0  0  0  0  # atno 10763 bound_to 10752
  153.5782  135.3503  155.2865 H   0  0  0  0  0  0  0  0  0  0  0  0  # atno 10764 bound_to 10752
  154.8613  135.4288  154.2466 H   0  0  0  0  0  0  0  0  0  0  0  0  # atno 10765 bound_to 10752
  140.2208  134.3643  155.8006 H   0  0  0  0  0  0  0  0  0  0  0  0  # atno 11005 bound_to 11000
  145.4607  141.0432  143.2753 LP  0  0  0  0  0  0  0  0  0  0  0  0  # atno 17320 bound_to 7965
  144.8017  139.6128  143.7069 LP  0  0  0  0  0  0  0  0  0  0  0  0  # atno 17321 bound_to 7965
  139.7362  143.8995  152.3035 LP  0  0  0  0  0  0  0  0  0  0  0  0  # atno 17342 bound_to 10162
  139.8801  144.7022  150.8887 LP  0  0  0  0  0  0  0  0  0  0  0  0  # atno 17343 bound_to 10162
  156.6177  130.8613  151.3468 LP  0  0  0  0  0  0  0  0  0  0  0  0  # atno 17370 bound_to 10713
  157.7220  130.9571  150.1477 LP  0  0  0  0  0  0  0  0  0  0  0  0  # atno 17371 bound_to 10713
  141.2223  133.7192  156.8572 LP  0  0  0  0  0  0  0  0  0  0  0  0  # atno 17394 bound_to 11000
  140.1852  134.9005  157.2995 LP  0  0  0  0  0  0  0  0  0  0  0  0  # atno 17395 bound_to 11000

$$$$
