AV-unprocessed.smi:232|AV-procd|sdf|1777|dock5
  -GOLD-   2262020323D 1   1.00000     0.00000
 Structure written by MMmdl.
 52 55  0  0  0  0  0  0  0  0  1 V2000
  152.0219  144.2251  157.9820 C   0  0  0  0  0  0  0  0  0  0  0  0
  151.3440  142.8580  157.8296 C   0  0  0  0  0  0  0  0  0  0  0  0
  151.7431  141.8587  158.9353 C   0  0  2  0  0  0  0  0  0  0  0  0
  152.4426  142.5065  160.1395 C   0  0  0  0  0  0  0  0  0  0  0  0
  153.4290  141.4445  160.6405 C   0  0  0  0  0  0  0  0  0  0  0  0
  153.2347  140.2576  159.6903 C   0  0  2  0  0  0  0  0  0  0  0  0
  154.5202  139.4510  159.4434 C   0  0  0  0  0  0  0  0  0  0  0  0
  152.6841  140.8441  158.4749 N   0  0  0  0  0  0  0  0  0  0  0  0
  152.1980  139.9588  157.5739 C   0  0  0  0  0  0  0  0  0  0  0  0
  152.4997  140.0788  156.2536 N   0  0  0  0  0  0  0  0  0  0  0  0
  152.0071  139.1998  155.3751 C   0  0  0  0  0  0  0  0  0  0  0  0
  151.2123  138.1504  155.5990 N   0  0  0  0  0  0  0  0  0  0  0  0
  150.9125  138.0302  156.9246 C   0  0  0  0  0  0  0  0  0  0  0  0
  151.3606  138.8845  157.9697 C   0  0  0  0  0  0  0  0  0  0  0  0
  150.8555  138.4548  159.1901 N   0  0  0  0  0  0  0  0  0  0  0  0
  150.1484  137.4007  158.8842 C   0  0  0  0  0  0  0  0  0  0  0  0
  150.1285  137.0751  157.5468 N   0  0  0  0  0  0  0  0  0  0  0  0
  149.4294  135.9576  156.9381 C   0  0  0  0  0  0  0  0  0  0  0  0
  150.3868  134.8324  156.4980 C   0  0  2  0  0  0  0  0  0  0  0  0
  151.3239  135.3503  155.5729 O   0  0  0  0  0  0  0  0  0  0  0  0
  149.6395  133.6540  155.8464 C   0  0  1  0  0  0  0  0  0  0  0  0
  149.2629  133.8766  154.3799 C   0  0  0  0  0  0  0  0  0  0  0  0
  149.1482  132.4577  153.8727 C   0  0  0  0  0  0  0  0  0  0  0  0
  150.2945  131.7723  154.6088 C   0  0  0  0  0  0  0  0  0  0  0  0
  150.4660  132.4914  155.8273 O   0  0  0  0  0  0  0  0  0  0  0  0
  151.6825  144.9132  157.2075 H   0  0  0  0  0  0  0  0  0  0  0  0
  153.1061  144.1450  157.9005 H   0  0  0  0  0  0  0  0  0  0  0  0
  151.7900  144.6726  158.9488 H   0  0  0  0  0  0  0  0  0  0  0  0
  150.2643  143.0106  157.8429 H   0  0  0  0  0  0  0  0  0  0  0  0
  151.5784  142.4406  156.8495 H   0  0  0  0  0  0  0  0  0  0  0  0
  150.8442  141.3545  159.2948 H   0  0  0  0  0  0  0  0  0  0  0  0
  152.9929  143.3989  159.8383 H   0  0  0  0  0  0  0  0  0  0  0  0
  151.7271  142.8022  160.9074 H   0  0  0  0  0  0  0  0  0  0  0  0
  154.4466  141.8330  160.5786 H   0  0  0  0  0  0  0  0  0  0  0  0
  153.2440  141.1616  161.6771 H   0  0  0  0  0  0  0  0  0  0  0  0
  152.4856  139.5954  160.1282 H   0  0  0  0  0  0  0  0  0  0  0  0
  154.9297  139.0762  160.3813 H   0  0  0  0  0  0  0  0  0  0  0  0
  155.2856  140.0628  158.9651 H   0  0  0  0  0  0  0  0  0  0  0  0
  154.3327  138.5901  158.8011 H   0  0  0  0  0  0  0  0  0  0  0  0
  152.2902  139.3603  154.3454 H   0  0  0  0  0  0  0  0  0  0  0  0
  149.6193  136.8262  159.6308 H   0  0  0  0  0  0  0  0  0  0  0  0
  148.7071  135.5786  157.6622 H   0  0  0  0  0  0  0  0  0  0  0  0
  148.8521  136.3252  156.0887 H   0  0  0  0  0  0  0  0  0  0  0  0
  150.9388  134.4705  157.3666 H   0  0  0  0  0  0  0  0  0  0  0  0
  150.8546  135.8294  154.9069 H   0  0  0  0  0  0  0  0  0  0  0  0
  148.7397  133.4122  156.4149 H   0  0  0  0  0  0  0  0  0  0  0  0
  148.3424  134.4481  154.2583 H   0  0  0  0  0  0  0  0  0  0  0  0
  150.0618  134.3979  153.8500 H   0  0  0  0  0  0  0  0  0  0  0  0
  148.1934  132.0270  154.1776 H   0  0  0  0  0  0  0  0  0  0  0  0
  149.2297  132.3799  152.7883 H   0  0  0  0  0  0  0  0  0  0  0  0
  150.0950  130.7168  154.7950 H   0  0  0  0  0  0  0  0  0  0  0  0
  151.2169  131.8462  154.0318 H   0  0  0  0  0  0  0  0  0  0  0  0
  1  2  1  0  0  0  0
  1 26  1  0  0  0  0
  1 27  1  0  0  0  0
  1 28  1  0  0  0  0
  2  3  1  0  0  0  0
  2 29  1  0  0  0  0
  2 30  1  0  0  0  0
  3  8  1  0  0  0  0
  3  4  1  0  0  0  0
  3 31  1  0  0  0  0
  4  5  1  0  0  0  0
  4 32  1  0  0  0  0
  4 33  1  0  0  0  0
  5  6  1  0  0  0  0
  5 34  1  0  0  0  0
  5 35  1  0  0  0  0
  6  7  1  0  0  0  0
  6  8  1  0  0  0  0
  6 36  1  0  0  0  0
  7 37  1  0  0  0  0
  7 38  1  0  0  0  0
  7 39  1  0  0  0  0
  8  9  1  0  0  0  0
  9 14  1  0  0  0  0
  9 10  2  0  0  0  0
 10 11  1  0  0  0  0
 11 12  2  0  0  0  0
 11 40  1  0  0  0  0
 12 13  1  0  0  0  0
 13 17  1  0  0  0  0
 13 14  2  0  0  0  0
 14 15  1  0  0  0  0
 15 16  2  0  0  0  0
 16 17  1  0  0  0  0
 16 41  1  0  0  0  0
 17 18  1  0  0  0  0
 18 19  1  0  0  0  0
 18 42  1  0  0  0  0
 18 43  1  0  0  0  0
 19 20  1  0  0  0  0
 19 21  1  0  0  0  0
 19 44  1  0  0  0  0
 20 45  1  0  0  0  0
 21 25  1  0  0  0  0
 21 22  1  0  0  0  0
 21 46  1  0  0  0  0
 22 23  1  0  0  0  0
 22 47  1  0  0  0  0
 22 48  1  0  0  0  0
 23 24  1  0  0  0  0
 23 49  1  0  0  0  0
 23 50  1  0  0  0  0
 24 25  1  0  0  0  0
 24 51  1  0  0  0  0
 24 52  1  0  0  0  0
M  END
> <s_m_source_file>
AV-unprocessed.smi

> <i_m_source_file_index>
232

> <i_lp_mmshare_version>
43012

> <i_f3d_flags>
0

> <s_epik_input>
W0NIM11bQ0gyXVtDQEBIXTFbQ0gyXVtDSDJdW0NAQEhdKFtDSDNdKU4xYyhuW2NIXW4yKWMoYzIzKW5bY0hdbjNbQ0gyXVtDQEhdKFtPSF0pW0NAQEhdNFtDSDJdW0NIMl1bQ0gyXU80

> <s_epik_cmdline>
J2VwaWtfcHl0aG9uJywgJy1waCcsICc3LjAnLCAnLXRuJywgJzgnLCAnLW1hJywgJzIwMCcsICctbWV0YWxfYmluZGluZycsICctaW1hZScsICc8aW5maWxlLm1hZT4nLCAnLW9tYWUnLCAnPG91dGZpbGUubWFlPic=

> <r_lp_tautomer_probability>
1

> <r_epik_Ionization_Penalty>
0.00258048

> <r_epik_Ionization_Penalty_Charging>
0

> <r_epik_Ionization_Penalty_Neutral>
0.00258048

> <r_epik_State_Penalty>
0.00168551

> <r_epik_Charging_Adjusted_Penalty>
0.00168551

> <i_epik_Tot_Q>
0

> <i_epik_Tot_abs_Q>
0

> <r_epik_Metal_State_Penalty>
-0

> <b_epik_Metal_Only>
0

> <s_lp_Force_Field>
OPLS_2005

> <r_lp_Energy>
51.1515

> <b_lp_Chiralities_Consistent>
1

> <s_lp_Variant>
AV-unprocessed.smi:232-11

> <Gold.Version>
5.8.1

> <Gold.Id.Protein>
6NUR|6NUR_protein|mol2

> <Gold.PLP.Fitness>
44.9502

> <Gold.PLP.PLP>
-41.9073

> <Gold.PLP.part.hbond>
-2.7112

> <Gold.PLP.part.metal>
0.0000

> <Gold.PLP.part.buried>
-4.4546

> <Gold.PLP.part.nonpolar>
-34.2368

> <Gold.PLP.part.repulsive>
0.0261

> <Gold.PLP.ligand.clash>
0.0000

> <Gold.PLP.ligand.torsion>
1.5193

> <Gold.PLP.Chemscore.Hbond>
2.0000

> <Gold.PLP.Chemscore.CHOScore>
0.0000

> <Gold.PLP.Chemscore.Metal>
0.0000

> <Gold.Chemscore.Hbonds>
donor molecule, donor type, donor heavy atom, donor atom, acceptor molecule, acceptor atom, score
      P1  H  7997  8009       L1    10  1.00
      P1  H 10752 10763       L1    20  1.00

> <Gold.PLP.Chemscore.Internal.Correction>
0.0816

> <Gold.Rescore>
     Score         DG    S(hbond)    S(metal)    S(lipo)     H(rot)  DE(clash)    DE(int)     intcor
     10.89     -13.09       0.86        0.00      93.56       2.43       0.00       2.20       ----

> <Gold.Chemscore.Fitness>
10.8913

> <Gold.Chemscore.DG>
-13.0924

> <Gold.Chemscore.ZeroCoef>
-5.4800

> <Gold.Chemscore.Hbond>
0.8612

> <Gold.Chemscore.Metal>
0.0000

> <Gold.Chemscore.Lipo>
93.5623

> <Gold.Chemscore.Internal_Hbond>
0.0000

> <Gold.Chemscore.DEClash>
0.0000

> <Gold.Chemscore.DEInternal>
2.2011

> <Gold.Chemscore.Rot>
2.4260

> <Gold.Chemscore.Internal.Correction>
   9.000000E+99

> <Gold.Chemscore.Hbonds>
donor molecule, donor type, donor heavy atom, donor atom, acceptor molecule, acceptor atom, score
      P1  H  7997  8009       L1    10  0.38
      P1  H 10752 10763       L1    20  0.29

> <Gold.Chemscore.Hbond.Weighted>
-2.8763

> <Gold.Chemscore.Metal.Weighted>
-0.0000

> <Gold.Chemscore.Lipo.Weighted>
-10.9468

> <Gold.Chemscore.Internal_Hbond.Weighted>
0.0000

> <Gold.Chemscore.DEClash.Weighted>
0.0000

> <Gold.Chemscore.DEInternal.Weighted>
2.2011

> <Gold.Chemscore.Rot.Weighted>
6.2107

> <Gold.Chemscore.Internal.Correction.Weighted>
   9.000000E+99

> <Gold.Protein.RotatedTorsions>
[ 6907 6896 6895 6894 ] final  -58.87 input  -60.11 | X-H torsion
[ 7974 7965 7964 7962 ] final   48.66 input  175.53 | X-H torsion
[ 8008 7997 7996 7995 ] final -154.43 input   59.86 | X-H torsion
[ 10167 10162 10161 10158 ] final  117.64 input  -65.29 | X-H torsion
[ 10718 10713 10712 10709 ] final -172.66 input   66.30 | X-H torsion
[ 10763 10752 10751 10750 ] final   83.19 input  -60.55 | X-H torsion
[ 11005 11000 10999 10996 ] final  -81.69 input  -57.11 | X-H torsion

> <Gold.Protein.ActiveResidues>
 VAL166  LYS551  ARG553  GLY616  TRP617  ASP618  TYR619  PRO620  LYS621  CYS622 
 ASP623  PHE694  ASN695  SER759  ASP760  ASP761  ALA762  ILE779  LEU786  VAL792 
 PHE793  MET794  SER795  GLU796  ALA797  LYS798  CYS799  TRP800  GLU811  SER814 

> <Gold.Protein.RotatedAtoms>
  150.7974  134.7043  159.6567 H   0  0  0  0  0  0  0  0  0  0  0  0  # atno 6907 bound_to 6896
  152.4087  134.6158  160.0047 H   0  0  0  0  0  0  0  0  0  0  0  0  # atno 6908 bound_to 6896
  151.6408  133.3289  159.3166 H   0  0  0  0  0  0  0  0  0  0  0  0  # atno 6909 bound_to 6896
  146.0183  139.4622  142.9913 H   0  0  0  0  0  0  0  0  0  0  0  0  # atno 7974 bound_to 7965
  155.6862  140.0750  157.2465 H   0  0  0  0  0  0  0  0  0  0  0  0  # atno 8008 bound_to 7997
  154.4096  140.1673  156.2089 H   0  0  0  0  0  0  0  0  0  0  0  0  # atno 8009 bound_to 7997
  155.9491  140.3378  155.6396 H   0  0  0  0  0  0  0  0  0  0  0  0  # atno 8010 bound_to 7997
  139.6165  144.7093  151.2728 H   0  0  0  0  0  0  0  0  0  0  0  0  # atno 10167 bound_to 10162
  156.7588  130.9405  151.3117 H   0  0  0  0  0  0  0  0  0  0  0  0  # atno 10718 bound_to 10713
  153.1269  135.4700  154.9287 H   0  0  0  0  0  0  0  0  0  0  0  0  # atno 10763 bound_to 10752
  154.7628  135.3136  154.8347 H   0  0  0  0  0  0  0  0  0  0  0  0  # atno 10764 bound_to 10752
  153.8898  135.6886  153.4815 H   0  0  0  0  0  0  0  0  0  0  0  0  # atno 10765 bound_to 10752
  141.1666  133.7208  156.8460 H   0  0  0  0  0  0  0  0  0  0  0  0  # atno 11005 bound_to 11000
  145.7233  141.0067  143.1391 LP  0  0  0  0  0  0  0  0  0  0  0  0  # atno 17320 bound_to 7965
  144.6980  139.8896  143.7452 LP  0  0  0  0  0  0  0  0  0  0  0  0  # atno 17321 bound_to 7965
  140.7354  143.6737  150.8060 LP  0  0  0  0  0  0  0  0  0  0  0  0  # atno 17342 bound_to 10162
  140.0341  143.5413  152.2747 LP  0  0  0  0  0  0  0  0  0  0  0  0  # atno 17343 bound_to 10162
  157.6744  130.9081  150.0115 LP  0  0  0  0  0  0  0  0  0  0  0  0  # atno 17370 bound_to 10713
  156.1353  130.3643  149.9667 LP  0  0  0  0  0  0  0  0  0  0  0  0  # atno 17371 bound_to 10713
  140.1949  134.8939  157.3103 LP  0  0  0  0  0  0  0  0  0  0  0  0  # atno 17394 bound_to 11000
  140.2250  134.3978  155.7548 LP  0  0  0  0  0  0  0  0  0  0  0  0  # atno 17395 bound_to 11000

$$$$
