AV-unprocessed.smi:1474|AV-procd|sdf|5974|dock3
  -GOLD-   22720 6 63D 1   1.00000     0.00000
 Structure written by MMmdl.
 43 44  0  0  0  0  0  0  0  0  1 V2000
  152.1031  144.9860  158.5743 C   0  0  0  0  0  0  0  0  0  0  0  0
  151.0602  144.0989  158.2101 O   0  0  0  0  0  0  0  0  0  0  0  0
  151.4771  143.1313  157.2615 C   0  0  0  0  0  0  0  0  0  0  0  0
  150.2870  142.2378  156.9030 C   0  0  0  0  0  0  0  0  0  0  0  0
  150.6650  141.3817  155.8291 O   0  0  0  0  0  0  0  0  0  0  0  0
  149.6718  140.7385  155.1191 C   0  0  0  0  0  0  0  0  0  0  0  0
  148.3301  140.9466  155.4991 C   0  0  0  0  0  0  0  0  0  0  0  0
  147.3127  140.2820  154.7881 C   0  0  0  0  0  0  0  0  0  0  0  0
  147.6707  139.4370  153.7184 C   0  0  0  0  0  0  0  0  0  0  0  0
  146.6133  138.6755  152.9400 C   0  0  0  0  0  0  0  0  0  0  0  0
  146.8446  137.2362  152.9547 N   0  0  0  0  0  0  0  0  0  0  0  0
  146.0605  136.3409  153.5757 C   0  0  0  0  0  0  0  0  0  0  0  0
  145.0852  136.6637  154.2548 O   0  0  0  0  0  0  0  0  0  0  0  0
  146.4419  134.8591  153.3989 C   0  0  2  0  0  0  0  0  0  0  0  0
  146.3403  134.4095  151.9294 C   0  0  0  0  0  0  0  0  0  0  0  0
  144.8876  134.3202  151.4245 C   0  0  0  0  0  0  0  0  0  0  0  0
  143.9265  133.6621  152.4257 C   0  0  0  0  0  0  0  0  0  0  0  0
  142.8316  133.2621  152.0375 O   0  0  0  0  0  0  0  0  0  0  0  0
  144.2878  133.5755  153.7181 N   0  0  0  0  0  0  0  0  0  0  0  0
  145.5984  133.9096  154.2801 C   0  0  0  0  0  0  0  0  0  0  0  0
  149.0398  139.2970  153.4095 C   0  0  0  0  0  0  0  0  0  0  0  0
  150.0208  139.9284  154.0885 N   0  0  0  0  0  0  0  0  0  0  0  0
  151.7312  145.7112  159.2980 H   0  0  0  0  0  0  0  0  0  0  0  0
  152.4748  145.5352  157.7085 H   0  0  0  0  0  0  0  0  0  0  0  0
  152.9349  144.4495  159.0325 H   0  0  0  0  0  0  0  0  0  0  0  0
  151.8541  143.6262  156.3649 H   0  0  0  0  0  0  0  0  0  0  0  0
  152.2877  142.5269  157.6715 H   0  0  0  0  0  0  0  0  0  0  0  0
  149.9920  141.6500  157.7737 H   0  0  0  0  0  0  0  0  0  0  0  0
  149.4390  142.8591  156.6101 H   0  0  0  0  0  0  0  0  0  0  0  0
  148.0866  141.5983  156.3252 H   0  0  0  0  0  0  0  0  0  0  0  0
  146.2769  140.4154  155.0634 H   0  0  0  0  0  0  0  0  0  0  0  0
  145.6379  138.8724  153.3859 H   0  0  0  0  0  0  0  0  0  0  0  0
  146.5613  139.0417  151.9132 H   0  0  0  0  0  0  0  0  0  0  0  0
  147.6334  136.8933  152.4256 H   0  0  0  0  0  0  0  0  0  0  0  0
  147.4822  134.7592  153.7135 H   0  0  0  0  0  0  0  0  0  0  0  0
  146.9082  135.0856  151.2886 H   0  0  0  0  0  0  0  0  0  0  0  0
  146.8145  133.4330  151.8234 H   0  0  0  0  0  0  0  0  0  0  0  0
  144.5085  135.3205  151.2128 H   0  0  0  0  0  0  0  0  0  0  0  0
  144.8564  133.7751  150.4807 H   0  0  0  0  0  0  0  0  0  0  0  0
  143.6150  133.1787  154.3582 H   0  0  0  0  0  0  0  0  0  0  0  0
  146.1405  132.9744  154.4239 H   0  0  0  0  0  0  0  0  0  0  0  0
  145.4549  134.3312  155.2759 H   0  0  0  0  0  0  0  0  0  0  0  0
  149.3589  138.6523  152.6039 H   0  0  0  0  0  0  0  0  0  0  0  0
  1  2  1  0  0  0  0
  1 23  1  0  0  0  0
  1 24  1  0  0  0  0
  1 25  1  0  0  0  0
  2  3  1  0  0  0  0
  3  4  1  0  0  0  0
  3 26  1  0  0  0  0
  3 27  1  0  0  0  0
  4  5  1  0  0  0  0
  4 28  1  0  0  0  0
  4 29  1  0  0  0  0
  5  6  1  0  0  0  0
  6 22  1  0  0  0  0
  6  7  2  0  0  0  0
  7  8  1  0  0  0  0
  7 30  1  0  0  0  0
  8  9  2  0  0  0  0
  8 31  1  0  0  0  0
  9 10  1  0  0  0  0
  9 21  1  0  0  0  0
 10 11  1  0  0  0  0
 10 32  1  0  0  0  0
 10 33  1  0  0  0  0
 11 12  1  0  0  0  0
 11 34  1  0  0  0  0
 12 13  2  0  0  0  0
 12 14  1  0  0  0  0
 14 20  1  0  0  0  0
 14 15  1  0  0  0  0
 14 35  1  0  0  0  0
 15 16  1  0  0  0  0
 15 36  1  0  0  0  0
 15 37  1  0  0  0  0
 16 17  1  0  0  0  0
 16 38  1  0  0  0  0
 16 39  1  0  0  0  0
 17 18  2  0  0  0  0
 17 19  1  0  0  0  0
 19 20  1  0  0  0  0
 19 40  1  0  0  0  0
 20 41  1  0  0  0  0
 20 42  1  0  0  0  0
 21 22  2  0  0  0  0
 21 43  1  0  0  0  0
M  END
> <s_m_source_file>
AV-unprocessed.smi

> <i_m_source_file_index>
1474

> <i_lp_mmshare_version>
43012

> <i_f3d_flags>
0

> <s_epik_input>
W0NIM11PW0NIMl1bQ0gyXU9jMVtjSF1bY0hdYyhbY0hdbjEpW0NIMl1bTkhdQyg9TylbQ0BASF0yW0NIMl1bQ0gyXUMoPU8pW05IXVtDSDJdMg==

> <s_epik_cmdline>
J2VwaWtfcHl0aG9uJywgJy1waCcsICc3LjAnLCAnLXRuJywgJzgnLCAnLW1hJywgJzIwMCcsICctbWV0YWxfYmluZGluZycsICctaW1hZScsICc8aW5maWxlLm1hZT4nLCAnLW9tYWUnLCAnPG91dGZpbGUubWFlPic=

> <r_lp_tautomer_probability>
1

> <r_epik_Ionization_Penalty>
6.19599e-05

> <r_epik_Ionization_Penalty_Charging>
0

> <r_epik_Ionization_Penalty_Neutral>
6.19599e-05

> <r_epik_State_Penalty>
-0

> <r_epik_Charging_Adjusted_Penalty>
0

> <i_epik_Tot_Q>
0

> <i_epik_Tot_abs_Q>
0

> <r_epik_Metal_State_Penalty>
-0

> <b_epik_Metal_Only>
0

> <s_lp_Force_Field>
OPLS_2005

> <r_lp_Energy>
10.5341

> <b_lp_Chiralities_Consistent>
1

> <s_lp_Variant>
AV-unprocessed.smi:1474-1

> <Gold.Version>
5.8.1

> <Gold.Id.Protein>
6NUR|6NUR_protein|mol2

> <Gold.PLP.Fitness>
39.0930

> <Gold.PLP.PLP>
-26.7124

> <Gold.PLP.part.hbond>
-2.9703

> <Gold.PLP.part.metal>
0.0000

> <Gold.PLP.part.buried>
-0.2995

> <Gold.PLP.part.nonpolar>
-25.7670

> <Gold.PLP.part.repulsive>
1.9577

> <Gold.PLP.ligand.clash>
0.6281

> <Gold.PLP.ligand.torsion>
0.1810

> <Gold.PLP.Chemscore.Hbond>
2.9913

> <Gold.PLP.Chemscore.CHOScore>
1.4109

> <Gold.PLP.Chemscore.Metal>
0.0000

> <Gold.Chemscore.Hbonds>
donor molecule, donor type, donor heavy atom, donor atom, acceptor molecule, acceptor atom, score
      L1  H    11    34       P1  7948  1.00
      L1  H    19    40       P1 10957  0.93
      P1  H  7989  7998       L1    22  0.93
      L1  C    21    43       P1  7948  1.00
      L1  C    21    43       P1  7957  0.38

> <Gold.PLP.Chemscore.Internal.Correction>
0.1643

> <Gold.Rescore>
     Score         DG    S(hbond)    S(metal)    S(lipo)     H(rot)  DE(clash)    DE(int)     intcor
     14.06     -16.08       2.60        0.00      71.42       2.52       1.70       0.33       ----

> <Gold.Chemscore.Fitness>
14.0554

> <Gold.Chemscore.DG>
-16.0846

> <Gold.Chemscore.ZeroCoef>
-5.4800

> <Gold.Chemscore.Hbond>
2.6047

> <Gold.Chemscore.Metal>
0.0000

> <Gold.Chemscore.Lipo>
71.4226

> <Gold.Chemscore.Internal_Hbond>
0.0000

> <Gold.Chemscore.DEClash>
1.7017

> <Gold.Chemscore.DEInternal>
0.3275

> <Gold.Chemscore.Rot>
2.5201

> <Gold.Chemscore.Internal.Correction>
   9.000000E+99

> <Gold.Chemscore.Hbonds>
donor molecule, donor type, donor heavy atom, donor atom, acceptor molecule, acceptor atom, score
      L1  H    11    34       P1  7948  0.97
      L1  H    19    40       P1 10957  0.90
      P1  H  7989  7998       L1    22  0.20

> <Gold.Chemscore.Hbond.Weighted>
-8.6996

> <Gold.Chemscore.Metal.Weighted>
-0.0000

> <Gold.Chemscore.Lipo.Weighted>
-8.3564

> <Gold.Chemscore.Internal_Hbond.Weighted>
0.0000

> <Gold.Chemscore.DEClash.Weighted>
1.7017

> <Gold.Chemscore.DEInternal.Weighted>
0.3275

> <Gold.Chemscore.Rot.Weighted>
6.4514

> <Gold.Chemscore.Internal.Correction.Weighted>
   9.000000E+99

> <Gold.Protein.RotatedTorsions>
[ 6907 6896 6895 6894 ] final -117.77 input  -60.11 | X-H torsion
[ 7974 7965 7964 7962 ] final  -11.90 input  175.53 | X-H torsion
[ 8008 7997 7996 7995 ] final  -93.27 input   59.86 | X-H torsion
[ 10167 10162 10161 10158 ] final   26.30 input  -65.29 | X-H torsion
[ 10718 10713 10712 10709 ] final   25.85 input   66.30 | X-H torsion
[ 10763 10752 10751 10750 ] final  132.19 input  -60.55 | X-H torsion
[ 11005 11000 10999 10996 ] final  163.12 input  -57.11 | X-H torsion

> <Gold.Protein.ActiveResidues>
 VAL166  LYS551  ARG553  GLY616  TRP617  ASP618  TYR619  PRO620  LYS621  CYS622 
 ASP623  PHE694  ASN695  SER759  ASP760  ASP761  ALA762  ILE779  LEU786  VAL792 
 PHE793  MET794  SER795  GLU796  ALA797  LYS798  CYS799  TRP800  GLU811  SER814 

> <Gold.Protein.RotatedAtoms>
  150.8164  133.8330  159.3158 H   0  0  0  0  0  0  0  0  0  0  0  0  # atno 6907 bound_to 6896
  151.6101  135.1039  160.0089 H   0  0  0  0  0  0  0  0  0  0  0  0  # atno 6908 bound_to 6896
  152.4255  133.7147  159.6555 H   0  0  0  0  0  0  0  0  0  0  0  0  # atno 6909 bound_to 6896
  146.2171  140.2979  142.8373 H   0  0  0  0  0  0  0  0  0  0  0  0  # atno 7974 bound_to 7965
  154.7336  140.0500  157.0748 H   0  0  0  0  0  0  0  0  0  0  0  0  # atno 8008 bound_to 7997
  155.0270  140.3153  155.4753 H   0  0  0  0  0  0  0  0  0  0  0  0  # atno 8009 bound_to 7997
  156.2847  140.2157  156.5390 H   0  0  0  0  0  0  0  0  0  0  0  0  # atno 8010 bound_to 7997
  140.5034  144.0278  150.6342 H   0  0  0  0  0  0  0  0  0  0  0  0  # atno 10167 bound_to 10162
  157.1989  130.6880  149.6180 H   0  0  0  0  0  0  0  0  0  0  0  0  # atno 10718 bound_to 10713
  153.7867  135.3161  155.3373 H   0  0  0  0  0  0  0  0  0  0  0  0  # atno 10763 bound_to 10752
  154.8141  135.4648  154.0599 H   0  0  0  0  0  0  0  0  0  0  0  0  # atno 10764 bound_to 10752
  153.1904  135.6907  153.8446 H   0  0  0  0  0  0  0  0  0  0  0  0  # atno 10765 bound_to 10752
  140.2326  134.8112  157.3332 H   0  0  0  0  0  0  0  0  0  0  0  0  # atno 11005 bound_to 11000
  144.9079  140.7722  143.5826 LP  0  0  0  0  0  0  0  0  0  0  0  0  # atno 17320 bound_to 7965
  145.2908  139.1884  143.4741 LP  0  0  0  0  0  0  0  0  0  0  0  0  # atno 17321 bound_to 7965
  140.3581  143.2924  152.0414 LP  0  0  0  0  0  0  0  0  0  0  0  0  # atno 17342 bound_to 10162
  139.4877  144.6324  151.7044 LP  0  0  0  0  0  0  0  0  0  0  0  0  # atno 17343 bound_to 10162
  155.9703  130.4589  150.6018 LP  0  0  0  0  0  0  0  0  0  0  0  0  # atno 17370 bound_to 10713
  157.3787  131.0777  151.1496 LP  0  0  0  0  0  0  0  0  0  0  0  0  # atno 17371 bound_to 10713
  140.1734  134.4579  155.7817 LP  0  0  0  0  0  0  0  0  0  0  0  0  # atno 17394 bound_to 11000
  141.2216  133.6952  156.7747 LP  0  0  0  0  0  0  0  0  0  0  0  0  # atno 17395 bound_to 11000

$$$$
