AV-unprocessed.smi:779|AV-procd|sdf|3705|dock7
  -GOLD-   22720 1123D 1   1.00000     0.00000
 Structure written by MMmdl.
 20 20  0  0  0  0  0  0  0  0  3 V2000
  150.3655  135.8505  155.1911 O   0  0  0  0  0  0  0  0  0  0  0  0
  151.1207  136.8191  155.4332 C   0  0  0  0  0  0  0  0  0  0  0  0
  152.2771  136.7356  155.9039 O   0  5  0  0  0  0  0  0  0  0  0  0
  150.5169  138.2456  155.0750 C   0  0  0  0  0  0  0  0  0  0  0  0
  149.2623  138.4300  154.6113 C   0  0  0  0  0  0  0  0  0  0  0  0
  148.7553  139.6981  154.2872 N   0  0  0  0  0  0  0  0  0  0  0  0
  147.3778  139.7703  153.7824 C   0  0  0  0  0  0  0  0  0  0  0  0
  147.1370  138.7319  152.6754 C   0  0  0  0  0  0  0  0  0  0  0  0
  146.2377  139.2483  151.7179 O   0  0  0  0  0  0  0  0  0  0  0  0
  149.5453  140.8022  154.4166 C   0  0  0  0  0  0  0  0  0  0  0  0
  149.0886  141.9024  154.1020 O   0  0  0  0  0  0  0  0  0  0  0  0
  150.8190  140.6476  154.8888 N   0  5  0  0  0  0  0  0  0  0  0  0
  151.3679  139.4453  155.2364 C   0  0  0  0  0  0  0  0  0  0  0  0
  152.5203  139.3905  155.6654 O   0  0  0  0  0  0  0  0  0  0  0  0
  148.5708  137.6157  154.4504 H   0  0  0  0  0  0  0  0  0  0  0  0
  146.6749  139.6049  154.6004 H   0  0  0  0  0  0  0  0  0  0  0  0
  147.1551  140.7735  153.4147 H   0  0  0  0  0  0  0  0  0  0  0  0
  148.0717  138.4687  152.1794 H   0  0  0  0  0  0  0  0  0  0  0  0
  146.7189  137.8154  153.0929 H   0  0  0  0  0  0  0  0  0  0  0  0
  145.4647  139.5514  152.1687 H   0  0  0  0  0  0  0  0  0  0  0  0
  1  2  2  0  0  0  0
  2  3  1  0  0  0  0
  2  4  1  0  0  0  0
  4 13  1  0  0  0  0
  4  5  2  0  0  0  0
  5  6  1  0  0  0  0
  5 15  1  0  0  0  0
  6  7  1  0  0  0  0
  6 10  1  0  0  0  0
  7  8  1  0  0  0  0
  7 16  1  0  0  0  0
  7 17  1  0  0  0  0
  8  9  1  0  0  0  0
  8 18  1  0  0  0  0
  8 19  1  0  0  0  0
  9 20  1  0  0  0  0
 10 11  2  0  0  0  0
 10 12  1  0  0  0  0
 12 13  1  0  0  0  0
 13 14  2  0  0  0  0
M  CHG  1   3  -1
M  CHG  1  12  -1
M  END
> <s_m_source_file>
AV-unprocessed.smi

> <i_m_source_file_index>
779

> <i_lp_mmshare_version>
43012

> <i_f3d_flags>
0

> <s_epik_input>
Tz1DKFtPSF0pYzFbY0hdbihbQ0gyXVtDSDJdW09IXSljKD1PKVtuSF1jMT1P

> <s_epik_cmdline>
J2VwaWtfcHl0aG9uJywgJy1waCcsICc3LjAnLCAnLXRuJywgJzgnLCAnLW1hJywgJzIwMCcsICctbWV0YWxfYmluZGluZycsICctaW1hZScsICc8aW5maWxlLm1hZT4nLCAnLW9tYWUnLCAnPG91dGZpbGUubWFlPic=

> <r_lp_tautomer_probability>
1

> <r_epik_Ionization_Penalty>
3.89082

> <r_epik_Ionization_Penalty_Charging>
0.00124607

> <r_epik_Ionization_Penalty_Neutral>
3.88958

> <r_epik_State_Penalty>
3.88874

> <r_epik_Charging_Adjusted_Penalty>
3.88999

> <i_epik_Tot_Q>
-2

> <i_epik_Tot_abs_Q>
2

> <r_epik_Metal_State_Penalty>
0.317414

> <b_epik_Metal_Only>
1

> <s_lp_Force_Field>
OPLS_2005

> <r_lp_Energy>
29.4188

> <b_lp_Chiralities_Consistent>
1

> <s_lp_Variant>
AV-unprocessed.smi:779-2

> <Gold.Version>
5.8.1

> <Gold.Id.Protein>
6NUR|6NUR_protein|mol2

> <Gold.PLP.Fitness>
38.6782

> <Gold.PLP.PLP>
-23.8850

> <Gold.PLP.part.hbond>
-5.9969

> <Gold.PLP.part.metal>
0.0000

> <Gold.PLP.part.buried>
0.3765

> <Gold.PLP.part.nonpolar>
-17.6878

> <Gold.PLP.part.repulsive>
0.4690

> <Gold.PLP.ligand.clash>
0.0000

> <Gold.PLP.ligand.torsion>
0.3498

> <Gold.PLP.Chemscore.Hbond>
5.1282

> <Gold.PLP.Chemscore.CHOScore>
0.0352

> <Gold.PLP.Chemscore.Metal>
0.0000

> <Gold.Chemscore.Hbonds>
donor molecule, donor type, donor heavy atom, donor atom, acceptor molecule, acceptor atom, score
      L1  H     9    20       P1 10175  1.00
      P1  H  7989  7998       L1    12  0.85
      P1  H  7997  8010       L1    14  0.96
      P1  H  8011  8017       L1    11  0.46
      P1  H 10752 10765       L1     3  1.98

> <Gold.PLP.Chemscore.Internal.Correction>
0.0027

> <Gold.Rescore>
     Score         DG    S(hbond)    S(metal)    S(lipo)     H(rot)  DE(clash)    DE(int)     intcor
      9.46     -11.89       2.73        0.00      24.24       2.17       0.52       1.91       ----

> <Gold.Chemscore.Fitness>
9.4573

> <Gold.Chemscore.DG>
-11.8870

> <Gold.Chemscore.ZeroCoef>
-5.4800

> <Gold.Chemscore.Hbond>
2.7297

> <Gold.Chemscore.Metal>
0.0000

> <Gold.Chemscore.Lipo>
24.2447

> <Gold.Chemscore.Internal_Hbond>
0.0000

> <Gold.Chemscore.DEClash>
0.5241

> <Gold.Chemscore.DEInternal>
1.9057

> <Gold.Chemscore.Rot>
2.1667

> <Gold.Chemscore.Internal.Correction>
   9.000000E+99

> <Gold.Chemscore.Hbonds>
donor molecule, donor type, donor heavy atom, donor atom, acceptor molecule, acceptor atom, score
      L1  H     9    20       P1 10175  0.91
      P1  H  7989  7998       L1    12  0.04
      P1  H  7997  8010       L1    14  0.91
      P1  H  8011  8017       L1    11  0.34
      P1  H 10752 10765       L1     3  0.37

> <Gold.Chemscore.Hbond.Weighted>
-9.1171

> <Gold.Chemscore.Metal.Weighted>
-0.0000

> <Gold.Chemscore.Lipo.Weighted>
-2.8366

> <Gold.Chemscore.Internal_Hbond.Weighted>
0.0000

> <Gold.Chemscore.DEClash.Weighted>
0.5241

> <Gold.Chemscore.DEInternal.Weighted>
1.9057

> <Gold.Chemscore.Rot.Weighted>
5.5467

> <Gold.Chemscore.Internal.Correction.Weighted>
   9.000000E+99

> <Gold.Protein.RotatedTorsions>
[ 6907 6896 6895 6894 ] final -118.90 input  -60.11 | X-H torsion
[ 7974 7965 7964 7962 ] final  -32.25 input  175.53 | X-H torsion
[ 8008 7997 7996 7995 ] final   87.05 input   59.86 | X-H torsion
[ 10167 10162 10161 10158 ] final  124.74 input  -65.29 | X-H torsion
[ 10718 10713 10712 10709 ] final  121.76 input   66.30 | X-H torsion
[ 10763 10752 10751 10750 ] final -164.56 input  -60.55 | X-H torsion
[ 11005 11000 10999 10996 ] final -108.88 input  -57.11 | X-H torsion

> <Gold.Protein.ActiveResidues>
 VAL166  LYS551  ARG553  GLY616  TRP617  ASP618  TYR619  PRO620  LYS621  CYS622 
 ASP623  PHE694  ASN695  SER759  ASP760  ASP761  ALA762  ILE779  LEU786  VAL792 
 PHE793  MET794  SER795  GLU796  ALA797  LYS798  CYS799  TRP800  GLU811  SER814 

> <Gold.Protein.RotatedAtoms>
  150.8259  133.8172  159.3118 H   0  0  0  0  0  0  0  0  0  0  0  0  # atno 6907 bound_to 6896
  151.5917  135.1051  160.0050 H   0  0  0  0  0  0  0  0  0  0  0  0  # atno 6908 bound_to 6896
  152.4344  133.7294  159.6635 H   0  0  0  0  0  0  0  0  0  0  0  0  # atno 6909 bound_to 6896
  146.1005  140.5768  142.8823 H   0  0  0  0  0  0  0  0  0  0  0  0  # atno 7974 bound_to 7965
  155.9705  140.3386  155.6571 H   0  0  0  0  0  0  0  0  0  0  0  0  # atno 8008 bound_to 7997
  155.6681  140.0723  157.2548 H   0  0  0  0  0  0  0  0  0  0  0  0  # atno 8009 bound_to 7997
  154.4165  140.1696  156.1836 H   0  0  0  0  0  0  0  0  0  0  0  0  # atno 8010 bound_to 7997
  139.5724  144.6946  151.3742 H   0  0  0  0  0  0  0  0  0  0  0  0  # atno 10167 bound_to 10162
  157.5793  131.1076  150.8218 H   0  0  0  0  0  0  0  0  0  0  0  0  # atno 10718 bound_to 10713
  154.7016  135.2989  154.9332 H   0  0  0  0  0  0  0  0  0  0  0  0  # atno 10763 bound_to 10752
  154.0262  135.6676  153.4781 H   0  0  0  0  0  0  0  0  0  0  0  0  # atno 10764 bound_to 10752
  153.0686  135.5074  154.8164 H   0  0  0  0  0  0  0  0  0  0  0  0  # atno 10765 bound_to 10752
  141.0878  133.9108  157.2146 H   0  0  0  0  0  0  0  0  0  0  0  0  # atno 11005 bound_to 11000
  144.7429  140.4990  143.6856 LP  0  0  0  0  0  0  0  0  0  0  0  0  # atno 17320 bound_to 7965
  145.5864  139.1492  143.3206 LP  0  0  0  0  0  0  0  0  0  0  0  0  # atno 17321 bound_to 7965
  140.7008  143.7636  150.7400 LP  0  0  0  0  0  0  0  0  0  0  0  0  # atno 17342 bound_to 10162
  140.1146  143.4668  152.2350 LP  0  0  0  0  0  0  0  0  0  0  0  0  # atno 17343 bound_to 10162
  156.8668  130.5132  149.5299 LP  0  0  0  0  0  0  0  0  0  0  0  0  # atno 17370 bound_to 10713
  156.0838  130.5842  150.9612 LP  0  0  0  0  0  0  0  0  0  0  0  0  # atno 17371 bound_to 10713
  139.9699  135.0131  156.9484 LP  0  0  0  0  0  0  0  0  0  0  0  0  # atno 17394 bound_to 11000
  140.5323  134.0802  155.7319 LP  0  0  0  0  0  0  0  0  0  0  0  0  # atno 17395 bound_to 11000

$$$$
