AV-unprocessed.smi:285|AV-procd|sdf|2165|dock7
  -GOLD-   2262021523D 1   1.00000     0.00000
 Structure written by MMmdl.
 31 33  0  0  0  0  0  0  0  0  1 V2000
  149.4046  137.2730  154.3981 N   0  0  0  0  0  0  0  0  0  0  0  0
  150.3204  138.1534  154.8255 C   0  0  0  0  0  0  0  0  0  0  0  0
  151.6188  137.9322  154.5136 N   0  0  0  0  0  0  0  0  0  0  0  0
  152.5525  138.7946  154.9280 C   0  0  0  0  0  0  0  0  0  0  0  0
  152.3998  139.9094  155.6476 N   0  0  0  0  0  0  0  0  0  0  0  0
  151.0899  140.1318  155.9640 C   0  0  0  0  0  0  0  0  0  0  0  0
  149.9924  139.3030  155.5876 C   0  0  0  0  0  0  0  0  0  0  0  0
  148.8027  139.8321  156.0718 N   0  0  0  0  0  0  0  0  0  0  0  0
  149.1991  140.9065  156.6952 C   0  0  0  0  0  0  0  0  0  0  0  0
  147.9340  142.0441  157.5513 Br  0  0  0  0  0  0  0  0  0  0  0  0
  150.5499  141.1727  156.6941 N   0  0  0  0  0  0  0  0  0  0  0  0
  151.2859  142.3102  157.3275 C   0  0  2  0  0  0  0  0  0  0  0  0
  152.2720  141.8059  158.3812 C   0  0  0  0  0  0  0  0  0  0  0  0
  152.2404  142.9350  159.3896 C   0  0  1  0  0  0  0  0  0  0  0  0
  153.1333  143.9683  159.0159 O   0  0  0  0  0  0  0  0  0  0  0  0
  150.7681  143.3719  159.3193 C   0  0  1  0  0  0  0  0  0  0  0  0
  150.4460  144.8129  159.7501 C   0  0  0  0  0  0  0  0  0  0  0  0
  149.0488  145.0071  159.8088 O   0  0  0  0  0  0  0  0  0  0  0  0
  150.3657  143.1404  157.9704 O   0  0  0  0  0  0  0  0  0  0  0  0
  148.4291  137.4150  154.6174 H   0  0  0  0  0  0  0  0  0  0  0  0
  149.6921  136.4671  153.8620 H   0  0  0  0  0  0  0  0  0  0  0  0
  153.5669  138.5578  154.6429 H   0  0  0  0  0  0  0  0  0  0  0  0
  151.7632  142.8562  156.5145 H   0  0  0  0  0  0  0  0  0  0  0  0
  151.8943  140.8888  158.8356 H   0  0  0  0  0  0  0  0  0  0  0  0
  153.2537  141.6088  157.9488 H   0  0  0  0  0  0  0  0  0  0  0  0
  152.5119  142.5922  160.3885 H   0  0  0  0  0  0  0  0  0  0  0  0
  153.4605  144.3786  159.8021 H   0  0  0  0  0  0  0  0  0  0  0  0
  150.1822  142.6840  159.9311 H   0  0  0  0  0  0  0  0  0  0  0  0
  150.8939  145.0534  160.7142 H   0  0  0  0  0  0  0  0  0  0  0  0
  150.8587  145.5158  159.0259 H   0  0  0  0  0  0  0  0  0  0  0  0
  148.7383  145.2178  158.9414 H   0  0  0  0  0  0  0  0  0  0  0  0
  1  2  1  0  0  0  0
  1 20  1  0  0  0  0
  1 21  1  0  0  0  0
  2  7  1  0  0  0  0
  2  3  2  0  0  0  0
  3  4  1  0  0  0  0
  4  5  2  0  0  0  0
  4 22  1  0  0  0  0
  5  6  1  0  0  0  0
  6 11  1  0  0  0  0
  6  7  2  0  0  0  0
  7  8  1  0  0  0  0
  8  9  2  0  0  0  0
  9 10  1  0  0  0  0
  9 11  1  0  0  0  0
 11 12  1  0  0  0  0
 12 19  1  0  0  0  0
 12 13  1  0  0  0  0
 12 23  1  0  0  0  0
 13 14  1  0  0  0  0
 13 24  1  0  0  0  0
 13 25  1  0  0  0  0
 14 15  1  0  0  0  0
 14 16  1  0  0  0  0
 14 26  1  0  0  0  0
 15 27  1  0  0  0  0
 16 17  1  0  0  0  0
 16 19  1  0  0  0  0
 16 28  1  0  0  0  0
 17 18  1  0  0  0  0
 17 29  1  0  0  0  0
 17 30  1  0  0  0  0
 18 31  1  0  0  0  0
M  END
> <s_m_source_file>
AV-unprocessed.smi

> <i_m_source_file_index>
285

> <i_lp_mmshare_version>
43012

> <i_f3d_flags>
0

> <s_epik_input>
bjFbY0hdbmMoW05IMl0pYyhjMTIpbmMoQnIpbjJbQ0BASF0zW0NIMl1bQ0BASF0oW09IXSlbQ0BIXShPMylbQ0gyXVtPSF0=

> <s_epik_cmdline>
J2VwaWtfcHl0aG9uJywgJy1waCcsICc3LjAnLCAnLXRuJywgJzgnLCAnLW1hJywgJzIwMCcsICctbWV0YWxfYmluZGluZycsICctaW1hZScsICc8aW5maWxlLm1hZT4nLCAnLW9tYWUnLCAnPG91dGZpbGUubWFlPic=

> <r_lp_tautomer_probability>
1

> <r_epik_Ionization_Penalty>
0.000103242

> <r_epik_Ionization_Penalty_Charging>
0

> <r_epik_Ionization_Penalty_Neutral>
0.000103242

> <r_epik_State_Penalty>
-0

> <r_epik_Charging_Adjusted_Penalty>
0

> <i_epik_Tot_Q>
0

> <i_epik_Tot_abs_Q>
0

> <r_epik_Metal_State_Penalty>
-0

> <b_epik_Metal_Only>
0

> <s_epik_Chemistry_Notes>
This compound contains an acetal/aminal-like group ( X-CH(R)-Y where X, Y are N, S, or O) that may be acid/base labile, releasing an aldehyde.

> <s_lp_Force_Field>
OPLS_2005

> <r_lp_Energy>
33.7508

> <b_lp_Chiralities_Consistent>
1

> <s_lp_Variant>
AV-unprocessed.smi:285-1

> <Gold.Version>
5.8.1

> <Gold.Id.Protein>
6NUR|6NUR_protein|mol2

> <Gold.PLP.Fitness>
37.1466

> <Gold.PLP.PLP>
-29.8628

> <Gold.PLP.part.hbond>
-3.4948

> <Gold.PLP.part.metal>
0.0000

> <Gold.PLP.part.buried>
-5.3514

> <Gold.PLP.part.nonpolar>
-22.1596

> <Gold.PLP.part.repulsive>
0.5301

> <Gold.PLP.ligand.clash>
0.0000

> <Gold.PLP.ligand.torsion>
0.0317

> <Gold.PLP.Chemscore.Hbond>
2.4480

> <Gold.PLP.Chemscore.CHOScore>
0.0000

> <Gold.PLP.Chemscore.Metal>
0.0000

> <Gold.Chemscore.Hbonds>
donor molecule, donor type, donor heavy atom, donor atom, acceptor molecule, acceptor atom, score
      L1  H     1    21       P1  7948  0.32
      L1  H    18    31       P1  8029  1.00
      P1  H  7997  8008       L1     5  0.89

> <Gold.PLP.Chemscore.Internal.Correction>
0.0032

> <Gold.Rescore>
     Score         DG    S(hbond)    S(metal)    S(lipo)     H(rot)  DE(clash)    DE(int)     intcor
      7.36      -9.06       1.83        0.00      45.24       3.06       0.14       1.56       ----

> <Gold.Chemscore.Fitness>
7.3582

> <Gold.Chemscore.DG>
-9.0621

> <Gold.Chemscore.ZeroCoef>
-5.4800

> <Gold.Chemscore.Hbond>
1.8336

> <Gold.Chemscore.Metal>
0.0000

> <Gold.Chemscore.Lipo>
45.2416

> <Gold.Chemscore.Internal_Hbond>
0.0000

> <Gold.Chemscore.DEClash>
0.1421

> <Gold.Chemscore.DEInternal>
1.5619

> <Gold.Chemscore.Rot>
3.0607

> <Gold.Chemscore.Internal.Correction>
   9.000000E+99

> <Gold.Chemscore.Hbonds>
donor molecule, donor type, donor heavy atom, donor atom, acceptor molecule, acceptor atom, score
      L1  H     1    21       P1  7948  0.17
      L1  H    18    31       P1  8029  0.96
      P1  H  7997  8008       L1     5  0.17

> <Gold.Chemscore.Hbond.Weighted>
-6.1242

> <Gold.Chemscore.Metal.Weighted>
-0.0000

> <Gold.Chemscore.Lipo.Weighted>
-5.2933

> <Gold.Chemscore.Internal_Hbond.Weighted>
0.0000

> <Gold.Chemscore.DEClash.Weighted>
0.1421

> <Gold.Chemscore.DEInternal.Weighted>
1.5619

> <Gold.Chemscore.Rot.Weighted>
7.8354

> <Gold.Chemscore.Internal.Correction.Weighted>
   9.000000E+99

> <Gold.Protein.RotatedTorsions>
[ 6907 6896 6895 6894 ] final  -31.69 input  -60.11 | X-H torsion
[ 7974 7965 7964 7962 ] final  179.05 input  175.53 | X-H torsion
[ 8008 7997 7996 7995 ] final  -32.99 input   59.86 | X-H torsion
[ 10167 10162 10161 10158 ] final  -24.60 input  -65.29 | X-H torsion
[ 10718 10713 10712 10709 ] final  145.73 input   66.30 | X-H torsion
[ 10763 10752 10751 10750 ] final  -76.25 input  -60.55 | X-H torsion
[ 11005 11000 10999 10996 ] final -123.15 input  -57.11 | X-H torsion

> <Gold.Protein.ActiveResidues>
 VAL166  LYS551  ARG553  GLY616  TRP617  ASP618  TYR619  PRO620  LYS621  CYS622 
 ASP623  PHE694  ASN695  SER759  ASP760  ASP761  ALA762  ILE779  LEU786  VAL792 
 PHE793  MET794  SER795  GLU796  ALA797  LYS798  CYS799  TRP800  GLU811  SER814 

> <Gold.Protein.RotatedAtoms>
  151.0887  134.9903  159.8391 H   0  0  0  0  0  0  0  0  0  0  0  0  # atno 6907 bound_to 6896
  152.5427  134.2092  159.8753 H   0  0  0  0  0  0  0  0  0  0  0  0  # atno 6908 bound_to 6896
  151.2126  133.4503  159.2632 H   0  0  0  0  0  0  0  0  0  0  0  0  # atno 6909 bound_to 6896
  144.7149  140.0490  143.6435 H   0  0  0  0  0  0  0  0  0  0  0  0  # atno 7974 bound_to 7965
  154.4163  140.1723  156.1815 H   0  0  0  0  0  0  0  0  0  0  0  0  # atno 8008 bound_to 7997
  155.9678  140.3388  155.6524 H   0  0  0  0  0  0  0  0  0  0  0  0  # atno 8009 bound_to 7997
  155.6665  140.0707  157.2526 H   0  0  0  0  0  0  0  0  0  0  0  0  # atno 8010 bound_to 7997
  140.7288  143.4338  151.0760 H   0  0  0  0  0  0  0  0  0  0  0  0  # atno 10167 bound_to 10162
  157.3418  131.0937  151.1076 H   0  0  0  0  0  0  0  0  0  0  0  0  # atno 10718 bound_to 10713
  154.4974  135.5804  153.6505 H   0  0  0  0  0  0  0  0  0  0  0  0  # atno 10763 bound_to 10752
  152.9872  135.6127  154.3047 H   0  0  0  0  0  0  0  0  0  0  0  0  # atno 10764 bound_to 10752
  154.2952  135.2848  155.2616 H   0  0  0  0  0  0  0  0  0  0  0  0  # atno 10765 bound_to 10752
  140.9941  134.0497  157.3619 H   0  0  0  0  0  0  0  0  0  0  0  0  # atno 11005 bound_to 11000
  145.9960  139.3052  143.0956 LP  0  0  0  0  0  0  0  0  0  0  0  0  # atno 17320 bound_to 7965
  145.8849  140.9340  143.0582 LP  0  0  0  0  0  0  0  0  0  0  0  0  # atno 17321 bound_to 7965
  139.7998  143.8099  152.3161 LP  0  0  0  0  0  0  0  0  0  0  0  0  # atno 17342 bound_to 10162
  139.8112  144.7335  150.9694 LP  0  0  0  0  0  0  0  0  0  0  0  0  # atno 17343 bound_to 10162
  157.2285  130.6514  149.5840 LP  0  0  0  0  0  0  0  0  0  0  0  0  # atno 17370 bound_to 10713
  155.9709  130.4606  150.6080 LP  0  0  0  0  0  0  0  0  0  0  0  0  # atno 17371 bound_to 10713
  139.9006  135.0163  156.7250 LP  0  0  0  0  0  0  0  0  0  0  0  0  # atno 17394 bound_to 11000
  140.6994  133.9320  155.8015 LP  0  0  0  0  0  0  0  0  0  0  0  0  # atno 17395 bound_to 11000

$$$$
