AV-unprocessed.smi:546|AV-procd|sdf|2887|dock10
  -GOLD-   2262023383D 1   1.00000     0.00000
 Structure written by MMmdl.
 51 53  0  0  0  0  0  0  0  0  2 V2000
  147.4571  127.0386  152.4197 C   0  0  0  0  0  0  0  0  0  0  0  0
  147.0972  128.0240  151.3061 C   0  0  0  0  0  0  0  0  0  0  0  0
  146.3841  129.1057  151.8769 O   0  0  0  0  0  0  0  0  0  0  0  0
  147.0590  129.7037  152.9699 C   0  0  0  0  0  0  0  0  0  0  0  0
  146.3221  130.9752  153.4172 C   0  0  0  0  0  0  0  0  0  0  0  0
  147.2513  132.0397  153.7814 N   0  0  0  0  0  0  0  0  0  0  0  0
  147.2785  133.3076  153.2986 C   0  0  0  0  0  0  0  0  0  0  0  0
  146.3903  133.7269  152.3118 N   0  0  0  0  0  0  0  0  0  0  0  0
  146.2664  133.0016  151.0496 C   0  0  0  0  0  0  0  0  0  0  0  0
  144.8364  133.0358  150.4825 C   0  0  2  0  0  0  0  0  0  0  0  0
  144.7335  132.2334  149.1785 C   0  0  0  0  0  0  0  0  0  0  0  0
  144.3980  134.4949  150.2802 C   0  0  0  0  0  0  0  0  0  0  0  0
  144.5704  135.3077  151.5741 C   0  0  1  0  0  0  0  0  0  0  0  0
  143.4655  135.0169  152.6025 C   0  0  0  0  0  0  0  0  0  0  0  0
  145.9955  135.1264  152.1457 C   0  0  0  0  0  0  0  0  0  0  0  0
  148.2270  134.0886  153.8180 N   0  0  0  0  0  0  0  0  0  0  0  0
  148.8640  133.2380  154.7096 C   0  0  0  0  0  0  0  0  0  0  0  0
  148.3023  131.9994  154.7036 C   0  0  0  0  0  0  0  0  0  0  0  0
  148.7757  130.8795  155.5468 C   0  0  0  0  0  0  0  0  0  0  0  0
  148.2449  129.7719  155.4923 O   0  0  0  0  0  0  0  0  0  0  0  0
  149.8303  131.2437  156.3429 N   0  5  0  0  0  0  0  0  0  0  0  0
  150.4275  132.4857  156.3829 C   0  0  0  0  0  0  0  0  0  0  0  0
  151.3735  132.7210  157.1348 O   0  0  0  0  0  0  0  0  0  0  0  0
  149.9647  133.4897  155.5705 N   0  0  0  0  0  0  0  0  0  0  0  0
  150.5483  134.8345  155.5488 C   0  0  0  0  0  0  0  0  0  0  0  0
  148.0063  126.1846  152.0236 H   0  0  0  0  0  0  0  0  0  0  0  0
  146.5601  126.6620  152.9120 H   0  0  0  0  0  0  0  0  0  0  0  0
  148.0785  127.5160  153.1776 H   0  0  0  0  0  0  0  0  0  0  0  0
  148.0026  128.3858  150.8170 H   0  0  0  0  0  0  0  0  0  0  0  0
  146.4874  127.5250  150.5515 H   0  0  0  0  0  0  0  0  0  0  0  0
  147.1267  128.9995  153.8001 H   0  0  0  0  0  0  0  0  0  0  0  0
  148.0749  129.9553  152.6676 H   0  0  0  0  0  0  0  0  0  0  0  0
  145.6519  131.3280  152.6353 H   0  0  0  0  0  0  0  0  0  0  0  0
  145.6791  130.7553  154.2693 H   0  0  0  0  0  0  0  0  0  0  0  0
  146.9705  133.4225  150.3305 H   0  0  0  0  0  0  0  0  0  0  0  0
  146.5708  131.9665  151.2100 H   0  0  0  0  0  0  0  0  0  0  0  0
  144.1703  132.5660  151.2071 H   0  0  0  0  0  0  0  0  0  0  0  0
  145.3827  132.6465  148.4057 H   0  0  0  0  0  0  0  0  0  0  0  0
  143.7131  132.2379  148.7942 H   0  0  0  0  0  0  0  0  0  0  0  0
  145.0219  131.1935  149.3350 H   0  0  0  0  0  0  0  0  0  0  0  0
  145.0047  134.9463  149.4939 H   0  0  0  0  0  0  0  0  0  0  0  0
  143.3650  134.5426  149.9336 H   0  0  0  0  0  0  0  0  0  0  0  0
  144.4626  136.3604  151.3097 H   0  0  0  0  0  0  0  0  0  0  0  0
  143.5002  133.9882  152.9587 H   0  0  0  0  0  0  0  0  0  0  0  0
  142.4779  135.1822  152.1715 H   0  0  0  0  0  0  0  0  0  0  0  0
  143.5547  135.6744  153.4673 H   0  0  0  0  0  0  0  0  0  0  0  0
  146.0795  135.6400  153.1042 H   0  0  0  0  0  0  0  0  0  0  0  0
  146.7180  135.6030  151.4819 H   0  0  0  0  0  0  0  0  0  0  0  0
  151.4251  134.9560  156.1854 H   0  0  0  0  0  0  0  0  0  0  0  0
  149.8057  135.5648  155.8711 H   0  0  0  0  0  0  0  0  0  0  0  0
  150.8506  135.0912  154.5331 H   0  0  0  0  0  0  0  0  0  0  0  0
  1  2  1  0  0  0  0
  1 26  1  0  0  0  0
  1 27  1  0  0  0  0
  1 28  1  0  0  0  0
  2  3  1  0  0  0  0
  2 29  1  0  0  0  0
  2 30  1  0  0  0  0
  3  4  1  0  0  0  0
  4  5  1  0  0  0  0
  4 31  1  0  0  0  0
  4 32  1  0  0  0  0
  5  6  1  0  0  0  0
  5 33  1  0  0  0  0
  5 34  1  0  0  0  0
  6 18  1  0  0  0  0
  6  7  1  0  0  0  0
  7  8  1  0  0  0  0
  7 16  2  0  0  0  0
  8 15  1  0  0  0  0
  8  9  1  0  0  0  0
  9 10  1  0  0  0  0
  9 35  1  0  0  0  0
  9 36  1  0  0  0  0
 10 11  1  0  0  0  0
 10 12  1  0  0  0  0
 10 37  1  0  0  0  0
 11 38  1  0  0  0  0
 11 39  1  0  0  0  0
 11 40  1  0  0  0  0
 12 13  1  0  0  0  0
 12 41  1  0  0  0  0
 12 42  1  0  0  0  0
 13 14  1  0  0  0  0
 13 15  1  0  0  0  0
 13 43  1  0  0  0  0
 14 44  1  0  0  0  0
 14 45  1  0  0  0  0
 14 46  1  0  0  0  0
 15 47  1  0  0  0  0
 15 48  1  0  0  0  0
 16 17  1  0  0  0  0
 17 24  1  0  0  0  0
 17 18  2  0  0  0  0
 18 19  1  0  0  0  0
 19 20  2  0  0  0  0
 19 21  1  0  0  0  0
 21 22  1  0  0  0  0
 22 23  2  0  0  0  0
 22 24  1  0  0  0  0
 24 25  1  0  0  0  0
 25 49  1  0  0  0  0
 25 50  1  0  0  0  0
 25 51  1  0  0  0  0
M  CHG  1  21  -1
M  END
> <s_m_source_file>
AV-unprocessed.smi

> <i_m_source_file_index>
546

> <i_lp_mmshare_version>
43012

> <i_f3d_flags>
0

> <s_epik_input>
W0NIM11uMWMoPU8pW25IXWMoPU8pYyhjMTIpbihbQ0gyXVtDSDJdT1tDSDJdW0NIM10pYyhuMilOM1tDSDJdW0NAQEhdKFtDSDNdKVtDSDJdW0NAQEhdKFtDSDNdKVtDSDJdMw==

> <s_epik_cmdline>
J2VwaWtfcHl0aG9uJywgJy1waCcsICc3LjAnLCAnLXRuJywgJzgnLCAnLW1hJywgJzIwMCcsICctbWV0YWxfYmluZGluZycsICctaW1hZScsICc8aW5maWxlLm1hZT4nLCAnLW9tYWUnLCAnPG91dGZpbGUubWFlPic=

> <r_lp_tautomer_probability>
1

> <r_epik_Ionization_Penalty>
5.12825

> <r_epik_Ionization_Penalty_Charging>
0.0743105

> <r_epik_Ionization_Penalty_Neutral>
5.05394

> <r_epik_State_Penalty>
5.04406

> <r_epik_Charging_Adjusted_Penalty>
5.11837

> <i_epik_Tot_Q>
-1

> <i_epik_Tot_abs_Q>
1

> <r_epik_Metal_State_Penalty>
1.15122

> <b_epik_Metal_Only>
1

> <s_lp_Force_Field>
OPLS_2005

> <r_lp_Energy>
46.3243

> <b_lp_Chiralities_Consistent>
1

> <s_lp_Variant>
AV-unprocessed.smi:546-5

> <Gold.Version>
5.8.1

> <Gold.Id.Protein>
6NUR|6NUR_protein|mol2

> <Gold.PLP.Fitness>
41.3096

> <Gold.PLP.PLP>
-40.0222

> <Gold.PLP.part.hbond>
-1.0000

> <Gold.PLP.part.metal>
0.0000

> <Gold.PLP.part.buried>
-4.9280

> <Gold.PLP.part.nonpolar>
-35.5321

> <Gold.PLP.part.repulsive>
1.1028

> <Gold.PLP.ligand.clash>
0.0000

> <Gold.PLP.ligand.torsion>
0.9898

> <Gold.PLP.Chemscore.Hbond>
0.7899

> <Gold.PLP.Chemscore.CHOScore>
0.0000

> <Gold.PLP.Chemscore.Metal>
0.0000

> <Gold.Chemscore.Hbonds>
donor molecule, donor type, donor heavy atom, donor atom, acceptor molecule, acceptor atom, score
      P1  H  6896  6909       L1    23  0.63

> <Gold.PLP.Chemscore.Internal.Correction>
0.8974

> <Gold.Rescore>
     Score         DG    S(hbond)    S(metal)    S(lipo)     H(rot)  DE(clash)    DE(int)     intcor
      9.86     -13.08       0.73        0.00      77.29       1.52       0.01       3.20       ----

> <Gold.Chemscore.Fitness>
9.8638

> <Gold.Chemscore.DG>
-13.0790

> <Gold.Chemscore.ZeroCoef>
-5.4800

> <Gold.Chemscore.Hbond>
0.7332

> <Gold.Chemscore.Metal>
0.0000

> <Gold.Chemscore.Lipo>
77.2889

> <Gold.Chemscore.Internal_Hbond>
0.0000

> <Gold.Chemscore.DEClash>
0.0121

> <Gold.Chemscore.DEInternal>
3.2032

> <Gold.Chemscore.Rot>
1.5206

> <Gold.Chemscore.Internal.Correction>
   9.000000E+99

> <Gold.Chemscore.Hbonds>
donor molecule, donor type, donor heavy atom, donor atom, acceptor molecule, acceptor atom, score
      P1  H  6896  6909       L1    23  0.60

> <Gold.Chemscore.Hbond.Weighted>
-2.4489

> <Gold.Chemscore.Metal.Weighted>
-0.0000

> <Gold.Chemscore.Lipo.Weighted>
-9.0428

> <Gold.Chemscore.Internal_Hbond.Weighted>
0.0000

> <Gold.Chemscore.DEClash.Weighted>
0.0121

> <Gold.Chemscore.DEInternal.Weighted>
3.2032

> <Gold.Chemscore.Rot.Weighted>
3.8926

> <Gold.Chemscore.Internal.Correction.Weighted>
   9.000000E+99

> <Gold.Protein.RotatedTorsions>
[ 6907 6896 6895 6894 ] final  -47.02 input  -60.11 | X-H torsion
[ 7974 7965 7964 7962 ] final  105.32 input  175.53 | X-H torsion
[ 8008 7997 7996 7995 ] final   76.90 input   59.86 | X-H torsion
[ 10167 10162 10161 10158 ] final -171.26 input  -65.29 | X-H torsion
[ 10718 10713 10712 10709 ] final   41.96 input   66.30 | X-H torsion
[ 10763 10752 10751 10750 ] final  -62.33 input  -60.55 | X-H torsion
[ 11005 11000 10999 10996 ] final   40.86 input  -57.11 | X-H torsion

> <Gold.Protein.ActiveResidues>
 VAL166  LYS551  ARG553  GLY616  TRP617  ASP618  TYR619  PRO620  LYS621  CYS622 
 ASP623  PHE694  ASN695  SER759  ASP760  ASP761  ALA762  ILE779  LEU786  VAL792 
 PHE793  MET794  SER795  GLU796  ALA797  LYS798  CYS799  TRP800  GLU811  SER814 

> <Gold.Protein.RotatedAtoms>
  150.9052  134.8466  159.7387 H   0  0  0  0  0  0  0  0  0  0  0  0  # atno 6907 bound_to 6896
  152.4914  134.4443  159.9563 H   0  0  0  0  0  0  0  0  0  0  0  0  # atno 6908 bound_to 6896
  151.4490  133.3583  159.2828 H   0  0  0  0  0  0  0  0  0  0  0  0  # atno 6909 bound_to 6896
  145.3212  139.2512  143.3711 H   0  0  0  0  0  0  0  0  0  0  0  0  # atno 7974 bound_to 7965
  155.8340  140.3465  155.5590 H   0  0  0  0  0  0  0  0  0  0  0  0  # atno 8008 bound_to 7997
  155.8212  140.0913  157.1867 H   0  0  0  0  0  0  0  0  0  0  0  0  # atno 8009 bound_to 7997
  154.4004  140.1429  156.3489 H   0  0  0  0  0  0  0  0  0  0  0  0  # atno 8010 bound_to 7997
  139.5813  144.1417  152.1518 H   0  0  0  0  0  0  0  0  0  0  0  0  # atno 10167 bound_to 10162
  157.3995  130.7852  149.7336 H   0  0  0  0  0  0  0  0  0  0  0  0  # atno 10718 bound_to 10713
  154.2982  135.6240  153.5413 H   0  0  0  0  0  0  0  0  0  0  0  0  # atno 10763 bound_to 10752
  152.9844  135.5672  154.5314 H   0  0  0  0  0  0  0  0  0  0  0  0  # atno 10764 bound_to 10752
  154.4939  135.2868  155.1451 H   0  0  0  0  0  0  0  0  0  0  0  0  # atno 10765 bound_to 10752
  140.1890  134.4010  155.8157 H   0  0  0  0  0  0  0  0  0  0  0  0  # atno 11005 bound_to 11000
  146.3082  140.3769  142.8680 LP  0  0  0  0  0  0  0  0  0  0  0  0  # atno 17320 bound_to 7965
  144.8938  140.7557  143.5910 LP  0  0  0  0  0  0  0  0  0  0  0  0  # atno 17321 bound_to 7965
  140.0971  144.5571  150.7014 LP  0  0  0  0  0  0  0  0  0  0  0  0  # atno 17342 bound_to 10162
  140.7091  143.2490  151.4637 LP  0  0  0  0  0  0  0  0  0  0  0  0  # atno 17343 bound_to 10162
  155.9819  130.4014  150.3445 LP  0  0  0  0  0  0  0  0  0  0  0  0  # atno 17370 bound_to 10713
  157.1570  131.0335  151.2858 LP  0  0  0  0  0  0  0  0  0  0  0  0  # atno 17371 bound_to 10713
  141.2226  133.7037  156.8062 LP  0  0  0  0  0  0  0  0  0  0  0  0  # atno 17394 bound_to 11000
  140.2181  134.8777  157.3348 LP  0  0  0  0  0  0  0  0  0  0  0  0  # atno 17395 bound_to 11000

$$$$
