AV-unprocessed.smi:3231|AV-procd|sdf|12332|dock3
  -GOLD-   2272018183D 1   1.00000     0.00000
 Structure written by MMmdl.
 41 42  0  0  0  0  0  0  0  0  2 V2000
  146.8345  140.0114  152.0376 O   0  0  0  0  0  0  0  0  0  0  0  0
  146.8381  139.0251  153.0515 C   0  0  1  0  0  0  0  0  0  0  0  0
  145.8787  137.9053  152.6114 C   0  0  0  0  0  0  0  0  0  0  0  0
  146.2428  137.3810  151.2803 N   0  3  0  0  0  0  0  0  0  0  0  0
  145.3405  136.3251  150.7787 C   0  0  0  0  0  0  0  0  0  0  0  0
  145.4618  135.0378  151.6117 C   0  0  0  0  0  0  0  0  0  0  0  0
  145.2068  133.8400  150.8308 N   0  0  0  0  0  0  0  0  0  0  0  0
  144.0428  133.4632  150.1941 C   0  0  0  0  0  0  0  0  0  0  0  0
  144.2772  132.2567  149.5991 C   0  0  0  0  0  0  0  0  0  0  0  0
  145.6278  131.9678  149.9409 C   0  0  0  0  0  0  0  0  0  0  0  0
  146.1803  132.9162  150.6799 N   0  0  0  0  0  0  0  0  0  0  0  0
  148.2818  138.5095  153.2359 C   0  0  0  0  0  0  0  0  0  0  0  0
  149.0325  139.1342  154.3253 N   0  0  0  0  0  0  0  0  0  0  0  0
  149.1216  140.5867  154.1910 C   0  0  0  0  0  0  0  0  0  0  0  0
  149.9385  141.2203  155.3307 C   0  0  0  0  0  0  0  0  0  0  0  0
  151.2356  140.6355  155.3716 O   0  0  0  0  0  0  0  0  0  0  0  0
  151.1951  139.2240  155.5513 C   0  0  0  0  0  0  0  0  0  0  0  0
  150.3820  138.5840  154.4126 C   0  0  0  0  0  0  0  0  0  0  0  0
  147.6489  139.9541  151.5606 H   0  0  0  0  0  0  0  0  0  0  0  0
  146.4765  139.4607  153.9845 H   0  0  0  0  0  0  0  0  0  0  0  0
  145.8755  137.0944  153.3417 H   0  0  0  0  0  0  0  0  0  0  0  0
  144.8597  138.2908  152.5570 H   0  0  0  0  0  0  0  0  0  0  0  0
  146.2471  138.1460  150.6212 H   0  0  0  0  0  0  0  0  0  0  0  0
  144.3120  136.6884  150.7888 H   0  0  0  0  0  0  0  0  0  0  0  0
  145.5899  136.1108  149.7388 H   0  0  0  0  0  0  0  0  0  0  0  0
  146.4641  134.9606  152.0349 H   0  0  0  0  0  0  0  0  0  0  0  0
  144.7681  135.0637  152.4531 H   0  0  0  0  0  0  0  0  0  0  0  0
  143.1544  134.0775  150.2148 H   0  0  0  0  0  0  0  0  0  0  0  0
  143.5876  131.6674  149.0128 H   0  0  0  0  0  0  0  0  0  0  0  0
  146.2185  131.1029  149.6765 H   0  0  0  0  0  0  0  0  0  0  0  0
  148.2212  137.4426  153.4547 H   0  0  0  0  0  0  0  0  0  0  0  0
  148.8371  138.5777  152.2987 H   0  0  0  0  0  0  0  0  0  0  0  0
  149.5782  140.8429  153.2336 H   0  0  0  0  0  0  0  0  0  0  0  0
  148.1250  141.0272  154.1923 H   0  0  0  0  0  0  0  0  0  0  0  0
  150.0361  142.2949  155.1762 H   0  0  0  0  0  0  0  0  0  0  0  0
  149.4376  141.0784  156.2897 H   0  0  0  0  0  0  0  0  0  0  0  0
  152.2139  138.8363  155.5547 H   0  0  0  0  0  0  0  0  0  0  0  0
  150.7572  138.9854  156.5217 H   0  0  0  0  0  0  0  0  0  0  0  0
  150.3333  137.5058  154.5695 H   0  0  0  0  0  0  0  0  0  0  0  0
  150.9058  138.7375  153.4677 H   0  0  0  0  0  0  0  0  0  0  0  0
  147.1768  137.0001  151.3397 H   0  0  0  0  0  0  0  0  0  0  0  0
  1  2  1  0  0  0  0
  1 19  1  0  0  0  0
  2  3  1  0  0  0  0
  2 12  1  0  0  0  0
  2 20  1  0  0  0  0
  3  4  1  0  0  0  0
  3 21  1  0  0  0  0
  3 22  1  0  0  0  0
  4  5  1  0  0  0  0
  4 23  1  0  0  0  0
  4 41  1  0  0  0  0
  5  6  1  0  0  0  0
  5 24  1  0  0  0  0
  5 25  1  0  0  0  0
  6  7  1  0  0  0  0
  6 26  1  0  0  0  0
  6 27  1  0  0  0  0
  7 11  1  0  0  0  0
  7  8  1  0  0  0  0
  8  9  2  0  0  0  0
  8 28  1  0  0  0  0
  9 10  1  0  0  0  0
  9 29  1  0  0  0  0
 10 11  2  0  0  0  0
 10 30  1  0  0  0  0
 12 13  1  0  0  0  0
 12 31  1  0  0  0  0
 12 32  1  0  0  0  0
 13 18  1  0  0  0  0
 13 14  1  0  0  0  0
 14 15  1  0  0  0  0
 14 33  1  0  0  0  0
 14 34  1  0  0  0  0
 15 16  1  0  0  0  0
 15 35  1  0  0  0  0
 15 36  1  0  0  0  0
 16 17  1  0  0  0  0
 17 18  1  0  0  0  0
 17 37  1  0  0  0  0
 17 38  1  0  0  0  0
 18 39  1  0  0  0  0
 18 40  1  0  0  0  0
M  CHG  1   4   1
M  END
> <s_m_source_file>
AV-unprocessed.smi

> <i_m_source_file_index>
3231

> <i_lp_mmshare_version>
43012

> <i_f3d_flags>
0

> <s_epik_input>
W0NIMl0xW0NIMl1PW0NIMl1bQ0gyXU4xW0NIMl1bQ0BIXShbT0hdKVtDSDJdW05IXVtDSDJdW0NIMl1uMltjSF1bY0hdW2NIXW4y

> <s_epik_cmdline>
J2VwaWtfcHl0aG9uJywgJy1waCcsICc3LjAnLCAnLXRuJywgJzgnLCAnLW1hJywgJzIwMCcsICctbWV0YWxfYmluZGluZycsICctaW1hZScsICc8aW5maWxlLm1hZT4nLCAnLW9tYWUnLCAnPG91dGZpbGUubWFlPic=

> <r_lp_tautomer_probability>
1

> <r_epik_Ionization_Penalty>
0.1292

> <r_epik_Ionization_Penalty_Charging>
0.0387518

> <r_epik_Ionization_Penalty_Neutral>
0.0904484

> <r_epik_State_Penalty>
0.234133

> <r_epik_Charging_Adjusted_Penalty>
0.272885

> <i_epik_Tot_Q>
1

> <i_epik_Tot_abs_Q>
1

> <r_epik_Metal_State_Penalty>
0.234414

> <b_epik_Metal_Only>
0

> <s_lp_Force_Field>
OPLS_2005

> <r_lp_Energy>
29.6238

> <b_lp_Chiralities_Consistent>
1

> <s_lp_Variant>
AV-unprocessed.smi:3231-2

> <Gold.Version>
5.8.1

> <Gold.Id.Protein>
6NUR|6NUR_protein|mol2

> <Gold.PLP.Fitness>
50.6258

> <Gold.PLP.PLP>
-34.6706

> <Gold.PLP.part.hbond>
-4.3386

> <Gold.PLP.part.metal>
0.0000

> <Gold.PLP.part.buried>
1.4602

> <Gold.PLP.part.nonpolar>
-32.8604

> <Gold.PLP.part.repulsive>
0.4928

> <Gold.PLP.ligand.clash>
0.0000

> <Gold.PLP.ligand.torsion>
0.7185

> <Gold.PLP.Chemscore.Hbond>
3.7680

> <Gold.PLP.Chemscore.CHOScore>
1.9242

> <Gold.PLP.Chemscore.Metal>
0.0000

> <Gold.Chemscore.Hbonds>
donor molecule, donor type, donor heavy atom, donor atom, acceptor molecule, acceptor atom, score
      L1  H     1    19       P1  7957  1.00
      L1  H     4    41       P1  7948  2.00
      P1  H  7989  7998       L1    16  0.68
      L1  C     8    28       P1 10186  1.00
      L1  C    10    30       P1 10747  0.26

> <Gold.PLP.Chemscore.Internal.Correction>
0.3157

> <Gold.Rescore>
     Score         DG    S(hbond)    S(metal)    S(lipo)     H(rot)  DE(clash)    DE(int)     intcor
     14.06     -14.84       2.00        0.00      84.82       2.83       0.09       0.69       ----

> <Gold.Chemscore.Fitness>
14.0591

> <Gold.Chemscore.DG>
-14.8402

> <Gold.Chemscore.ZeroCoef>
-5.4800

> <Gold.Chemscore.Hbond>
1.9966

> <Gold.Chemscore.Metal>
0.0000

> <Gold.Chemscore.Lipo>
84.8179

> <Gold.Chemscore.Internal_Hbond>
0.0000

> <Gold.Chemscore.DEClash>
0.0918

> <Gold.Chemscore.DEInternal>
0.6893

> <Gold.Chemscore.Rot>
2.8251

> <Gold.Chemscore.Internal.Correction>
   9.000000E+99

> <Gold.Chemscore.Hbonds>
donor molecule, donor type, donor heavy atom, donor atom, acceptor molecule, acceptor atom, score
      L1  H     1    19       P1  7957  0.98
      L1  H     4    41       P1  7948  0.98
      P1  H  7989  7998       L1    16  0.05

> <Gold.Chemscore.Hbond.Weighted>
-6.6686

> <Gold.Chemscore.Metal.Weighted>
-0.0000

> <Gold.Chemscore.Lipo.Weighted>
-9.9237

> <Gold.Chemscore.Internal_Hbond.Weighted>
0.0000

> <Gold.Chemscore.DEClash.Weighted>
0.0918

> <Gold.Chemscore.DEInternal.Weighted>
0.6893

> <Gold.Chemscore.Rot.Weighted>
7.2322

> <Gold.Chemscore.Internal.Correction.Weighted>
   9.000000E+99

> <Gold.Protein.RotatedTorsions>
[ 6907 6896 6895 6894 ] final -140.85 input  -60.11 | X-H torsion
[ 7974 7965 7964 7962 ] final -108.01 input  175.53 | X-H torsion
[ 8008 7997 7996 7995 ] final  166.17 input   59.86 | X-H torsion
[ 10167 10162 10161 10158 ] final   86.63 input  -65.29 | X-H torsion
[ 10718 10713 10712 10709 ] final -118.79 input   66.30 | X-H torsion
[ 10763 10752 10751 10750 ] final  -92.25 input  -60.55 | X-H torsion
[ 11005 11000 10999 10996 ] final -146.43 input  -57.11 | X-H torsion

> <Gold.Protein.ActiveResidues>
 VAL166  LYS551  ARG553  GLY616  TRP617  ASP618  TYR619  PRO620  LYS621  CYS622 
 ASP623  PHE694  ASN695  SER759  ASP760  ASP761  ALA762  ILE779  LEU786  VAL792 
 PHE793  MET794  SER795  GLU796  ALA797  LYS798  CYS799  TRP800  GLU811  SER814 

> <Gold.Protein.RotatedAtoms>
  151.0660  133.5505  159.2630 H   0  0  0  0  0  0  0  0  0  0  0  0  # atno 6907 bound_to 6896
  151.2462  135.0605  159.9054 H   0  0  0  0  0  0  0  0  0  0  0  0  # atno 6908 bound_to 6896
  152.5405  134.0428  159.8129 H   0  0  0  0  0  0  0  0  0  0  0  0  # atno 6909 bound_to 6896
  145.1982  140.9044  143.3385 H   0  0  0  0  0  0  0  0  0  0  0  0  # atno 7974 bound_to 7965
  156.1740  140.1650  156.8396 H   0  0  0  0  0  0  0  0  0  0  0  0  # atno 8008 bound_to 7997
  154.5287  140.0761  156.8339 H   0  0  0  0  0  0  0  0  0  0  0  0  # atno 8009 bound_to 7997
  155.3452  140.3387  155.4241 H   0  0  0  0  0  0  0  0  0  0  0  0  # atno 8010 bound_to 7997
  139.8856  144.6415  150.8795 H   0  0  0  0  0  0  0  0  0  0  0  0  # atno 10167 bound_to 10162
  156.1132  130.6265  150.9335 H   0  0  0  0  0  0  0  0  0  0  0  0  # atno 10718 bound_to 10713
  154.6843  135.5238  153.8305 H   0  0  0  0  0  0  0  0  0  0  0  0  # atno 10763 bound_to 10752
  153.0586  135.6560  154.0526 H   0  0  0  0  0  0  0  0  0  0  0  0  # atno 10764 bound_to 10752
  154.0409  135.2977  155.3335 H   0  0  0  0  0  0  0  0  0  0  0  0  # atno 10765 bound_to 10752
  140.7821  134.3067  157.5042 H   0  0  0  0  0  0  0  0  0  0  0  0  # atno 11005 bound_to 11000
  144.9974  139.3631  143.6184 LP  0  0  0  0  0  0  0  0  0  0  0  0  # atno 17320 bound_to 7965
  146.3423  139.9183  142.8770 LP  0  0  0  0  0  0  0  0  0  0  0  0  # atno 17321 bound_to 7965
  140.7736  143.3551  151.1938 LP  0  0  0  0  0  0  0  0  0  0  0  0  # atno 17342 bound_to 10162
  139.7156  143.9306  152.2965 LP  0  0  0  0  0  0  0  0  0  0  0  0  # atno 17343 bound_to 10162
  157.6314  131.0920  150.8433 LP  0  0  0  0  0  0  0  0  0  0  0  0  # atno 17370 bound_to 10713
  156.8541  130.5090  149.5309 LP  0  0  0  0  0  0  0  0  0  0  0  0  # atno 17371 bound_to 10713
  139.8741  134.9324  156.3554 LP  0  0  0  0  0  0  0  0  0  0  0  0  # atno 17394 bound_to 11000
  140.9472  133.7475  156.0224 LP  0  0  0  0  0  0  0  0  0  0  0  0  # atno 17395 bound_to 11000

$$$$
