AV-unprocessed.smi:912|AV-procd|sdf|4143|dock3
  -GOLD-   22720 2 53D 1   1.00000     0.00000
 Structure written by MMmdl.
 27 27  0  0  0  0  0  0  0  0  2 V2000
  146.5309  138.6796  152.0037 C   0  0  0  0  0  0  0  0  0  0  0  0
  146.4264  137.2754  151.5421 N   0  3  0  0  0  0  0  0  0  0  0  0
  145.5172  136.3555  152.2859 C   0  0  2  0  0  0  0  0  0  0  0  0
  144.1101  136.9949  152.4209 C   0  0  0  0  0  0  0  0  0  0  0  0
  146.1531  136.0774  153.6723 C   0  0  0  0  0  0  0  0  0  0  0  0
  147.4358  135.6971  153.7076 N   0  0  0  0  0  0  0  0  0  0  0  0
  145.5027  136.2172  154.7064 O   0  0  0  0  0  0  0  0  0  0  0  0
  145.3810  135.0148  151.5330 C   0  0  0  0  0  0  0  0  0  0  0  0
  146.4839  134.1553  151.2938 C   0  0  0  0  0  0  0  0  0  0  0  0
  146.2735  132.9499  150.5938 C   0  0  0  0  0  0  0  0  0  0  0  0
  145.0692  132.5599  150.1299 N   0  0  0  0  0  0  0  0  0  0  0  0
  144.0175  133.3734  150.3526 C   0  0  0  0  0  0  0  0  0  0  0  0
  144.1199  134.5979  151.0412 C   0  0  0  0  0  0  0  0  0  0  0  0
  147.3019  139.1905  151.4270 H   0  0  0  0  0  0  0  0  0  0  0  0
  146.8073  138.7467  153.0561 H   0  0  0  0  0  0  0  0  0  0  0  0
  145.5987  139.2227  151.8496 H   0  0  0  0  0  0  0  0  0  0  0  0
  146.1179  137.2954  150.5807 H   0  0  0  0  0  0  0  0  0  0  0  0
  143.4095  136.3363  152.9351 H   0  0  0  0  0  0  0  0  0  0  0  0
  143.6847  137.2151  151.4412 H   0  0  0  0  0  0  0  0  0  0  0  0
  144.1244  137.9257  152.9883 H   0  0  0  0  0  0  0  0  0  0  0  0
  147.8970  135.5323  154.5907 H   0  0  0  0  0  0  0  0  0  0  0  0
  147.9506  135.6020  152.8432 H   0  0  0  0  0  0  0  0  0  0  0  0
  147.4838  134.3866  151.6273 H   0  0  0  0  0  0  0  0  0  0  0  0
  147.0986  132.2801  150.4020 H   0  0  0  0  0  0  0  0  0  0  0  0
  143.0638  133.0391  149.9719 H   0  0  0  0  0  0  0  0  0  0  0  0
  143.2359  135.2008  151.1892 H   0  0  0  0  0  0  0  0  0  0  0  0
  147.3508  136.8699  151.5669 H   0  0  0  0  0  0  0  0  0  0  0  0
  1  2  1  0  0  0  0
  1 14  1  0  0  0  0
  1 15  1  0  0  0  0
  1 16  1  0  0  0  0
  2  3  1  0  0  0  0
  2 17  1  0  0  0  0
  2 27  1  0  0  0  0
  3  4  1  0  0  0  0
  3  5  1  0  0  0  0
  3  8  1  0  0  0  0
  4 18  1  0  0  0  0
  4 19  1  0  0  0  0
  4 20  1  0  0  0  0
  5  6  1  0  0  0  0
  5  7  2  0  0  0  0
  6 21  1  0  0  0  0
  6 22  1  0  0  0  0
  8 13  1  0  0  0  0
  8  9  2  0  0  0  0
  9 10  1  0  0  0  0
  9 23  1  0  0  0  0
 10 11  2  0  0  0  0
 10 24  1  0  0  0  0
 11 12  1  0  0  0  0
 12 13  2  0  0  0  0
 12 25  1  0  0  0  0
 13 26  1  0  0  0  0
M  CHG  1   2   1
M  END
> <s_m_source_file>
AV-unprocessed.smi

> <i_m_source_file_index>
912

> <i_lp_mmshare_version>
43012

> <i_f3d_flags>
0

> <s_epik_input>
W0NIM11bTkhdW0NAQF0oW0NIM10pKEMoPU8pW05IMl0pYzFbY0hdW2NIXW5bY0hdW2NIXTE=

> <s_epik_cmdline>
J2VwaWtfcHl0aG9uJywgJy1waCcsICc3LjAnLCAnLXRuJywgJzgnLCAnLW1hJywgJzIwMCcsICctbWV0YWxfYmluZGluZycsICctaW1hZScsICc8aW5maWxlLm1hZT4nLCAnLW9tYWUnLCAnPG91dGZpbGUubWFlPic=

> <r_epik_Ionization_Penalty>
0.8426

> <r_epik_Ionization_Penalty_Charging>
0.842363

> <r_epik_Ionization_Penalty_Neutral>
0.000236815

> <r_epik_State_Penalty>
0.498415

> <r_epik_Charging_Adjusted_Penalty>
1.34078

> <i_epik_Tot_Q>
1

> <i_epik_Tot_abs_Q>
1

> <r_epik_Metal_State_Penalty>
0.661775

> <b_epik_Metal_Only>
0

> <s_lp_Force_Field>
OPLS_2005

> <r_lp_Energy>
11.5286

> <b_lp_Chiralities_Consistent>
1

> <s_lp_Variant>
AV-unprocessed.smi:912-4

> <Gold.Version>
5.8.1

> <Gold.Id.Protein>
6NUR|6NUR_protein|mol2

> <Gold.PLP.Fitness>
36.5898

> <Gold.PLP.PLP>
-22.4049

> <Gold.PLP.part.hbond>
-1.7279

> <Gold.PLP.part.metal>
0.0000

> <Gold.PLP.part.buried>
-2.4309

> <Gold.PLP.part.nonpolar>
-18.2751

> <Gold.PLP.part.repulsive>
0.2519

> <Gold.PLP.ligand.clash>
0.0000

> <Gold.PLP.ligand.torsion>
0.3174

> <Gold.PLP.Chemscore.Hbond>
2.9833

> <Gold.PLP.Chemscore.CHOScore>
1.9537

> <Gold.PLP.Chemscore.Metal>
0.0000

> <Gold.Chemscore.Hbonds>
donor molecule, donor type, donor heavy atom, donor atom, acceptor molecule, acceptor atom, score
      L1  H     2    27       P1  7948  2.00
      L1  H     6    22       P1  7948  0.97
      L1  C    10    24       P1 10747  1.00
      L1  C    12    25       P1 10186  0.96

> <Gold.PLP.Chemscore.Internal.Correction>
0.0087

> <Gold.Rescore>
     Score         DG    S(hbond)    S(metal)    S(lipo)     H(rot)  DE(clash)    DE(int)     intcor
     12.24     -13.20       2.00        0.00      48.91       1.83       0.05       0.92       ----

> <Gold.Chemscore.Fitness>
12.2351

> <Gold.Chemscore.DG>
-13.2042

> <Gold.Chemscore.ZeroCoef>
-5.4800

> <Gold.Chemscore.Hbond>
1.9997

> <Gold.Chemscore.Metal>
0.0000

> <Gold.Chemscore.Lipo>
48.9086

> <Gold.Chemscore.Internal_Hbond>
0.0000

> <Gold.Chemscore.DEClash>
0.0530

> <Gold.Chemscore.DEInternal>
0.9161

> <Gold.Chemscore.Rot>
1.8270

> <Gold.Chemscore.Internal.Correction>
   9.000000E+99

> <Gold.Chemscore.Hbonds>
donor molecule, donor type, donor heavy atom, donor atom, acceptor molecule, acceptor atom, score
      L1  H     2    27       P1  7948  1.00
      L1  H     6    22       P1  7948  0.86

> <Gold.Chemscore.Hbond.Weighted>
-6.6790

> <Gold.Chemscore.Metal.Weighted>
-0.0000

> <Gold.Chemscore.Lipo.Weighted>
-5.7223

> <Gold.Chemscore.Internal_Hbond.Weighted>
0.0000

> <Gold.Chemscore.DEClash.Weighted>
0.0530

> <Gold.Chemscore.DEInternal.Weighted>
0.9161

> <Gold.Chemscore.Rot.Weighted>
4.6771

> <Gold.Chemscore.Internal.Correction.Weighted>
   9.000000E+99

> <Gold.Protein.RotatedTorsions>
[ 6907 6896 6895 6894 ] final   83.53 input  -60.11 | X-H torsion
[ 7974 7965 7964 7962 ] final   28.71 input  175.53 | X-H torsion
[ 8008 7997 7996 7995 ] final  -36.83 input   59.86 | X-H torsion
[ 10167 10162 10161 10158 ] final  -24.41 input  -65.29 | X-H torsion
[ 10718 10713 10712 10709 ] final   94.49 input   66.30 | X-H torsion
[ 10763 10752 10751 10750 ] final  -99.07 input  -60.55 | X-H torsion
[ 11005 11000 10999 10996 ] final  -28.08 input  -57.11 | X-H torsion

> <Gold.Protein.ActiveResidues>
 VAL166  LYS551  ARG553  GLY616  TRP617  ASP618  TYR619  PRO620  LYS621  CYS622 
 ASP623  PHE694  ASN695  SER759  ASP760  ASP761  ALA762  ILE779  LEU786  VAL792 
 PHE793  MET794  SER795  GLU796  ALA797  LYS798  CYS799  TRP800  GLU811  SER814 

> <Gold.Protein.RotatedAtoms>
  152.5329  134.2881  159.9032 H   0  0  0  0  0  0  0  0  0  0  0  0  # atno 6907 bound_to 6896
  151.2834  133.4192  159.2636 H   0  0  0  0  0  0  0  0  0  0  0  0  # atno 6908 bound_to 6896
  151.0264  134.9522  159.8144 H   0  0  0  0  0  0  0  0  0  0  0  0  # atno 6909 bound_to 6896
  146.1713  139.7019  142.8965 H   0  0  0  0  0  0  0  0  0  0  0  0  # atno 7974 bound_to 7965
  154.4065  140.1620  156.2438 H   0  0  0  0  0  0  0  0  0  0  0  0  # atno 8008 bound_to 7997
  155.9178  140.3423  155.6126 H   0  0  0  0  0  0  0  0  0  0  0  0  # atno 8009 bound_to 7997
  155.7259  140.0774  157.2301 H   0  0  0  0  0  0  0  0  0  0  0  0  # atno 8010 bound_to 7997
  140.7288  143.4356  151.0735 H   0  0  0  0  0  0  0  0  0  0  0  0  # atno 10167 bound_to 10162
  157.6947  131.0514  150.4195 H   0  0  0  0  0  0  0  0  0  0  0  0  # atno 10718 bound_to 10713
  154.7467  135.4986  153.9217 H   0  0  0  0  0  0  0  0  0  0  0  0  # atno 10763 bound_to 10752
  153.1100  135.6707  153.9526 H   0  0  0  0  0  0  0  0  0  0  0  0  # atno 10764 bound_to 10752
  153.9288  135.3080  155.3425 H   0  0  0  0  0  0  0  0  0  0  0  0  # atno 10765 bound_to 10752
  140.9177  133.7419  156.0757 H   0  0  0  0  0  0  0  0  0  0  0  0  # atno 11005 bound_to 11000
  145.4332  141.0417  143.2899 LP  0  0  0  0  0  0  0  0  0  0  0  0  # atno 17320 bound_to 7965
  144.8168  139.5863  143.7005 LP  0  0  0  0  0  0  0  0  0  0  0  0  # atno 17321 bound_to 7965
  139.8018  143.8074  152.3163 LP  0  0  0  0  0  0  0  0  0  0  0  0  # atno 17342 bound_to 10162
  139.8093  144.7342  150.9719 LP  0  0  0  0  0  0  0  0  0  0  0  0  # atno 17343 bound_to 10162
  156.4571  130.4024  149.6599 LP  0  0  0  0  0  0  0  0  0  0  0  0  # atno 17370 bound_to 10713
  156.3727  130.7539  151.2524 LP  0  0  0  0  0  0  0  0  0  0  0  0  # atno 17371 bound_to 10713
  140.8029  134.3488  157.5434 LP  0  0  0  0  0  0  0  0  0  0  0  0  # atno 17394 bound_to 11000
  139.8769  134.9208  156.3260 LP  0  0  0  0  0  0  0  0  0  0  0  0  # atno 17395 bound_to 11000

$$$$
