AV-unprocessed.smi:758|AV-procd|sdf|3618|dock4
  -GOLD-   22720 1 13D 1   1.00000     0.00000
 Structure written by MMmdl.
 47 48  0  0  0  0  0  0  0  0  1 V2000
  151.1030  142.6611  156.8873 C   0  0  0  0  0  0  0  0  0  0  0  0
  150.1014  141.5374  156.5412 C   0  0  0  0  0  0  0  0  0  0  0  0
  149.6034  140.9060  157.8604 C   0  0  0  0  0  0  0  0  0  0  0  0
  148.8699  142.1750  155.8596 C   0  0  0  0  0  0  0  0  0  0  0  0
  150.7320  140.4420  155.6117 C   0  0  2  0  0  0  0  0  0  0  0  0
  149.7170  139.3981  155.0759 C   0  0  0  0  0  0  0  0  0  0  0  0
  150.3685  138.3785  154.1226 C   0  0  0  0  0  0  0  0  0  0  0  0
  151.5790  137.6557  154.7515 C   0  0  2  0  0  0  0  0  0  0  0  0
  152.1921  136.9251  153.7058 O   0  0  0  0  0  0  0  0  0  0  0  0
  151.1363  136.6167  155.8157 C   0  0  0  0  0  0  0  0  0  0  0  0
  150.8814  135.2964  155.2426 N   0  0  0  0  0  0  0  0  0  0  0  0
  149.7181  134.6272  155.2886 C   0  0  0  0  0  0  0  0  0  0  0  0
  148.6987  135.0639  155.8222 O   0  0  0  0  0  0  0  0  0  0  0  0
  149.7038  133.2432  154.6382 C   0  0  0  0  0  0  0  0  0  0  0  0
  148.3465  132.7662  154.4460 N   0  0  0  0  0  0  0  0  0  0  0  0
  147.7043  132.3971  153.3359 C   0  0  0  0  0  0  0  0  0  0  0  0
  146.4511  132.0180  153.5428 N   0  0  0  0  0  0  0  0  0  0  0  0
  146.3817  132.1894  154.8966 C   0  0  0  0  0  0  0  0  0  0  0  0
  147.4904  132.6359  155.4869 N   0  0  0  0  0  0  0  0  0  0  0  0
  152.5879  138.7121  155.2544 C   0  0  0  0  0  0  0  0  0  0  0  0
  151.9456  139.7054  156.2362 C   0  0  0  0  0  0  0  0  0  0  0  0
  150.6466  143.4010  157.5457 H   0  0  0  0  0  0  0  0  0  0  0  0
  151.4412  143.1962  156.0002 H   0  0  0  0  0  0  0  0  0  0  0  0
  151.9849  142.2801  157.4013 H   0  0  0  0  0  0  0  0  0  0  0  0
  150.4253  140.5605  158.4872 H   0  0  0  0  0  0  0  0  0  0  0  0
  148.9453  140.0568  157.6730 H   0  0  0  0  0  0  0  0  0  0  0  0
  149.0433  141.6257  158.4586 H   0  0  0  0  0  0  0  0  0  0  0  0
  148.3492  142.8535  156.5364 H   0  0  0  0  0  0  0  0  0  0  0  0
  148.1515  141.4175  155.5441 H   0  0  0  0  0  0  0  0  0  0  0  0
  149.1397  142.7638  154.9836 H   0  0  0  0  0  0  0  0  0  0  0  0
  151.1132  140.9685  154.7350 H   0  0  0  0  0  0  0  0  0  0  0  0
  149.2384  138.8729  155.9010 H   0  0  0  0  0  0  0  0  0  0  0  0
  148.9150  139.8894  154.5271 H   0  0  0  0  0  0  0  0  0  0  0  0
  149.6226  137.6536  153.7939 H   0  0  0  0  0  0  0  0  0  0  0  0
  150.6878  138.9090  153.2237 H   0  0  0  0  0  0  0  0  0  0  0  0
  151.5143  136.5368  153.1737 H   0  0  0  0  0  0  0  0  0  0  0  0
  151.8859  136.5402  156.6030 H   0  0  0  0  0  0  0  0  0  0  0  0
  150.2267  136.9519  156.3155 H   0  0  0  0  0  0  0  0  0  0  0  0
  151.6644  134.8477  154.7898 H   0  0  0  0  0  0  0  0  0  0  0  0
  150.2072  133.2784  153.6711 H   0  0  0  0  0  0  0  0  0  0  0  0
  150.2516  132.5323  155.2591 H   0  0  0  0  0  0  0  0  0  0  0  0
  148.1617  132.4080  152.3574 H   0  0  0  0  0  0  0  0  0  0  0  0
  145.4872  131.9789  155.4644 H   0  0  0  0  0  0  0  0  0  0  0  0
  153.4568  138.2416  155.7147 H   0  0  0  0  0  0  0  0  0  0  0  0
  152.9780  139.2735  154.4041 H   0  0  0  0  0  0  0  0  0  0  0  0
  152.7146  140.4131  156.5412 H   0  0  0  0  0  0  0  0  0  0  0  0
  151.6455  139.1727  157.1374 H   0  0  0  0  0  0  0  0  0  0  0  0
  1  2  1  0  0  0  0
  1 22  1  0  0  0  0
  1 23  1  0  0  0  0
  1 24  1  0  0  0  0
  2  3  1  0  0  0  0
  2  4  1  0  0  0  0
  2  5  1  0  0  0  0
  3 25  1  0  0  0  0
  3 26  1  0  0  0  0
  3 27  1  0  0  0  0
  4 28  1  0  0  0  0
  4 29  1  0  0  0  0
  4 30  1  0  0  0  0
  5 21  1  0  0  0  0
  5  6  1  0  0  0  0
  5 31  1  0  0  0  0
  6  7  1  0  0  0  0
  6 32  1  0  0  0  0
  6 33  1  0  0  0  0
  7  8  1  0  0  0  0
  7 34  1  0  0  0  0
  7 35  1  0  0  0  0
  8  9  1  0  0  0  0
  8 10  1  0  0  0  0
  8 20  1  0  0  0  0
  9 36  1  0  0  0  0
 10 11  1  0  0  0  0
 10 37  1  0  0  0  0
 10 38  1  0  0  0  0
 11 12  1  0  0  0  0
 11 39  1  0  0  0  0
 12 13  2  0  0  0  0
 12 14  1  0  0  0  0
 14 15  1  0  0  0  0
 14 40  1  0  0  0  0
 14 41  1  0  0  0  0
 15 19  1  0  0  0  0
 15 16  1  0  0  0  0
 16 17  2  0  0  0  0
 16 42  1  0  0  0  0
 17 18  1  0  0  0  0
 18 19  2  0  0  0  0
 18 43  1  0  0  0  0
 20 21  1  0  0  0  0
 20 44  1  0  0  0  0
 20 45  1  0  0  0  0
 21 46  1  0  0  0  0
 21 47  1  0  0  0  0
M  END
> <s_m_source_file>
AV-unprocessed.smi

> <i_m_source_file_index>
758

> <i_lp_mmshare_version>
43012

> <i_f3d_flags>
0

> <s_epik_input>
W0NIM11DKFtDSDNdKShbQ0gzXSlbQ0BASF0oW0NIMl1bQ0gyXTEpW0NIMl1bQ0gyXVtDQEBdMShbT0hdKVtDSDJdW05IXUMoPU8pW0NIMl1uMltjSF1uW2NIXW4y

> <s_epik_cmdline>
J2VwaWtfcHl0aG9uJywgJy1waCcsICc3LjAnLCAnLXRuJywgJzgnLCAnLW1hJywgJzIwMCcsICctbWV0YWxfYmluZGluZycsICctaW1hZScsICc8aW5maWxlLm1hZT4nLCAnLW9tYWUnLCAnPG91dGZpbGUubWFlPic=

> <r_lp_tautomer_probability>
1

> <r_epik_Ionization_Penalty>
1.04836e-05

> <r_epik_Ionization_Penalty_Charging>
0

> <r_epik_Ionization_Penalty_Neutral>
1.04836e-05

> <r_epik_State_Penalty>
-0

> <r_epik_Charging_Adjusted_Penalty>
0

> <i_epik_Tot_Q>
0

> <i_epik_Tot_abs_Q>
0

> <r_epik_Metal_State_Penalty>
-0

> <b_epik_Metal_Only>
0

> <s_lp_Force_Field>
OPLS_2005

> <r_lp_Energy>
24.1988

> <b_lp_Chiralities_Consistent>
1

> <s_lp_Variant>
AV-unprocessed.smi:758-2

> <Gold.Version>
5.8.1

> <Gold.Id.Protein>
6NUR|6NUR_protein|mol2

> <Gold.PLP.Fitness>
43.2592

> <Gold.PLP.PLP>
-33.1155

> <Gold.PLP.part.hbond>
-1.9328

> <Gold.PLP.part.metal>
0.0000

> <Gold.PLP.part.buried>
0.3134

> <Gold.PLP.part.nonpolar>
-33.0614

> <Gold.PLP.part.repulsive>
0.3454

> <Gold.PLP.ligand.clash>
0.0000

> <Gold.PLP.ligand.torsion>
0.8551

> <Gold.PLP.Chemscore.Hbond>
2.0000

> <Gold.PLP.Chemscore.CHOScore>
1.9279

> <Gold.PLP.Chemscore.Metal>
0.0000

> <Gold.Chemscore.Hbonds>
donor molecule, donor type, donor heavy atom, donor atom, acceptor molecule, acceptor atom, score
      L1  H     9    36       P1  7949  0.83
      P1  H 10752 10765       L1     9  0.93
      L1  C    16    42       P1 10747  0.55
      L1  C    18    43       P1 10957  0.15

> <Gold.PLP.Chemscore.Internal.Correction>
0.0704

> <Gold.Rescore>
     Score         DG    S(hbond)    S(metal)    S(lipo)     H(rot)  DE(clash)    DE(int)     intcor
      8.34     -11.33       1.66        0.00      71.80       3.17       0.25       2.74       ----

> <Gold.Chemscore.Fitness>
8.3374

> <Gold.Chemscore.DG>
-11.3306

> <Gold.Chemscore.ZeroCoef>
-5.4800

> <Gold.Chemscore.Hbond>
1.6634

> <Gold.Chemscore.Metal>
0.0000

> <Gold.Chemscore.Lipo>
71.8000

> <Gold.Chemscore.Internal_Hbond>
0.0000

> <Gold.Chemscore.DEClash>
0.2483

> <Gold.Chemscore.DEInternal>
2.7450

> <Gold.Chemscore.Rot>
3.1663

> <Gold.Chemscore.Internal.Correction>
   9.000000E+99

> <Gold.Chemscore.Hbonds>
donor molecule, donor type, donor heavy atom, donor atom, acceptor molecule, acceptor atom, score
      L1  H     9    36       P1  7949  0.75
      P1  H 10752 10765       L1     9  0.26

> <Gold.Chemscore.Hbond.Weighted>
-5.5556

> <Gold.Chemscore.Metal.Weighted>
-0.0000

> <Gold.Chemscore.Lipo.Weighted>
-8.4006

> <Gold.Chemscore.Internal_Hbond.Weighted>
0.0000

> <Gold.Chemscore.DEClash.Weighted>
0.2483

> <Gold.Chemscore.DEInternal.Weighted>
2.7450

> <Gold.Chemscore.Rot.Weighted>
8.1056

> <Gold.Chemscore.Internal.Correction.Weighted>
   9.000000E+99

> <Gold.Protein.RotatedTorsions>
[ 6907 6896 6895 6894 ] final  -77.53 input  -60.11 | X-H torsion
[ 7974 7965 7964 7962 ] final -117.13 input  175.53 | X-H torsion
[ 8008 7997 7996 7995 ] final   87.36 input   59.86 | X-H torsion
[ 10167 10162 10161 10158 ] final  149.95 input  -65.29 | X-H torsion
[ 10718 10713 10712 10709 ] final   70.20 input   66.30 | X-H torsion
[ 10763 10752 10751 10750 ] final  145.96 input  -60.55 | X-H torsion
[ 11005 11000 10999 10996 ] final   36.17 input  -57.11 | X-H torsion

> <Gold.Protein.ActiveResidues>
 VAL166  LYS551  ARG553  GLY616  TRP617  ASP618  TYR619  PRO620  LYS621  CYS622 
 ASP623  PHE694  ASN695  SER759  ASP760  ASP761  ALA762  ILE779  LEU786  VAL792 
 PHE793  MET794  SER795  GLU796  ALA797  LYS798  CYS799  TRP800  GLU811  SER814 

> <Gold.Protein.RotatedAtoms>
  150.6996  134.4409  159.5291 H   0  0  0  0  0  0  0  0  0  0  0  0  # atno 6907 bound_to 6896
  152.2119  134.8491  160.0505 H   0  0  0  0  0  0  0  0  0  0  0  0  # atno 6908 bound_to 6896
  151.9373  133.3593  159.3989 H   0  0  0  0  0  0  0  0  0  0  0  0  # atno 6909 bound_to 6896
  145.0887  140.8475  143.3995 H   0  0  0  0  0  0  0  0  0  0  0  0  # atno 7974 bound_to 7965
  155.9744  140.3383  155.6605 H   0  0  0  0  0  0  0  0  0  0  0  0  # atno 8008 bound_to 7997
  155.6632  140.0718  157.2565 H   0  0  0  0  0  0  0  0  0  0  0  0  # atno 8009 bound_to 7997
  154.4175  140.1705  156.1787 H   0  0  0  0  0  0  0  0  0  0  0  0  # atno 8010 bound_to 7997
  139.4855  144.5561  151.7315 H   0  0  0  0  0  0  0  0  0  0  0  0  # atno 10167 bound_to 10162
  157.6387  130.9465  150.0618 H   0  0  0  0  0  0  0  0  0  0  0  0  # atno 10718 bound_to 10713
  154.0140  135.2912  155.3389 H   0  0  0  0  0  0  0  0  0  0  0  0  # atno 10763 bound_to 10752
  154.7086  135.5159  153.8636 H   0  0  0  0  0  0  0  0  0  0  0  0  # atno 10764 bound_to 10752
  153.0710  135.6648  154.0368 H   0  0  0  0  0  0  0  0  0  0  0  0  # atno 10765 bound_to 10752
  140.2353  134.3479  155.7947 H   0  0  0  0  0  0  0  0  0  0  0  0  # atno 11005 bound_to 11000
  145.1091  139.2769  143.5646 LP  0  0  0  0  0  0  0  0  0  0  0  0  # atno 17320 bound_to 7965
  146.3531  140.0682  142.8625 LP  0  0  0  0  0  0  0  0  0  0  0  0  # atno 17321 bound_to 7965
  140.5123  144.1006  150.5998 LP  0  0  0  0  0  0  0  0  0  0  0  0  # atno 17342 bound_to 10162
  140.3936  143.2739  152.0031 LP  0  0  0  0  0  0  0  0  0  0  0  0  # atno 17343 bound_to 10162
  156.1648  130.3645  149.9248 LP  0  0  0  0  0  0  0  0  0  0  0  0  # atno 17370 bound_to 10713
  156.7237  130.9017  151.3620 LP  0  0  0  0  0  0  0  0  0  0  0  0  # atno 17371 bound_to 10713
  141.2215  133.7268  156.8797 LP  0  0  0  0  0  0  0  0  0  0  0  0  # atno 17394 bound_to 11000
  140.1709  134.9101  157.2831 LP  0  0  0  0  0  0  0  0  0  0  0  0  # atno 17395 bound_to 11000

$$$$
