#       Name:                AV-unprocessed.smi:2822
#       Creating user name   scv26
#       Creation time:       Fri Mar 27 15:30:48 2020


#       File generated by GOLD software.
#

@<TRIPOS>MOLECULE
AV-unprocessed.smi:2822
    43    45     1
SMALL
NO_CHARGES


@<TRIPOS>ATOM
      1 ****        -4.7988   1.2865   0.2340 Cl             1 S1                 0.0000
      2 ****        -3.9215   2.7763   0.2051 C.ar           1 S1                 0.0000
      3 ****        -4.6317   3.9928   0.1375 C.ar           1 S1                 0.0000
      4 ****        -3.9631   5.1651   0.1126 N.pl3          1 S1                 1.0000
      5 ****        -2.6157   5.2365   0.1510 C.ar           1 S1                 0.0000
      6 ****        -1.8503   4.0546   0.2194 C.ar           1 S1                 0.0000
      7 ****        -2.5052   2.7976   0.2461 C.ar           1 S1                 0.0000
      8 ****        -1.8008   1.5852   0.3146 N.pl3          1 S1                 0.0000
      9 ****        -0.3591   1.5443   0.1204 C.3            1 S1                 0.0000
     10 ****         0.1724   0.1037   0.1213 C.3            1 S1                 0.0000
     11 ****         1.7173   0.0723   0.1096 C.3            1 S1                 0.0000
     12 ****         2.2347  -1.3122  -0.0140 N.4            1 S1                 1.0000
     13 ****         2.1660  -2.0839   1.2569 C.3            1 S1                 0.0000
     14 ****         2.7713  -3.4856   1.0945 C.3            1 S1                 0.0000
     15 ****         2.0742  -4.2490  -0.0367 C.3            1 S1                 0.0000
     16 ****         2.1594  -3.4420  -1.3393 C.3            1 S1                 0.0000
     17 ****         1.6204  -2.0043  -1.1808 C.3            1 S1                 0.0000
     18 ****         0.0810  -1.9162  -1.1186 C.3            1 S1                 0.0000
     19 ****        -0.3079  -0.5487  -1.0509 O.3            1 S1                 0.0000
     20 ****        -5.7092   4.0624   0.1029 H              1 S1                 0.0000
     21 ****        -2.1924   6.2302   0.1274 H              1 S1                 0.0000
     22 ****        -0.7740   4.1331   0.2532 H              1 S1                 0.0000
     23 ****        -2.3170   0.7186   0.2507 H              1 S1                 0.0000
     24 ****        -0.0960   2.0415  -0.8141 H              1 S1                 0.0000
     25 ****         0.1131   2.1019   0.9300 H              1 S1                 0.0000
     26 ****        -0.2050  -0.4090   1.0075 H              1 S1                 0.0000
     27 ****         2.0872   0.6500  -0.7386 H              1 S1                 0.0000
     28 ****         2.1229   0.5455   1.0048 H              1 S1                 0.0000
     29 ****         2.7071  -1.5439   2.0348 H              1 S1                 0.0000
     30 ****         1.1346  -2.1716   1.5982 H              1 S1                 0.0000
     31 ****         3.8384  -3.4051   0.8833 H              1 S1                 0.0000
     32 ****         2.6812  -4.0404   2.0290 H              1 S1                 0.0000
     33 ****         2.5386  -5.2264  -0.1711 H              1 S1                 0.0000
     34 ****         1.0319  -4.4341   0.2247 H              1 S1                 0.0000
     35 ****         3.2028  -3.3963  -1.6549 H              1 S1                 0.0000
     36 ****         1.6268  -3.9599  -2.1376 H              1 S1                 0.0000
     37 ****         1.9299  -1.4535  -2.0705 H              1 S1                 0.0000
     38 ****        -0.3569  -2.3546  -2.0155 H              1 S1                 0.0000
     39 ****        -0.3266  -2.4654  -0.2692 H              1 S1                 0.0000
     40 ****         3.2199  -1.2302  -0.2217 H              1 S1                 0.0000
     41 ****        -4.4985   6.0325   0.0632 H              1 S1                 0.0000
     42 ****         0.0544  -0.0732  -1.8525 LP             1 S1                 0.0000
     43 ****        -1.3067  -0.4997  -1.0575 LP             1 S1                 0.0000
@<TRIPOS>BOND
    1    1    2 1     
    2    2    7 ar    
    3    2    3 ar    
    4    3    4 ar    
    5    3   20 1     
    6    4    5 ar    
    7    4   41 1     
    8    5    6 ar    
    9    5   21 1     
   10    6    7 ar    
   11    6   22 1     
   12    7    8 1     
   13    8    9 1     
   14    8   23 1     
   15    9   10 1     
   16    9   24 1     
   17    9   25 1     
   18   10   19 1     
   19   10   11 1     
   20   10   26 1     
   21   11   12 1     
   22   11   27 1     
   23   11   28 1     
   24   12   17 1     
   25   12   13 1     
   26   12   40 1     
   27   13   14 1     
   28   13   29 1     
   29   13   30 1     
   30   14   15 1     
   31   14   31 1     
   32   14   32 1     
   33   15   16 1     
   34   15   33 1     
   35   15   34 1     
   36   16   17 1     
   37   16   35 1     
   38   16   36 1     
   39   17   18 1     
   40   17   37 1     
   41   18   19 1     
   42   18   38 1     
   43   18   39 1     
   44   19   42 1     
   45   19   43 1     
@<TRIPOS>SUBSTRUCTURE
      1 S1             1
@<TRIPOS>SET
LONE_PAIRS      STATIC     ATOMS    <user>   **** ""
2 42 43
DONOR_HYDROGENS      STATIC     ATOMS    <user>   **** ""
3 41 23 40
ATOM$BLUE        STATIC     ATOMS    COLORGROUP SYSTEM
2 42 43
ATOM$RED        STATIC     ATOMS    COLORGROUP SYSTEM
3 41 23 40
