AV-unprocessed.smi:2230|AV-procd|sdf|9036|dock3
  -GOLD-   2272012243D 1   1.00000     0.00000
 Structure written by MMmdl.
 29 30  0  0  0  0  0  0  0  0  2 V2000
  148.4555  137.0072  160.0306 O   0  0  0  0  0  0  0  0  0  0  0  0
  149.0670  136.3098  159.1904 C   0  0  0  0  0  0  0  0  0  0  0  0
  148.7933  135.1209  158.9141 O   0  5  0  0  0  0  0  0  0  0  0  0
  150.2197  136.9635  158.4126 C   0  0  1  0  0  0  0  0  0  0  0  0
  150.3089  138.4828  158.6915 C   0  0  0  0  0  0  0  0  0  0  0  0
  151.4640  139.0533  158.0081 N   0  0  0  0  0  0  0  0  0  0  0  0
  151.5469  140.4514  158.0982 C   0  0  0  0  0  0  0  0  0  0  0  0
  152.1685  140.9670  159.1873 N   0  0  0  0  0  0  0  0  0  0  0  0
  152.2668  142.3071  159.3014 C   0  0  0  0  0  0  0  0  0  0  0  0
  151.7570  143.2002  158.3422 C   0  0  0  0  0  0  0  0  0  0  0  0
  151.1127  142.6675  157.2105 C   0  0  0  0  0  0  0  0  0  0  0  0
  150.9992  141.2655  157.0728 C   0  0  0  0  0  0  0  0  0  0  0  0
  150.3086  140.6586  155.8538 C   0  0  0  0  0  0  0  0  0  0  0  0
  149.8339  141.6013  155.0387 F   0  0  0  0  0  0  0  0  0  0  0  0
  151.1725  139.9144  155.1628 F   0  0  0  0  0  0  0  0  0  0  0  0
  149.2866  139.8940  156.2386 F   0  0  0  0  0  0  0  0  0  0  0  0
  152.7068  138.3671  158.3321 C   0  0  0  0  0  0  0  0  0  0  0  0
  152.5622  136.8658  158.0393 C   0  0  0  0  0  0  0  0  0  0  0  0
  151.4574  136.3457  158.7716 O   0  0  0  0  0  0  0  0  0  0  0  0
  150.0342  136.7936  157.3504 H   0  0  0  0  0  0  0  0  0  0  0  0
  149.4050  138.9878  158.3476 H   0  0  0  0  0  0  0  0  0  0  0  0
  150.3915  138.6632  159.7645 H   0  0  0  0  0  0  0  0  0  0  0  0
  152.7687  142.6779  160.1827 H   0  0  0  0  0  0  0  0  0  0  0  0
  151.8575  144.2679  158.4712 H   0  0  0  0  0  0  0  0  0  0  0  0
  150.7153  143.3374  156.4628 H   0  0  0  0  0  0  0  0  0  0  0  0
  153.5258  138.7873  157.7470 H   0  0  0  0  0  0  0  0  0  0  0  0
  152.9484  138.5176  159.3852 H   0  0  0  0  0  0  0  0  0  0  0  0
  152.4227  136.6874  156.9719 H   0  0  0  0  0  0  0  0  0  0  0  0
  153.4666  136.3353  158.3368 H   0  0  0  0  0  0  0  0  0  0  0  0
  1  2  2  0  0  0  0
  2  3  1  0  0  0  0
  2  4  1  0  0  0  0
  4 19  1  0  0  0  0
  4  5  1  0  0  0  0
  4 20  1  0  0  0  0
  5  6  1  0  0  0  0
  5 21  1  0  0  0  0
  5 22  1  0  0  0  0
  6  7  1  0  0  0  0
  6 17  1  0  0  0  0
  7 12  1  0  0  0  0
  7  8  2  0  0  0  0
  8  9  1  0  0  0  0
  9 10  2  0  0  0  0
  9 23  1  0  0  0  0
 10 11  1  0  0  0  0
 10 24  1  0  0  0  0
 11 12  2  0  0  0  0
 11 25  1  0  0  0  0
 12 13  1  0  0  0  0
 13 14  1  0  0  0  0
 13 15  1  0  0  0  0
 13 16  1  0  0  0  0
 17 18  1  0  0  0  0
 17 26  1  0  0  0  0
 17 27  1  0  0  0  0
 18 19  1  0  0  0  0
 18 28  1  0  0  0  0
 18 29  1  0  0  0  0
M  CHG  1   3  -1
M  END
> <s_m_source_file>
AV-unprocessed.smi

> <i_m_source_file_index>
2230

> <i_lp_mmshare_version>
43012

> <i_f3d_flags>
0

> <s_epik_input>
Tz1DKFtPSF0pW0NAQEhdMVtDSDJdTihbQ0gyXVtDSDJdTzEpYzJuW2NIXVtjSF1bY0hdYzJDKEYpKEYpRg==

> <s_epik_cmdline>
J2VwaWtfcHl0aG9uJywgJy1waCcsICc3LjAnLCAnLXRuJywgJzgnLCAnLW1hJywgJzIwMCcsICctbWV0YWxfYmluZGluZycsICctaW1hZScsICc8aW5maWxlLm1hZT4nLCAnLW9tYWUnLCAnPG91dGZpbGUubWFlPic=

> <r_lp_tautomer_probability>
1

> <r_epik_Ionization_Penalty>
0.000150991

> <r_epik_Ionization_Penalty_Charging>
0.000148814

> <r_epik_Ionization_Penalty_Neutral>
2.17728e-06

> <r_epik_State_Penalty>
-0

> <r_epik_Charging_Adjusted_Penalty>
0.000148814

> <i_epik_Tot_Q>
-1

> <i_epik_Tot_abs_Q>
1

> <r_epik_Metal_State_Penalty>
-0

> <b_epik_Metal_Only>
0

> <s_lp_Force_Field>
OPLS_2005

> <r_lp_Energy>
24.6169

> <b_lp_Chiralities_Consistent>
1

> <s_lp_Variant>
AV-unprocessed.smi:2230-2

> <Gold.Version>
5.8.1

> <Gold.Id.Protein>
6NUR|6NUR_protein|mol2

> <Gold.PLP.Fitness>
40.4071

> <Gold.PLP.PLP>
-29.9338

> <Gold.PLP.part.hbond>
-4.0000

> <Gold.PLP.part.metal>
0.0000

> <Gold.PLP.part.buried>
-0.3522

> <Gold.PLP.part.nonpolar>
-25.8961

> <Gold.PLP.part.repulsive>
0.0000

> <Gold.PLP.ligand.clash>
0.4868

> <Gold.PLP.ligand.torsion>
0.6684

> <Gold.PLP.Chemscore.Hbond>
3.8884

> <Gold.PLP.Chemscore.CHOScore>
0.0000

> <Gold.PLP.Chemscore.Metal>
0.0000

> <Gold.Chemscore.Hbonds>
donor molecule, donor type, donor heavy atom, donor atom, acceptor molecule, acceptor atom, score
      P1  H  6896  6907       L1    19  0.11
      P1  H  6896  6909       L1     3  1.25
      P1  H  6931  6943       L1     1  0.41

> <Gold.PLP.Chemscore.Internal.Correction>
0.6317

> <Gold.Rescore>
     Score         DG    S(hbond)    S(metal)    S(lipo)     H(rot)  DE(clash)    DE(int)     intcor
     10.29     -15.07       1.77        0.00      64.06       1.49       0.80       3.98       ----

> <Gold.Chemscore.Fitness>
10.2932

> <Gold.Chemscore.DG>
-15.0744

> <Gold.Chemscore.ZeroCoef>
-5.4800

> <Gold.Chemscore.Hbond>
1.7718

> <Gold.Chemscore.Metal>
0.0000

> <Gold.Chemscore.Lipo>
64.0594

> <Gold.Chemscore.Internal_Hbond>
0.0000

> <Gold.Chemscore.DEClash>
0.7976

> <Gold.Chemscore.DEInternal>
3.9836

> <Gold.Chemscore.Rot>
1.4916

> <Gold.Chemscore.Internal.Correction>
   9.000000E+99

> <Gold.Chemscore.Hbonds>
donor molecule, donor type, donor heavy atom, donor atom, acceptor molecule, acceptor atom, score
      P1  H  6896  6907       L1    19  0.07
      P1  H  6896  6909       L1     3  0.05
      P1  H  6931  6943       L1     1  0.20

> <Gold.Chemscore.Hbond.Weighted>
-5.9179

> <Gold.Chemscore.Metal.Weighted>
-0.0000

> <Gold.Chemscore.Lipo.Weighted>
-7.4950

> <Gold.Chemscore.Internal_Hbond.Weighted>
0.0000

> <Gold.Chemscore.DEClash.Weighted>
0.7976

> <Gold.Chemscore.DEInternal.Weighted>
3.9836

> <Gold.Chemscore.Rot.Weighted>
3.8185

> <Gold.Chemscore.Internal.Correction.Weighted>
   9.000000E+99

> <Gold.Protein.RotatedTorsions>
[ 6907 6896 6895 6894 ] final   41.04 input  -60.11 | X-H torsion
[ 7974 7965 7964 7962 ] final  115.06 input  175.53 | X-H torsion
[ 8008 7997 7996 7995 ] final  144.14 input   59.86 | X-H torsion
[ 10167 10162 10161 10158 ] final  127.49 input  -65.29 | X-H torsion
[ 10718 10713 10712 10709 ] final  -67.56 input   66.30 | X-H torsion
[ 10763 10752 10751 10750 ] final  -83.09 input  -60.55 | X-H torsion
[ 11005 11000 10999 10996 ] final   89.77 input  -57.11 | X-H torsion

> <Gold.Protein.ActiveResidues>
 VAL166  LYS551  ARG553  GLY616  TRP617  ASP618  TYR619  PRO620  LYS621  CYS622 
 ASP623  PHE694  ASN695  SER759  ASP760  ASP761  ALA762  ILE779  LEU786  VAL792 
 PHE793  MET794  SER795  GLU796  ALA797  LYS798  CYS799  TRP800  GLU811  SER814 

> <Gold.Protein.RotatedAtoms>
  152.1903  134.8678  160.0517 H   0  0  0  0  0  0  0  0  0  0  0  0  # atno 6907 bound_to 6896
  151.9569  133.3678  159.4029 H   0  0  0  0  0  0  0  0  0  0  0  0  # atno 6908 bound_to 6896
  150.6934  134.4205  159.5246 H   0  0  0  0  0  0  0  0  0  0  0  0  # atno 6909 bound_to 6896
  145.1967  139.2973  143.4340 H   0  0  0  0  0  0  0  0  0  0  0  0  # atno 7974 bound_to 7965
  156.2915  140.2243  156.5005 H   0  0  0  0  0  0  0  0  0  0  0  0  # atno 8008 bound_to 7997
  154.7694  140.0467  157.1060 H   0  0  0  0  0  0  0  0  0  0  0  0  # atno 8009 bound_to 7997
  154.9893  140.3088  155.4916 H   0  0  0  0  0  0  0  0  0  0  0  0  # atno 8010 bound_to 7997
  139.5575  144.6859  151.4138 H   0  0  0  0  0  0  0  0  0  0  0  0  # atno 10167 bound_to 10162
  156.0551  130.4280  150.1872 H   0  0  0  0  0  0  0  0  0  0  0  0  # atno 10718 bound_to 10713
  154.5835  135.5568  153.7208 H   0  0  0  0  0  0  0  0  0  0  0  0  # atno 10763 bound_to 10752
  153.0090  135.6326  154.1949 H   0  0  0  0  0  0  0  0  0  0  0  0  # atno 10764 bound_to 10752
  154.1890  135.2883  155.3008 H   0  0  0  0  0  0  0  0  0  0  0  0  # atno 10765 bound_to 10752
  139.8869  134.8572  156.3189 H   0  0  0  0  0  0  0  0  0  0  0  0  # atno 11005 bound_to 11000
  146.3426  140.2197  142.8591 LP  0  0  0  0  0  0  0  0  0  0  0  0  # atno 17320 bound_to 7965
  144.9988  140.8613  143.5294 LP  0  0  0  0  0  0  0  0  0  0  0  0  # atno 17321 bound_to 7965
  140.6851  143.7993  150.7174 LP  0  0  0  0  0  0  0  0  0  0  0  0  # atno 17342 bound_to 10162
  140.1458  143.4401  152.2164 LP  0  0  0  0  0  0  0  0  0  0  0  0  # atno 17343 bound_to 10162
  156.9949  130.9905  151.3405 LP  0  0  0  0  0  0  0  0  0  0  0  0  # atno 17370 bound_to 10713
  157.5514  130.8184  149.8149 LP  0  0  0  0  0  0  0  0  0  0  0  0  # atno 17371 bound_to 10713
  140.9800  133.7273  156.0658 LP  0  0  0  0  0  0  0  0  0  0  0  0  # atno 17394 bound_to 11000
  140.7762  134.3777  157.5497 LP  0  0  0  0  0  0  0  0  0  0  0  0  # atno 17395 bound_to 11000

$$$$
