AV-unprocessed.smi:1286|AV-procd|sdf|5378|dock6
  -GOLD-   22720 4523D 1   1.00000     0.00000
 Structure written by MMmdl.
 36 37  0  0  0  0  0  0  0  0  1 V2000
  146.7908  141.5816  154.8417 C   0  0  0  0  0  0  0  0  0  0  0  0
  148.1486  141.1947  155.4564 C   0  0  1  0  0  0  0  0  0  0  0  0
  149.2662  141.0199  154.4090 C   0  0  0  0  0  0  0  0  0  0  0  0
  149.9872  139.7684  154.5591 N   0  0  0  0  0  0  0  0  0  0  0  0
  149.4745  138.4909  154.6366 C   0  0  0  0  0  0  0  0  0  0  0  0
  150.5311  137.6368  154.7720 C   0  0  0  0  0  0  0  0  0  0  0  0
  151.6640  138.4979  154.7714 C   0  0  0  0  0  0  0  0  0  0  0  0
  151.3352  139.7734  154.6461 N   0  0  0  0  0  0  0  0  0  0  0  0
  148.5626  142.2014  156.4296 N   0  0  0  0  0  0  0  0  0  0  0  0
  148.6426  142.0181  157.7566 C   0  0  0  0  0  0  0  0  0  0  0  0
  148.3606  140.9561  158.3118 O   0  0  0  0  0  0  0  0  0  0  0  0
  149.1066  143.2224  158.5834 C   0  0  0  0  0  0  0  0  0  0  0  0
  150.6216  143.2263  158.8838 C   0  0  1  0  0  0  0  0  0  0  0  0
  151.4822  143.4716  157.6675 C   0  0  0  0  0  0  0  0  0  0  0  0
  152.3337  144.4807  157.8347 C   0  0  0  0  0  0  0  0  0  0  0  0
  152.2141  145.1165  159.1915 C   0  0  0  0  0  0  0  0  0  0  0  0
  151.0448  144.3566  159.8569 C   0  0  0  0  0  0  0  0  0  0  0  0
  146.4239  140.8097  154.1648 H   0  0  0  0  0  0  0  0  0  0  0  0
  146.8632  142.5121  154.2777 H   0  0  0  0  0  0  0  0  0  0  0  0
  146.0323  141.7179  155.6130 H   0  0  0  0  0  0  0  0  0  0  0  0
  148.0271  140.2392  155.9702 H   0  0  0  0  0  0  0  0  0  0  0  0
  148.8520  141.0708  153.4005 H   0  0  0  0  0  0  0  0  0  0  0  0
  149.9871  141.8345  154.4900 H   0  0  0  0  0  0  0  0  0  0  0  0
  148.4126  138.2991  154.5859 H   0  0  0  0  0  0  0  0  0  0  0  0
  150.4997  136.5610  154.8584 H   0  0  0  0  0  0  0  0  0  0  0  0
  152.7081  138.2360  154.8583 H   0  0  0  0  0  0  0  0  0  0  0  0
  148.8107  143.1095  156.0645 H   0  0  0  0  0  0  0  0  0  0  0  0
  148.8333  144.1446  158.0674 H   0  0  0  0  0  0  0  0  0  0  0  0
  148.5494  143.2189  159.5209 H   0  0  0  0  0  0  0  0  0  0  0  0
  150.9158  142.2629  159.3035 H   0  0  0  0  0  0  0  0  0  0  0  0
  151.4084  142.8669  156.7755 H   0  0  0  0  0  0  0  0  0  0  0  0
  153.0500  144.8194  157.1009 H   0  0  0  0  0  0  0  0  0  0  0  0
  153.1451  144.9902  159.7448 H   0  0  0  0  0  0  0  0  0  0  0  0
  152.0049  146.1827  159.0982 H   0  0  0  0  0  0  0  0  0  0  0  0
  150.2177  145.0439  160.0407 H   0  0  0  0  0  0  0  0  0  0  0  0
  151.3396  143.9504  160.8251 H   0  0  0  0  0  0  0  0  0  0  0  0
  1  2  1  0  0  0  0
  1 18  1  0  0  0  0
  1 19  1  0  0  0  0
  1 20  1  0  0  0  0
  2  3  1  0  0  0  0
  2  9  1  0  0  0  0
  2 21  1  0  0  0  0
  3  4  1  0  0  0  0
  3 22  1  0  0  0  0
  3 23  1  0  0  0  0
  4  8  1  0  0  0  0
  4  5  1  0  0  0  0
  5  6  2  0  0  0  0
  5 24  1  0  0  0  0
  6  7  1  0  0  0  0
  6 25  1  0  0  0  0
  7  8  2  0  0  0  0
  7 26  1  0  0  0  0
  9 10  1  0  0  0  0
  9 27  1  0  0  0  0
 10 11  2  0  0  0  0
 10 12  1  0  0  0  0
 12 13  1  0  0  0  0
 12 28  1  0  0  0  0
 12 29  1  0  0  0  0
 13 17  1  0  0  0  0
 13 14  1  0  0  0  0
 13 30  1  0  0  0  0
 14 15  2  0  0  0  0
 14 31  1  0  0  0  0
 15 16  1  0  0  0  0
 15 32  1  0  0  0  0
 16 17  1  0  0  0  0
 16 33  1  0  0  0  0
 16 34  1  0  0  0  0
 17 35  1  0  0  0  0
 17 36  1  0  0  0  0
M  END
> <s_m_source_file>
AV-unprocessed.smi

> <i_m_source_file_index>
1286

> <i_lp_mmshare_version>
43012

> <i_f3d_flags>
0

> <s_epik_input>
bjFbY0hdW2NIXVtjSF1uMVtDSDJdW0NAQEhdKFtDSDNdKVtOSF1DKD1PKVtDSDJdW0NAQEhdMltDSF09W0NIXVtDSDJdW0NIMl0y

> <s_epik_cmdline>
J2VwaWtfcHl0aG9uJywgJy1waCcsICc3LjAnLCAnLXRuJywgJzgnLCAnLW1hJywgJzIwMCcsICctbWV0YWxfYmluZGluZycsICctaW1hZScsICc8aW5maWxlLm1hZT4nLCAnLW9tYWUnLCAnPG91dGZpbGUubWFlPic=

> <r_lp_tautomer_probability>
1

> <r_epik_Ionization_Penalty>
0.000301761

> <r_epik_Ionization_Penalty_Charging>
0

> <r_epik_Ionization_Penalty_Neutral>
0.000301761

> <r_epik_State_Penalty>
-0

> <r_epik_Charging_Adjusted_Penalty>
0

> <i_epik_Tot_Q>
0

> <i_epik_Tot_abs_Q>
0

> <r_epik_Metal_State_Penalty>
-0

> <b_epik_Metal_Only>
0

> <s_lp_Force_Field>
OPLS_2005

> <r_lp_Energy>
16.9784

> <b_lp_Chiralities_Consistent>
1

> <s_lp_Variant>
AV-unprocessed.smi:1286-4

> <Gold.Version>
5.8.1

> <Gold.Id.Protein>
6NUR|6NUR_protein|mol2

> <Gold.PLP.Fitness>
42.7409

> <Gold.PLP.PLP>
-39.1854

> <Gold.PLP.part.hbond>
-3.0000

> <Gold.PLP.part.metal>
0.0000

> <Gold.PLP.part.buried>
-4.2834

> <Gold.PLP.part.nonpolar>
-33.0945

> <Gold.PLP.part.repulsive>
0.1158

> <Gold.PLP.ligand.clash>
0.0000

> <Gold.PLP.ligand.torsion>
1.1661

> <Gold.PLP.Chemscore.Hbond>
1.9500

> <Gold.PLP.Chemscore.CHOScore>
0.0000

> <Gold.PLP.Chemscore.Metal>
0.0000

> <Gold.Chemscore.Hbonds>
donor molecule, donor type, donor heavy atom, donor atom, acceptor molecule, acceptor atom, score
      L1  H     9    27       P1  8028  1.00
      P1  H  7989  7998       L1     8  0.95

> <Gold.PLP.Chemscore.Internal.Correction>
0.0376

> <Gold.Rescore>
     Score         DG    S(hbond)    S(metal)    S(lipo)     H(rot)  DE(clash)    DE(int)     intcor
     17.95     -19.31       1.89        0.00     100.23       1.64       0.13       1.22       ----

> <Gold.Chemscore.Fitness>
17.9522

> <Gold.Chemscore.DG>
-19.3076

> <Gold.Chemscore.ZeroCoef>
-5.4800

> <Gold.Chemscore.Hbond>
1.8855

> <Gold.Chemscore.Metal>
0.0000

> <Gold.Chemscore.Lipo>
100.2318

> <Gold.Chemscore.Internal_Hbond>
0.0000

> <Gold.Chemscore.DEClash>
0.1336

> <Gold.Chemscore.DEInternal>
1.2218

> <Gold.Chemscore.Rot>
1.6394

> <Gold.Chemscore.Internal.Correction>
   9.000000E+99

> <Gold.Chemscore.Hbonds>
donor molecule, donor type, donor heavy atom, donor atom, acceptor molecule, acceptor atom, score
      L1  H     9    27       P1  8028  1.00
      P1  H  7989  7998       L1     8  0.21

> <Gold.Chemscore.Hbond.Weighted>
-6.2975

> <Gold.Chemscore.Metal.Weighted>
-0.0000

> <Gold.Chemscore.Lipo.Weighted>
-11.7271

> <Gold.Chemscore.Internal_Hbond.Weighted>
0.0000

> <Gold.Chemscore.DEClash.Weighted>
0.1336

> <Gold.Chemscore.DEInternal.Weighted>
1.2218

> <Gold.Chemscore.Rot.Weighted>
4.1969

> <Gold.Chemscore.Internal.Correction.Weighted>
   9.000000E+99

> <Gold.Protein.RotatedTorsions>
[ 6907 6896 6895 6894 ] final  162.34 input  -60.11 | X-H torsion
[ 7974 7965 7964 7962 ] final  -41.77 input  175.53 | X-H torsion
[ 8008 7997 7996 7995 ] final  -82.75 input   59.86 | X-H torsion
[ 10167 10162 10161 10158 ] final  -51.38 input  -65.29 | X-H torsion
[ 10718 10713 10712 10709 ] final  -88.41 input   66.30 | X-H torsion
[ 10763 10752 10751 10750 ] final  -48.80 input  -60.55 | X-H torsion
[ 11005 11000 10999 10996 ] final   52.81 input  -57.11 | X-H torsion

> <Gold.Protein.ActiveResidues>
 VAL166  LYS551  ARG553  GLY616  TRP617  ASP618  TYR619  PRO620  LYS621  CYS622 
 ASP623  PHE694  ASN695  SER759  ASP760  ASP761  ALA762  ILE779  LEU786  VAL792 
 PHE793  MET794  SER795  GLU796  ALA797  LYS798  CYS799  TRP800  GLU811  SER814 

> <Gold.Protein.RotatedAtoms>
  151.9418  133.3640  159.3967 H   0  0  0  0  0  0  0  0  0  0  0  0  # atno 6907 bound_to 6896
  150.6997  134.4431  159.5310 H   0  0  0  0  0  0  0  0  0  0  0  0  # atno 6908 bound_to 6896
  152.2089  134.8520  160.0550 H   0  0  0  0  0  0  0  0  0  0  0  0  # atno 6909 bound_to 6896
  146.0179  140.6885  142.9192 H   0  0  0  0  0  0  0  0  0  0  0  0  # atno 7974 bound_to 7965
  154.6118  140.0628  156.9504 H   0  0  0  0  0  0  0  0  0  0  0  0  # atno 8008 bound_to 7997
  155.1960  140.3311  155.4332 H   0  0  0  0  0  0  0  0  0  0  0  0  # atno 8009 bound_to 7997
  156.2381  140.1873  156.7047 H   0  0  0  0  0  0  0  0  0  0  0  0  # atno 8010 bound_to 7997
  140.6591  143.2622  151.4496 H   0  0  0  0  0  0  0  0  0  0  0  0  # atno 10167 bound_to 10162
  155.9984  130.4834  150.5014 H   0  0  0  0  0  0  0  0  0  0  0  0  # atno 10718 bound_to 10713
  154.0837  135.6587  153.4841 H   0  0  0  0  0  0  0  0  0  0  0  0  # atno 10763 bound_to 10752
  153.0346  135.5186  154.7449 H   0  0  0  0  0  0  0  0  0  0  0  0  # atno 10764 bound_to 10752
  154.6551  135.3007  154.9906 H   0  0  0  0  0  0  0  0  0  0  0  0  # atno 10765 bound_to 10752
  140.0818  134.5328  155.8939 H   0  0  0  0  0  0  0  0  0  0  0  0  # atno 11005 bound_to 11000
  144.6978  140.3515  143.7181 LP  0  0  0  0  0  0  0  0  0  0  0  0  # atno 17320 bound_to 7965
  145.7239  139.1717  143.2469 LP  0  0  0  0  0  0  0  0  0  0  0  0  # atno 17321 bound_to 7965
  139.5820  144.1688  152.1981 LP  0  0  0  0  0  0  0  0  0  0  0  0  # atno 17342 bound_to 10162
  140.1016  144.5534  150.6985 LP  0  0  0  0  0  0  0  0  0  0  0  0  # atno 17343 bound_to 10162
  157.2998  131.0643  151.2076 LP  0  0  0  0  0  0  0  0  0  0  0  0  # atno 17370 bound_to 10713
  157.3059  130.6866  149.6189 LP  0  0  0  0  0  0  0  0  0  0  0  0  # atno 17371 bound_to 10713
  141.2049  133.6643  156.6150 LP  0  0  0  0  0  0  0  0  0  0  0  0  # atno 17394 bound_to 11000
  140.3476  134.7795  157.4444 LP  0  0  0  0  0  0  0  0  0  0  0  0  # atno 17395 bound_to 11000

$$$$
