#       Name:                AV-unprocessed.smi:2297
#       Creating user name   scv26
#       Creation time:       Fri Mar 27 12:44:18 2020


#       File generated by GOLD software.
#

@<TRIPOS>MOLECULE
AV-unprocessed.smi:2297
    51    52     1
SMALL
NO_CHARGES


@<TRIPOS>ATOM
      1 ****        -5.8604  -1.6700   0.5473 C.3            1 S1                 0.0000
      2 ****        -4.9877  -0.4323   0.5129 C.ar           1 S1                 0.0000
      3 ****        -5.5639   0.8408   0.3312 C.ar           1 S1                 0.0000
      4 ****        -4.7469   1.9875   0.2993 C.ar           1 S1                 0.0000
      5 ****        -5.3730   3.3527   0.1020 C.3            1 S1                 0.0000
      6 ****        -3.3514   1.8565   0.4507 C.ar           1 S1                 0.0000
      7 ****        -2.7589   0.5904   0.6331 C.ar           1 S1                 0.0000
      8 ****        -1.3882   0.5574   0.7726 O.3            1 S1                 0.0000
      9 ****        -0.7592  -0.7045   0.9633 C.3            1 S1                 0.0000
     10 ****         0.7648  -0.5248   1.0692 C.3            1 S1                 0.0000
     11 ****         1.0532  -0.0294   2.3613 O.3            1 S1                 0.0000
     12 ****         1.3394   0.4182  -0.0120 C.3            1 S1                 0.0000
     13 ****         2.7574   0.1416  -0.2956 N.am           1 S1                 0.0000
     14 ****         3.6933   0.9725   0.3415 C.2            1 S1                 0.0000
     15 ****         4.9655   0.8204   0.1677 N.2            1 S1                 0.0000
     16 ****         5.4383  -0.1896  -0.6753 C.2            1 S1                 0.0000
     17 ****         6.9477  -0.2738  -0.8161 C.3            1 S1                 0.0000
     18 ****         4.5836  -1.0305  -1.3195 C.2            1 S1                 0.0000
     19 ****         5.0396  -2.1436  -2.2548 C.3            1 S1                 0.0000
     20 ****         3.1333  -0.8761  -1.1230 C.2            1 S1                 0.0000
     21 ****         2.3038  -1.6121  -1.6611 O.2            1 S1                 0.0000
     22 ****        -3.5915  -0.5567   0.6620 C.ar           1 S1                 0.0000
     23 ****        -6.9197  -1.4120   0.5245 H              1 S1                 0.0000
     24 ****        -5.6704  -2.2425   1.4555 H              1 S1                 0.0000
     25 ****        -5.6455  -2.3062  -0.3115 H              1 S1                 0.0000
     26 ****        -6.6335   0.9408   0.2156 H              1 S1                 0.0000
     27 ****        -4.6209   4.1421   0.1148 H              1 S1                 0.0000
     28 ****        -6.0937   3.5565   0.8942 H              1 S1                 0.0000
     29 ****        -5.8936   3.3941  -0.8550 H              1 S1                 0.0000
     30 ****        -2.7228   2.7348   0.4273 H              1 S1                 0.0000
     31 ****        -1.1464  -1.2083   1.8510 H              1 S1                 0.0000
     32 ****        -0.9736  -1.3400   0.1026 H              1 S1                 0.0000
     33 ****         1.2194  -1.5133   0.9933 H              1 S1                 0.0000
     34 ****         1.9912  -0.0047   2.4723 H              1 S1                 0.0000
     35 ****         0.7747   0.2914  -0.9376 H              1 S1                 0.0000
     36 ****         1.1701   1.4620   0.2616 H              1 S1                 0.0000
     37 ****         3.2732   1.7443   0.9888 H              1 S1                 0.0000
     38 ****         7.2439  -0.1047  -1.8516 H              1 S1                 0.0000
     39 ****         7.3064  -1.2556  -0.5061 H              1 S1                 0.0000
     40 ****         7.4473   0.4735  -0.1986 H              1 S1                 0.0000
     41 ****         4.6821  -3.1090  -1.8948 H              1 S1                 0.0000
     42 ****         6.1221  -2.2098  -2.3489 H              1 S1                 0.0000
     43 ****         4.6330  -1.9838  -3.2541 H              1 S1                 0.0000
     44 ****        -3.1806  -1.5456   0.7980 H              1 S1                 0.0000
     45 ****        -1.1574   1.1256   1.5625 LP             1 S1                 0.0000
     46 ****        -0.9968   0.9613  -0.0542 LP             1 S1                 0.0000
     47 ****         0.6481  -0.6300   3.0506 LP             1 S1                 0.0000
     48 ****         0.6778   0.8922   2.4603 LP             1 S1                 0.0000
     49 ****         5.6104   1.4246   0.6358 LP             1 S1                 0.0000
     50 ****         1.3278  -1.4705  -1.4954 LP             1 S1                 0.0000
     51 ****         2.6068  -2.3507  -2.2632 LP             1 S1                 0.0000
@<TRIPOS>BOND
    1    1    2 1     
    2    1   23 1     
    3    1   24 1     
    4    1   25 1     
    5    2   22 ar    
    6    2    3 ar    
    7    3    4 ar    
    8    3   26 1     
    9    4    5 1     
   10    4    6 ar    
   11    5   27 1     
   12    5   28 1     
   13    5   29 1     
   14    6    7 ar    
   15    6   30 1     
   16    7    8 1     
   17    7   22 ar    
   18    8    9 1     
   19    9   10 1     
   20    9   31 1     
   21    9   32 1     
   22   10   11 1     
   23   10   12 1     
   24   10   33 1     
   25   11   34 1     
   26   12   13 1     
   27   12   35 1     
   28   12   36 1     
   29   13   20 am    
   30   13   14 1     
   31   14   15 2     
   32   14   37 1     
   33   15   16 1     
   34   16   17 1     
   35   16   18 2     
   36   17   38 1     
   37   17   39 1     
   38   17   40 1     
   39   18   19 1     
   40   18   20 1     
   41   19   41 1     
   42   19   42 1     
   43   19   43 1     
   44   20   21 2     
   45   22   44 1     
   46    8   45 1     
   47    8   46 1     
   48   11   47 1     
   49   11   48 1     
   50   15   49 1     
   51   21   50 1     
   52   21   51 1     
@<TRIPOS>SUBSTRUCTURE
      1 S1             1
@<TRIPOS>SET
LONE_PAIRS      STATIC     ATOMS    <user>   **** ""
7 45 46 47 48 49 50 51
DONOR_HYDROGENS      STATIC     ATOMS    <user>   **** ""
1 34
ATOM$BLUE        STATIC     ATOMS    COLORGROUP SYSTEM
7 45 46 47 48 49 50 51
ATOM$RED        STATIC     ATOMS    COLORGROUP SYSTEM
1 34
