AV-unprocessed.smi:1184|AV-procd|sdf|4970|dock10
  -GOLD-   22720 3563D 1   1.00000     0.00000
 Structure written by MMmdl.
 43 44  0  0  0  0  0  0  0  0  2 V2000
  145.1906  131.9157  149.9357 C   0  0  0  0  0  0  0  0  0  0  0  0
  143.7857  132.5232  149.8248 C   0  0  0  0  0  0  0  0  0  0  0  0
  143.7110  133.8694  150.4392 N   0  3  2  0  0  0  0  0  0  0  0  0
  144.7786  134.7921  149.9986 C   0  0  0  0  0  0  0  0  0  0  0  0
  144.9562  135.7787  151.1483 C   0  0  0  0  0  0  0  0  0  0  0  0
  144.7554  134.8918  152.3760 C   0  0  1  0  0  0  0  0  0  0  0  0
  144.3967  135.6487  153.6691 C   0  0  0  0  0  0  0  0  0  0  0  0
  145.5809  136.1734  154.3395 N   0  0  0  0  0  0  0  0  0  0  0  0
  146.6136  135.4330  154.7723 C   0  0  0  0  0  0  0  0  0  0  0  0
  146.6702  134.2104  154.6432 O   0  0  0  0  0  0  0  0  0  0  0  0
  147.7644  136.1857  155.4417 C   0  0  0  0  0  0  0  0  0  0  0  0
  148.7452  135.2099  156.0418 C   0  0  0  0  0  0  0  0  0  0  0  0
  149.1751  135.1243  157.3975 C   0  0  0  0  0  0  0  0  0  0  0  0
  148.7633  135.9734  158.5658 C   0  0  0  0  0  0  0  0  0  0  0  0
  150.0466  134.1465  157.5789 N   0  0  0  0  0  0  0  0  0  0  0  0
  150.2208  133.5511  156.3260 O   0  0  0  0  0  0  0  0  0  0  0  0
  149.4352  134.1994  155.4291 C   0  0  0  0  0  0  0  0  0  0  0  0
  149.4883  133.7072  154.0220 C   0  0  0  0  0  0  0  0  0  0  0  0
  143.6850  133.8876  151.9232 C   0  0  0  0  0  0  0  0  0  0  0  0
  145.2061  130.9062  149.5243 H   0  0  0  0  0  0  0  0  0  0  0  0
  145.5121  131.8534  150.9757 H   0  0  0  0  0  0  0  0  0  0  0  0
  145.9296  132.5028  149.3902 H   0  0  0  0  0  0  0  0  0  0  0  0
  143.4684  132.5704  148.7821 H   0  0  0  0  0  0  0  0  0  0  0  0
  143.0820  131.8660  150.3379 H   0  0  0  0  0  0  0  0  0  0  0  0
  145.7077  134.2389  149.8494 H   0  0  0  0  0  0  0  0  0  0  0  0
  144.5238  135.2821  149.0584 H   0  0  0  0  0  0  0  0  0  0  0  0
  145.9290  136.2716  151.1341 H   0  0  0  0  0  0  0  0  0  0  0  0
  144.1845  136.5488  151.1030 H   0  0  0  0  0  0  0  0  0  0  0  0
  145.6801  134.3343  152.5361 H   0  0  0  0  0  0  0  0  0  0  0  0
  143.7382  136.4878  153.4427 H   0  0  0  0  0  0  0  0  0  0  0  0
  143.8430  134.9983  154.3482 H   0  0  0  0  0  0  0  0  0  0  0  0
  145.6164  137.1707  154.4943 H   0  0  0  0  0  0  0  0  0  0  0  0
  148.2494  136.8258  154.7038 H   0  0  0  0  0  0  0  0  0  0  0  0
  147.3526  136.8572  156.1956 H   0  0  0  0  0  0  0  0  0  0  0  0
  148.5386  136.9929  158.2523 H   0  0  0  0  0  0  0  0  0  0  0  0
  149.5502  136.0281  159.3184 H   0  0  0  0  0  0  0  0  0  0  0  0
  147.8714  135.5696  159.0446 H   0  0  0  0  0  0  0  0  0  0  0  0
  148.6258  134.0517  153.4517 H   0  0  0  0  0  0  0  0  0  0  0  0
  149.4963  132.6177  153.9924 H   0  0  0  0  0  0  0  0  0  0  0  0
  150.3884  134.0665  153.5233 H   0  0  0  0  0  0  0  0  0  0  0  0
  142.6893  134.2011  152.2394 H   0  0  0  0  0  0  0  0  0  0  0  0
  143.8723  132.9052  152.3591 H   0  0  0  0  0  0  0  0  0  0  0  0
  142.8417  134.2857  150.1368 H   0  0  0  0  0  0  0  0  0  0  0  0
  1  2  1  0  0  0  0
  1 20  1  0  0  0  0
  1 21  1  0  0  0  0
  1 22  1  0  0  0  0
  2  3  1  0  0  0  0
  2 23  1  0  0  0  0
  2 24  1  0  0  0  0
  3 19  1  0  0  0  0
  3  4  1  0  0  0  0
  3 43  1  0  0  0  0
  4  5  1  0  0  0  0
  4 25  1  0  0  0  0
  4 26  1  0  0  0  0
  5  6  1  0  0  0  0
  5 27  1  0  0  0  0
  5 28  1  0  0  0  0
  6  7  1  0  0  0  0
  6 19  1  0  0  0  0
  6 29  1  0  0  0  0
  7  8  1  0  0  0  0
  7 30  1  0  0  0  0
  7 31  1  0  0  0  0
  8  9  1  0  0  0  0
  8 32  1  0  0  0  0
  9 10  2  0  0  0  0
  9 11  1  0  0  0  0
 11 12  1  0  0  0  0
 11 33  1  0  0  0  0
 11 34  1  0  0  0  0
 12 17  2  0  0  0  0
 12 13  1  0  0  0  0
 13 14  1  0  0  0  0
 13 15  2  0  0  0  0
 14 35  1  0  0  0  0
 14 36  1  0  0  0  0
 14 37  1  0  0  0  0
 15 16  1  0  0  0  0
 16 17  1  0  0  0  0
 17 18  1  0  0  0  0
 18 38  1  0  0  0  0
 18 39  1  0  0  0  0
 18 40  1  0  0  0  0
 19 41  1  0  0  0  0
 19 42  1  0  0  0  0
M  CHG  1   3   1
M  END
> <s_m_source_file>
AV-unprocessed.smi

> <i_m_source_file_index>
1184

> <i_lp_mmshare_version>
43012

> <i_f3d_flags>
0

> <s_epik_input>
W0NIM11bQ0gyXU4xW0NIMl1bQ0gyXVtDQEhdKFtDSDJdMSlbQ0gyXVtOSF1DKD1PKVtDSDJdYzJjKFtDSDNdKW5vYzJbQ0gzXQ==

> <s_epik_cmdline>
J2VwaWtfcHl0aG9uJywgJy1waCcsICc3LjAnLCAnLXRuJywgJzgnLCAnLW1hJywgJzIwMCcsICctbWV0YWxfYmluZGluZycsICctaW1hZScsICc8aW5maWxlLm1hZT4nLCAnLW9tYWUnLCAnPG91dGZpbGUubWFlPic=

> <r_epik_Ionization_Penalty>
0.000590726

> <r_epik_Ionization_Penalty_Charging>
0.000590692

> <r_epik_Ionization_Penalty_Neutral>
3.44741e-08

> <r_epik_State_Penalty>
0.000371644

> <r_epik_Charging_Adjusted_Penalty>
0.000962336

> <i_epik_Tot_Q>
1

> <i_epik_Tot_abs_Q>
1

> <r_epik_Metal_State_Penalty>
-0

> <b_epik_Metal_Only>
0

> <s_lp_Force_Field>
OPLS_2005

> <r_lp_Energy>
22.2982

> <b_lp_Chiralities_Consistent>
1

> <s_lp_Variant>
AV-unprocessed.smi:1184-2

> <Gold.Version>
5.8.1

> <Gold.Id.Protein>
6NUR|6NUR_protein|mol2

> <Gold.PLP.Fitness>
32.8112

> <Gold.PLP.PLP>
-24.8280

> <Gold.PLP.part.hbond>
-2.0000

> <Gold.PLP.part.metal>
0.0000

> <Gold.PLP.part.buried>
-2.2778

> <Gold.PLP.part.nonpolar>
-20.6368

> <Gold.PLP.part.repulsive>
0.0597

> <Gold.PLP.ligand.clash>
0.0000

> <Gold.PLP.ligand.torsion>
0.3896

> <Gold.PLP.Chemscore.Hbond>
2.9120

> <Gold.PLP.Chemscore.CHOScore>
0.0000

> <Gold.PLP.Chemscore.Metal>
0.0000

> <Gold.Chemscore.Hbonds>
donor molecule, donor type, donor heavy atom, donor atom, acceptor molecule, acceptor atom, score
      L1  H     3    43       P1 10186  2.00
      P1  H  6896  6907       L1    15  0.93

> <Gold.PLP.Chemscore.Internal.Correction>
0.0264

> <Gold.Rescore>
     Score         DG    S(hbond)    S(metal)    S(lipo)     H(rot)  DE(clash)    DE(int)     intcor
     12.69     -15.51       1.92        0.00      67.30       1.67       1.39       1.43       ----

> <Gold.Chemscore.Fitness>
12.6896

> <Gold.Chemscore.DG>
-15.5127

> <Gold.Chemscore.ZeroCoef>
-5.4800

> <Gold.Chemscore.Hbond>
1.9249

> <Gold.Chemscore.Metal>
0.0000

> <Gold.Chemscore.Lipo>
67.3042

> <Gold.Chemscore.Internal_Hbond>
0.0000

> <Gold.Chemscore.DEClash>
1.3898

> <Gold.Chemscore.DEInternal>
1.4332

> <Gold.Chemscore.Rot>
1.6684

> <Gold.Chemscore.Internal.Correction>
   9.000000E+99

> <Gold.Chemscore.Hbonds>
donor molecule, donor type, donor heavy atom, donor atom, acceptor molecule, acceptor atom, score
      L1  H     3    43       P1 10186  0.92
      P1  H  6896  6907       L1    15  0.82

> <Gold.Chemscore.Hbond.Weighted>
-6.4293

> <Gold.Chemscore.Metal.Weighted>
-0.0000

> <Gold.Chemscore.Lipo.Weighted>
-7.8746

> <Gold.Chemscore.Internal_Hbond.Weighted>
0.0000

> <Gold.Chemscore.DEClash.Weighted>
1.3898

> <Gold.Chemscore.DEInternal.Weighted>
1.4332

> <Gold.Chemscore.Rot.Weighted>
4.2712

> <Gold.Chemscore.Internal.Correction.Weighted>
   9.000000E+99

> <Gold.Protein.RotatedTorsions>
[ 6907 6896 6895 6894 ] final -106.34 input  -60.11 | X-H torsion
[ 7974 7965 7964 7962 ] final   80.85 input  175.53 | X-H torsion
[ 8008 7997 7996 7995 ] final -107.18 input   59.86 | X-H torsion
[ 10167 10162 10161 10158 ] final   77.05 input  -65.29 | X-H torsion
[ 10718 10713 10712 10709 ] final   92.59 input   66.30 | X-H torsion
[ 10763 10752 10751 10750 ] final  140.53 input  -60.55 | X-H torsion
[ 11005 11000 10999 10996 ] final  -66.38 input  -57.11 | X-H torsion

> <Gold.Protein.ActiveResidues>
 VAL166  LYS551  ARG553  GLY616  TRP617  ASP618  TYR619  PRO620  LYS621  CYS622 
 ASP623  PHE694  ASN695  SER759  ASP760  ASP761  ALA762  ILE779  LEU786  VAL792 
 PHE793  MET794  SER795  GLU796  ALA797  LYS798  CYS799  TRP800  GLU811  SER814 

> <Gold.Protein.RotatedAtoms>
  150.7384  133.9991  159.3631 H   0  0  0  0  0  0  0  0  0  0  0  0  # atno 6907 bound_to 6896
  151.7944  135.0724  160.0401 H   0  0  0  0  0  0  0  0  0  0  0  0  # atno 6908 bound_to 6896
  152.3185  133.5792  159.5765 H   0  0  0  0  0  0  0  0  0  0  0  0  # atno 6909 bound_to 6896
  145.6458  139.2436  143.2005 H   0  0  0  0  0  0  0  0  0  0  0  0  # atno 7974 bound_to 7965
  154.9256  140.0406  157.2021 H   0  0  0  0  0  0  0  0  0  0  0  0  # atno 8008 bound_to 7997
  154.8211  140.2884  155.5765 H   0  0  0  0  0  0  0  0  0  0  0  0  # atno 8009 bound_to 7997
  156.2980  140.2518  156.3118 H   0  0  0  0  0  0  0  0  0  0  0  0  # atno 8010 bound_to 7997
  139.9857  144.5793  150.7861 H   0  0  0  0  0  0  0  0  0  0  0  0  # atno 10167 bound_to 10162
  157.6958  131.0448  150.3904 H   0  0  0  0  0  0  0  0  0  0  0  0  # atno 10718 bound_to 10713
  153.9242  135.2997  155.3447 H   0  0  0  0  0  0  0  0  0  0  0  0  # atno 10763 bound_to 10752
  154.7560  135.4957  153.9378 H   0  0  0  0  0  0  0  0  0  0  0  0  # atno 10764 bound_to 10752
  153.1125  135.6763  153.9578 H   0  0  0  0  0  0  0  0  0  0  0  0  # atno 10765 bound_to 10752
  141.1480  133.6698  156.6130 H   0  0  0  0  0  0  0  0  0  0  0  0  # atno 11005 bound_to 11000
  146.1244  140.7267  142.9442 LP  0  0  0  0  0  0  0  0  0  0  0  0  # atno 17320 bound_to 7965
  144.7140  140.4145  143.7058 LP  0  0  0  0  0  0  0  0  0  0  0  0  # atno 17321 bound_to 7965
  140.7473  143.2904  151.3347 LP  0  0  0  0  0  0  0  0  0  0  0  0  # atno 17342 bound_to 10162
  139.6376  144.0600  152.2529 LP  0  0  0  0  0  0  0  0  0  0  0  0  # atno 17343 bound_to 10162
  156.4308  130.3971  149.6761 LP  0  0  0  0  0  0  0  0  0  0  0  0  # atno 17370 bound_to 10713
  156.3979  130.7660  151.2666 LP  0  0  0  0  0  0  0  0  0  0  0  0  # atno 17371 bound_to 10713
  140.3599  134.7696  157.4527 LP  0  0  0  0  0  0  0  0  0  0  0  0  # atno 17394 bound_to 11000
  140.0793  134.5753  155.8557 LP  0  0  0  0  0  0  0  0  0  0  0  0  # atno 17395 bound_to 11000

$$$$
