AV-unprocessed.smi:1686|AV-procd|sdf|6765|dock4
  -GOLD-   22720 7523D 1   1.00000     0.00000
 Structure written by MMmdl.
 41 43  0  0  0  0  0  0  0  0  1 V2000
  150.1510  135.5997  156.8967 C   0  0  0  0  0  0  0  0  0  0  0  0
  150.0737  134.1264  156.6173 C   0  0  0  0  0  0  0  0  0  0  0  0
  150.3955  133.2693  157.5774 N   0  0  0  0  0  0  0  0  0  0  0  0
  150.2414  131.9897  157.0320 O   0  0  0  0  0  0  0  0  0  0  0  0
  149.8269  132.1509  155.7545 C   0  0  0  0  0  0  0  0  0  0  0  0
  149.5220  130.8191  154.7109 Cl  0  0  0  0  0  0  0  0  0  0  0  0
  149.6904  133.4655  155.4129 C   0  0  0  0  0  0  0  0  0  0  0  0
  149.2553  134.0734  154.1010 C   0  0  0  0  0  0  0  0  0  0  0  0
  147.7403  133.9596  153.8936 C   0  0  0  0  0  0  0  0  0  0  0  0
  147.0242  133.3844  154.7150 O   0  0  0  0  0  0  0  0  0  0  0  0
  147.2699  134.5157  152.7663 N   0  0  0  0  0  0  0  0  0  0  0  0
  145.8756  134.5301  152.3250 C   0  0  1  0  0  0  0  0  0  0  0  0
  145.8053  135.1994  150.9439 C   0  0  0  0  0  0  0  0  0  0  0  0
  145.3179  133.0857  152.3132 C   0  0  1  0  0  0  0  0  0  0  0  0
  143.9261  132.9264  151.6572 C   0  0  0  0  0  0  0  0  0  0  0  0
  144.1289  131.7422  150.6942 C   0  0  1  0  0  0  0  0  0  0  0  0
  144.9544  132.2166  149.4845 C   0  0  0  0  0  0  0  0  0  0  0  0
  146.3639  132.3810  150.0817 C   0  0  0  0  0  0  0  0  0  0  0  0
  146.1523  132.0155  151.5655 C   0  0  2  0  0  0  0  0  0  0  0  0
  145.1378  130.8823  151.4468 C   0  0  0  0  0  0  0  0  0  0  0  0
  150.0170  136.1862  155.9879 H   0  0  0  0  0  0  0  0  0  0  0  0
  151.1192  135.8693  157.3194 H   0  0  0  0  0  0  0  0  0  0  0  0
  149.3808  135.9039  157.6056 H   0  0  0  0  0  0  0  0  0  0  0  0
  149.5324  135.1267  154.0462 H   0  0  0  0  0  0  0  0  0  0  0  0
  149.7551  133.5875  153.2624 H   0  0  0  0  0  0  0  0  0  0  0  0
  147.9370  134.9642  152.1553 H   0  0  0  0  0  0  0  0  0  0  0  0
  145.2860  135.1357  153.0133 H   0  0  0  0  0  0  0  0  0  0  0  0
  144.7751  135.2948  150.6010 H   0  0  0  0  0  0  0  0  0  0  0  0
  146.3546  134.6271  150.1956 H   0  0  0  0  0  0  0  0  0  0  0  0
  146.2296  136.2036  150.9739 H   0  0  0  0  0  0  0  0  0  0  0  0
  145.2352  132.7594  153.3520 H   0  0  0  0  0  0  0  0  0  0  0  0
  143.1726  132.6965  152.4112 H   0  0  0  0  0  0  0  0  0  0  0  0
  143.5971  133.8195  151.1249 H   0  0  0  0  0  0  0  0  0  0  0  0
  143.2023  131.2371  150.4199 H   0  0  0  0  0  0  0  0  0  0  0  0
  144.9576  131.4645  148.6945 H   0  0  0  0  0  0  0  0  0  0  0  0
  144.5716  133.1454  149.0600 H   0  0  0  0  0  0  0  0  0  0  0  0
  147.0541  131.6780  149.6136 H   0  0  0  0  0  0  0  0  0  0  0  0
  146.7739  133.3790  149.9334 H   0  0  0  0  0  0  0  0  0  0  0  0
  147.0721  131.7395  152.0818 H   0  0  0  0  0  0  0  0  0  0  0  0
  144.7687  130.5246  152.4097 H   0  0  0  0  0  0  0  0  0  0  0  0
  145.5008  130.0327  150.8654 H   0  0  0  0  0  0  0  0  0  0  0  0
  1  2  1  0  0  0  0
  1 21  1  0  0  0  0
  1 22  1  0  0  0  0
  1 23  1  0  0  0  0
  2  7  1  0  0  0  0
  2  3  2  0  0  0  0
  3  4  1  0  0  0  0
  4  5  1  0  0  0  0
  5  6  1  0  0  0  0
  5  7  2  0  0  0  0
  7  8  1  0  0  0  0
  8  9  1  0  0  0  0
  8 24  1  0  0  0  0
  8 25  1  0  0  0  0
  9 10  2  0  0  0  0
  9 11  1  0  0  0  0
 11 12  1  0  0  0  0
 11 26  1  0  0  0  0
 12 13  1  0  0  0  0
 12 14  1  0  0  0  0
 12 27  1  0  0  0  0
 13 28  1  0  0  0  0
 13 29  1  0  0  0  0
 13 30  1  0  0  0  0
 14 19  1  0  0  0  0
 14 15  1  0  0  0  0
 14 31  1  0  0  0  0
 15 16  1  0  0  0  0
 15 32  1  0  0  0  0
 15 33  1  0  0  0  0
 16 20  1  0  0  0  0
 16 17  1  0  0  0  0
 16 34  1  0  0  0  0
 17 18  1  0  0  0  0
 17 35  1  0  0  0  0
 17 36  1  0  0  0  0
 18 19  1  0  0  0  0
 18 37  1  0  0  0  0
 18 38  1  0  0  0  0
 19 20  1  0  0  0  0
 19 39  1  0  0  0  0
 20 40  1  0  0  0  0
 20 41  1  0  0  0  0
M  END
> <s_m_source_file>
AV-unprocessed.smi

> <i_m_source_file_index>
1686

> <i_lp_mmshare_version>
43012

> <i_f3d_flags>
0

> <s_epik_input>
W0NIM11jMW5vYyhDbCljMVtDSDJdQyg9TylbTkhdW0NASF0oW0NIM10pW0NASF0oW0NIMl1bQ0BIXTIzKVtDQEhdKFtDSDJdMylbQ0gyXVtDSDJdMg==

> <s_epik_cmdline>
J2VwaWtfcHl0aG9uJywgJy1waCcsICc3LjAnLCAnLXRuJywgJzgnLCAnLW1hJywgJzIwMCcsICctbWV0YWxfYmluZGluZycsICctaW1hZScsICc8aW5maWxlLm1hZT4nLCAnLW9tYWUnLCAnPG91dGZpbGUubWFlPic=

> <r_lp_tautomer_probability>
1

> <r_epik_Ionization_Penalty>
2.01576e-08

> <r_epik_Ionization_Penalty_Charging>
0

> <r_epik_Ionization_Penalty_Neutral>
2.01576e-08

> <r_epik_State_Penalty>
-0

> <r_epik_Charging_Adjusted_Penalty>
0

> <i_epik_Tot_Q>
0

> <i_epik_Tot_abs_Q>
0

> <r_epik_Metal_State_Penalty>
-0

> <b_epik_Metal_Only>
0

> <s_lp_Force_Field>
OPLS_2005

> <r_lp_Energy>
47.064

> <b_lp_Chiralities_Consistent>
1

> <s_lp_Variant>
AV-unprocessed.smi:1686-8

> <Gold.Version>
5.8.1

> <Gold.Id.Protein>
6NUR|6NUR_protein|mol2

> <Gold.PLP.Fitness>
42.5099

> <Gold.PLP.PLP>
-37.1665

> <Gold.PLP.part.hbond>
-2.0000

> <Gold.PLP.part.metal>
0.0000

> <Gold.PLP.part.buried>
-3.4905

> <Gold.PLP.part.nonpolar>
-31.3256

> <Gold.PLP.part.repulsive>
0.0437

> <Gold.PLP.ligand.clash>
0.0066

> <Gold.PLP.ligand.torsion>
0.3240

> <Gold.PLP.Chemscore.Hbond>
1.9913

> <Gold.PLP.Chemscore.CHOScore>
0.0000

> <Gold.PLP.Chemscore.Metal>
0.0000

> <Gold.Chemscore.Hbonds>
donor molecule, donor type, donor heavy atom, donor atom, acceptor molecule, acceptor atom, score
      L1  H    11    26       P1  7948  1.00
      P1  H  6896  6907       L1     3  1.00

> <Gold.PLP.Chemscore.Internal.Correction>
0.0242

> <Gold.Rescore>
     Score         DG    S(hbond)    S(metal)    S(lipo)     H(rot)  DE(clash)    DE(int)     intcor
     17.51     -19.06       1.99        0.00      91.46       1.46       0.00       1.55       ----

> <Gold.Chemscore.Fitness>
17.5131

> <Gold.Chemscore.DG>
-19.0634

> <Gold.Chemscore.ZeroCoef>
-5.4800

> <Gold.Chemscore.Hbond>
1.9858

> <Gold.Chemscore.Metal>
0.0000

> <Gold.Chemscore.Lipo>
91.4597

> <Gold.Chemscore.Internal_Hbond>
0.0000

> <Gold.Chemscore.DEClash>
0.0015

> <Gold.Chemscore.DEInternal>
1.5488

> <Gold.Chemscore.Rot>
1.4648

> <Gold.Chemscore.Internal.Correction>
   9.000000E+99

> <Gold.Chemscore.Hbonds>
donor molecule, donor type, donor heavy atom, donor atom, acceptor molecule, acceptor atom, score
      L1  H    11    26       P1  7948  0.66
      P1  H  6896  6907       L1     3  0.98

> <Gold.Chemscore.Hbond.Weighted>
-6.6326

> <Gold.Chemscore.Metal.Weighted>
-0.0000

> <Gold.Chemscore.Lipo.Weighted>
-10.7008

> <Gold.Chemscore.Internal_Hbond.Weighted>
0.0000

> <Gold.Chemscore.DEClash.Weighted>
0.0015

> <Gold.Chemscore.DEInternal.Weighted>
1.5488

> <Gold.Chemscore.Rot.Weighted>
3.7500

> <Gold.Chemscore.Internal.Correction.Weighted>
   9.000000E+99

> <Gold.Protein.RotatedTorsions>
[ 6907 6896 6895 6894 ] final -134.98 input  -60.11 | X-H torsion
[ 7974 7965 7964 7962 ] final -149.17 input  175.53 | X-H torsion
[ 8008 7997 7996 7995 ] final  -66.62 input   59.86 | X-H torsion
[ 10167 10162 10161 10158 ] final  -10.29 input  -65.29 | X-H torsion
[ 10718 10713 10712 10709 ] final   96.94 input   66.30 | X-H torsion
[ 10763 10752 10751 10750 ] final -164.83 input  -60.55 | X-H torsion
[ 11005 11000 10999 10996 ] final  -24.05 input  -57.11 | X-H torsion

> <Gold.Protein.ActiveResidues>
 VAL166  LYS551  ARG553  GLY616  TRP617  ASP618  TYR619  PRO620  LYS621  CYS622 
 ASP623  PHE694  ASN695  SER759  ASP760  ASP761  ALA762  ILE779  LEU786  VAL792 
 PHE793  MET794  SER795  GLU796  ALA797  LYS798  CYS799  TRP800  GLU811  SER814 

> <Gold.Protein.RotatedAtoms>
  150.9924  133.6137  159.2706 H   0  0  0  0  0  0  0  0  0  0  0  0  # atno 6907 bound_to 6896
  151.3353  135.0850  159.9362 H   0  0  0  0  0  0  0  0  0  0  0  0  # atno 6908 bound_to 6896
  152.5250  133.9545  159.7742 H   0  0  0  0  0  0  0  0  0  0  0  0  # atno 6909 bound_to 6896
  144.7984  140.5101  143.5724 H   0  0  0  0  0  0  0  0  0  0  0  0  # atno 7974 bound_to 7965
  154.4746  140.0909  156.7231 H   0  0  0  0  0  0  0  0  0  0  0  0  # atno 8008 bound_to 7997
  155.4630  140.3461  155.4297 H   0  0  0  0  0  0  0  0  0  0  0  0  # atno 8009 bound_to 7997
  156.1096  140.1444  156.9345 H   0  0  0  0  0  0  0  0  0  0  0  0  # atno 8010 bound_to 7997
  140.7110  143.5764  150.9038 H   0  0  0  0  0  0  0  0  0  0  0  0  # atno 10167 bound_to 10162
  157.6920  131.0594  150.4569 H   0  0  0  0  0  0  0  0  0  0  0  0  # atno 10718 bound_to 10713
  154.6990  135.2984  154.9368 H   0  0  0  0  0  0  0  0  0  0  0  0  # atno 10763 bound_to 10752
  154.0307  135.6670  153.4784 H   0  0  0  0  0  0  0  0  0  0  0  0  # atno 10764 bound_to 10752
  153.0667  135.5084  154.8124 H   0  0  0  0  0  0  0  0  0  0  0  0  # atno 10765 bound_to 10752
  140.8809  133.7655  156.0300 H   0  0  0  0  0  0  0  0  0  0  0  0  # atno 11005 bound_to 11000
  145.5615  139.1479  143.3339 LP  0  0  0  0  0  0  0  0  0  0  0  0  # atno 17320 bound_to 7965
  146.2259  140.5750  142.8997 LP  0  0  0  0  0  0  0  0  0  0  0  0  # atno 17321 bound_to 7965
  139.9490  143.6294  152.3034 LP  0  0  0  0  0  0  0  0  0  0  0  0  # atno 17342 bound_to 10162
  139.6806  144.7656  151.1616 LP  0  0  0  0  0  0  0  0  0  0  0  0  # atno 17343 bound_to 10162
  156.4916  130.4096  149.6403 LP  0  0  0  0  0  0  0  0  0  0  0  0  # atno 17370 bound_to 10713
  156.3412  130.7383  151.2328 LP  0  0  0  0  0  0  0  0  0  0  0  0  # atno 17371 bound_to 10713
  140.8463  134.3007  157.5293 LP  0  0  0  0  0  0  0  0  0  0  0  0  # atno 17394 bound_to 11000
  139.8719  134.9443  156.3878 LP  0  0  0  0  0  0  0  0  0  0  0  0  # atno 17395 bound_to 11000

$$$$
