#       Name:                AV-unprocessed.smi:381
#       Creating user name   scv26
#       Creation time:       Thu Mar 26 22:40:33 2020


#       File generated by GOLD software.
#

@<TRIPOS>MOLECULE
AV-unprocessed.smi:381
    48    49     1
SMALL
NO_CHARGES


@<TRIPOS>ATOM
      1 ****         0.4674   3.1561  -0.2126 O.2            1 S1                 0.0000
      2 ****         0.0680   1.9952  -0.2800 C.2            1 S1                 0.0000
      3 ****         0.8885   0.9416  -0.4202 N.am           1 S1                 0.0000
      4 ****         2.3396   1.0353  -0.4922 C.3            1 S1                 0.0000
      5 ****         2.9510  -0.3056  -0.9194 C.3            1 S1                 0.0000
      6 ****         4.4644  -0.2430  -0.9925 C.ar           1 S1                 0.0000
      7 ****         5.1048   0.3410  -2.1081 C.ar           1 S1                 0.0000
      8 ****         6.5137   0.3962  -2.1466 C.ar           1 S1                 0.0000
      9 ****         7.2511  -0.1359  -1.0693 C.ar           1 S1                 0.0000
     10 ****         6.6040  -0.6881  -0.0193 N.pl3          1 S1                 1.0000
     11 ****         5.2566  -0.7585   0.0562 C.ar           1 S1                 0.0000
     12 ****        -1.2406   1.6902  -0.2120 N.am           1 S1                 0.0000
     13 ****        -2.3887   2.5896  -0.0609 C.3            1 S1                 0.0000
     14 ****        -3.5158   1.8139   0.6603 C.3            1 S1                 0.0000
     15 ****        -4.8696   2.5362   0.7931 C.3            1 S1                 0.0000
     16 ****        -5.8996   2.2188  -0.3151 C.3            1 S1                 0.0000
     17 ****        -5.8433   3.1314  -1.5543 C.3            1 S1                 0.0000
     18 ****        -4.9535   2.6527  -2.7212 C.3            1 S1                 0.0000
     19 ****        -3.5120   2.2377  -2.3760 C.3            1 S1                 0.0000
     20 ****        -2.7769   3.2032  -1.4257 C.3            1 S1                 0.0000
     21 ****         0.4797   0.0196  -0.4667 H              1 S1                 0.0000
     22 ****         2.6225   1.8159  -1.2005 H              1 S1                 0.0000
     23 ****         2.7242   1.3310   0.4850 H              1 S1                 0.0000
     24 ****         2.6563  -1.0909  -0.2218 H              1 S1                 0.0000
     25 ****         2.5638  -0.5998  -1.8960 H              1 S1                 0.0000
     26 ****         4.5236   0.7466  -2.9237 H              1 S1                 0.0000
     27 ****         7.0207   0.8420  -2.9900 H              1 S1                 0.0000
     28 ****         8.3298  -0.1352  -1.0151 H              1 S1                 0.0000
     29 ****         4.8576  -1.2195   0.9480 H              1 S1                 0.0000
     30 ****        -1.4690   0.7085  -0.2761 H              1 S1                 0.0000
     31 ****        -2.1055   3.4116   0.5985 H              1 S1                 0.0000
     32 ****        -3.6682   0.8315   0.2125 H              1 S1                 0.0000
     33 ****        -3.1573   1.5994   1.6682 H              1 S1                 0.0000
     34 ****        -5.3112   2.1996   1.7320 H              1 S1                 0.0000
     35 ****        -4.7324   3.6111   0.9146 H              1 S1                 0.0000
     36 ****        -5.8635   1.1676  -0.6026 H              1 S1                 0.0000
     37 ****        -6.8862   2.3570   0.1290 H              1 S1                 0.0000
     38 ****        -6.8558   3.2199  -1.9501 H              1 S1                 0.0000
     39 ****        -5.5801   4.1464  -1.2568 H              1 S1                 0.0000
     40 ****        -5.4403   1.8126  -3.2182 H              1 S1                 0.0000
     41 ****        -4.9184   3.4498  -3.4647 H              1 S1                 0.0000
     42 ****        -3.5129   1.2235  -1.9796 H              1 S1                 0.0000
     43 ****        -2.9476   2.1624  -3.3060 H              1 S1                 0.0000
     44 ****        -3.3624   4.1053  -1.2588 H              1 S1                 0.0000
     45 ****        -1.8792   3.5680  -1.9260 H              1 S1                 0.0000
     46 ****         7.1565  -1.0664   0.7505 H              1 S1                 0.0000
     47 ****         1.4468   3.3516  -0.2622 LP             1 S1                 0.0000
     48 ****        -0.1873   3.9048  -0.1082 LP             1 S1                 0.0000
@<TRIPOS>BOND
    1    1    2 2     
    2    2    3 am    
    3    2   12 am    
    4    3    4 1     
    5    3   21 1     
    6    4    5 1     
    7    4   22 1     
    8    4   23 1     
    9    5    6 1     
   10    5   24 1     
   11    5   25 1     
   12    6   11 ar    
   13    6    7 ar    
   14    7    8 ar    
   15    7   26 1     
   16    8    9 ar    
   17    8   27 1     
   18    9   10 ar    
   19    9   28 1     
   20   10   11 ar    
   21   10   46 1     
   22   11   29 1     
   23   12   13 1     
   24   12   30 1     
   25   13   20 1     
   26   13   14 1     
   27   13   31 1     
   28   14   15 1     
   29   14   32 1     
   30   14   33 1     
   31   15   16 1     
   32   15   34 1     
   33   15   35 1     
   34   16   17 1     
   35   16   36 1     
   36   16   37 1     
   37   17   18 1     
   38   17   38 1     
   39   17   39 1     
   40   18   19 1     
   41   18   40 1     
   42   18   41 1     
   43   19   20 1     
   44   19   42 1     
   45   19   43 1     
   46   20   44 1     
   47   20   45 1     
   48    1   47 1     
   49    1   48 1     
@<TRIPOS>SUBSTRUCTURE
      1 S1             1
@<TRIPOS>SET
LONE_PAIRS      STATIC     ATOMS    <user>   **** ""
2 47 48
DONOR_HYDROGENS      STATIC     ATOMS    <user>   **** ""
3 21 46 30
ATOM$BLUE        STATIC     ATOMS    COLORGROUP SYSTEM
2 47 48
ATOM$RED        STATIC     ATOMS    COLORGROUP SYSTEM
3 21 46 30
