AV-unprocessed.smi:193|AV-procd|sdf|1514|dock5
  -GOLD-   2262019353D 1   1.00000     0.00000
 Structure written by MMmdl.
 61 65  0  0  0  0  0  0  0  0  1 V2000
  154.1942  138.2336  160.0055 C   0  0  0  0  0  0  0  0  0  0  0  0
  152.8621  138.8503  159.5547 C   0  0  2  0  0  0  0  0  0  0  0  0
  152.0120  137.7719  158.8446 C   0  0  0  0  0  0  0  0  0  0  0  0
  150.6429  138.2033  158.5586 N   0  0  0  0  0  0  0  0  0  0  0  0
  149.6709  137.2617  158.4536 C   0  0  0  0  0  0  0  0  0  0  0  0
  149.1636  136.9545  157.2301 N   0  0  0  0  0  0  0  0  0  0  0  0
  148.2021  136.0343  157.1099 C   0  0  0  0  0  0  0  0  0  0  0  0
  147.6134  135.3125  158.0653 N   0  0  0  0  0  0  0  0  0  0  0  0
  148.1210  135.6112  159.2952 C   0  0  0  0  0  0  0  0  0  0  0  0
  149.1458  136.5589  159.5755 C   0  0  0  0  0  0  0  0  0  0  0  0
  149.4191  136.5696  160.9385 N   0  0  0  0  0  0  0  0  0  0  0  0
  148.5946  135.6899  161.4362 C   0  0  0  0  0  0  0  0  0  0  0  0
  147.7677  135.0765  160.5224 N   0  0  0  0  0  0  0  0  0  0  0  0
  146.7585  134.0672  160.8052 C   0  0  0  0  0  0  0  0  0  0  0  0
  147.2074  132.9849  161.8264 C   0  0  0  0  0  0  0  0  0  0  0  0
  147.2010  133.5804  163.1099 O   0  0  0  0  0  0  0  0  0  0  0  0
  146.2255  131.7971  161.8635 C   0  0  0  0  0  0  0  0  0  0  0  0
  146.3830  130.8920  160.6271 C   0  0  0  0  0  0  0  0  0  0  0  0
  147.7312  130.4486  160.5108 O   0  0  0  0  0  0  0  0  0  0  0  0
  148.6615  131.5135  160.3466 C   0  0  0  0  0  0  0  0  0  0  0  0
  148.6269  132.4293  161.5820 C   0  0  0  0  0  0  0  0  0  0  0  0
  150.4356  139.4549  157.8339 C   0  0  0  0  0  0  0  0  0  0  0  0
  150.7285  140.6522  158.7497 C   0  0  0  0  0  0  0  0  0  0  0  0
  152.1126  141.1224  158.6655 N   0  0  0  0  0  0  0  0  0  0  0  0
  152.3614  142.0295  159.7790 C   0  0  1  0  0  0  0  0  0  0  0  0
  153.4995  143.0168  159.6469 C   0  0  0  0  0  0  0  0  0  0  0  0
  152.0725  143.5101  159.6024 C   0  0  1  0  0  0  0  0  0  0  0  0
  151.5136  144.0984  158.3211 C   0  0  0  0  0  0  0  0  0  0  0  0
  153.1296  140.0641  158.6302 C   0  0  0  0  0  0  0  0  0  0  0  0
  154.7750  137.8780  159.1537 H   0  0  0  0  0  0  0  0  0  0  0  0
  154.0301  137.3872  160.6728 H   0  0  0  0  0  0  0  0  0  0  0  0
  154.8020  138.9605  160.5448 H   0  0  0  0  0  0  0  0  0  0  0  0
  152.3503  139.1749  160.4618 H   0  0  0  0  0  0  0  0  0  0  0  0
  152.4906  137.4638  157.9143 H   0  0  0  0  0  0  0  0  0  0  0  0
  151.9755  136.8888  159.4843 H   0  0  0  0  0  0  0  0  0  0  0  0
  147.8540  135.8503  156.1041 H   0  0  0  0  0  0  0  0  0  0  0  0
  148.5621  135.4682  162.4929 H   0  0  0  0  0  0  0  0  0  0  0  0
  145.8613  134.5737  161.1640 H   0  0  0  0  0  0  0  0  0  0  0  0
  146.4795  133.6102  159.8562 H   0  0  0  0  0  0  0  0  0  0  0  0
  147.8688  134.2482  163.1360 H   0  0  0  0  0  0  0  0  0  0  0  0
  146.4125  131.1935  162.7532 H   0  0  0  0  0  0  0  0  0  0  0  0
  145.1966  132.1498  161.9450 H   0  0  0  0  0  0  0  0  0  0  0  0
  145.7373  130.0189  160.7225 H   0  0  0  0  0  0  0  0  0  0  0  0
  146.0779  131.4056  159.7149 H   0  0  0  0  0  0  0  0  0  0  0  0
  149.6585  131.0894  160.2260 H   0  0  0  0  0  0  0  0  0  0  0  0
  148.4425  132.0679  159.4332 H   0  0  0  0  0  0  0  0  0  0  0  0
  149.3611  133.2290  161.4869 H   0  0  0  0  0  0  0  0  0  0  0  0
  148.9419  131.8424  162.4465 H   0  0  0  0  0  0  0  0  0  0  0  0
  151.0525  139.4782  156.9350 H   0  0  0  0  0  0  0  0  0  0  0  0
  149.4087  139.5276  157.4767 H   0  0  0  0  0  0  0  0  0  0  0  0
  150.0850  141.4831  158.4618 H   0  0  0  0  0  0  0  0  0  0  0  0
  150.4572  140.4063  159.7779 H   0  0  0  0  0  0  0  0  0  0  0  0
  152.2072  141.6504  160.7879 H   0  0  0  0  0  0  0  0  0  0  0  0
  154.0781  143.2370  160.5416 H   0  0  0  0  0  0  0  0  0  0  0  0
  154.0651  143.0191  158.7168 H   0  0  0  0  0  0  0  0  0  0  0  0
  151.7167  144.0200  160.4954 H   0  0  0  0  0  0  0  0  0  0  0  0
  151.9313  143.6021  157.4447 H   0  0  0  0  0  0  0  0  0  0  0  0
  151.7564  145.1594  158.2629 H   0  0  0  0  0  0  0  0  0  0  0  0
  150.4292  143.9908  158.3002 H   0  0  0  0  0  0  0  0  0  0  0  0
  154.0961  140.5119  158.8652 H   0  0  0  0  0  0  0  0  0  0  0  0
  153.2287  139.7146  157.6022 H   0  0  0  0  0  0  0  0  0  0  0  0
  1  2  1  0  0  0  0
  1 30  1  0  0  0  0
  1 31  1  0  0  0  0
  1 32  1  0  0  0  0
  2 29  1  0  0  0  0
  2  3  1  0  0  0  0
  2 33  1  0  0  0  0
  3  4  1  0  0  0  0
  3 34  1  0  0  0  0
  3 35  1  0  0  0  0
  4  5  1  0  0  0  0
  4 22  1  0  0  0  0
  5 10  1  0  0  0  0
  5  6  2  0  0  0  0
  6  7  1  0  0  0  0
  7  8  2  0  0  0  0
  7 36  1  0  0  0  0
  8  9  1  0  0  0  0
  9 13  1  0  0  0  0
  9 10  2  0  0  0  0
 10 11  1  0  0  0  0
 11 12  2  0  0  0  0
 12 13  1  0  0  0  0
 12 37  1  0  0  0  0
 13 14  1  0  0  0  0
 14 15  1  0  0  0  0
 14 38  1  0  0  0  0
 14 39  1  0  0  0  0
 15 21  1  0  0  0  0
 15 16  1  0  0  0  0
 15 17  1  0  0  0  0
 16 40  1  0  0  0  0
 17 18  1  0  0  0  0
 17 41  1  0  0  0  0
 17 42  1  0  0  0  0
 18 19  1  0  0  0  0
 18 43  1  0  0  0  0
 18 44  1  0  0  0  0
 19 20  1  0  0  0  0
 20 21  1  0  0  0  0
 20 45  1  0  0  0  0
 20 46  1  0  0  0  0
 21 47  1  0  0  0  0
 21 48  1  0  0  0  0
 22 23  1  0  0  0  0
 22 49  1  0  0  0  0
 22 50  1  0  0  0  0
 23 24  1  0  0  0  0
 23 51  1  0  0  0  0
 23 52  1  0  0  0  0
 24 25  1  0  0  0  0
 24 29  1  0  0  0  0
 25 27  1  0  0  0  0
 25 26  1  0  0  0  0
 25 53  1  0  0  0  0
 26 27  1  0  0  0  0
 26 54  1  0  0  0  0
 26 55  1  0  0  0  0
 27 28  1  0  0  0  0
 27 56  1  0  0  0  0
 28 57  1  0  0  0  0
 28 58  1  0  0  0  0
 28 59  1  0  0  0  0
 29 60  1  0  0  0  0
 29 61  1  0  0  0  0
M  END
> <s_m_source_file>
AV-unprocessed.smi

> <i_m_source_file_index>
193

> <i_lp_mmshare_version>
43012

> <i_f3d_flags>
0

> <s_epik_input>
W0NIM11bQ0BASF0xW0NIMl1bQ0BIXTFOKFtDSDJdMilbQ0gyXVtDSDJdTihbQ0gyXVtDQEhdMltDSDNdKWMobltjSF1uMyljKGMzNCluW2NIXW40W0NIMl1DNShbT0hdKVtDSDJdW0NIMl1PW0NIMl1bQ0gyXTU=

> <s_epik_cmdline>
J2VwaWtfcHl0aG9uJywgJy1waCcsICc3LjAnLCAnLXRuJywgJzgnLCAnLW1hJywgJzIwMCcsICctbWV0YWxfYmluZGluZycsICctaW1hZScsICc8aW5maWxlLm1hZT4nLCAnLW9tYWUnLCAnPG91dGZpbGUubWFlPic=

> <r_lp_tautomer_probability>
1

> <r_epik_Ionization_Penalty>
1.45227

> <r_epik_Ionization_Penalty_Charging>
0

> <r_epik_Ionization_Penalty_Neutral>
1.45227

> <r_epik_State_Penalty>
2.02377

> <r_epik_Charging_Adjusted_Penalty>
2.02377

> <i_epik_Tot_Q>
0

> <i_epik_Tot_abs_Q>
0

> <r_epik_Metal_State_Penalty>
2.01937

> <b_epik_Metal_Only>
0

> <s_lp_Force_Field>
OPLS_2005

> <r_lp_Energy>
54.496

> <b_lp_Chiralities_Consistent>
1

> <s_lp_Variant>
AV-unprocessed.smi:193-19

> <Gold.Version>
5.8.1

> <Gold.Id.Protein>
6NUR|6NUR_protein|mol2

> <Gold.PLP.Fitness>
45.9934

> <Gold.PLP.PLP>
-46.0158

> <Gold.PLP.part.hbond>
-1.9816

> <Gold.PLP.part.metal>
0.0000

> <Gold.PLP.part.buried>
-6.1920

> <Gold.PLP.part.nonpolar>
-38.6483

> <Gold.PLP.part.repulsive>
0.0019

> <Gold.PLP.ligand.clash>
0.0000

> <Gold.PLP.ligand.torsion>
2.0480

> <Gold.PLP.Chemscore.Hbond>
0.9120

> <Gold.PLP.Chemscore.CHOScore>
0.0000

> <Gold.PLP.Chemscore.Metal>
0.0000

> <Gold.Chemscore.Hbonds>
donor molecule, donor type, donor heavy atom, donor atom, acceptor molecule, acceptor atom, score
      P1  H  6931  6943       L1    11  0.82

> <Gold.PLP.Chemscore.Internal.Correction>
1.3375

> <Gold.Rescore>
     Score         DG    S(hbond)    S(metal)    S(lipo)     H(rot)  DE(clash)    DE(int)     intcor
     15.02     -17.40       0.87        0.00     118.75       1.91       0.10       2.28       ----

> <Gold.Chemscore.Fitness>
15.0237

> <Gold.Chemscore.DG>
-17.4045

> <Gold.Chemscore.ZeroCoef>
-5.4800

> <Gold.Chemscore.Hbond>
0.8720

> <Gold.Chemscore.Metal>
0.0000

> <Gold.Chemscore.Lipo>
118.7469

> <Gold.Chemscore.Internal_Hbond>
0.0000

> <Gold.Chemscore.DEClash>
0.0997

> <Gold.Chemscore.DEInternal>
2.2812

> <Gold.Chemscore.Rot>
1.9068

> <Gold.Chemscore.Internal.Correction>
   9.000000E+99

> <Gold.Chemscore.Hbonds>
donor molecule, donor type, donor heavy atom, donor atom, acceptor molecule, acceptor atom, score
      P1  H  6931  6943       L1    11  0.41

> <Gold.Chemscore.Hbond.Weighted>
-2.9126

> <Gold.Chemscore.Metal.Weighted>
-0.0000

> <Gold.Chemscore.Lipo.Weighted>
-13.8934

> <Gold.Chemscore.Internal_Hbond.Weighted>
0.0000

> <Gold.Chemscore.DEClash.Weighted>
0.0997

> <Gold.Chemscore.DEInternal.Weighted>
2.2812

> <Gold.Chemscore.Rot.Weighted>
4.8814

> <Gold.Chemscore.Internal.Correction.Weighted>
   9.000000E+99

> <Gold.Protein.RotatedTorsions>
[ 6907 6896 6895 6894 ] final   64.44 input  -60.11 | X-H torsion
[ 7974 7965 7964 7962 ] final  -51.72 input  175.53 | X-H torsion
[ 8008 7997 7996 7995 ] final  -80.08 input   59.86 | X-H torsion
[ 10167 10162 10161 10158 ] final   47.85 input  -65.29 | X-H torsion
[ 10718 10713 10712 10709 ] final -126.01 input   66.30 | X-H torsion
[ 10763 10752 10751 10750 ] final   72.57 input  -60.55 | X-H torsion
[ 11005 11000 10999 10996 ] final   74.02 input  -57.11 | X-H torsion

> <Gold.Protein.ActiveResidues>
 VAL166  LYS551  ARG553  GLY616  TRP617  ASP618  TYR619  PRO620  LYS621  CYS622 
 ASP623  PHE694  ASN695  SER759  ASP760  ASP761  ALA762  ILE779  LEU786  VAL792 
 PHE793  MET794  SER795  GLU796  ALA797  LYS798  CYS799  TRP800  GLU811  SER814 

> <Gold.Protein.RotatedAtoms>
  152.4331  134.5738  159.9928 H   0  0  0  0  0  0  0  0  0  0  0  0  # atno 6907 bound_to 6896
  151.5856  133.3367  159.3025 H   0  0  0  0  0  0  0  0  0  0  0  0  # atno 6908 bound_to 6896
  150.8226  134.7477  159.6850 H   0  0  0  0  0  0  0  0  0  0  0  0  # atno 6909 bound_to 6896
  145.9158  140.7876  142.9672 H   0  0  0  0  0  0  0  0  0  0  0  0  # atno 7974 bound_to 7965
  154.5848  140.0668  156.9155 H   0  0  0  0  0  0  0  0  0  0  0  0  # atno 8008 bound_to 7997
  155.2399  140.3344  155.4275 H   0  0  0  0  0  0  0  0  0  0  0  0  # atno 8009 bound_to 7997
  156.2215  140.1801  156.7450 H   0  0  0  0  0  0  0  0  0  0  0  0  # atno 8010 bound_to 7997
  140.2994  144.2952  150.6222 H   0  0  0  0  0  0  0  0  0  0  0  0  # atno 10167 bound_to 10162
  156.1727  130.6678  151.0201 H   0  0  0  0  0  0  0  0  0  0  0  0  # atno 10718 bound_to 10713
  153.0467  135.5095  154.7763 H   0  0  0  0  0  0  0  0  0  0  0  0  # atno 10763 bound_to 10752
  154.6658  135.2945  154.9809 H   0  0  0  0  0  0  0  0  0  0  0  0  # atno 10764 bound_to 10752
  154.0645  135.6686  153.4868 H   0  0  0  0  0  0  0  0  0  0  0  0  # atno 10765 bound_to 10752
  139.9411  134.7397  156.1097 H   0  0  0  0  0  0  0  0  0  0  0  0  # atno 11005 bound_to 11000
  144.6748  140.1898  143.7398 LP  0  0  0  0  0  0  0  0  0  0  0  0  # atno 17320 bound_to 7965
  145.8613  139.2224  143.1715 LP  0  0  0  0  0  0  0  0  0  0  0  0  # atno 17321 bound_to 7965
  140.5664  143.2185  151.7675 LP  0  0  0  0  0  0  0  0  0  0  0  0  # atno 17342 bound_to 10162
  139.4919  144.4277  151.9907 LP  0  0  0  0  0  0  0  0  0  0  0  0  # atno 17343 bound_to 10162
  157.6814  131.0837  150.7360 LP  0  0  0  0  0  0  0  0  0  0  0  0  # atno 17370 bound_to 10713
  156.7418  130.4741  149.5476 LP  0  0  0  0  0  0  0  0  0  0  0  0  # atno 17371 bound_to 10713
  141.1046  133.6664  156.2834 LP  0  0  0  0  0  0  0  0  0  0  0  0  # atno 17394 bound_to 11000
  140.5949  134.5613  157.5506 LP  0  0  0  0  0  0  0  0  0  0  0  0  # atno 17395 bound_to 11000

$$$$
