AV-unprocessed.smi:1318|AV-procd|sdf|5457|dock3
  -GOLD-   22720 5 23D 1   1.00000     0.00000
 Structure written by MMmdl.
 28 29  0  0  0  0  0  0  0  0  1 V2000
  152.4025  143.5009  161.7289 C   0  0  0  0  0  0  0  0  0  0  0  0
  151.9536  143.4114  160.3108 C   0  0  0  0  0  0  0  0  0  0  0  0
  151.5891  142.2668  159.7278 N   0  0  0  0  0  0  0  0  0  0  0  0
  151.2090  142.4390  158.3929 C   0  0  0  0  0  0  0  0  0  0  0  0
  150.7726  141.2576  157.5810 C   0  0  0  0  0  0  0  0  0  0  0  0
  151.8497  140.1612  157.5258 C   0  0  0  0  0  0  0  0  0  0  0  0
  151.5360  139.1469  156.5255 N   0  0  0  0  0  0  0  0  0  0  0  0
  152.0617  139.0900  155.2924 C   0  0  0  0  0  0  0  0  0  0  0  0
  152.8806  139.9093  154.8734 O   0  0  0  0  0  0  0  0  0  0  0  0
  151.5657  137.9426  154.4747 C   0  0  0  0  0  0  0  0  0  0  0  0
  150.0752  137.8582  154.2147 C   0  0  0  0  0  0  0  0  0  0  0  0
  150.7257  136.8926  155.1733 C   0  0  0  0  0  0  0  0  0  0  0  0
  151.2927  143.7426  157.9707 C   0  0  0  0  0  0  0  0  0  0  0  0
  151.8519  144.8012  159.2363 S   0  0  0  0  0  0  0  0  0  0  0  0
  151.6329  143.1049  162.3915 H   0  0  0  0  0  0  0  0  0  0  0  0
  152.5972  144.5385  162.0005 H   0  0  0  0  0  0  0  0  0  0  0  0
  153.3174  142.9250  161.8685 H   0  0  0  0  0  0  0  0  0  0  0  0
  149.8505  140.8484  157.9957 H   0  0  0  0  0  0  0  0  0  0  0  0
  150.5276  141.5753  156.5666 H   0  0  0  0  0  0  0  0  0  0  0  0
  152.8127  140.6019  157.2669 H   0  0  0  0  0  0  0  0  0  0  0  0
  151.9747  139.6953  158.5047 H   0  0  0  0  0  0  0  0  0  0  0  0
  150.8683  138.4370  156.7895 H   0  0  0  0  0  0  0  0  0  0  0  0
  152.2208  137.5934  153.6780 H   0  0  0  0  0  0  0  0  0  0  0  0
  149.4286  138.6250  154.6376 H   0  0  0  0  0  0  0  0  0  0  0  0
  149.7648  137.4815  153.2422 H   0  0  0  0  0  0  0  0  0  0  0  0
  150.8561  135.8620  154.8503 H   0  0  0  0  0  0  0  0  0  0  0  0
  150.5107  137.0182  156.2333 H   0  0  0  0  0  0  0  0  0  0  0  0
  151.0608  144.1429  156.9951 H   0  0  0  0  0  0  0  0  0  0  0  0
  1  2  1  0  0  0  0
  1 15  1  0  0  0  0
  1 16  1  0  0  0  0
  1 17  1  0  0  0  0
  2 14  1  0  0  0  0
  2  3  2  0  0  0  0
  3  4  1  0  0  0  0
  4  5  1  0  0  0  0
  4 13  2  0  0  0  0
  5  6  1  0  0  0  0
  5 18  1  0  0  0  0
  5 19  1  0  0  0  0
  6  7  1  0  0  0  0
  6 20  1  0  0  0  0
  6 21  1  0  0  0  0
  7  8  1  0  0  0  0
  7 22  1  0  0  0  0
  8  9  2  0  0  0  0
  8 10  1  0  0  0  0
 10 12  1  0  0  0  0
 10 11  1  0  0  0  0
 10 23  1  0  0  0  0
 11 12  1  0  0  0  0
 11 24  1  0  0  0  0
 11 25  1  0  0  0  0
 12 26  1  0  0  0  0
 12 27  1  0  0  0  0
 13 14  1  0  0  0  0
 13 28  1  0  0  0  0
M  END
> <s_m_source_file>
AV-unprocessed.smi

> <i_m_source_file_index>
1318

> <i_lp_mmshare_version>
43012

> <i_f3d_flags>
0

> <s_epik_input>
W0NIM11jMW5jKFtjSF1zMSlbQ0gyXVtDSDJdW05IXUMoPU8pW0NIXTJbQ0gyXVtDSDJdMg==

> <s_epik_cmdline>
J2VwaWtfcHl0aG9uJywgJy1waCcsICc3LjAnLCAnLXRuJywgJzgnLCAnLW1hJywgJzIwMCcsICctbWV0YWxfYmluZGluZycsICctaW1hZScsICc8aW5maWxlLm1hZT4nLCAnLW9tYWUnLCAnPG91dGZpbGUubWFlPic=

> <r_epik_Ionization_Penalty>
0.00109668

> <r_epik_Ionization_Penalty_Charging>
0

> <r_epik_Ionization_Penalty_Neutral>
0.00109668

> <r_epik_State_Penalty>
0.000719322

> <r_epik_Charging_Adjusted_Penalty>
0.000719322

> <i_epik_Tot_Q>
0

> <i_epik_Tot_abs_Q>
0

> <r_epik_Metal_State_Penalty>
-0

> <b_epik_Metal_Only>
0

> <s_lp_Force_Field>
OPLS_2005

> <r_lp_Energy>
0.582663

> <b_lp_Chiralities_Consistent>
1

> <s_lp_Variant>
AV-unprocessed.smi:1318-1

> <Gold.Version>
5.8.1

> <Gold.Id.Protein>
6NUR|6NUR_protein|mol2

> <Gold.PLP.Fitness>
39.4523

> <Gold.PLP.PLP>
-32.6395

> <Gold.PLP.part.hbond>
-2.0755

> <Gold.PLP.part.metal>
0.0000

> <Gold.PLP.part.buried>
-2.1336

> <Gold.PLP.part.nonpolar>
-28.5016

> <Gold.PLP.part.repulsive>
0.1137

> <Gold.PLP.ligand.clash>
0.0000

> <Gold.PLP.ligand.torsion>
0.2652

> <Gold.PLP.Chemscore.Hbond>
1.4320

> <Gold.PLP.Chemscore.CHOScore>
0.9919

> <Gold.PLP.Chemscore.Metal>
0.0000

> <Gold.Chemscore.Hbonds>
donor molecule, donor type, donor heavy atom, donor atom, acceptor molecule, acceptor atom, score
      P1  H  7989  7998       L1     9  0.36
      P1  H  7997  8010       L1     9  1.00
      L1  C    13    28       P1  8028  0.85

> <Gold.PLP.Chemscore.Internal.Correction>
0.0716

> <Gold.Rescore>
     Score         DG    S(hbond)    S(metal)    S(lipo)     H(rot)  DE(clash)    DE(int)     intcor
     15.42     -15.69       1.08        0.00      89.05       1.49       0.00       0.28       ----

> <Gold.Chemscore.Fitness>
15.4159

> <Gold.Chemscore.DG>
-15.6930

> <Gold.Chemscore.ZeroCoef>
-5.4800

> <Gold.Chemscore.Hbond>
1.0818

> <Gold.Chemscore.Metal>
0.0000

> <Gold.Chemscore.Lipo>
89.0516

> <Gold.Chemscore.Internal_Hbond>
0.0000

> <Gold.Chemscore.DEClash>
0.0000

> <Gold.Chemscore.DEInternal>
0.2770

> <Gold.Chemscore.Rot>
1.4919

> <Gold.Chemscore.Internal.Correction>
   9.000000E+99

> <Gold.Chemscore.Hbonds>
donor molecule, donor type, donor heavy atom, donor atom, acceptor molecule, acceptor atom, score
      P1  H  7989  7998       L1     9  0.08
      P1  H  7997  8010       L1     9  0.98

> <Gold.Chemscore.Hbond.Weighted>
-3.6131

> <Gold.Chemscore.Metal.Weighted>
-0.0000

> <Gold.Chemscore.Lipo.Weighted>
-10.4190

> <Gold.Chemscore.Internal_Hbond.Weighted>
0.0000

> <Gold.Chemscore.DEClash.Weighted>
0.0000

> <Gold.Chemscore.DEInternal.Weighted>
0.2770

> <Gold.Chemscore.Rot.Weighted>
3.8192

> <Gold.Chemscore.Internal.Correction.Weighted>
   9.000000E+99

> <Gold.Protein.RotatedTorsions>
[ 6907 6896 6895 6894 ] final  -89.88 input  -60.11 | X-H torsion
[ 7974 7965 7964 7962 ] final  100.37 input  175.53 | X-H torsion
[ 8008 7997 7996 7995 ] final  109.05 input   59.86 | X-H torsion
[ 10167 10162 10161 10158 ] final    7.85 input  -65.29 | X-H torsion
[ 10718 10713 10712 10709 ] final  140.95 input   66.30 | X-H torsion
[ 10763 10752 10751 10750 ] final  -87.92 input  -60.55 | X-H torsion
[ 11005 11000 10999 10996 ] final -102.91 input  -57.11 | X-H torsion

> <Gold.Protein.ActiveResidues>
 VAL166  LYS551  ARG553  GLY616  TRP617  ASP618  TYR619  PRO620  LYS621  CYS622 
 ASP623  PHE694  ASN695  SER759  ASP760  ASP761  ALA762  ILE779  LEU786  VAL792 
 PHE793  MET794  SER795  GLU796  ALA797  LYS798  CYS799  TRP800  GLU811  SER814 

> <Gold.Protein.RotatedAtoms>
  150.6877  134.2518  159.4513 H   0  0  0  0  0  0  0  0  0  0  0  0  # atno 6907 bound_to 6896
  152.0455  134.9683  160.0583 H   0  0  0  0  0  0  0  0  0  0  0  0  # atno 6908 bound_to 6896
  152.1168  133.4296  159.4693 H   0  0  0  0  0  0  0  0  0  0  0  0  # atno 6909 bound_to 6896
  145.3865  139.2370  143.3375 H   0  0  0  0  0  0  0  0  0  0  0  0  # atno 7974 bound_to 7965
  156.1950  140.3065  155.9408 H   0  0  0  0  0  0  0  0  0  0  0  0  # atno 8008 bound_to 7997
  155.3087  140.0450  157.3050 H   0  0  0  0  0  0  0  0  0  0  0  0  # atno 8009 bound_to 7997
  154.5498  140.2288  155.8512 H   0  0  0  0  0  0  0  0  0  0  0  0  # atno 8010 bound_to 7997
  140.6348  143.7912  150.7344 H   0  0  0  0  0  0  0  0  0  0  0  0  # atno 10167 bound_to 10162
  157.3975  131.1012  151.0585 H   0  0  0  0  0  0  0  0  0  0  0  0  # atno 10718 bound_to 10713
  154.6389  135.5396  153.7766 H   0  0  0  0  0  0  0  0  0  0  0  0  # atno 10763 bound_to 10752
  153.0323  135.6454  154.1189 H   0  0  0  0  0  0  0  0  0  0  0  0  # atno 10764 bound_to 10752
  154.1115  135.2926  155.3209 H   0  0  0  0  0  0  0  0  0  0  0  0  # atno 10765 bound_to 10752
  141.1169  133.8597  157.1419 H   0  0  0  0  0  0  0  0  0  0  0  0  # atno 11005 bound_to 11000
  146.2818  140.4541  142.8773 LP  0  0  0  0  0  0  0  0  0  0  0  0  # atno 17320 bound_to 7965
  144.8470  140.6945  143.6192 LP  0  0  0  0  0  0  0  0  0  0  0  0  # atno 17321 bound_to 7965
  140.1530  143.4341  152.2118 LP  0  0  0  0  0  0  0  0  0  0  0  0  # atno 17342 bound_to 10162
  139.5559  144.7372  151.4296 LP  0  0  0  0  0  0  0  0  0  0  0  0  # atno 17343 bound_to 10162
  157.1596  130.6219  149.5606 LP  0  0  0  0  0  0  0  0  0  0  0  0  # atno 17370 bound_to 10713
  155.9814  130.4821  150.6827 LP  0  0  0  0  0  0  0  0  0  0  0  0  # atno 17371 bound_to 10713
  140.0097  134.9993  157.0369 LP  0  0  0  0  0  0  0  0  0  0  0  0  # atno 17394 bound_to 11000
  140.4620  134.1474  155.7192 LP  0  0  0  0  0  0  0  0  0  0  0  0  # atno 17395 bound_to 11000

$$$$
