AV-unprocessed.smi:1762|AV-procd|sdf|7102|dock5
  -GOLD-   22720 8323D 1   1.00000     0.00000
 Structure written by MMmdl.
 52 53  0  0  0  0  0  0  0  0  1 V2000
  152.9322  143.7961  158.8958 C   0  0  0  0  0  0  0  0  0  0  0  0
  152.2638  142.4314  159.0949 C   0  0  1  0  0  0  0  0  0  0  0  0
  151.3948  142.0238  157.8897 C   0  0  0  0  0  0  0  0  0  0  0  0
  150.8092  140.6863  158.0389 N   0  0  0  0  0  0  0  0  0  0  0  0
  149.9413  140.2996  156.8912 C   0  0  1  0  0  0  0  0  0  0  0  0
  149.1566  138.9895  157.1401 C   0  0  0  0  0  0  0  0  0  0  0  0
  148.5517  138.4401  156.2186 O   0  0  0  0  0  0  0  0  0  0  0  0
  149.1497  138.5220  158.3986 N   0  0  0  0  0  0  0  0  0  0  0  0
  148.4319  137.3346  158.8449 C   0  0  0  0  0  0  0  0  0  0  0  0
  149.2508  136.5382  159.8747 C   0  0  0  0  0  0  0  0  0  0  0  0
  148.4079  136.0859  161.0517 C   0  0  0  0  0  0  0  0  0  0  0  0
  148.2196  134.7125  161.3167 C   0  0  0  0  0  0  0  0  0  0  0  0
  147.4357  134.3448  162.4274 C   0  0  0  0  0  0  0  0  0  0  0  0
  146.8743  135.3592  163.2265 C   0  0  0  0  0  0  0  0  0  0  0  0
  147.1224  136.7018  162.8777 C   0  0  0  0  0  0  0  0  0  0  0  0
  147.8726  137.0654  161.8150 N   0  0  0  0  0  0  0  0  0  0  0  0
  148.9901  141.4280  156.3681 C   0  0  0  0  0  0  0  0  0  0  0  0
  147.8640  141.8044  157.3512 C   0  0  0  0  0  0  0  0  0  0  0  0
  148.4080  141.1411  154.9693 C   0  0  0  0  0  0  0  0  0  0  0  0
  151.8951  139.7316  158.3247 C   0  0  0  0  0  0  0  0  0  0  0  0
  152.7683  140.1576  159.5208 C   0  0  1  0  0  0  0  0  0  0  0  0
  153.9517  139.2091  159.7437 C   0  0  0  0  0  0  0  0  0  0  0  0
  153.2851  141.4608  159.2838 O   0  0  0  0  0  0  0  0  0  0  0  0
  152.1884  144.5816  158.7608 H   0  0  0  0  0  0  0  0  0  0  0  0
  153.5806  143.7936  158.0191 H   0  0  0  0  0  0  0  0  0  0  0  0
  153.5417  144.0606  159.7602 H   0  0  0  0  0  0  0  0  0  0  0  0
  151.6443  142.4746  159.9926 H   0  0  0  0  0  0  0  0  0  0  0  0
  150.6157  142.7775  157.7954 H   0  0  0  0  0  0  0  0  0  0  0  0
  151.9899  142.0686  156.9758 H   0  0  0  0  0  0  0  0  0  0  0  0
  150.6131  140.0799  156.0585 H   0  0  0  0  0  0  0  0  0  0  0  0
  149.6658  139.0348  159.0987 H   0  0  0  0  0  0  0  0  0  0  0  0
  147.4633  137.6161  159.2615 H   0  0  0  0  0  0  0  0  0  0  0  0
  148.2257  136.7153  157.9714 H   0  0  0  0  0  0  0  0  0  0  0  0
  149.6966  135.6623  159.4010 H   0  0  0  0  0  0  0  0  0  0  0  0
  150.0816  137.1410  160.2438 H   0  0  0  0  0  0  0  0  0  0  0  0
  148.6665  133.9576  160.6865 H   0  0  0  0  0  0  0  0  0  0  0  0
  147.2691  133.3039  162.6626 H   0  0  0  0  0  0  0  0  0  0  0  0
  146.2685  135.1145  164.0866 H   0  0  0  0  0  0  0  0  0  0  0  0
  146.7078  137.5052  163.4684 H   0  0  0  0  0  0  0  0  0  0  0  0
  149.5916  142.3234  156.2200 H   0  0  0  0  0  0  0  0  0  0  0  0
  147.1537  140.9900  157.4894 H   0  0  0  0  0  0  0  0  0  0  0  0
  147.3028  142.6647  156.9851 H   0  0  0  0  0  0  0  0  0  0  0  0
  148.2593  142.0722  158.3312 H   0  0  0  0  0  0  0  0  0  0  0  0
  147.6887  140.3218  154.9833 H   0  0  0  0  0  0  0  0  0  0  0  0
  149.1958  140.8844  154.2604 H   0  0  0  0  0  0  0  0  0  0  0  0
  147.8905  142.0170  154.5772 H   0  0  0  0  0  0  0  0  0  0  0  0
  151.5031  138.7429  158.5610 H   0  0  0  0  0  0  0  0  0  0  0  0
  152.5222  139.6150  157.4391 H   0  0  0  0  0  0  0  0  0  0  0  0
  152.1605  140.1762  160.4273 H   0  0  0  0  0  0  0  0  0  0  0  0
  153.6098  138.1932  159.9425 H   0  0  0  0  0  0  0  0  0  0  0  0
  154.5529  139.5296  160.5948 H   0  0  0  0  0  0  0  0  0  0  0  0
  154.6028  139.1787  158.8694 H   0  0  0  0  0  0  0  0  0  0  0  0
  1  2  1  0  0  0  0
  1 24  1  0  0  0  0
  1 25  1  0  0  0  0
  1 26  1  0  0  0  0
  2 23  1  0  0  0  0
  2  3  1  0  0  0  0
  2 27  1  0  0  0  0
  3  4  1  0  0  0  0
  3 28  1  0  0  0  0
  3 29  1  0  0  0  0
  4  5  1  0  0  0  0
  4 20  1  0  0  0  0
  5  6  1  0  0  0  0
  5 17  1  0  0  0  0
  5 30  1  0  0  0  0
  6  7  2  0  0  0  0
  6  8  1  0  0  0  0
  8  9  1  0  0  0  0
  8 31  1  0  0  0  0
  9 10  1  0  0  0  0
  9 32  1  0  0  0  0
  9 33  1  0  0  0  0
 10 11  1  0  0  0  0
 10 34  1  0  0  0  0
 10 35  1  0  0  0  0
 11 16  1  0  0  0  0
 11 12  2  0  0  0  0
 12 13  1  0  0  0  0
 12 36  1  0  0  0  0
 13 14  2  0  0  0  0
 13 37  1  0  0  0  0
 14 15  1  0  0  0  0
 14 38  1  0  0  0  0
 15 16  2  0  0  0  0
 15 39  1  0  0  0  0
 17 18  1  0  0  0  0
 17 19  1  0  0  0  0
 17 40  1  0  0  0  0
 18 41  1  0  0  0  0
 18 42  1  0  0  0  0
 18 43  1  0  0  0  0
 19 44  1  0  0  0  0
 19 45  1  0  0  0  0
 19 46  1  0  0  0  0
 20 21  1  0  0  0  0
 20 47  1  0  0  0  0
 20 48  1  0  0  0  0
 21 22  1  0  0  0  0
 21 23  1  0  0  0  0
 21 49  1  0  0  0  0
 22 50  1  0  0  0  0
 22 51  1  0  0  0  0
 22 52  1  0  0  0  0
M  END
> <s_m_source_file>
AV-unprocessed.smi

> <i_m_source_file_index>
1762

> <i_lp_mmshare_version>
43012

> <i_f3d_flags>
0

> <s_epik_input>
W0NIM11bQ0BASF0xW0NIMl1OKFtDSDJdW0NASF0oTzEpW0NIM10pW0NAQEhdKFtDSF0oW0NIM10pW0NIM10pQyg9TylbTkhdW0NIMl1bQ0gyXWMyW2NIXVtjSF1bY0hdW2NIXW4y

> <s_epik_cmdline>
J2VwaWtfcHl0aG9uJywgJy1waCcsICc3LjAnLCAnLXRuJywgJzgnLCAnLW1hJywgJzIwMCcsICctbWV0YWxfYmluZGluZycsICctaW1hZScsICc8aW5maWxlLm1hZT4nLCAnLW9tYWUnLCAnPG91dGZpbGUubWFlPic=

> <r_epik_Ionization_Penalty>
0.0399736

> <r_epik_Ionization_Penalty_Charging>
0

> <r_epik_Ionization_Penalty_Neutral>
0.0399736

> <r_epik_State_Penalty>
0.0317634

> <r_epik_Charging_Adjusted_Penalty>
0.0317634

> <i_epik_Tot_Q>
0

> <i_epik_Tot_abs_Q>
0

> <r_epik_Metal_State_Penalty>
0.0307795

> <b_epik_Metal_Only>
0

> <s_lp_Force_Field>
OPLS_2005

> <r_lp_Energy>
24.971

> <b_lp_Chiralities_Consistent>
1

> <s_lp_Variant>
AV-unprocessed.smi:1762-4

> <Gold.Version>
5.8.1

> <Gold.Id.Protein>
6NUR|6NUR_protein|mol2

> <Gold.PLP.Fitness>
44.6871

> <Gold.PLP.PLP>
-40.5705

> <Gold.PLP.part.hbond>
-2.0000

> <Gold.PLP.part.metal>
0.0000

> <Gold.PLP.part.buried>
-5.5146

> <Gold.PLP.part.nonpolar>
-33.1240

> <Gold.PLP.part.repulsive>
0.1667

> <Gold.PLP.ligand.clash>
0.0000

> <Gold.PLP.ligand.torsion>
0.8254

> <Gold.PLP.Chemscore.Hbond>
1.8160

> <Gold.PLP.Chemscore.CHOScore>
0.0000

> <Gold.PLP.Chemscore.Metal>
0.0000

> <Gold.Chemscore.Hbonds>
donor molecule, donor type, donor heavy atom, donor atom, acceptor molecule, acceptor atom, score
      P1  H  6931  6943       L1    16  1.00
      P1  H  6934  6947       L1    16  0.29

> <Gold.PLP.Chemscore.Internal.Correction>
0.3193

> <Gold.Rescore>
     Score         DG    S(hbond)    S(metal)    S(lipo)     H(rot)  DE(clash)    DE(int)     intcor
     16.72     -18.91       1.22        0.00     114.85       1.60       0.03       2.16       ----

> <Gold.Chemscore.Fitness>
16.7209

> <Gold.Chemscore.DG>
-18.9078

> <Gold.Chemscore.ZeroCoef>
-5.4800

> <Gold.Chemscore.Hbond>
1.2230

> <Gold.Chemscore.Metal>
0.0000

> <Gold.Chemscore.Lipo>
114.8455

> <Gold.Chemscore.Internal_Hbond>
0.0000

> <Gold.Chemscore.DEClash>
0.0294

> <Gold.Chemscore.DEInternal>
2.1574

> <Gold.Chemscore.Rot>
1.5993

> <Gold.Chemscore.Internal.Correction>
   9.000000E+99

> <Gold.Chemscore.Hbonds>
donor molecule, donor type, donor heavy atom, donor atom, acceptor molecule, acceptor atom, score
      P1  H  6931  6943       L1    16  0.54
      P1  H  6934  6947       L1    16  0.24

> <Gold.Chemscore.Hbond.Weighted>
-4.0849

> <Gold.Chemscore.Metal.Weighted>
-0.0000

> <Gold.Chemscore.Lipo.Weighted>
-13.4369

> <Gold.Chemscore.Internal_Hbond.Weighted>
0.0000

> <Gold.Chemscore.DEClash.Weighted>
0.0294

> <Gold.Chemscore.DEInternal.Weighted>
2.1574

> <Gold.Chemscore.Rot.Weighted>
4.0941

> <Gold.Chemscore.Internal.Correction.Weighted>
   9.000000E+99

> <Gold.Protein.RotatedTorsions>
[ 6907 6896 6895 6894 ] final  -55.58 input  -60.11 | X-H torsion
[ 7974 7965 7964 7962 ] final  153.23 input  175.53 | X-H torsion
[ 8008 7997 7996 7995 ] final  118.37 input   59.86 | X-H torsion
[ 10167 10162 10161 10158 ] final  164.58 input  -65.29 | X-H torsion
[ 10718 10713 10712 10709 ] final  121.71 input   66.30 | X-H torsion
[ 10763 10752 10751 10750 ] final   88.53 input  -60.55 | X-H torsion
[ 11005 11000 10999 10996 ] final  147.09 input  -57.11 | X-H torsion

> <Gold.Protein.ActiveResidues>
 VAL166  LYS551  ARG553  GLY616  TRP617  ASP618  TYR619  PRO620  LYS621  CYS622 
 ASP623  PHE694  ASN695  SER759  ASP760  ASP761  ALA762  ILE779  LEU786  VAL792 
 PHE793  MET794  SER795  GLU796  ALA797  LYS798  CYS799  TRP800  GLU811  SER814 

> <Gold.Protein.RotatedAtoms>
  150.8240  134.7462  159.6796 H   0  0  0  0  0  0  0  0  0  0  0  0  # atno 6907 bound_to 6896
  152.4353  134.5696  159.9927 H   0  0  0  0  0  0  0  0  0  0  0  0  # atno 6908 bound_to 6896
  151.5873  133.3333  159.3056 H   0  0  0  0  0  0  0  0  0  0  0  0  # atno 6909 bound_to 6896
  144.8168  139.6773  143.6118 H   0  0  0  0  0  0  0  0  0  0  0  0  # atno 7974 bound_to 7965
  156.2543  140.2876  156.0824 H   0  0  0  0  0  0  0  0  0  0  0  0  # atno 8008 bound_to 7997
  155.1552  140.0398  157.2847 H   0  0  0  0  0  0  0  0  0  0  0  0  # atno 8009 bound_to 7997
  154.6432  140.2527  155.7305 H   0  0  0  0  0  0  0  0  0  0  0  0  # atno 8010 bound_to 7997
  139.4891  144.4220  151.9175 H   0  0  0  0  0  0  0  0  0  0  0  0  # atno 10167 bound_to 10162
  157.5797  131.1076  150.8210 H   0  0  0  0  0  0  0  0  0  0  0  0  # atno 10718 bound_to 10713
  153.1778  135.4503  154.9987 H   0  0  0  0  0  0  0  0  0  0  0  0  # atno 10763 bound_to 10752
  154.8009  135.3255  154.7554 H   0  0  0  0  0  0  0  0  0  0  0  0  # atno 10764 bound_to 10752
  153.8022  135.6961  153.4909 H   0  0  0  0  0  0  0  0  0  0  0  0  # atno 10765 bound_to 10752
  140.0847  134.9076  157.1557 H   0  0  0  0  0  0  0  0  0  0  0  0  # atno 11005 bound_to 11000
  146.2472  139.6123  142.9452 LP  0  0  0  0  0  0  0  0  0  0  0  0  # atno 17320 bound_to 7965
  145.5195  141.0432  143.2443 LP  0  0  0  0  0  0  0  0  0  0  0  0  # atno 17321 bound_to 7965
  140.3665  144.2909  150.5926 LP  0  0  0  0  0  0  0  0  0  0  0  0  # atno 17342 bound_to 10162
  140.5357  143.2234  151.8167 LP  0  0  0  0  0  0  0  0  0  0  0  0  # atno 17343 bound_to 10162
  156.8660  130.5129  149.5300 LP  0  0  0  0  0  0  0  0  0  0  0  0  # atno 17370 bound_to 10713
  156.0843  130.5845  150.9619 LP  0  0  0  0  0  0  0  0  0  0  0  0  # atno 17371 bound_to 10713
  140.3437  134.2675  155.7208 LP  0  0  0  0  0  0  0  0  0  0  0  0  # atno 17394 bound_to 11000
  141.2058  133.7849  157.0210 LP  0  0  0  0  0  0  0  0  0  0  0  0  # atno 17395 bound_to 11000

$$$$
