AV-unprocessed.smi:158|AV-procd|sdf|1324|dock3
  -GOLD-   2262019 23D 1   1.00000     0.00000
 Structure written by MMmdl.
 31 33  0  0  0  0  0  0  0  0  1 V2000
  151.0773  132.8995  156.2537 N   0  0  0  0  0  0  0  0  0  0  0  0
  150.3632  133.9706  156.6276 C   0  0  0  0  0  0  0  0  0  0  0  0
  149.5270  133.8503  157.6850 N   0  0  0  0  0  0  0  0  0  0  0  0
  148.7963  134.8960  158.0908 C   0  0  0  0  0  0  0  0  0  0  0  0
  147.7646  134.6324  159.4467 Cl  0  0  0  0  0  0  0  0  0  0  0  0
  148.7772  136.1249  157.5643 N   0  0  0  0  0  0  0  0  0  0  0  0
  149.6185  136.2511  156.4977 C   0  0  0  0  0  0  0  0  0  0  0  0
  150.4428  135.2220  155.9690 C   0  0  0  0  0  0  0  0  0  0  0  0
  151.1646  135.7031  154.8855 N   0  0  0  0  0  0  0  0  0  0  0  0
  150.7836  136.9486  154.7834 C   0  0  0  0  0  0  0  0  0  0  0  0
  149.8604  137.3645  155.7180 N   0  0  0  0  0  0  0  0  0  0  0  0
  149.2381  138.7188  155.8424 C   0  0  1  0  0  0  0  0  0  0  0  0
  150.2081  139.6221  156.2817 O   0  0  0  0  0  0  0  0  0  0  0  0
  150.3868  140.6725  155.3322 C   0  0  2  0  0  0  0  0  0  0  0  0
  150.6852  141.9905  156.0637 C   0  0  0  0  0  0  0  0  0  0  0  0
  149.6268  142.3112  156.9407 O   0  0  0  0  0  0  0  0  0  0  0  0
  149.0627  140.6935  154.5623 C   0  0  1  0  0  0  0  0  0  0  0  0
  149.2227  141.2330  153.2657 O   0  0  0  0  0  0  0  0  0  0  0  0
  148.7070  139.2213  154.4975 C   0  0  2  0  0  0  0  0  0  0  0  0
  147.3891  139.0318  154.4259 F   0  0  0  0  0  0  0  0  0  0  0  0
  148.4645  138.6134  156.6043 H   0  0  0  0  0  0  0  0  0  0  0  0
  151.2003  140.4101  154.6541 H   0  0  0  0  0  0  0  0  0  0  0  0
  148.3026  141.2451  155.1177 H   0  0  0  0  0  0  0  0  0  0  0  0
  149.1927  138.7116  153.6643 H   0  0  0  0  0  0  0  0  0  0  0  0
  151.7082  132.9655  155.4677 H   0  0  0  0  0  0  0  0  0  0  0  0
  150.9820  132.0289  156.7562 H   0  0  0  0  0  0  0  0  0  0  0  0
  151.1718  137.6045  154.0177 H   0  0  0  0  0  0  0  0  0  0  0  0
  151.5878  141.8882  156.6671 H   0  0  0  0  0  0  0  0  0  0  0  0
  150.8573  142.8051  155.3597 H   0  0  0  0  0  0  0  0  0  0  0  0
  149.1892  143.0826  156.6147 H   0  0  0  0  0  0  0  0  0  0  0  0
  149.2550  140.5205  152.6453 H   0  0  0  0  0  0  0  0  0  0  0  0
  1  2  1  0  0  0  0
  1 25  1  0  0  0  0
  1 26  1  0  0  0  0
  2  8  1  0  0  0  0
  2  3  2  0  0  0  0
  3  4  1  0  0  0  0
  4  5  1  0  0  0  0
  4  6  2  0  0  0  0
  6  7  1  0  0  0  0
  7 11  1  0  0  0  0
  7  8  2  0  0  0  0
  8  9  1  0  0  0  0
  9 10  2  0  0  0  0
 10 11  1  0  0  0  0
 10 27  1  0  0  0  0
 11 12  1  0  0  0  0
 12 21  1  0  0  0  0
 12 19  1  0  0  0  0
 12 13  1  0  0  0  0
 13 14  1  0  0  0  0
 14 22  1  0  0  0  0
 14 15  1  0  0  0  0
 14 17  1  0  0  0  0
 15 16  1  0  0  0  0
 15 28  1  0  0  0  0
 15 29  1  0  0  0  0
 16 30  1  0  0  0  0
 17 23  1  0  0  0  0
 17 18  1  0  0  0  0
 17 19  1  0  0  0  0
 18 31  1  0  0  0  0
 19 24  1  0  0  0  0
 19 20  1  0  0  0  0
M  END
> <s_m_source_file>
AV-unprocessed.smi

> <i_m_source_file_index>
158

> <i_lp_mmshare_version>
43012

> <i_f3d_flags>
0

> <s_epik_input>
Q2xjKG4xKW5jKFtOSDJdKWMoYzEyKW5bY0hdbjJbQ0BASF0zT1tDQEhdKFtDSDJdW09IXSlbQ0BASF0oW09IXSlbQ0BASF0zRg==

> <s_epik_cmdline>
J2VwaWtfcHl0aG9uJywgJy1waCcsICc3LjAnLCAnLXRuJywgJzgnLCAnLW1hJywgJzIwMCcsICctbWV0YWxfYmluZGluZycsICctaW1hZScsICc8aW5maWxlLm1hZT4nLCAnLW9tYWUnLCAnPG91dGZpbGUubWFlPic=

> <r_lp_tautomer_probability>
1

> <r_epik_Ionization_Penalty>
6.51543e-05

> <r_epik_Ionization_Penalty_Charging>
0

> <r_epik_Ionization_Penalty_Neutral>
6.51543e-05

> <r_epik_State_Penalty>
-0

> <r_epik_Charging_Adjusted_Penalty>
0

> <i_epik_Tot_Q>
0

> <i_epik_Tot_abs_Q>
0

> <r_epik_Metal_State_Penalty>
-0

> <b_epik_Metal_Only>
0

> <s_epik_Chemistry_Notes>
This compound contains an acetal/aminal-like group ( X-CH(R)-Y where X, Y are N, S, or O) that may be acid/base labile, releasing an aldehyde.

> <s_lp_Force_Field>
OPLS_2005

> <r_lp_Energy>
33.0982

> <b_lp_Chiralities_Consistent>
1

> <s_lp_Variant>
AV-unprocessed.smi:158-2

> <Gold.Version>
5.8.1

> <Gold.Id.Protein>
6NUR|6NUR_protein|mol2

> <Gold.PLP.Fitness>
37.8319

> <Gold.PLP.PLP>
-23.4354

> <Gold.PLP.part.hbond>
-5.6324

> <Gold.PLP.part.metal>
0.0000

> <Gold.PLP.part.buried>
-2.8850

> <Gold.PLP.part.nonpolar>
-15.3199

> <Gold.PLP.part.repulsive>
0.2634

> <Gold.PLP.ligand.clash>
0.0000

> <Gold.PLP.ligand.torsion>
0.1993

> <Gold.PLP.Chemscore.Hbond>
4.9288

> <Gold.PLP.Chemscore.CHOScore>
0.0000

> <Gold.PLP.Chemscore.Metal>
0.0000

> <Gold.Chemscore.Hbonds>
donor molecule, donor type, donor heavy atom, donor atom, acceptor molecule, acceptor atom, score
      L1  H    16    30       P1  8028  1.00
      L1  H    18    31       P1  7957  0.93
      P1  H  6896  6909       L1     3  0.91
      P1  H  8011  8017       L1    18  0.95
      P1  H 10752 10765       L1     9  1.00

> <Gold.PLP.Chemscore.Internal.Correction>
0.0087

> <Gold.Rescore>
     Score         DG    S(hbond)    S(metal)    S(lipo)     H(rot)  DE(clash)    DE(int)     intcor
     12.24     -12.91       3.37        0.00      35.59       3.12       0.33       0.35       ----

> <Gold.Chemscore.Fitness>
12.2352

> <Gold.Chemscore.DG>
-12.9138

> <Gold.Chemscore.ZeroCoef>
-5.4800

> <Gold.Chemscore.Hbond>
3.3727

> <Gold.Chemscore.Metal>
0.0000

> <Gold.Chemscore.Lipo>
35.5893

> <Gold.Chemscore.Internal_Hbond>
0.0000

> <Gold.Chemscore.DEClash>
0.3275

> <Gold.Chemscore.DEInternal>
0.3511

> <Gold.Chemscore.Rot>
3.1230

> <Gold.Chemscore.Internal.Correction>
   9.000000E+99

> <Gold.Chemscore.Hbonds>
donor molecule, donor type, donor heavy atom, donor atom, acceptor molecule, acceptor atom, score
      L1  H    16    30       P1  8028  0.99
      L1  H    18    31       P1  7957  0.89
      P1  H  6896  6909       L1     3  0.07
      P1  H  8011  8017       L1    18  0.21
      P1  H 10752 10765       L1     9  0.74

> <Gold.Chemscore.Hbond.Weighted>
-11.2648

> <Gold.Chemscore.Metal.Weighted>
-0.0000

> <Gold.Chemscore.Lipo.Weighted>
-4.1639

> <Gold.Chemscore.Internal_Hbond.Weighted>
0.0000

> <Gold.Chemscore.DEClash.Weighted>
0.3275

> <Gold.Chemscore.DEInternal.Weighted>
0.3511

> <Gold.Chemscore.Rot.Weighted>
7.9950

> <Gold.Chemscore.Internal.Correction.Weighted>
   9.000000E+99

> <Gold.Protein.RotatedTorsions>
[ 6907 6896 6895 6894 ] final  -10.01 input  -60.11 | X-H torsion
[ 7974 7965 7964 7962 ] final    1.97 input  175.53 | X-H torsion
[ 8008 7997 7996 7995 ] final  -31.54 input   59.86 | X-H torsion
[ 10167 10162 10161 10158 ] final -171.91 input  -65.29 | X-H torsion
[ 10718 10713 10712 10709 ] final   75.97 input   66.30 | X-H torsion
[ 10763 10752 10751 10750 ] final -179.90 input  -60.55 | X-H torsion
[ 11005 11000 10999 10996 ] final  120.34 input  -57.11 | X-H torsion

> <Gold.Protein.ActiveResidues>
 VAL166  LYS551  ARG553  GLY616  TRP617  ASP618  TYR619  PRO620  LYS621  CYS622 
 ASP623  PHE694  ASN695  SER759  ASP760  ASP761  ALA762  ILE779  LEU786  VAL792 
 PHE793  MET794  SER795  GLU796  ALA797  LYS798  CYS799  TRP800  GLU811  SER814 

> <Gold.Protein.RotatedAtoms>
  151.4087  135.0982  159.9578 H   0  0  0  0  0  0  0  0  0  0  0  0  # atno 6907 bound_to 6896
  152.5027  133.8818  159.7360 H   0  0  0  0  0  0  0  0  0  0  0  0  # atno 6908 bound_to 6896
  150.9308  133.6712  159.2839 H   0  0  0  0  0  0  0  0  0  0  0  0  # atno 6909 bound_to 6896
  146.2442  140.0907  142.8352 H   0  0  0  0  0  0  0  0  0  0  0  0  # atno 7974 bound_to 7965
  154.4210  140.1761  156.1583 H   0  0  0  0  0  0  0  0  0  0  0  0  # atno 8008 bound_to 7997
  155.9859  140.3373  155.6682 H   0  0  0  0  0  0  0  0  0  0  0  0  # atno 8009 bound_to 7997
  155.6438  140.0683  157.2600 H   0  0  0  0  0  0  0  0  0  0  0  0  # atno 8010 bound_to 7997
  139.5775  144.1500  152.1470 H   0  0  0  0  0  0  0  0  0  0  0  0  # atno 10167 bound_to 10162
  157.6655  130.9752  150.1429 H   0  0  0  0  0  0  0  0  0  0  0  0  # atno 10718 bound_to 10713
  154.5292  135.2798  155.1195 H   0  0  0  0  0  0  0  0  0  0  0  0  # atno 10763 bound_to 10752
  154.2721  135.6301  153.5318 H   0  0  0  0  0  0  0  0  0  0  0  0  # atno 10764 bound_to 10752
  152.9953  135.5631  154.5801 H   0  0  0  0  0  0  0  0  0  0  0  0  # atno 10765 bound_to 10752
  139.9181  134.9634  156.7792 H   0  0  0  0  0  0  0  0  0  0  0  0  # atno 11005 bound_to 11000
  145.0653  140.9117  143.4914 LP  0  0  0  0  0  0  0  0  0  0  0  0  # atno 17320 bound_to 7965
  145.1030  139.2809  143.5676 LP  0  0  0  0  0  0  0  0  0  0  0  0  # atno 17321 bound_to 7965
  140.1046  144.5510  150.6966 LP  0  0  0  0  0  0  0  0  0  0  0  0  # atno 17342 bound_to 10162
  140.7056  143.2465  151.4736 LP  0  0  0  0  0  0  0  0  0  0  0  0  # atno 17343 bound_to 10162
  156.2247  130.3677  149.8514 LP  0  0  0  0  0  0  0  0  0  0  0  0  # atno 17370 bound_to 10713
  156.6357  130.8684  151.3504 LP  0  0  0  0  0  0  0  0  0  0  0  0  # atno 17371 bound_to 10713
  140.6558  133.9690  155.7778 LP  0  0  0  0  0  0  0  0  0  0  0  0  # atno 17394 bound_to 11000
  141.0677  134.0252  157.3570 LP  0  0  0  0  0  0  0  0  0  0  0  0  # atno 17395 bound_to 11000

$$$$
