AV-unprocessed.smi:1412|AV-procd|sdf|5743|dock3
  -GOLD-   22720 5383D 1   1.00000     0.00000
 Structure written by MMmdl.
 42 43  0  0  0  0  0  0  0  0  2 V2000
  145.9610  141.9041  156.0504 C   0  0  0  0  0  0  0  0  0  0  0  0
  146.2796  141.4636  154.6108 C   0  0  0  0  0  0  0  0  0  0  0  0
  147.0239  140.1015  154.4599 C   0  0  2  0  0  0  0  0  0  0  0  0
  147.2822  139.8269  152.9553 C   0  0  0  0  0  0  0  0  0  0  0  0
  146.1194  138.9498  155.0014 C   0  0  0  0  0  0  0  0  0  0  0  0
  144.7876  138.9012  154.3949 N   0  0  0  0  0  0  0  0  0  0  0  0
  143.8226  138.0217  154.7000 C   0  0  0  0  0  0  0  0  0  0  0  0
  143.9436  137.1567  155.5673 O   0  0  0  0  0  0  0  0  0  0  0  0
  142.7295  138.2159  153.9411 N   0  0  0  0  0  0  0  0  0  0  0  0
  141.5073  137.4924  153.9593 C   0  0  0  0  0  0  0  0  0  0  0  0
  141.3196  136.3669  154.6661 N   0  0  0  0  0  0  0  0  0  0  0  0
  140.0357  135.8620  154.5075 N   0  0  0  0  0  0  0  0  0  0  0  0
  139.3061  136.6256  153.6892 C   0  0  0  0  0  0  0  0  0  0  0  0
  140.1153  138.0391  153.0350 S   0  0  0  0  0  0  0  0  0  0  0  0
  148.3400  140.1205  155.1997 N   0  3  0  0  0  0  0  0  0  0  0  0
  149.2827  139.0055  154.8995 C   0  0  0  0  0  0  0  0  0  0  0  0
  150.4822  139.0409  155.8619 C   0  0  0  0  0  0  0  0  0  0  0  0
  151.1367  140.2987  155.7727 O   0  0  0  0  0  0  0  0  0  0  0  0
  150.2756  141.3682  156.1367 C   0  0  0  0  0  0  0  0  0  0  0  0
  149.0797  141.4142  155.1723 C   0  0  0  0  0  0  0  0  0  0  0  0
  145.4388  142.8611  156.0456 H   0  0  0  0  0  0  0  0  0  0  0  0
  146.8639  142.0361  156.6457 H   0  0  0  0  0  0  0  0  0  0  0  0
  145.3163  141.1909  156.5632 H   0  0  0  0  0  0  0  0  0  0  0  0
  145.3381  141.4358  154.0632 H   0  0  0  0  0  0  0  0  0  0  0  0
  146.8648  142.2614  154.1544 H   0  0  0  0  0  0  0  0  0  0  0  0
  146.3674  139.5514  152.4302 H   0  0  0  0  0  0  0  0  0  0  0  0
  147.9882  139.0086  152.8101 H   0  0  0  0  0  0  0  0  0  0  0  0
  147.6793  140.7015  152.4397 H   0  0  0  0  0  0  0  0  0  0  0  0
  146.5890  137.9834  154.8177 H   0  0  0  0  0  0  0  0  0  0  0  0
  146.0265  139.0057  156.0869 H   0  0  0  0  0  0  0  0  0  0  0  0
  144.6019  139.5670  153.6590 H   0  0  0  0  0  0  0  0  0  0  0  0
  142.7792  138.9605  153.2616 H   0  0  0  0  0  0  0  0  0  0  0  0
  138.2841  136.3545  153.4697 H   0  0  0  0  0  0  0  0  0  0  0  0
  148.8063  138.0329  155.0053 H   0  0  0  0  0  0  0  0  0  0  0  0
  149.6407  139.0790  153.8725 H   0  0  0  0  0  0  0  0  0  0  0  0
  150.1628  138.8545  156.8886 H   0  0  0  0  0  0  0  0  0  0  0  0
  151.1930  138.2558  155.6032 H   0  0  0  0  0  0  0  0  0  0  0  0
  149.9415  141.2521  157.1691 H   0  0  0  0  0  0  0  0  0  0  0  0
  150.8349  142.3026  156.0863 H   0  0  0  0  0  0  0  0  0  0  0  0
  149.4424  141.6219  154.1655 H   0  0  0  0  0  0  0  0  0  0  0  0
  148.4427  142.2483  155.4609 H   0  0  0  0  0  0  0  0  0  0  0  0
  148.0801  139.9853  156.1663 H   0  0  0  0  0  0  0  0  0  0  0  0
  1  2  1  0  0  0  0
  1 21  1  0  0  0  0
  1 22  1  0  0  0  0
  1 23  1  0  0  0  0
  2  3  1  0  0  0  0
  2 24  1  0  0  0  0
  2 25  1  0  0  0  0
  3  4  1  0  0  0  0
  3  5  1  0  0  0  0
  3 15  1  0  0  0  0
  4 26  1  0  0  0  0
  4 27  1  0  0  0  0
  4 28  1  0  0  0  0
  5  6  1  0  0  0  0
  5 29  1  0  0  0  0
  5 30  1  0  0  0  0
  6  7  1  0  0  0  0
  6 31  1  0  0  0  0
  7  8  2  0  0  0  0
  7  9  1  0  0  0  0
  9 10  1  0  0  0  0
  9 32  1  0  0  0  0
 10 14  1  0  0  0  0
 10 11  2  0  0  0  0
 11 12  1  0  0  0  0
 12 13  2  0  0  0  0
 13 14  1  0  0  0  0
 13 33  1  0  0  0  0
 15 20  1  0  0  0  0
 15 16  1  0  0  0  0
 15 42  1  0  0  0  0
 16 17  1  0  0  0  0
 16 34  1  0  0  0  0
 16 35  1  0  0  0  0
 17 18  1  0  0  0  0
 17 36  1  0  0  0  0
 17 37  1  0  0  0  0
 18 19  1  0  0  0  0
 19 20  1  0  0  0  0
 19 38  1  0  0  0  0
 19 39  1  0  0  0  0
 20 40  1  0  0  0  0
 20 41  1  0  0  0  0
M  CHG  1  15   1
M  END
> <s_m_source_file>
AV-unprocessed.smi

> <i_m_source_file_index>
1412

> <i_lp_mmshare_version>
43012

> <i_f3d_flags>
0

> <s_epik_input>
W0NIMl0xW0NIMl1PW0NIMl1bQ0gyXU4xW0NAQF0oW0NIM10pKFtDSDJdW0NIM10pW0NIMl1bTkhdQyg9TylbTkhdYzJubltjSF1zMg==

> <s_epik_cmdline>
J2VwaWtfcHl0aG9uJywgJy1waCcsICc3LjAnLCAnLXRuJywgJzgnLCAnLW1hJywgJzIwMCcsICctbWV0YWxfYmluZGluZycsICctaW1hZScsICc8aW5maWxlLm1hZT4nLCAnLW9tYWUnLCAnPG91dGZpbGUubWFlPic=

> <r_lp_tautomer_probability>
1

> <r_epik_Ionization_Penalty>
0.554649

> <r_epik_Ionization_Penalty_Charging>
0.553838

> <r_epik_Ionization_Penalty_Neutral>
0.000811527

> <r_epik_State_Penalty>
0.564424

> <r_epik_Charging_Adjusted_Penalty>
1.11826

> <i_epik_Tot_Q>
1

> <i_epik_Tot_abs_Q>
1

> <r_epik_Metal_State_Penalty>
0.786249

> <b_epik_Metal_Only>
0

> <s_lp_Force_Field>
OPLS_2005

> <r_lp_Energy>
32.8849

> <b_lp_Chiralities_Consistent>
1

> <s_lp_Variant>
AV-unprocessed.smi:1412-4

> <Gold.Version>
5.8.1

> <Gold.Id.Protein>
6NUR|6NUR_protein|mol2

> <Gold.PLP.Fitness>
42.6624

> <Gold.PLP.PLP>
-31.4378

> <Gold.PLP.part.hbond>
-4.5369

> <Gold.PLP.part.metal>
0.0000

> <Gold.PLP.part.buried>
-1.8607

> <Gold.PLP.part.nonpolar>
-24.0915

> <Gold.PLP.part.repulsive>
0.2901

> <Gold.PLP.ligand.clash>
0.0000

> <Gold.PLP.ligand.torsion>
0.5134

> <Gold.PLP.Chemscore.Hbond>
4.0000

> <Gold.PLP.Chemscore.CHOScore>
0.0000

> <Gold.PLP.Chemscore.Metal>
0.0000

> <Gold.Chemscore.Hbonds>
donor molecule, donor type, donor heavy atom, donor atom, acceptor molecule, acceptor atom, score
      L1  H     6    31       P1 10175  1.00
      L1  H     9    32       P1 10175  1.00
      P1  H  7989  7998       L1    18  0.09
      P1  H 11000 11005       L1    12  0.85

> <Gold.PLP.Chemscore.Internal.Correction>
0.2513

> <Gold.Rescore>
     Score         DG    S(hbond)    S(metal)    S(lipo)     H(rot)  DE(clash)    DE(int)     intcor
     15.45     -17.75       2.79        0.00      67.17       1.91       0.33       1.97       ----

> <Gold.Chemscore.Fitness>
15.4532

> <Gold.Chemscore.DG>
-17.7475

> <Gold.Chemscore.ZeroCoef>
-5.4800

> <Gold.Chemscore.Hbond>
2.7870

> <Gold.Chemscore.Metal>
0.0000

> <Gold.Chemscore.Lipo>
67.1678

> <Gold.Chemscore.Internal_Hbond>
0.0000

> <Gold.Chemscore.DEClash>
0.3294

> <Gold.Chemscore.DEInternal>
1.9650

> <Gold.Chemscore.Rot>
1.9140

> <Gold.Chemscore.Internal.Correction>
   9.000000E+99

> <Gold.Chemscore.Hbonds>
donor molecule, donor type, donor heavy atom, donor atom, acceptor molecule, acceptor atom, score
      L1  H     6    31       P1 10175  0.99
      L1  H     9    32       P1 10175  0.97
      P1  H  7989  7998       L1    18  0.03
      P1  H 11000 11005       L1    12  0.14

> <Gold.Chemscore.Hbond.Weighted>
-9.3087

> <Gold.Chemscore.Metal.Weighted>
-0.0000

> <Gold.Chemscore.Lipo.Weighted>
-7.8586

> <Gold.Chemscore.Internal_Hbond.Weighted>
0.0000

> <Gold.Chemscore.DEClash.Weighted>
0.3294

> <Gold.Chemscore.DEInternal.Weighted>
1.9650

> <Gold.Chemscore.Rot.Weighted>
4.8998

> <Gold.Chemscore.Internal.Correction.Weighted>
   9.000000E+99

> <Gold.Protein.RotatedTorsions>
[ 6907 6896 6895 6894 ] final  -46.60 input  -60.11 | X-H torsion
[ 7974 7965 7964 7962 ] final   55.83 input  175.53 | X-H torsion
[ 8008 7997 7996 7995 ] final  -25.26 input   59.86 | X-H torsion
[ 10167 10162 10161 10158 ] final  -73.84 input  -65.29 | X-H torsion
[ 10718 10713 10712 10709 ] final   34.57 input   66.30 | X-H torsion
[ 10763 10752 10751 10750 ] final  176.36 input  -60.55 | X-H torsion
[ 11005 11000 10999 10996 ] final   43.90 input  -57.11 | X-H torsion

> <Gold.Protein.ActiveResidues>
 VAL166  LYS551  ARG553  GLY616  TRP617  ASP618  TYR619  PRO620  LYS621  CYS622 
 ASP623  PHE694  ASN695  SER759  ASP760  ASP761  ALA762  ILE779  LEU786  VAL792 
 PHE793  MET794  SER795  GLU796  ALA797  LYS798  CYS799  TRP800  GLU811  SER814 

> <Gold.Protein.RotatedAtoms>
  150.9095  134.8511  159.7415 H   0  0  0  0  0  0  0  0  0  0  0  0  # atno 6907 bound_to 6896
  152.4936  134.4381  159.9544 H   0  0  0  0  0  0  0  0  0  0  0  0  # atno 6908 bound_to 6896
  151.4424  133.3600  159.2819 H   0  0  0  0  0  0  0  0  0  0  0  0  # atno 6909 bound_to 6896
  145.9463  139.3932  143.0333 H   0  0  0  0  0  0  0  0  0  0  0  0  # atno 7974 bound_to 7965
  154.4485  140.1931  156.0591 H   0  0  0  0  0  0  0  0  0  0  0  0  # atno 8008 bound_to 7997
  156.0596  140.3298  155.7419 H   0  0  0  0  0  0  0  0  0  0  0  0  # atno 8009 bound_to 7997
  155.5432  140.0588  157.2856 H   0  0  0  0  0  0  0  0  0  0  0  0  # atno 8010 bound_to 7997
  140.5077  143.2350  151.7646 H   0  0  0  0  0  0  0  0  0  0  0  0  # atno 10167 bound_to 10162
  157.3119  130.7403  149.6730 H   0  0  0  0  0  0  0  0  0  0  0  0  # atno 10718 bound_to 10713
  154.4801  135.2774  155.1577 H   0  0  0  0  0  0  0  0  0  0  0  0  # atno 10763 bound_to 10752
  154.3291  135.6194  153.5546 H   0  0  0  0  0  0  0  0  0  0  0  0  # atno 10764 bound_to 10752
  152.9874  135.5761  154.5200 H   0  0  0  0  0  0  0  0  0  0  0  0  # atno 10765 bound_to 10752
  140.1601  134.4352  155.8323 H   0  0  0  0  0  0  0  0  0  0  0  0  # atno 11005 bound_to 11000
  145.8232  140.9668  143.0888 LP  0  0  0  0  0  0  0  0  0  0  0  0  # atno 17320 bound_to 7965
  144.6787  140.0068  143.7484 LP  0  0  0  0  0  0  0  0  0  0  0  0  # atno 17321 bound_to 7965
  139.4888  144.4434  151.9738 LP  0  0  0  0  0  0  0  0  0  0  0  0  # atno 17342 bound_to 10162
  140.3526  144.3071  150.5947 LP  0  0  0  0  0  0  0  0  0  0  0  0  # atno 17343 bound_to 10162
  155.9678  130.4249  150.4628 LP  0  0  0  0  0  0  0  0  0  0  0  0  # atno 17370 bound_to 10713
  157.2628  131.0570  151.2309 LP  0  0  0  0  0  0  0  0  0  0  0  0  # atno 17371 bound_to 10713
  141.2208  133.6910  156.7579 LP  0  0  0  0  0  0  0  0  0  0  0  0  # atno 17394 bound_to 11000
  140.2500  134.8548  157.3658 LP  0  0  0  0  0  0  0  0  0  0  0  0  # atno 17395 bound_to 11000

$$$$
