AV-unprocessed.smi:1703|AV-procd|sdf|6868|dock8
  -GOLD-   22720 8 63D 1   1.00000     0.00000
 Structure written by MMmdl.
 49 51  0  0  0  0  0  0  0  0  2 V2000
  147.5477  136.0774  162.2085 C   0  0  0  0  0  0  0  0  0  0  0  0
  147.6608  136.2256  160.6877 C   0  0  2  0  0  0  0  0  0  0  0  0
  149.0610  136.6971  160.2499 C   0  0  0  0  0  0  0  0  0  0  0  0
  149.1474  136.8992  158.8062 N   0  0  0  0  0  0  0  0  0  0  0  0
  150.4925  137.3326  158.4165 C   0  0  0  0  0  0  0  0  0  0  0  0
  150.6002  138.1030  157.0812 C   0  0  2  0  0  0  0  0  0  0  0  0
  150.7221  137.1307  156.0612 O   0  0  0  0  0  0  0  0  0  0  0  0
  151.7877  139.0855  156.9709 C   0  0  0  0  0  0  0  0  0  0  0  0
  151.3700  140.4898  156.8298 N   0  0  0  0  0  0  0  0  0  0  0  0
  150.5685  141.0858  155.9003 C   0  0  0  0  0  0  0  0  0  0  0  0
  149.8865  140.4127  154.7516 C   0  0  0  0  0  0  0  0  0  0  0  0
  149.3750  141.3189  153.7970 O   0  0  0  0  0  0  0  0  0  0  0  0
  150.5045  142.4109  156.2182 N   0  3  0  0  0  0  0  0  0  0  0  0
  151.2714  142.6641  157.3561 C   0  0  0  0  0  0  0  0  0  0  0  0
  151.5120  143.8454  158.0507 C   0  0  0  0  0  0  0  0  0  0  0  0
  152.3505  143.7551  159.1815 C   0  0  0  0  0  0  0  0  0  0  0  0
  152.9144  142.5260  159.5816 C   0  0  0  0  0  0  0  0  0  0  0  0
  152.6636  141.3348  158.8689 C   0  0  0  0  0  0  0  0  0  0  0  0
  151.8324  141.4335  157.7533 C   0  0  0  0  0  0  0  0  0  0  0  0
  148.1133  137.8611  158.4256 C   0  0  0  0  0  0  0  0  0  0  0  0
  146.7068  137.3974  158.8500 C   0  0  2  0  0  0  0  0  0  0  0  0
  145.6296  138.4341  158.5143 C   0  0  0  0  0  0  0  0  0  0  0  0
  146.6939  137.1790  160.2574 O   0  0  0  0  0  0  0  0  0  0  0  0
  148.2645  135.3479  162.5857 H   0  0  0  0  0  0  0  0  0  0  0  0
  146.5503  135.7418  162.4937 H   0  0  0  0  0  0  0  0  0  0  0  0
  147.7371  137.0256  162.7124 H   0  0  0  0  0  0  0  0  0  0  0  0
  147.4380  135.2627  160.2244 H   0  0  0  0  0  0  0  0  0  0  0  0
  149.3128  137.6240  160.7684 H   0  0  0  0  0  0  0  0  0  0  0  0
  149.7978  135.9560  160.5631 H   0  0  0  0  0  0  0  0  0  0  0  0
  150.9606  137.8961  159.2252 H   0  0  0  0  0  0  0  0  0  0  0  0
  151.1120  136.4418  158.2979 H   0  0  0  0  0  0  0  0  0  0  0  0
  149.6658  138.6356  156.9025 H   0  0  0  0  0  0  0  0  0  0  0  0
  149.9975  137.2326  155.4633 H   0  0  0  0  0  0  0  0  0  0  0  0
  152.4281  139.0314  157.8491 H   0  0  0  0  0  0  0  0  0  0  0  0
  152.4085  138.8354  156.1100 H   0  0  0  0  0  0  0  0  0  0  0  0
  150.5924  139.7427  154.2599 H   0  0  0  0  0  0  0  0  0  0  0  0
  149.0675  139.8007  155.1301 H   0  0  0  0  0  0  0  0  0  0  0  0
  149.3258  140.8785  152.9617 H   0  0  0  0  0  0  0  0  0  0  0  0
  151.0822  144.7884  157.7459 H   0  0  0  0  0  0  0  0  0  0  0  0
  152.5660  144.6462  159.7532 H   0  0  0  0  0  0  0  0  0  0  0  0
  153.5525  142.4958  160.4530 H   0  0  0  0  0  0  0  0  0  0  0  0
  153.0999  140.3982  159.1833 H   0  0  0  0  0  0  0  0  0  0  0  0
  148.3260  138.8287  158.8829 H   0  0  0  0  0  0  0  0  0  0  0  0
  148.1098  138.0277  157.3533 H   0  0  0  0  0  0  0  0  0  0  0  0
  146.4627  136.4617  158.3438 H   0  0  0  0  0  0  0  0  0  0  0  0
  145.5962  138.6328  157.4428 H   0  0  0  0  0  0  0  0  0  0  0  0
  145.8184  139.3789  159.0250 H   0  0  0  0  0  0  0  0  0  0  0  0
  144.6433  138.0828  158.8182 H   0  0  0  0  0  0  0  0  0  0  0  0
  149.9713  143.0885  155.6880 H   0  0  0  0  0  0  0  0  0  0  0  0
  1  2  1  0  0  0  0
  1 24  1  0  0  0  0
  1 25  1  0  0  0  0
  1 26  1  0  0  0  0
  2 23  1  0  0  0  0
  2  3  1  0  0  0  0
  2 27  1  0  0  0  0
  3  4  1  0  0  0  0
  3 28  1  0  0  0  0
  3 29  1  0  0  0  0
  4  5  1  0  0  0  0
  4 20  1  0  0  0  0
  5  6  1  0  0  0  0
  5 30  1  0  0  0  0
  5 31  1  0  0  0  0
  6  7  1  0  0  0  0
  6  8  1  0  0  0  0
  6 32  1  0  0  0  0
  7 33  1  0  0  0  0
  8  9  1  0  0  0  0
  8 34  1  0  0  0  0
  8 35  1  0  0  0  0
  9 19  1  0  0  0  0
  9 10  1  0  0  0  0
 10 11  1  0  0  0  0
 10 13  2  0  0  0  0
 11 12  1  0  0  0  0
 11 36  1  0  0  0  0
 11 37  1  0  0  0  0
 12 38  1  0  0  0  0
 13 14  1  0  0  0  0
 13 49  1  0  0  0  0
 14 19  2  0  0  0  0
 14 15  1  0  0  0  0
 15 16  2  0  0  0  0
 15 39  1  0  0  0  0
 16 17  1  0  0  0  0
 16 40  1  0  0  0  0
 17 18  2  0  0  0  0
 17 41  1  0  0  0  0
 18 19  1  0  0  0  0
 18 42  1  0  0  0  0
 20 21  1  0  0  0  0
 20 43  1  0  0  0  0
 20 44  1  0  0  0  0
 21 22  1  0  0  0  0
 21 23  1  0  0  0  0
 21 45  1  0  0  0  0
 22 46  1  0  0  0  0
 22 47  1  0  0  0  0
 22 48  1  0  0  0  0
M  CHG  1  13   1
M  END
> <s_m_source_file>
AV-unprocessed.smi

> <i_m_source_file_index>
1703

> <i_lp_mmshare_version>
43012

> <i_f3d_flags>
0

> <s_epik_input>
W0NIM11bQ0BASF0xW0NIMl1OKFtDSDJdW0NASF0oTzEpW0NIM10pW0NIMl1bQ0BIXShbT0hdKVtDSDJdbihjKG4yKVtDSDJdW09IXSljKGMyMylbY0hdW2NIXVtjSF1bY0hdMw==

> <s_epik_cmdline>
J2VwaWtfcHl0aG9uJywgJy1waCcsICc3LjAnLCAnLXRuJywgJzgnLCAnLW1hJywgJzIwMCcsICctbWV0YWxfYmluZGluZycsICctaW1hZScsICc8aW5maWxlLm1hZT4nLCAnLW9tYWUnLCAnPG91dGZpbGUubWFlPic=

> <r_epik_Ionization_Penalty>
1.7682

> <r_epik_Ionization_Penalty_Charging>
1.55298

> <r_epik_Ionization_Penalty_Neutral>
0.215215

> <r_epik_State_Penalty>
1.83821

> <r_epik_Charging_Adjusted_Penalty>
3.39119

> <i_epik_Tot_Q>
1

> <i_epik_Tot_abs_Q>
1

> <r_epik_Metal_State_Penalty>
5.89206

> <b_epik_Metal_Only>
0

> <s_lp_Force_Field>
OPLS_2005

> <r_lp_Energy>
30.4523

> <b_lp_Chiralities_Consistent>
1

> <s_lp_Variant>
AV-unprocessed.smi:1703-16

> <Gold.Version>
5.8.1

> <Gold.Id.Protein>
6NUR|6NUR_protein|mol2

> <Gold.PLP.Fitness>
51.0518

> <Gold.PLP.PLP>
-41.9753

> <Gold.PLP.part.hbond>
-5.0000

> <Gold.PLP.part.metal>
0.0000

> <Gold.PLP.part.buried>
-2.8121

> <Gold.PLP.part.nonpolar>
-33.9920

> <Gold.PLP.part.repulsive>
0.1018

> <Gold.PLP.ligand.clash>
0.0000

> <Gold.PLP.ligand.torsion>
1.4743

> <Gold.PLP.Chemscore.Hbond>
3.9840

> <Gold.PLP.Chemscore.CHOScore>
0.0000

> <Gold.PLP.Chemscore.Metal>
0.0000

> <Gold.Chemscore.Hbonds>
donor molecule, donor type, donor heavy atom, donor atom, acceptor molecule, acceptor atom, score
      L1  H    12    38       P1  7957  1.00
      L1  H    13    49       P1  8028  1.98
      P1  H  6934  6947       L1    23  1.00

> <Gold.PLP.Chemscore.Internal.Correction>
0.0731

> <Gold.Rescore>
     Score         DG    S(hbond)    S(metal)    S(lipo)     H(rot)  DE(clash)    DE(int)     intcor
     15.60     -17.15       2.09        0.00     104.78       2.96       0.04       1.51       ----

> <Gold.Chemscore.Fitness>
15.5970

> <Gold.Chemscore.DG>
-17.1510

> <Gold.Chemscore.ZeroCoef>
-5.4800

> <Gold.Chemscore.Hbond>
2.0890

> <Gold.Chemscore.Metal>
0.0000

> <Gold.Chemscore.Lipo>
104.7834

> <Gold.Chemscore.Internal_Hbond>
0.0000

> <Gold.Chemscore.DEClash>
0.0444

> <Gold.Chemscore.DEInternal>
1.5095

> <Gold.Chemscore.Rot>
2.9555

> <Gold.Chemscore.Internal.Correction>
   9.000000E+99

> <Gold.Chemscore.Hbonds>
donor molecule, donor type, donor heavy atom, donor atom, acceptor molecule, acceptor atom, score
      L1  H    12    38       P1  7957  0.96
      L1  H    13    49       P1  8028  0.92
      P1  H  6934  6947       L1    23  0.19

> <Gold.Chemscore.Hbond.Weighted>
-6.9773

> <Gold.Chemscore.Metal.Weighted>
-0.0000

> <Gold.Chemscore.Lipo.Weighted>
-12.2597

> <Gold.Chemscore.Internal_Hbond.Weighted>
0.0000

> <Gold.Chemscore.DEClash.Weighted>
0.0444

> <Gold.Chemscore.DEInternal.Weighted>
1.5095

> <Gold.Chemscore.Rot.Weighted>
7.5660

> <Gold.Chemscore.Internal.Correction.Weighted>
   9.000000E+99

> <Gold.Protein.RotatedTorsions>
[ 6907 6896 6895 6894 ] final   65.52 input  -60.11 | X-H torsion
[ 7974 7965 7964 7962 ] final   10.98 input  175.53 | X-H torsion
[ 8008 7997 7996 7995 ] final  148.34 input   59.86 | X-H torsion
[ 10167 10162 10161 10158 ] final  -22.15 input  -65.29 | X-H torsion
[ 10718 10713 10712 10709 ] final   56.09 input   66.30 | X-H torsion
[ 10763 10752 10751 10750 ] final  102.58 input  -60.55 | X-H torsion
[ 11005 11000 10999 10996 ] final  145.06 input  -57.11 | X-H torsion

> <Gold.Protein.ActiveResidues>
 VAL166  LYS551  ARG553  GLY616  TRP617  ASP618  TYR619  PRO620  LYS621  CYS622 
 ASP623  PHE694  ASN695  SER759  ASP760  ASP761  ALA762  ILE779  LEU786  VAL792 
 PHE793  MET794  SER795  GLU796  ALA797  LYS798  CYS799  TRP800  GLU811  SER814 

> <Gold.Protein.RotatedAtoms>
  152.4414  134.5584  159.9886 H   0  0  0  0  0  0  0  0  0  0  0  0  # atno 6907 bound_to 6896
  151.5680  133.3388  159.2992 H   0  0  0  0  0  0  0  0  0  0  0  0  # atno 6908 bound_to 6896
  150.8320  134.7611  159.6926 H   0  0  0  0  0  0  0  0  0  0  0  0  # atno 6909 bound_to 6896
  146.2379  139.9553  142.8465 H   0  0  0  0  0  0  0  0  0  0  0  0  # atno 7974 bound_to 7965
  156.2794  140.2131  156.5683 H   0  0  0  0  0  0  0  0  0  0  0  0  # atno 8008 bound_to 7997
  154.7157  140.0508  157.0615 H   0  0  0  0  0  0  0  0  0  0  0  0  # atno 8009 bound_to 7997
  155.0546  140.3160  155.4683 H   0  0  0  0  0  0  0  0  0  0  0  0  # atno 8010 bound_to 7997
  140.7285  143.4561  151.0446 H   0  0  0  0  0  0  0  0  0  0  0  0  # atno 10167 bound_to 10162
  157.5401  130.8691  149.8810 H   0  0  0  0  0  0  0  0  0  0  0  0  # atno 10718 bound_to 10713
  153.3415  135.4005  155.1575 H   0  0  0  0  0  0  0  0  0  0  0  0  # atno 10763 bound_to 10752
  154.8644  135.3634  154.5340 H   0  0  0  0  0  0  0  0  0  0  0  0  # atno 10764 bound_to 10752
  153.5785  135.7077  153.5533 H   0  0  0  0  0  0  0  0  0  0  0  0  # atno 10765 bound_to 10752
  140.0682  134.9166  157.1300 H   0  0  0  0  0  0  0  0  0  0  0  0  # atno 11005 bound_to 11000
  145.1822  140.9772  143.4259 LP  0  0  0  0  0  0  0  0  0  0  0  0  # atno 17320 bound_to 7965
  144.9932  139.3669  143.6204 LP  0  0  0  0  0  0  0  0  0  0  0  0  # atno 17321 bound_to 7965
  139.8242  143.7779  152.3178 LP  0  0  0  0  0  0  0  0  0  0  0  0  # atno 17342 bound_to 10162
  139.7872  144.7423  151.0005 LP  0  0  0  0  0  0  0  0  0  0  0  0  # atno 17343 bound_to 10162
  156.0490  130.3721  150.1247 LP  0  0  0  0  0  0  0  0  0  0  0  0  # atno 17370 bound_to 10713
  156.9427  130.9749  151.3513 LP  0  0  0  0  0  0  0  0  0  0  0  0  # atno 17371 bound_to 10713
  140.3667  134.2435  155.7181 LP  0  0  0  0  0  0  0  0  0  0  0  0  # atno 17394 bound_to 11000
  141.2001  133.7995  157.0504 LP  0  0  0  0  0  0  0  0  0  0  0  0  # atno 17395 bound_to 11000

$$$$
