#       Name:                AV-unprocessed.smi:1830
#       Creating user name   scv26
#       Creation time:       Fri Mar 27 09:13:24 2020


#       File generated by GOLD software.
#

@<TRIPOS>MOLECULE
AV-unprocessed.smi:1830
    59    62     1
SMALL
NO_CHARGES


@<TRIPOS>ATOM
      1 ****         0.2729   3.2007  -0.4765 O.2            1 S1                 0.0000
      2 ****        -0.1621   2.0708  -0.6969 C.2            1 S1                 0.0000
      3 ****         0.5909   0.9646  -0.6412 N.am           1 S1                 0.0000
      4 ****         2.0154   0.9519  -0.3304 C.3            1 S1                 0.0000
      5 ****         2.4674  -0.4455   0.1174 C.3            1 S1                 0.0000
      6 ****         3.9501  -0.4540   0.5603 C.3            1 S1                 0.0000
      7 ****         4.3338  -1.8440   0.8657 N.4            1 S1                 1.0000
      8 ****         5.7063  -2.1058   1.3316 C.3            1 S1                 0.0000
      9 ****         5.9626  -3.5863   0.9848 C.3            1 S1                 0.0000
     10 ****         4.7457  -4.0393   0.1568 C.3            1 S1                 0.0000
     11 ****         4.1213  -2.7205  -0.2881 C.3            1 S1                 0.0000
     12 ****         2.6326  -2.7086  -0.6581 C.3            1 S1                 0.0000
     13 ****         2.2756  -1.3601  -0.9690 O.3            1 S1                 0.0000
     14 ****        -1.4378   1.7804  -1.0025 N.am           1 S1                 0.0000
     15 ****        -2.5402   2.6778  -1.0871 C.ar           1 S1                 0.0000
     16 ****        -2.3750   3.9941  -1.5903 C.ar           1 S1                 0.0000
     17 ****        -3.4914   4.8398  -1.7291 C.ar           1 S1                 0.0000
     18 ****        -4.7614   4.3518  -1.3786 C.ar           1 S1                 0.0000
     19 ****        -4.8886   3.0910  -0.9163 N.pl3          1 S1                 1.0000
     20 ****        -3.8512   2.2334  -0.7458 C.ar           1 S1                 0.0000
     21 ****        -4.1393   0.9441  -0.2420 N.3            1 S1                 0.0000
     22 ****        -5.5207   0.5036  -0.0856 C.3            1 S1                 0.0000
     23 ****        -5.4406  -0.7484   0.7832 C.3            1 S1                 0.0000
     24 ****        -4.2813  -0.4234   1.7202 C.3            1 S1                 0.0000
     25 ****        -3.3327   0.4078   0.8500 C.3            1 S1                 0.0000
     26 ****         0.1577   0.0746  -0.8396 H              1 S1                 0.0000
     27 ****         2.5772   1.2711  -1.2093 H              1 S1                 0.0000
     28 ****         2.2264   1.6712   0.4629 H              1 S1                 0.0000
     29 ****         1.8447  -0.7650   0.9554 H              1 S1                 0.0000
     30 ****         4.5919  -0.0550  -0.2270 H              1 S1                 0.0000
     31 ****         4.0915   0.1685   1.4447 H              1 S1                 0.0000
     32 ****         6.4111  -1.4676   0.7960 H              1 S1                 0.0000
     33 ****         5.8038  -1.9012   2.3980 H              1 S1                 0.0000
     34 ****         6.8832  -3.6829   0.4081 H              1 S1                 0.0000
     35 ****         6.0720  -4.1970   1.8816 H              1 S1                 0.0000
     36 ****         5.0189  -4.6809  -0.6816 H              1 S1                 0.0000
     37 ****         4.0504  -4.5911   0.7911 H              1 S1                 0.0000
     38 ****         4.6997  -2.3347  -1.1311 H              1 S1                 0.0000
     39 ****         2.4490  -3.3388  -1.5284 H              1 S1                 0.0000
     40 ****         2.0137  -3.0875   0.1570 H              1 S1                 0.0000
     41 ****        -1.6680   0.7999  -1.0706 H              1 S1                 0.0000
     42 ****        -1.4077   4.3634  -1.8957 H              1 S1                 0.0000
     43 ****        -3.3755   5.8435  -2.1114 H              1 S1                 0.0000
     44 ****        -5.6742   4.9243  -1.4582 H              1 S1                 0.0000
     45 ****        -6.1089   1.2669   0.4259 H              1 S1                 0.0000
     46 ****        -5.9861   0.2980  -1.0499 H              1 S1                 0.0000
     47 ****        -6.3711  -0.9612   1.3105 H              1 S1                 0.0000
     48 ****        -5.1915  -1.6151   0.1689 H              1 S1                 0.0000
     49 ****        -4.6428   0.1828   2.5519 H              1 S1                 0.0000
     50 ****        -3.8061  -1.3129   2.1348 H              1 S1                 0.0000
     51 ****        -2.5571  -0.2331   0.4301 H              1 S1                 0.0000
     52 ****        -2.8479   1.1939   1.4303 H              1 S1                 0.0000
     53 ****         3.7170  -2.1744   1.5941 H              1 S1                 0.0000
     54 ****        -5.8242   2.7655  -0.6730 H              1 S1                 0.0000
     55 ****         1.2364   3.3284  -0.2410 LP             1 S1                 0.0000
     56 ****        -0.3371   3.9911  -0.5328 LP             1 S1                 0.0000
     57 ****         2.8351  -1.0557  -1.7398 LP             1 S1                 0.0000
     58 ****         1.3104  -1.3417  -1.2298 LP             1 S1                 0.0000
     59 ****        -3.8139   0.5309  -1.0925 LP             1 S1                 0.0000
@<TRIPOS>BOND
    1    1    2 2     
    2    2    3 am    
    3    2   14 am    
    4    3    4 1     
    5    3   26 1     
    6    4    5 1     
    7    4   27 1     
    8    4   28 1     
    9    5   13 1     
   10    5    6 1     
   11    5   29 1     
   12    6    7 1     
   13    6   30 1     
   14    6   31 1     
   15    7   11 1     
   16    7    8 1     
   17    7   53 1     
   18    8    9 1     
   19    8   32 1     
   20    8   33 1     
   21    9   10 1     
   22    9   34 1     
   23    9   35 1     
   24   10   11 1     
   25   10   36 1     
   26   10   37 1     
   27   11   12 1     
   28   11   38 1     
   29   12   13 1     
   30   12   39 1     
   31   12   40 1     
   32   14   15 1     
   33   14   41 1     
   34   15   20 ar    
   35   15   16 ar    
   36   16   17 ar    
   37   16   42 1     
   38   17   18 ar    
   39   17   43 1     
   40   18   19 ar    
   41   18   44 1     
   42   19   20 ar    
   43   19   54 1     
   44   20   21 1     
   45   21   25 1     
   46   21   22 1     
   47   22   23 1     
   48   22   45 1     
   49   22   46 1     
   50   23   24 1     
   51   23   47 1     
   52   23   48 1     
   53   24   25 1     
   54   24   49 1     
   55   24   50 1     
   56   25   51 1     
   57   25   52 1     
   58    1   55 1     
   59    1   56 1     
   60   13   57 1     
   61   13   58 1     
   62   21   59 1     
@<TRIPOS>SUBSTRUCTURE
      1 S1             1
@<TRIPOS>SET
LONE_PAIRS      STATIC     ATOMS    <user>   **** ""
5 55 56 57 58 59
DONOR_HYDROGENS      STATIC     ATOMS    <user>   **** ""
4 26 53 41 54
ATOM$BLUE        STATIC     ATOMS    COLORGROUP SYSTEM
5 55 56 57 58 59
ATOM$RED        STATIC     ATOMS    COLORGROUP SYSTEM
4 26 53 41 54
