#       Name:                AV-unprocessed.smi:2846
#       Creating user name   scv26
#       Creation time:       Fri Mar 27 15:40:37 2020


#       File generated by GOLD software.
#

@<TRIPOS>MOLECULE
AV-unprocessed.smi:2846
    51    53     1
SMALL
NO_CHARGES


@<TRIPOS>ATOM
      1 ****         0.0408   1.7442   0.2153 O.2            1 S1                 0.0000
      2 ****        -0.3291   0.6874   0.7275 C.2            1 S1                 0.0000
      3 ****        -1.8017   0.4608   1.0781 C.3            1 S1                 0.0000
      4 ****        -2.7264   1.6547   0.9043 C.2            1 S1                 0.0000
      5 ****        -3.3846   1.8896  -0.2477 C.2            1 S1                 0.0000
      6 ****        -4.3273   3.0595  -0.4666 C.3            1 S1                 0.0000
      7 ****        -4.7279   3.7414   0.8525 C.3            1 S1                 0.0000
      8 ****        -3.5145   3.9238   1.7730 C.3            1 S1                 0.0000
      9 ****        -2.8560   2.5743   2.1125 C.3            1 S1                 0.0000
     10 ****         0.5037  -0.3268   1.0064 N.am           1 S1                 0.0000
     11 ****         1.9449  -0.3341   0.7599 C.3            1 S1                 0.0000
     12 ****         2.3494  -1.1105  -0.5254 C.3            1 S1                 0.0000
     13 ****         1.7742  -2.5351  -0.4788 C.ar           1 S1                 0.0000
     14 ****         2.4105  -3.5371   0.2939 C.ar           1 S1                 0.0000
     15 ****         1.8638  -4.8353   0.3436 C.ar           1 S1                 0.0000
     16 ****         0.7327  -5.1150  -0.3377 N.pl3          1 S1                 1.0000
     17 ****         0.0811  -4.1934  -1.0777 C.ar           1 S1                 0.0000
     18 ****         0.5822  -2.8788  -1.1645 C.ar           1 S1                 0.0000
     19 ****         1.9568  -0.3430  -1.8088 C.3            1 S1                 0.0000
     20 ****         3.0146   0.7472  -1.9994 C.3            1 S1                 0.0000
     21 ****         4.2773   0.2236  -1.3073 C.3            1 S1                 0.0000
     22 ****         3.8866  -1.1151  -0.6675 C.3            1 S1                 0.0000
     23 ****        -2.1640  -0.3489   0.4431 H              1 S1                 0.0000
     24 ****        -1.8812   0.0976   2.1036 H              1 S1                 0.0000
     25 ****        -3.2449   1.2273  -1.0895 H              1 S1                 0.0000
     26 ****        -3.8309   3.7731  -1.1249 H              1 S1                 0.0000
     27 ****        -5.2183   2.7114  -0.9897 H              1 S1                 0.0000
     28 ****        -5.1981   4.7035   0.6474 H              1 S1                 0.0000
     29 ****        -5.4761   3.1344   1.3639 H              1 S1                 0.0000
     30 ****        -2.7862   4.5688   1.2795 H              1 S1                 0.0000
     31 ****        -3.8074   4.4355   2.6902 H              1 S1                 0.0000
     32 ****        -3.4412   2.0534   2.8708 H              1 S1                 0.0000
     33 ****        -1.8694   2.7517   2.5422 H              1 S1                 0.0000
     34 ****         0.1110  -1.1546   1.4309 H              1 S1                 0.0000
     35 ****         2.3382   0.6834   0.7488 H              1 S1                 0.0000
     36 ****         2.4040  -0.8108   1.6267 H              1 S1                 0.0000
     37 ****         3.3098  -3.3192   0.8507 H              1 S1                 0.0000
     38 ****         2.2923  -5.6512   0.9072 H              1 S1                 0.0000
     39 ****        -0.8180  -4.5316  -1.5718 H              1 S1                 0.0000
     40 ****         0.0426  -2.1498  -1.7506 H              1 S1                 0.0000
     41 ****         2.0224  -1.0135  -2.6675 H              1 S1                 0.0000
     42 ****         0.9425   0.0546  -1.7979 H              1 S1                 0.0000
     43 ****         3.1831   0.9652  -3.0544 H              1 S1                 0.0000
     44 ****         2.6881   1.6728  -1.5234 H              1 S1                 0.0000
     45 ****         5.1027   0.0993  -2.0092 H              1 S1                 0.0000
     46 ****         4.6028   0.9311  -0.5438 H              1 S1                 0.0000
     47 ****         4.4089  -1.2937   0.2731 H              1 S1                 0.0000
     48 ****         4.1846  -1.9109  -1.3525 H              1 S1                 0.0000
     49 ****         0.3523  -6.0605  -0.2875 H              1 S1                 0.0000
     50 ****        -0.6237   2.4665   0.0237 LP             1 S1                 0.0000
     51 ****         1.0057   1.8802  -0.0092 LP             1 S1                 0.0000
@<TRIPOS>BOND
    1    1    2 2     
    2    2    3 1     
    3    2   10 am    
    4    3    4 1     
    5    3   23 1     
    6    3   24 1     
    7    4    9 1     
    8    4    5 2     
    9    5    6 1     
   10    5   25 1     
   11    6    7 1     
   12    6   26 1     
   13    6   27 1     
   14    7    8 1     
   15    7   28 1     
   16    7   29 1     
   17    8    9 1     
   18    8   30 1     
   19    8   31 1     
   20    9   32 1     
   21    9   33 1     
   22   10   11 1     
   23   10   34 1     
   24   11   12 1     
   25   11   35 1     
   26   11   36 1     
   27   12   22 1     
   28   12   13 1     
   29   12   19 1     
   30   13   18 ar    
   31   13   14 ar    
   32   14   15 ar    
   33   14   37 1     
   34   15   16 ar    
   35   15   38 1     
   36   16   17 ar    
   37   16   49 1     
   38   17   18 ar    
   39   17   39 1     
   40   18   40 1     
   41   19   20 1     
   42   19   41 1     
   43   19   42 1     
   44   20   21 1     
   45   20   43 1     
   46   20   44 1     
   47   21   22 1     
   48   21   45 1     
   49   21   46 1     
   50   22   47 1     
   51   22   48 1     
   52    1   50 1     
   53    1   51 1     
@<TRIPOS>SUBSTRUCTURE
      1 S1             1
@<TRIPOS>SET
LONE_PAIRS      STATIC     ATOMS    <user>   **** ""
2 50 51
DONOR_HYDROGENS      STATIC     ATOMS    <user>   **** ""
2 34 49
ATOM$BLUE        STATIC     ATOMS    COLORGROUP SYSTEM
2 50 51
ATOM$RED        STATIC     ATOMS    COLORGROUP SYSTEM
2 34 49
