AV-unprocessed.smi:163|AV-procd|sdf|1380|dock6
  -GOLD-   2262019103D 1   1.00000     0.00000
 Structure written by MMmdl.
 48 51  0  0  0  0  0  0  0  0  1 V2000
  153.3605  139.6915  158.2192 N   0  0  0  0  0  0  0  0  0  0  0  0
  152.3077  140.0754  157.9297 C   0  0  0  0  0  0  0  0  0  0  0  0
  150.9670  140.5624  157.5639 C   0  0  0  0  0  0  0  0  0  0  0  0
  150.6315  140.3787  156.0779 C   0  0  0  0  0  0  0  0  0  0  0  0
  151.5332  140.4842  155.2456 O   0  0  0  0  0  0  0  0  0  0  0  0
  149.3517  140.1079  155.7303 N   0  0  0  0  0  0  0  0  0  0  0  0
  148.8835  139.8374  154.3662 C   0  0  0  0  0  0  0  0  0  0  0  0
  148.4617  138.3598  154.2689 C   0  0  0  0  0  0  0  0  0  0  0  0
  147.4820  138.0286  155.3067 N   0  0  0  0  0  0  0  0  0  0  0  0
  146.8552  136.8350  155.1448 C   0  0  0  0  0  0  0  0  0  0  0  0
  147.0198  135.8535  156.0721 N   0  0  0  0  0  0  0  0  0  0  0  0
  146.4147  134.6719  155.9211 C   0  0  0  0  0  0  0  0  0  0  0  0
  145.6122  134.2657  154.9362 N   0  0  0  0  0  0  0  0  0  0  0  0
  145.4372  135.2459  154.0045 C   0  0  0  0  0  0  0  0  0  0  0  0
  146.0127  136.5481  154.0328 C   0  0  0  0  0  0  0  0  0  0  0  0
  145.5862  137.2748  152.9271 N   0  0  0  0  0  0  0  0  0  0  0  0
  144.8132  136.4477  152.2785 C   0  0  0  0  0  0  0  0  0  0  0  0
  144.6762  135.2021  152.8489 N   0  0  0  0  0  0  0  0  0  0  0  0
  143.8800  134.0926  152.3452 C   0  0  0  0  0  0  0  0  0  0  0  0
  144.3538  133.5569  150.9718 C   0  0  1  0  0  0  0  0  0  0  0  0
  144.1945  134.5744  150.0003 O   0  0  0  0  0  0  0  0  0  0  0  0
  145.8187  133.1140  150.9930 C   0  0  0  0  0  0  0  0  0  0  0  0
  145.7363  131.5946  150.9130 C   0  0  0  0  0  0  0  0  0  0  0  0
  144.6113  131.3898  150.0777 O   0  0  0  0  0  0  0  0  0  0  0  0
  143.6028  132.2921  150.5087 C   0  0  0  0  0  0  0  0  0  0  0  0
  147.8391  138.4317  156.6707 C   0  0  0  0  0  0  0  0  0  0  0  0
  148.2785  139.9070  156.7107 C   0  0  0  0  0  0  0  0  0  0  0  0
  150.2465  140.0222  158.1786 H   0  0  0  0  0  0  0  0  0  0  0  0
  150.9220  141.6190  157.8303 H   0  0  0  0  0  0  0  0  0  0  0  0
  148.0298  140.4814  154.1497 H   0  0  0  0  0  0  0  0  0  0  0  0
  149.6210  140.0620  153.5974 H   0  0  0  0  0  0  0  0  0  0  0  0
  148.0687  138.1660  153.2722 H   0  0  0  0  0  0  0  0  0  0  0  0
  149.3335  137.7154  154.3919 H   0  0  0  0  0  0  0  0  0  0  0  0
  146.6002  133.9486  156.7014 H   0  0  0  0  0  0  0  0  0  0  0  0
  144.3183  136.7276  151.3601 H   0  0  0  0  0  0  0  0  0  0  0  0
  143.8991  133.2940  153.0879 H   0  0  0  0  0  0  0  0  0  0  0  0
  142.8421  134.4220  152.2805 H   0  0  0  0  0  0  0  0  0  0  0  0
  144.8697  134.4736  149.3468 H   0  0  0  0  0  0  0  0  0  0  0  0
  146.3535  133.4855  150.1172 H   0  0  0  0  0  0  0  0  0  0  0  0
  146.3637  133.4532  151.8746 H   0  0  0  0  0  0  0  0  0  0  0  0
  146.6371  131.1435  150.4963 H   0  0  0  0  0  0  0  0  0  0  0  0
  145.5521  131.1588  151.8964 H   0  0  0  0  0  0  0  0  0  0  0  0
  143.0773  131.8194  151.3389 H   0  0  0  0  0  0  0  0  0  0  0  0
  142.8721  132.4804  149.7209 H   0  0  0  0  0  0  0  0  0  0  0  0
  146.9867  138.2876  157.3360 H   0  0  0  0  0  0  0  0  0  0  0  0
  148.6473  137.7963  157.0363 H   0  0  0  0  0  0  0  0  0  0  0  0
  148.5727  140.1772  157.7255 H   0  0  0  0  0  0  0  0  0  0  0  0
  147.4376  140.5553  156.4601 H   0  0  0  0  0  0  0  0  0  0  0  0
  1  2  3  0  0  0  0
  2  3  1  0  0  0  0
  3  4  1  0  0  0  0
  3 28  1  0  0  0  0
  3 29  1  0  0  0  0
  4  5  2  0  0  0  0
  4  6  1  0  0  0  0
  6 27  1  0  0  0  0
  6  7  1  0  0  0  0
  7  8  1  0  0  0  0
  7 30  1  0  0  0  0
  7 31  1  0  0  0  0
  8  9  1  0  0  0  0
  8 32  1  0  0  0  0
  8 33  1  0  0  0  0
  9 10  1  0  0  0  0
  9 26  1  0  0  0  0
 10 15  1  0  0  0  0
 10 11  2  0  0  0  0
 11 12  1  0  0  0  0
 12 13  2  0  0  0  0
 12 34  1  0  0  0  0
 13 14  1  0  0  0  0
 14 18  1  0  0  0  0
 14 15  2  0  0  0  0
 15 16  1  0  0  0  0
 16 17  2  0  0  0  0
 17 18  1  0  0  0  0
 17 35  1  0  0  0  0
 18 19  1  0  0  0  0
 19 20  1  0  0  0  0
 19 36  1  0  0  0  0
 19 37  1  0  0  0  0
 20 25  1  0  0  0  0
 20 21  1  0  0  0  0
 20 22  1  0  0  0  0
 21 38  1  0  0  0  0
 22 23  1  0  0  0  0
 22 39  1  0  0  0  0
 22 40  1  0  0  0  0
 23 24  1  0  0  0  0
 23 41  1  0  0  0  0
 23 42  1  0  0  0  0
 24 25  1  0  0  0  0
 25 43  1  0  0  0  0
 25 44  1  0  0  0  0
 26 27  1  0  0  0  0
 26 45  1  0  0  0  0
 26 46  1  0  0  0  0
 27 47  1  0  0  0  0
 27 48  1  0  0  0  0
M  END
> <s_m_source_file>
AV-unprocessed.smi

> <i_m_source_file_index>
163

> <i_lp_mmshare_version>
43012

> <i_f3d_flags>
0

> <s_epik_input>
TiNDW0NIMl1DKD1PKU4xW0NIMl1bQ0gyXU4oW0NIMl1bQ0gyXTEpYyhuW2NIXW4yKWMoYzIzKW5bY0hdbjNbQ0gyXVtDQEBdNChbT0hdKVtDSDJdW0NIMl1PW0NIMl00

> <s_epik_cmdline>
J2VwaWtfcHl0aG9uJywgJy1waCcsICc3LjAnLCAnLXRuJywgJzgnLCAnLW1hJywgJzIwMCcsICctbWV0YWxfYmluZGluZycsICctaW1hZScsICc8aW5maWxlLm1hZT4nLCAnLW9tYWUnLCAnPG91dGZpbGUubWFlPic=

> <r_lp_tautomer_probability>
1

> <r_epik_Ionization_Penalty>
0.000981096

> <r_epik_Ionization_Penalty_Charging>
0

> <r_epik_Ionization_Penalty_Neutral>
0.000981096

> <r_epik_State_Penalty>
0.000482875

> <r_epik_Charging_Adjusted_Penalty>
0.000482875

> <i_epik_Tot_Q>
0

> <i_epik_Tot_abs_Q>
0

> <r_epik_Metal_State_Penalty>
-0

> <b_epik_Metal_Only>
0

> <s_lp_Force_Field>
OPLS_2005

> <r_lp_Energy>
52.1528

> <b_lp_Chiralities_Consistent>
1

> <s_lp_Variant>
AV-unprocessed.smi:163-1

> <Gold.Version>
5.8.1

> <Gold.Id.Protein>
6NUR|6NUR_protein|mol2

> <Gold.PLP.Fitness>
41.8320

> <Gold.PLP.PLP>
-30.3811

> <Gold.PLP.part.hbond>
-4.6880

> <Gold.PLP.part.metal>
0.0000

> <Gold.PLP.part.buried>
-4.3456

> <Gold.PLP.part.nonpolar>
-22.8941

> <Gold.PLP.part.repulsive>
0.5303

> <Gold.PLP.ligand.clash>
0.0000

> <Gold.PLP.ligand.torsion>
0.7496

> <Gold.PLP.Chemscore.Hbond>
3.1621

> <Gold.PLP.Chemscore.CHOScore>
1.0000

> <Gold.PLP.Chemscore.Metal>
0.0000

> <Gold.Chemscore.Hbonds>
donor molecule, donor type, donor heavy atom, donor atom, acceptor molecule, acceptor atom, score
      L1  H    21    38       P1  7921  0.68
      P1  H  7989  7998       L1     5  0.85
      P1  H  7997  8009       L1     1  1.00
      P1  H 10785 10796       L1    24  0.11
      L1  C    17    35       P1 10171  1.00

> <Gold.PLP.Chemscore.Internal.Correction>
0.4638

> <Gold.Rescore>
     Score         DG    S(hbond)    S(metal)    S(lipo)     H(rot)  DE(clash)    DE(int)     intcor
     14.50     -15.79       3.21        0.00      55.92       2.72       0.47       0.82       ----

> <Gold.Chemscore.Fitness>
14.4978

> <Gold.Chemscore.DG>
-15.7885

> <Gold.Chemscore.ZeroCoef>
-5.4800

> <Gold.Chemscore.Hbond>
3.2146

> <Gold.Chemscore.Metal>
0.0000

> <Gold.Chemscore.Lipo>
55.9210

> <Gold.Chemscore.Internal_Hbond>
0.0000

> <Gold.Chemscore.DEClash>
0.4678

> <Gold.Chemscore.DEInternal>
0.8228

> <Gold.Chemscore.Rot>
2.7230

> <Gold.Chemscore.Internal.Correction>
   9.000000E+99

> <Gold.Chemscore.Hbonds>
donor molecule, donor type, donor heavy atom, donor atom, acceptor molecule, acceptor atom, score
      L1  H    21    38       P1  7921  0.69
      P1  H  7989  7998       L1     5  0.83
      P1  H  7997  8009       L1     1  0.97
      P1  H 10785 10796       L1    24  0.02

> <Gold.Chemscore.Hbond.Weighted>
-10.7366

> <Gold.Chemscore.Metal.Weighted>
-0.0000

> <Gold.Chemscore.Lipo.Weighted>
-6.5428

> <Gold.Chemscore.Internal_Hbond.Weighted>
0.0000

> <Gold.Chemscore.DEClash.Weighted>
0.4678

> <Gold.Chemscore.DEInternal.Weighted>
0.8228

> <Gold.Chemscore.Rot.Weighted>
6.9709

> <Gold.Chemscore.Internal.Correction.Weighted>
   9.000000E+99

> <Gold.Protein.RotatedTorsions>
[ 6907 6896 6895 6894 ] final  114.22 input  -60.11 | X-H torsion
[ 7974 7965 7964 7962 ] final  168.53 input  175.53 | X-H torsion
[ 8008 7997 7996 7995 ] final  139.77 input   59.86 | X-H torsion
[ 10167 10162 10161 10158 ] final -156.61 input  -65.29 | X-H torsion
[ 10718 10713 10712 10709 ] final    2.71 input   66.30 | X-H torsion
[ 10763 10752 10751 10750 ] final  -94.10 input  -60.55 | X-H torsion
[ 11005 11000 10999 10996 ] final  -28.25 input  -57.11 | X-H torsion

> <Gold.Protein.ActiveResidues>
 VAL166  LYS551  ARG553  GLY616  TRP617  ASP618  TYR619  PRO620  LYS621  CYS622 
 ASP623  PHE694  ASN695  SER759  ASP760  ASP761  ALA762  ILE779  LEU786  VAL792 
 PHE793  MET794  SER795  GLU796  ALA797  LYS798  CYS799  TRP800  GLU811  SER814 

> <Gold.Protein.RotatedAtoms>
  152.4815  133.8267  159.7081 H   0  0  0  0  0  0  0  0  0  0  0  0  # atno 6907 bound_to 6896
  150.8869  133.7286  159.2922 H   0  0  0  0  0  0  0  0  0  0  0  0  # atno 6908 bound_to 6896
  151.4772  135.1053  159.9820 H   0  0  0  0  0  0  0  0  0  0  0  0  # atno 6909 bound_to 6896
  144.7385  139.8921  143.6404 H   0  0  0  0  0  0  0  0  0  0  0  0  # atno 7974 bound_to 7965
  156.2986  140.2359  156.4291 H   0  0  0  0  0  0  0  0  0  0  0  0  # atno 8008 bound_to 7997
  154.8286  140.0434  157.1481 H   0  0  0  0  0  0  0  0  0  0  0  0  # atno 8009 bound_to 7997
  154.9233  140.3006  155.5208 H   0  0  0  0  0  0  0  0  0  0  0  0  # atno 8010 bound_to 7997
  139.6837  143.9538  152.2350 H   0  0  0  0  0  0  0  0  0  0  0  0  # atno 10167 bound_to 10162
  156.8670  130.5606  149.5659 H   0  0  0  0  0  0  0  0  0  0  0  0  # atno 10718 bound_to 10713
  154.7023  135.5170  153.8544 H   0  0  0  0  0  0  0  0  0  0  0  0  # atno 10763 bound_to 10752
  153.0713  135.6602  154.0250 H   0  0  0  0  0  0  0  0  0  0  0  0  # atno 10764 bound_to 10752
  154.0107  135.3002  155.3372 H   0  0  0  0  0  0  0  0  0  0  0  0  # atno 10765 bound_to 10752
  140.9192  133.7410  156.0777 H   0  0  0  0  0  0  0  0  0  0  0  0  # atno 11005 bound_to 11000
  146.1134  139.4142  143.0273 LP  0  0  0  0  0  0  0  0  0  0  0  0  # atno 17320 bound_to 7965
  145.7410  141.0008  143.1301 LP  0  0  0  0  0  0  0  0  0  0  0  0  # atno 17321 bound_to 7965
  139.9335  144.6726  150.8339 LP  0  0  0  0  0  0  0  0  0  0  0  0  # atno 17342 bound_to 10162
  140.7660  143.3292  151.2447 LP  0  0  0  0  0  0  0  0  0  0  0  0  # atno 17343 bound_to 10162
  156.0746  130.5771  150.9450 LP  0  0  0  0  0  0  0  0  0  0  0  0  # atno 17370 bound_to 10713
  157.6218  131.0929  150.8609 LP  0  0  0  0  0  0  0  0  0  0  0  0  # atno 17371 bound_to 10713
  140.8010  134.3508  157.5439 LP  0  0  0  0  0  0  0  0  0  0  0  0  # atno 17394 bound_to 11000
  139.8772  134.9198  156.3235 LP  0  0  0  0  0  0  0  0  0  0  0  0  # atno 17395 bound_to 11000

$$$$
