AV-unprocessed.smi:690|AV-procd|sdf|3362|dock4
  -GOLD-   22720 0343D 1   1.00000     0.00000
 Structure written by MMmdl.
 46 48  0  0  0  0  0  0  0  0  1 V2000
  145.9597  137.3575  152.2804 C   0  0  0  0  0  0  0  0  0  0  0  0
  146.6430  138.6931  151.9804 C   0  0  0  0  0  0  0  0  0  0  0  0
  146.4249  139.5721  153.0707 O   0  0  0  0  0  0  0  0  0  0  0  0
  147.4511  140.5415  153.2121 C   0  0  2  0  0  0  0  0  0  0  0  0
  148.7339  140.0271  153.8728 C   0  0  0  0  0  0  0  0  0  0  0  0
  148.7983  141.3970  154.5552 C   0  0  2  0  0  0  0  0  0  0  0  0
  149.2898  141.3334  155.9264 N   0  0  0  0  0  0  0  0  0  0  0  0
  150.5280  140.9557  156.2727 C   0  0  0  0  0  0  0  0  0  0  0  0
  151.3801  140.6092  155.4537 O   0  0  0  0  0  0  0  0  0  0  0  0
  150.8345  140.9500  157.7768 C   0  0  0  0  0  0  0  0  0  0  0  0
  151.3910  142.2253  158.2579 N   0  0  0  0  0  0  0  0  0  0  0  0
  151.0202  143.3927  157.5609 C   0  0  0  0  0  0  0  0  0  0  0  0
  151.4684  144.6061  157.9198 C   0  0  0  0  0  0  0  0  0  0  0  0
  152.3555  144.6978  159.0552 C   0  0  0  0  0  0  0  0  0  0  0  0
  152.7148  143.5877  159.7302 C   0  0  0  0  0  0  0  0  0  0  0  0
  152.2263  142.2595  159.3421 C   0  0  0  0  0  0  0  0  0  0  0  0
  152.5490  141.2403  159.9533 O   0  0  0  0  0  0  0  0  0  0  0  0
  147.2564  141.4746  154.4335 C   0  0  0  0  0  0  0  0  0  0  0  0
  146.3844  140.9546  155.5843 C   0  0  0  0  0  0  0  0  0  0  0  0
  144.9611  141.4442  155.3103 C   0  0  0  0  0  0  0  0  0  0  0  0
  145.1186  142.6964  154.4411 C   0  0  0  0  0  0  0  0  0  0  0  0
  146.6207  142.8350  154.1685 C   0  0  0  0  0  0  0  0  0  0  0  0
  146.1002  136.6547  151.4591 H   0  0  0  0  0  0  0  0  0  0  0  0
  144.8877  137.4915  152.4269 H   0  0  0  0  0  0  0  0  0  0  0  0
  146.3678  136.9033  153.1835 H   0  0  0  0  0  0  0  0  0  0  0  0
  147.7116  138.5384  151.8254 H   0  0  0  0  0  0  0  0  0  0  0  0
  146.2343  139.1220  151.0644 H   0  0  0  0  0  0  0  0  0  0  0  0
  147.6458  141.0984  152.2923 H   0  0  0  0  0  0  0  0  0  0  0  0
  148.5618  139.1979  154.5619 H   0  0  0  0  0  0  0  0  0  0  0  0
  149.5527  139.8204  153.1834 H   0  0  0  0  0  0  0  0  0  0  0  0
  149.2991  142.1453  153.9358 H   0  0  0  0  0  0  0  0  0  0  0  0
  148.6467  141.5981  156.6583 H   0  0  0  0  0  0  0  0  0  0  0  0
  149.9291  140.7036  158.3352 H   0  0  0  0  0  0  0  0  0  0  0  0
  151.5248  140.1297  157.9773 H   0  0  0  0  0  0  0  0  0  0  0  0
  150.3490  143.2390  156.7284 H   0  0  0  0  0  0  0  0  0  0  0  0
  151.1702  145.4905  157.3764 H   0  0  0  0  0  0  0  0  0  0  0  0
  152.7318  145.6615  159.3657 H   0  0  0  0  0  0  0  0  0  0  0  0
  153.3784  143.6758  160.5779 H   0  0  0  0  0  0  0  0  0  0  0  0
  146.4207  139.8701  155.6908 H   0  0  0  0  0  0  0  0  0  0  0  0
  146.7162  141.3743  156.5347 H   0  0  0  0  0  0  0  0  0  0  0  0
  144.4044  140.6834  154.7619 H   0  0  0  0  0  0  0  0  0  0  0  0
  144.4175  141.6470  156.2335 H   0  0  0  0  0  0  0  0  0  0  0  0
  144.5713  142.5698  153.5063 H   0  0  0  0  0  0  0  0  0  0  0  0
  144.7239  143.5853  154.9339 H   0  0  0  0  0  0  0  0  0  0  0  0
  147.0443  143.5779  154.8459 H   0  0  0  0  0  0  0  0  0  0  0  0
  146.8076  143.1929  153.1556 H   0  0  0  0  0  0  0  0  0  0  0  0
  1  2  1  0  0  0  0
  1 23  1  0  0  0  0
  1 24  1  0  0  0  0
  1 25  1  0  0  0  0
  2  3  1  0  0  0  0
  2 26  1  0  0  0  0
  2 27  1  0  0  0  0
  3  4  1  0  0  0  0
  4 18  1  0  0  0  0
  4  5  1  0  0  0  0
  4 28  1  0  0  0  0
  5  6  1  0  0  0  0
  5 29  1  0  0  0  0
  5 30  1  0  0  0  0
  6  7  1  0  0  0  0
  6 18  1  0  0  0  0
  6 31  1  0  0  0  0
  7  8  1  0  0  0  0
  7 32  1  0  0  0  0
  8  9  2  0  0  0  0
  8 10  1  0  0  0  0
 10 11  1  0  0  0  0
 10 33  1  0  0  0  0
 10 34  1  0  0  0  0
 11 16  1  0  0  0  0
 11 12  1  0  0  0  0
 12 13  2  0  0  0  0
 12 35  1  0  0  0  0
 13 14  1  0  0  0  0
 13 36  1  0  0  0  0
 14 15  2  0  0  0  0
 14 37  1  0  0  0  0
 15 16  1  0  0  0  0
 15 38  1  0  0  0  0
 16 17  2  0  0  0  0
 18 22  1  0  0  0  0
 18 19  1  0  0  0  0
 19 20  1  0  0  0  0
 19 39  1  0  0  0  0
 19 40  1  0  0  0  0
 20 21  1  0  0  0  0
 20 41  1  0  0  0  0
 20 42  1  0  0  0  0
 21 22  1  0  0  0  0
 21 43  1  0  0  0  0
 21 44  1  0  0  0  0
 22 45  1  0  0  0  0
 22 46  1  0  0  0  0
M  END
> <s_m_source_file>
AV-unprocessed.smi

> <i_m_source_file_index>
690

> <i_lp_mmshare_version>
43012

> <i_f3d_flags>
0

> <s_epik_input>
W0NIMl0xW0NIMl1bQ0gyXVtDSDJdQzEyW0NASF0oT1tDSDJdW0NIM10pW0NIMl1bQ0BIXTJbTkhdQyg9TylbQ0gyXW4zW2NIXVtjSF1bY0hdW2NIXWMzPU8=

> <s_epik_cmdline>
J2VwaWtfcHl0aG9uJywgJy1waCcsICc3LjAnLCAnLXRuJywgJzgnLCAnLW1hJywgJzIwMCcsICctbWV0YWxfYmluZGluZycsICctaW1hZScsICc8aW5maWxlLm1hZT4nLCAnLW9tYWUnLCAnPG91dGZpbGUubWFlPic=

> <r_lp_tautomer_probability>
1

> <r_epik_Ionization_Penalty>
4.11691e-07

> <r_epik_Ionization_Penalty_Charging>
3.92797e-07

> <r_epik_Ionization_Penalty_Neutral>
1.88943e-08

> <r_epik_State_Penalty>
-0

> <r_epik_Charging_Adjusted_Penalty>
3.92797e-07

> <i_epik_Tot_Q>
0

> <i_epik_Tot_abs_Q>
0

> <r_epik_Metal_State_Penalty>
-0

> <b_epik_Metal_Only>
0

> <s_lp_Force_Field>
OPLS_2005

> <r_lp_Energy>
45.5322

> <b_lp_Chiralities_Consistent>
1

> <s_lp_Variant>
AV-unprocessed.smi:690-3

> <Gold.Version>
5.8.1

> <Gold.Id.Protein>
6NUR|6NUR_protein|mol2

> <Gold.PLP.Fitness>
49.8683

> <Gold.PLP.PLP>
-46.1936

> <Gold.PLP.part.hbond>
-1.0000

> <Gold.PLP.part.metal>
0.0000

> <Gold.PLP.part.buried>
-0.9971

> <Gold.PLP.part.nonpolar>
-46.8251

> <Gold.PLP.part.repulsive>
1.3862

> <Gold.PLP.ligand.clash>
0.0000

> <Gold.PLP.ligand.torsion>
1.1059

> <Gold.PLP.Chemscore.Hbond>
0.8640

> <Gold.PLP.Chemscore.CHOScore>
0.9718

> <Gold.PLP.Chemscore.Metal>
0.0000

> <Gold.Chemscore.Hbonds>
donor molecule, donor type, donor heavy atom, donor atom, acceptor molecule, acceptor atom, score
      P1  H  7989  7998       L1     9  0.82
      L1  C    12    35       P1  8028  1.00

> <Gold.PLP.Chemscore.Internal.Correction>
0.3791

> <Gold.Rescore>
     Score         DG    S(hbond)    S(metal)    S(lipo)     H(rot)  DE(clash)    DE(int)     intcor
     15.27     -16.30       0.83        0.00     105.80       1.69       0.03       0.99       ----

> <Gold.Chemscore.Fitness>
15.2746

> <Gold.Chemscore.DG>
-16.2963

> <Gold.Chemscore.ZeroCoef>
-5.4800

> <Gold.Chemscore.Hbond>
0.8276

> <Gold.Chemscore.Metal>
0.0000

> <Gold.Chemscore.Lipo>
105.8004

> <Gold.Chemscore.Internal_Hbond>
0.0000

> <Gold.Chemscore.DEClash>
0.0285

> <Gold.Chemscore.DEInternal>
0.9932

> <Gold.Chemscore.Rot>
1.6900

> <Gold.Chemscore.Internal.Correction>
   9.000000E+99

> <Gold.Chemscore.Hbonds>
donor molecule, donor type, donor heavy atom, donor atom, acceptor molecule, acceptor atom, score
      P1  H  7989  7998       L1     9  0.78

> <Gold.Chemscore.Hbond.Weighted>
-2.7641

> <Gold.Chemscore.Metal.Weighted>
-0.0000

> <Gold.Chemscore.Lipo.Weighted>
-12.3786

> <Gold.Chemscore.Internal_Hbond.Weighted>
0.0000

> <Gold.Chemscore.DEClash.Weighted>
0.0285

> <Gold.Chemscore.DEInternal.Weighted>
0.9932

> <Gold.Chemscore.Rot.Weighted>
4.3265

> <Gold.Chemscore.Internal.Correction.Weighted>
   9.000000E+99

> <Gold.Protein.RotatedTorsions>
[ 6907 6896 6895 6894 ] final   21.35 input  -60.11 | X-H torsion
[ 7974 7965 7964 7962 ] final -122.72 input  175.53 | X-H torsion
[ 8008 7997 7996 7995 ] final   68.12 input   59.86 | X-H torsion
[ 10167 10162 10161 10158 ] final  139.19 input  -65.29 | X-H torsion
[ 10718 10713 10712 10709 ] final  -63.62 input   66.30 | X-H torsion
[ 10763 10752 10751 10750 ] final  -24.77 input  -60.55 | X-H torsion
[ 11005 11000 10999 10996 ] final  -53.11 input  -57.11 | X-H torsion

> <Gold.Protein.ActiveResidues>
 VAL166  LYS551  ARG553  GLY616  TRP617  ASP618  TYR619  PRO620  LYS621  CYS622 
 ASP623  PHE694  ASN695  SER759  ASP760  ASP761  ALA762  ILE779  LEU786  VAL792 
 PHE793  MET794  SER795  GLU796  ALA797  LYS798  CYS799  TRP800  GLU811  SER814 

> <Gold.Protein.RotatedAtoms>
  151.9104  135.0341  160.0513 H   0  0  0  0  0  0  0  0  0  0  0  0  # atno 6907 bound_to 6896
  152.2284  133.5034  159.5210 H   0  0  0  0  0  0  0  0  0  0  0  0  # atno 6908 bound_to 6896
  150.7018  134.1166  159.4062 H   0  0  0  0  0  0  0  0  0  0  0  0  # atno 6909 bound_to 6896
  145.0264  140.8031  143.4350 H   0  0  0  0  0  0  0  0  0  0  0  0  # atno 7974 bound_to 7965
  155.7035  140.3495  155.4943 H   0  0  0  0  0  0  0  0  0  0  0  0  # atno 8008 bound_to 7997
  155.9420  140.1103  157.1070 H   0  0  0  0  0  0  0  0  0  0  0  0  # atno 8009 bound_to 7997
  154.4104  140.1211  156.4925 H   0  0  0  0  0  0  0  0  0  0  0  0  # atno 8010 bound_to 7997
  139.5086  144.6309  151.5820 H   0  0  0  0  0  0  0  0  0  0  0  0  # atno 10167 bound_to 10162
  156.0780  130.4223  150.1303 H   0  0  0  0  0  0  0  0  0  0  0  0  # atno 10718 bound_to 10713
  153.6890  135.6962  153.5095 H   0  0  0  0  0  0  0  0  0  0  0  0  # atno 10763 bound_to 10752
  153.2427  135.4300  155.0714 H   0  0  0  0  0  0  0  0  0  0  0  0  # atno 10764 bound_to 10752
  154.8378  135.3512  154.6432 H   0  0  0  0  0  0  0  0  0  0  0  0  # atno 10765 bound_to 10752
  141.0959  133.6625  156.4124 H   0  0  0  0  0  0  0  0  0  0  0  0  # atno 11005 bound_to 11000
  145.1827  139.2343  143.5284 LP  0  0  0  0  0  0  0  0  0  0  0  0  # atno 17320 bound_to 7965
  146.3493  140.1605  142.8591 LP  0  0  0  0  0  0  0  0  0  0  0  0  # atno 17321 bound_to 7965
  140.6041  143.9556  150.6406 LP  0  0  0  0  0  0  0  0  0  0  0  0  # atno 17342 bound_to 10162
  140.2777  143.3411  152.1180 LP  0  0  0  0  0  0  0  0  0  0  0  0  # atno 17343 bound_to 10162
  156.9340  130.9723  151.3528 LP  0  0  0  0  0  0  0  0  0  0  0  0  # atno 17370 bound_to 10713
  157.5884  130.8426  149.8623 LP  0  0  0  0  0  0  0  0  0  0  0  0  # atno 17371 bound_to 10713
  140.5140  134.6367  157.5295 LP  0  0  0  0  0  0  0  0  0  0  0  0  # atno 17394 bound_to 11000
  139.9796  134.7159  155.9884 LP  0  0  0  0  0  0  0  0  0  0  0  0  # atno 17395 bound_to 11000

$$$$
