AV-unprocessed.smi:2603|AV-procd|sdf|10187|dock8
  -GOLD-   2272014203D 1   1.00000     0.00000
 Structure written by MMmdl.
 35 36  0  0  0  0  0  0  0  0  1 V2000
  144.5648  133.1206  148.3735 C   0  0  0  0  0  0  0  0  0  0  0  0
  144.0850  133.0188  149.8232 C   0  0  0  0  0  0  0  0  0  0  0  0
  145.2104  132.8828  150.6718 O   0  0  0  0  0  0  0  0  0  0  0  0
  144.9821  133.4371  151.9576 C   0  0  2  0  0  0  0  0  0  0  0  0
  145.2198  134.9194  152.0309 C   0  0  0  0  0  0  0  0  0  0  0  0
  146.2392  133.9594  152.6192 C   0  0  2  0  0  0  0  0  0  0  0  0
  147.4752  133.8015  151.9250 N   0  0  0  0  0  0  0  0  0  0  0  0
  147.9379  132.6620  151.3909 C   0  0  0  0  0  0  0  0  0  0  0  0
  147.3563  131.5811  151.4799 O   0  0  0  0  0  0  0  0  0  0  0  0
  149.2608  132.7599  150.6288 C   0  0  0  0  0  0  0  0  0  0  0  0
  150.3610  132.0902  151.4159 C   0  0  0  0  0  0  0  0  0  0  0  0
  151.0522  130.8847  151.1012 C   0  0  0  0  0  0  0  0  0  0  0  0
  150.8627  129.9765  149.9204 C   0  0  0  0  0  0  0  0  0  0  0  0
  151.9652  130.5867  152.0099 N   0  0  0  0  0  0  0  0  0  0  0  0
  151.9062  131.6088  152.9619 O   0  0  0  0  0  0  0  0  0  0  0  0
  150.9463  132.4912  152.5864 C   0  0  0  0  0  0  0  0  0  0  0  0
  150.7417  133.6669  153.4809 C   0  0  0  0  0  0  0  0  0  0  0  0
  143.7204  133.2010  147.6890 H   0  0  0  0  0  0  0  0  0  0  0  0
  145.1437  132.2413  148.0899 H   0  0  0  0  0  0  0  0  0  0  0  0
  145.1951  133.9981  148.2299 H   0  0  0  0  0  0  0  0  0  0  0  0
  143.5165  133.9102  150.0925 H   0  0  0  0  0  0  0  0  0  0  0  0
  143.4249  132.1576  149.9370 H   0  0  0  0  0  0  0  0  0  0  0  0
  144.2183  132.9555  152.5661 H   0  0  0  0  0  0  0  0  0  0  0  0
  145.4766  135.4352  151.1075 H   0  0  0  0  0  0  0  0  0  0  0  0
  144.6089  135.4899  152.7275 H   0  0  0  0  0  0  0  0  0  0  0  0
  146.2680  133.9064  153.7066 H   0  0  0  0  0  0  0  0  0  0  0  0
  148.0229  134.6387  151.7888 H   0  0  0  0  0  0  0  0  0  0  0  0
  149.1339  132.3029  149.6470 H   0  0  0  0  0  0  0  0  0  0  0  0
  149.4919  133.8097  150.4442 H   0  0  0  0  0  0  0  0  0  0  0  0
  150.4794  130.5231  149.0584 H   0  0  0  0  0  0  0  0  0  0  0  0
  150.1544  129.1807  150.1509 H   0  0  0  0  0  0  0  0  0  0  0  0
  151.8022  129.5109  149.6203 H   0  0  0  0  0  0  0  0  0  0  0  0
  149.9751  134.3341  153.0873 H   0  0  0  0  0  0  0  0  0  0  0  0
  151.6636  134.2389  153.5809 H   0  0  0  0  0  0  0  0  0  0  0  0
  150.4326  133.3460  154.4757 H   0  0  0  0  0  0  0  0  0  0  0  0
  1  2  1  0  0  0  0
  1 18  1  0  0  0  0
  1 19  1  0  0  0  0
  1 20  1  0  0  0  0
  2  3  1  0  0  0  0
  2 21  1  0  0  0  0
  2 22  1  0  0  0  0
  3  4  1  0  0  0  0
  4  6  1  0  0  0  0
  4  5  1  0  0  0  0
  4 23  1  0  0  0  0
  5  6  1  0  0  0  0
  5 24  1  0  0  0  0
  5 25  1  0  0  0  0
  6  7  1  0  0  0  0
  6 26  1  0  0  0  0
  7  8  1  0  0  0  0
  7 27  1  0  0  0  0
  8  9  2  0  0  0  0
  8 10  1  0  0  0  0
 10 11  1  0  0  0  0
 10 28  1  0  0  0  0
 10 29  1  0  0  0  0
 11 16  2  0  0  0  0
 11 12  1  0  0  0  0
 12 13  1  0  0  0  0
 12 14  2  0  0  0  0
 13 30  1  0  0  0  0
 13 31  1  0  0  0  0
 13 32  1  0  0  0  0
 14 15  1  0  0  0  0
 15 16  1  0  0  0  0
 16 17  1  0  0  0  0
 17 33  1  0  0  0  0
 17 34  1  0  0  0  0
 17 35  1  0  0  0  0
M  END
> <s_m_source_file>
AV-unprocessed.smi

> <i_m_source_file_index>
2603

> <i_lp_mmshare_version>
43012

> <i_f3d_flags>
0

> <s_epik_input>
W0NIM11bQ0gyXU9bQ0BASF0xW0NIMl1bQ0BIXTFbTkhdQyg9TylbQ0gyXWMyYyhbQ0gzXSlub2MyW0NIM10=

> <s_epik_cmdline>
J2VwaWtfcHl0aG9uJywgJy1waCcsICc3LjAnLCAnLXRuJywgJzgnLCAnLW1hJywgJzIwMCcsICctbWV0YWxfYmluZGluZycsICctaW1hZScsICc8aW5maWxlLm1hZT4nLCAnLW9tYWUnLCAnPG91dGZpbGUubWFlPic=

> <r_lp_tautomer_probability>
1

> <r_epik_Ionization_Penalty>
2.37325e-08

> <r_epik_Ionization_Penalty_Charging>
0

> <r_epik_Ionization_Penalty_Neutral>
2.37325e-08

> <r_epik_State_Penalty>
-0

> <r_epik_Charging_Adjusted_Penalty>
0

> <i_epik_Tot_Q>
0

> <i_epik_Tot_abs_Q>
0

> <r_epik_Metal_State_Penalty>
-0

> <b_epik_Metal_Only>
0

> <s_lp_Force_Field>
OPLS_2005

> <r_lp_Energy>
11.1697

> <b_lp_Chiralities_Consistent>
1

> <s_lp_Variant>
AV-unprocessed.smi:2603-3

> <Gold.Version>
5.8.1

> <Gold.Id.Protein>
6NUR|6NUR_protein|mol2

> <Gold.PLP.Fitness>
32.5289

> <Gold.PLP.PLP>
-30.3474

> <Gold.PLP.part.hbond>
-1.0000

> <Gold.PLP.part.metal>
0.0000

> <Gold.PLP.part.buried>
-4.7944

> <Gold.PLP.part.nonpolar>
-24.4512

> <Gold.PLP.part.repulsive>
0.2184

> <Gold.PLP.ligand.clash>
0.0000

> <Gold.PLP.ligand.torsion>
0.7485

> <Gold.PLP.Chemscore.Hbond>
1.0000

> <Gold.PLP.Chemscore.CHOScore>
0.0000

> <Gold.PLP.Chemscore.Metal>
0.0000

> <Gold.Chemscore.Hbonds>
donor molecule, donor type, donor heavy atom, donor atom, acceptor molecule, acceptor atom, score
      L1  H     7    27       P1  7948  0.75

> <Gold.PLP.Chemscore.Internal.Correction>
0.6785

> <Gold.Rescore>
     Score         DG    S(hbond)    S(metal)    S(lipo)     H(rot)  DE(clash)    DE(int)     intcor
      9.34     -12.62       0.98        0.00      70.23       1.69       0.03       3.25       ----

> <Gold.Chemscore.Fitness>
9.3371

> <Gold.Chemscore.DG>
-12.6226

> <Gold.Chemscore.ZeroCoef>
-5.4800

> <Gold.Chemscore.Hbond>
0.9763

> <Gold.Chemscore.Metal>
0.0000

> <Gold.Chemscore.Lipo>
70.2275

> <Gold.Chemscore.Internal_Hbond>
0.0000

> <Gold.Chemscore.DEClash>
0.0327

> <Gold.Chemscore.DEInternal>
3.2529

> <Gold.Chemscore.Rot>
1.6933

> <Gold.Chemscore.Internal.Correction>
   9.000000E+99

> <Gold.Chemscore.Hbonds>
donor molecule, donor type, donor heavy atom, donor atom, acceptor molecule, acceptor atom, score
      L1  H     7    27       P1  7948  0.09

> <Gold.Chemscore.Hbond.Weighted>
-3.2608

> <Gold.Chemscore.Metal.Weighted>
-0.0000

> <Gold.Chemscore.Lipo.Weighted>
-8.2166

> <Gold.Chemscore.Internal_Hbond.Weighted>
0.0000

> <Gold.Chemscore.DEClash.Weighted>
0.0327

> <Gold.Chemscore.DEInternal.Weighted>
3.2529

> <Gold.Chemscore.Rot.Weighted>
4.3348

> <Gold.Chemscore.Internal.Correction.Weighted>
   9.000000E+99

> <Gold.Protein.RotatedTorsions>
[ 6907 6896 6895 6894 ] final  175.27 input  -60.11 | X-H torsion
[ 7974 7965 7964 7962 ] final -128.04 input  175.53 | X-H torsion
[ 8008 7997 7996 7995 ] final   19.45 input   59.86 | X-H torsion
[ 10167 10162 10161 10158 ] final  -81.56 input  -65.29 | X-H torsion
[ 10718 10713 10712 10709 ] final  153.32 input   66.30 | X-H torsion
[ 10763 10752 10751 10750 ] final   45.71 input  -60.55 | X-H torsion
[ 11005 11000 10999 10996 ] final   14.20 input  -57.11 | X-H torsion

> <Gold.Protein.ActiveResidues>
 VAL166  LYS551  ARG553  GLY616  TRP617  ASP618  TYR619  PRO620  LYS621  CYS622 
 ASP623  PHE694  ASN695  SER759  ASP760  ASP761  ALA762  ILE779  LEU786  VAL792 
 PHE793  MET794  SER795  GLU796  ALA797  LYS798  CYS799  TRP800  GLU811  SER814 

> <Gold.Protein.RotatedAtoms>
  151.7389  133.3321  159.3360 H   0  0  0  0  0  0  0  0  0  0  0  0  # atno 6907 bound_to 6896
  150.7581  134.6296  159.6188 H   0  0  0  0  0  0  0  0  0  0  0  0  # atno 6908 bound_to 6896
  152.3543  134.6964  160.0278 H   0  0  0  0  0  0  0  0  0  0  0  0  # atno 6909 bound_to 6896
  144.9710  140.7545  143.4670 H   0  0  0  0  0  0  0  0  0  0  0  0  # atno 7974 bound_to 7965
  154.9210  140.3027  155.5216 H   0  0  0  0  0  0  0  0  0  0  0  0  # atno 8008 bound_to 7997
  156.3010  140.2371  156.4196 H   0  0  0  0  0  0  0  0  0  0  0  0  # atno 8009 bound_to 7997
  154.8331  140.0417  157.1479 H   0  0  0  0  0  0  0  0  0  0  0  0  # atno 8010 bound_to 7997
  140.4401  143.2518  151.8638 H   0  0  0  0  0  0  0  0  0  0  0  0  # atno 10167 bound_to 10162
  157.2463  131.0769  151.1759 H   0  0  0  0  0  0  0  0  0  0  0  0  # atno 10718 bound_to 10713
  152.9820  135.6031  154.3481 H   0  0  0  0  0  0  0  0  0  0  0  0  # atno 10763 bound_to 10752
  154.3173  135.2770  155.2539 H   0  0  0  0  0  0  0  0  0  0  0  0  # atno 10764 bound_to 10752
  154.4721  135.5939  153.6385 H   0  0  0  0  0  0  0  0  0  0  0  0  # atno 10765 bound_to 10752
  140.4722  134.1020  155.7735 H   0  0  0  0  0  0  0  0  0  0  0  0  # atno 11005 bound_to 11000
  145.2559  139.2012  143.4917 LP  0  0  0  0  0  0  0  0  0  0  0  0  # atno 17320 bound_to 7965
  146.3382  140.2481  142.8597 LP  0  0  0  0  0  0  0  0  0  0  0  0  # atno 17321 bound_to 7965
  139.4789  144.5239  151.8763 LP  0  0  0  0  0  0  0  0  0  0  0  0  # atno 17342 bound_to 10162
  140.4328  144.2092  150.5888 LP  0  0  0  0  0  0  0  0  0  0  0  0  # atno 17343 bound_to 10162
  157.3326  130.6992  149.6333 LP  0  0  0  0  0  0  0  0  0  0  0  0  # atno 17370 bound_to 10713
  155.9668  130.4303  150.4871 LP  0  0  0  0  0  0  0  0  0  0  0  0  # atno 17371 bound_to 10713
  141.1571  133.8861  157.1947 LP  0  0  0  0  0  0  0  0  0  0  0  0  # atno 17394 bound_to 11000
  139.9878  135.0075  156.9904 LP  0  0  0  0  0  0  0  0  0  0  0  0  # atno 17395 bound_to 11000

$$$$
