AV-unprocessed.smi:2061|AV-procd|sdf|8364|dock3
  -GOLD-   2272011 33D 1   1.00000     0.00000
 Structure written by MMmdl.
 45 46  0  0  0  0  0  0  0  0  1 V2000
  143.3140  132.8198  150.3299 C   0  0  0  0  0  0  0  0  0  0  0  0
  144.1420  133.7986  151.0903 C   0  0  0  0  0  0  0  0  0  0  0  0
  144.9330  134.8443  150.7051 C   0  0  0  0  0  0  0  0  0  0  0  0
  145.4272  135.3432  151.9398 C   0  0  0  0  0  0  0  0  0  0  0  0
  146.3100  136.4526  151.9759 N   0  0  0  0  0  0  0  0  0  0  0  0
  146.0345  137.7054  152.3771 C   0  0  0  0  0  0  0  0  0  0  0  0
  144.9350  138.0981  152.7693 O   0  0  0  0  0  0  0  0  0  0  0  0
  147.1173  138.4917  152.2930 N   0  0  0  0  0  0  0  0  0  0  0  0
  147.1669  139.9123  152.6344 C   0  0  0  0  0  0  0  0  0  0  0  0
  147.0446  140.1593  154.1611 C   0  0  2  0  0  0  0  0  0  0  0  0
  146.2834  141.4862  154.3810 C   0  0  0  0  0  0  0  0  0  0  0  0
  148.3314  140.0887  154.8882 N   0  0  0  0  0  0  0  0  0  0  0  0
  149.0292  141.3777  154.9217 C   0  0  0  0  0  0  0  0  0  0  0  0
  150.3778  141.3229  155.6660 C   0  0  1  0  0  0  0  0  0  0  0  0
  150.2256  141.2161  157.1932 C   0  0  0  0  0  0  0  0  0  0  0  0
  151.1923  140.2784  155.1372 O   0  0  0  0  0  0  0  0  0  0  0  0
  150.5713  138.9974  155.0946 C   0  0  2  0  0  0  0  0  0  0  0  0
  151.5500  138.0181  154.4378 C   0  0  0  0  0  0  0  0  0  0  0  0
  149.2435  139.0932  154.3215 C   0  0  0  0  0  0  0  0  0  0  0  0
  144.9773  134.6643  152.9842 N   0  0  0  0  0  0  0  0  0  0  0  0
  144.1516  133.6708  152.4449 O   0  0  0  0  0  0  0  0  0  0  0  0
  143.0625  133.2070  149.3424 H   0  0  0  0  0  0  0  0  0  0  0  0
  142.3828  132.6067  150.8554 H   0  0  0  0  0  0  0  0  0  0  0  0
  143.8514  131.8806  150.1987 H   0  0  0  0  0  0  0  0  0  0  0  0
  145.1262  135.1922  149.7011 H   0  0  0  0  0  0  0  0  0  0  0  0
  147.2547  136.2710  151.6708 H   0  0  0  0  0  0  0  0  0  0  0  0
  147.9742  138.0825  151.9508 H   0  0  0  0  0  0  0  0  0  0  0  0
  148.0811  140.3708  152.2537 H   0  0  0  0  0  0  0  0  0  0  0  0
  146.3689  140.4195  152.0934 H   0  0  0  0  0  0  0  0  0  0  0  0
  146.3986  139.3689  154.5466 H   0  0  0  0  0  0  0  0  0  0  0  0
  145.4104  141.5541  153.7314 H   0  0  0  0  0  0  0  0  0  0  0  0
  146.9158  142.3498  154.1720 H   0  0  0  0  0  0  0  0  0  0  0  0
  145.9102  141.5810  155.4002 H   0  0  0  0  0  0  0  0  0  0  0  0
  149.2024  141.7205  153.9004 H   0  0  0  0  0  0  0  0  0  0  0  0
  148.4170  142.1382  155.4034 H   0  0  0  0  0  0  0  0  0  0  0  0
  150.9087  142.2539  155.4646 H   0  0  0  0  0  0  0  0  0  0  0  0
  149.7062  142.0875  157.5925 H   0  0  0  0  0  0  0  0  0  0  0  0
  151.2006  141.1623  157.6779 H   0  0  0  0  0  0  0  0  0  0  0  0
  149.6558  140.3354  157.4887 H   0  0  0  0  0  0  0  0  0  0  0  0
  150.3763  138.6548  156.1112 H   0  0  0  0  0  0  0  0  0  0  0  0
  151.1313  137.0121  154.3986 H   0  0  0  0  0  0  0  0  0  0  0  0
  152.4845  137.9675  154.9971 H   0  0  0  0  0  0  0  0  0  0  0  0
  151.7881  138.3222  153.4181 H   0  0  0  0  0  0  0  0  0  0  0  0
  148.7871  138.1046  154.3379 H   0  0  0  0  0  0  0  0  0  0  0  0
  149.4437  139.3304  153.2754 H   0  0  0  0  0  0  0  0  0  0  0  0
  1  2  1  0  0  0  0
  1 22  1  0  0  0  0
  1 23  1  0  0  0  0
  1 24  1  0  0  0  0
  2 21  1  0  0  0  0
  2  3  2  0  0  0  0
  3  4  1  0  0  0  0
  3 25  1  0  0  0  0
  4  5  1  0  0  0  0
  4 20  2  0  0  0  0
  5  6  1  0  0  0  0
  5 26  1  0  0  0  0
  6  7  2  0  0  0  0
  6  8  1  0  0  0  0
  8  9  1  0  0  0  0
  8 27  1  0  0  0  0
  9 10  1  0  0  0  0
  9 28  1  0  0  0  0
  9 29  1  0  0  0  0
 10 11  1  0  0  0  0
 10 12  1  0  0  0  0
 10 30  1  0  0  0  0
 11 31  1  0  0  0  0
 11 32  1  0  0  0  0
 11 33  1  0  0  0  0
 12 19  1  0  0  0  0
 12 13  1  0  0  0  0
 13 14  1  0  0  0  0
 13 34  1  0  0  0  0
 13 35  1  0  0  0  0
 14 15  1  0  0  0  0
 14 16  1  0  0  0  0
 14 36  1  0  0  0  0
 15 37  1  0  0  0  0
 15 38  1  0  0  0  0
 15 39  1  0  0  0  0
 16 17  1  0  0  0  0
 17 18  1  0  0  0  0
 17 19  1  0  0  0  0
 17 40  1  0  0  0  0
 18 41  1  0  0  0  0
 18 42  1  0  0  0  0
 18 43  1  0  0  0  0
 19 44  1  0  0  0  0
 19 45  1  0  0  0  0
 20 21  1  0  0  0  0
M  END
> <s_m_source_file>
AV-unprocessed.smi

> <i_m_source_file_index>
2061

> <i_lp_mmshare_version>
43012

> <i_f3d_flags>
0

> <s_epik_input>
W0NIM11jMVtjSF1jKG5vMSlbTkhdQyg9TylbTkhdW0NIMl1bQ0BIXShbQ0gzXSlOMltDSDJdW0NAQEhdKFtDSDNdKU9bQ0BASF0oW0NIM10pW0NIMl0y

> <s_epik_cmdline>
J2VwaWtfcHl0aG9uJywgJy1waCcsICc3LjAnLCAnLXRuJywgJzgnLCAnLW1hJywgJzIwMCcsICctbWV0YWxfYmluZGluZycsICctaW1hZScsICc8aW5maWxlLm1hZT4nLCAnLW9tYWUnLCAnPG91dGZpbGUubWFlPic=

> <r_epik_Ionization_Penalty>
0.214073

> <r_epik_Ionization_Penalty_Charging>
0

> <r_epik_Ionization_Penalty_Neutral>
0.214073

> <r_epik_State_Penalty>
0.204211

> <r_epik_Charging_Adjusted_Penalty>
0.204211

> <i_epik_Tot_Q>
0

> <i_epik_Tot_abs_Q>
0

> <r_epik_Metal_State_Penalty>
0.217067

> <b_epik_Metal_Only>
0

> <s_lp_Force_Field>
OPLS_2005

> <r_lp_Energy>
31.479

> <b_lp_Chiralities_Consistent>
1

> <s_lp_Variant>
AV-unprocessed.smi:2061-5

> <Gold.Version>
5.8.1

> <Gold.Id.Protein>
6NUR|6NUR_protein|mol2

> <Gold.PLP.Fitness>
39.3333

> <Gold.PLP.PLP>
-34.2272

> <Gold.PLP.part.hbond>
-3.6398

> <Gold.PLP.part.metal>
0.0000

> <Gold.PLP.part.buried>
-3.0152

> <Gold.PLP.part.nonpolar>
-30.6573

> <Gold.PLP.part.repulsive>
2.3478

> <Gold.PLP.ligand.clash>
0.0142

> <Gold.PLP.ligand.torsion>
1.6354

> <Gold.PLP.Chemscore.Hbond>
2.7840

> <Gold.PLP.Chemscore.CHOScore>
0.0000

> <Gold.PLP.Chemscore.Metal>
0.0000

> <Gold.Chemscore.Hbonds>
donor molecule, donor type, donor heavy atom, donor atom, acceptor molecule, acceptor atom, score
      L1  H     5    26       P1  7948  1.00
      L1  H     8    27       P1  7948  0.77
      P1  H  7989  7998       L1    16  1.00

> <Gold.PLP.Chemscore.Internal.Correction>
0.0390

> <Gold.Rescore>
     Score         DG    S(hbond)    S(metal)    S(lipo)     H(rot)  DE(clash)    DE(int)     intcor
     15.72     -18.83       2.53        0.00      75.68       1.55       0.42       2.68       ----

> <Gold.Chemscore.Fitness>
15.7241

> <Gold.Chemscore.DG>
-18.8277

> <Gold.Chemscore.ZeroCoef>
-5.4800

> <Gold.Chemscore.Hbond>
2.5313

> <Gold.Chemscore.Metal>
0.0000

> <Gold.Chemscore.Lipo>
75.6793

> <Gold.Chemscore.Internal_Hbond>
0.0000

> <Gold.Chemscore.DEClash>
0.4189

> <Gold.Chemscore.DEInternal>
2.6847

> <Gold.Chemscore.Rot>
1.5474

> <Gold.Chemscore.Internal.Correction>
   9.000000E+99

> <Gold.Chemscore.Hbonds>
donor molecule, donor type, donor heavy atom, donor atom, acceptor molecule, acceptor atom, score
      L1  H     5    26       P1  7948  0.98
      L1  H     8    27       P1  7948  0.74
      P1  H  7989  7998       L1    16  0.37

> <Gold.Chemscore.Hbond.Weighted>
-8.4545

> <Gold.Chemscore.Metal.Weighted>
-0.0000

> <Gold.Chemscore.Lipo.Weighted>
-8.8545

> <Gold.Chemscore.Internal_Hbond.Weighted>
0.0000

> <Gold.Chemscore.DEClash.Weighted>
0.4189

> <Gold.Chemscore.DEInternal.Weighted>
2.6847

> <Gold.Chemscore.Rot.Weighted>
3.9612

> <Gold.Chemscore.Internal.Correction.Weighted>
   9.000000E+99

> <Gold.Protein.RotatedTorsions>
[ 6907 6896 6895 6894 ] final  171.74 input  -60.11 | X-H torsion
[ 7974 7965 7964 7962 ] final -133.49 input  175.53 | X-H torsion
[ 8008 7997 7996 7995 ] final  158.16 input   59.86 | X-H torsion
[ 10167 10162 10161 10158 ] final  -44.20 input  -65.29 | X-H torsion
[ 10718 10713 10712 10709 ] final -122.96 input   66.30 | X-H torsion
[ 10763 10752 10751 10750 ] final -117.37 input  -60.55 | X-H torsion
[ 11005 11000 10999 10996 ] final   33.66 input  -57.11 | X-H torsion

> <Gold.Protein.ActiveResidues>
 VAL166  LYS551  ARG553  GLY616  TRP617  ASP618  TYR619  PRO620  LYS621  CYS622 
 ASP623  PHE694  ASN695  SER759  ASP760  ASP761  ALA762  ILE779  LEU786  VAL792 
 PHE793  MET794  SER795  GLU796  ALA797  LYS798  CYS799  TRP800  GLU811  SER814 

> <Gold.Protein.RotatedAtoms>
  151.7953  133.3364  159.3510 H   0  0  0  0  0  0  0  0  0  0  0  0  # atno 6907 bound_to 6896
  150.7377  134.5804  159.5945 H   0  0  0  0  0  0  0  0  0  0  0  0  # atno 6908 bound_to 6896
  152.3181  134.7416  160.0371 H   0  0  0  0  0  0  0  0  0  0  0  0  # atno 6909 bound_to 6896
  144.9188  140.6989  143.4978 H   0  0  0  0  0  0  0  0  0  0  0  0  # atno 7974 bound_to 7965
  156.2319  140.1865  156.7219 H   0  0  0  0  0  0  0  0  0  0  0  0  # atno 8008 bound_to 7997
  154.6038  140.0632  156.9432 H   0  0  0  0  0  0  0  0  0  0  0  0  # atno 8009 bound_to 7997
  155.2129  140.3301  155.4329 H   0  0  0  0  0  0  0  0  0  0  0  0  # atno 8010 bound_to 7997
  140.6906  143.2943  151.3461 H   0  0  0  0  0  0  0  0  0  0  0  0  # atno 10167 bound_to 10162
  156.1462  130.6501  150.9845 H   0  0  0  0  0  0  0  0  0  0  0  0  # atno 10718 bound_to 10713
  154.8552  135.4312  154.1969 H   0  0  0  0  0  0  0  0  0  0  0  0  # atno 10763 bound_to 10752
  153.3024  135.6970  153.7196 H   0  0  0  0  0  0  0  0  0  0  0  0  # atno 10764 bound_to 10752
  153.6321  135.3483  155.3019 H   0  0  0  0  0  0  0  0  0  0  0  0  # atno 10765 bound_to 10752
  140.2608  134.3194  155.7858 H   0  0  0  0  0  0  0  0  0  0  0  0  # atno 11005 bound_to 11000
  145.3330  139.1754  143.4527 LP  0  0  0  0  0  0  0  0  0  0  0  0  # atno 17320 bound_to 7965
  146.3195  140.3362  142.8644 LP  0  0  0  0  0  0  0  0  0  0  0  0  # atno 17321 bound_to 7965
  139.6305  144.0731  152.2472 LP  0  0  0  0  0  0  0  0  0  0  0  0  # atno 17342 bound_to 10162
  140.0204  144.6157  150.7571 LP  0  0  0  0  0  0  0  0  0  0  0  0  # atno 17343 bound_to 10162
  157.6618  131.0879  150.7820 LP  0  0  0  0  0  0  0  0  0  0  0  0  # atno 17370 bound_to 10713
  156.7891  130.4884  149.5388 LP  0  0  0  0  0  0  0  0  0  0  0  0  # atno 17371 bound_to 10713
  141.2190  133.7408  156.9184 LP  0  0  0  0  0  0  0  0  0  0  0  0  # atno 17394 bound_to 11000
  140.1466  134.9258  157.2538 LP  0  0  0  0  0  0  0  0  0  0  0  0  # atno 17395 bound_to 11000

$$$$
