#       Name:                AV-unprocessed.smi:3204
#       Creating user name   scv26
#       Creation time:       Fri Mar 27 18:08:41 2020


#       File generated by GOLD software.
#

@<TRIPOS>MOLECULE
AV-unprocessed.smi:3204
    36    37     1
SMALL
NO_CHARGES


@<TRIPOS>ATOM
      1 ****        -3.6367  -2.9218  -0.8804 C.3            1 S1                 0.0000
      2 ****        -3.0569  -2.6632   0.5150 C.3            1 S1                 0.0000
      3 ****        -2.2484  -1.3803   0.5756 C.ar           1 S1                 0.0000
      4 ****        -2.9458  -0.2280   0.6928 N.ar           1 S1                 0.0000
      5 ****        -2.2365   0.9022   0.7419 C.ar           1 S1                 0.0000
      6 ****        -0.9068   1.0135   0.6856 N.ar           1 S1                 0.0000
      7 ****        -0.1936  -0.1315   0.5638 C.ar           1 S1                 0.0000
      8 ****         1.2057  -0.0721   0.4975 N.pl3          1 S1                 0.0000
      9 ****         1.9171   1.2029   0.5023 C.3            1 S1                 0.0000
     10 ****         3.4230   1.0637   0.6815 C.3            1 S1                 0.0000
     11 ****         3.9062   2.3464   0.3088 O.3            1 S1                 0.0000
     12 ****         3.0816   2.8850  -0.7247 C.3            1 S1                 0.0000
     13 ****         1.8292   1.9989  -0.7961 C.3            1 S1                 0.0000
     14 ****         1.9182   1.1692  -1.9416 O.3            1 S1                 0.0000
     15 ****        -0.8381  -1.3857   0.5023 C.ar           1 S1                 0.0000
     16 ****        -0.1353  -2.5380   0.3764 F              1 S1                 0.0000
     17 ****        -4.2120  -3.8476  -0.8959 H              1 S1                 0.0000
     18 ****        -2.8445  -3.0090  -1.6246 H              1 S1                 0.0000
     19 ****        -4.2998  -2.1130  -1.1885 H              1 S1                 0.0000
     20 ****        -3.8648  -2.6079   1.2457 H              1 S1                 0.0000
     21 ****        -2.4320  -3.5046   0.8162 H              1 S1                 0.0000
     22 ****        -2.7950   1.8215   0.8356 H              1 S1                 0.0000
     23 ****         1.7357  -0.9253   0.3933 H              1 S1                 0.0000
     24 ****         1.5409   1.8173   1.3218 H              1 S1                 0.0000
     25 ****         3.7070   0.8079   1.7025 H              1 S1                 0.0000
     26 ****         3.8372   0.3118   0.0076 H              1 S1                 0.0000
     27 ****         2.8186   3.9082  -0.4554 H              1 S1                 0.0000
     28 ****         3.6248   2.9230  -1.6702 H              1 S1                 0.0000
     29 ****         0.9140   2.5884  -0.8572 H              1 S1                 0.0000
     30 ****         1.1880   0.5695  -1.9314 H              1 S1                 0.0000
     31 ****        -3.9447  -0.2225   0.7404 LP             1 S1                 0.0000
     32 ****        -0.4565   1.9051   0.7315 LP             1 S1                 0.0000
     33 ****         4.8459   2.2648  -0.0233 LP             1 S1                 0.0000
     34 ****         3.8848   2.9540   1.1027 LP             1 S1                 0.0000
     35 ****         2.7767   0.6568  -1.9221 LP             1 S1                 0.0000
     36 ****         1.8835   1.7300  -2.7688 LP             1 S1                 0.0000
@<TRIPOS>BOND
    1    1    2 1     
    2    1   17 1     
    3    1   18 1     
    4    1   19 1     
    5    2    3 1     
    6    2   20 1     
    7    2   21 1     
    8    3   15 ar    
    9    3    4 ar    
   10    4    5 ar    
   11    5    6 ar    
   12    5   22 1     
   13    6    7 ar    
   14    7    8 1     
   15    7   15 ar    
   16    8    9 1     
   17    8   23 1     
   18    9   13 1     
   19    9   10 1     
   20    9   24 1     
   21   10   11 1     
   22   10   25 1     
   23   10   26 1     
   24   11   12 1     
   25   12   13 1     
   26   12   27 1     
   27   12   28 1     
   28   13   14 1     
   29   13   29 1     
   30   14   30 1     
   31   15   16 1     
   32    4   31 1     
   33    6   32 1     
   34   11   33 1     
   35   11   34 1     
   36   14   35 1     
   37   14   36 1     
@<TRIPOS>SUBSTRUCTURE
      1 S1             1
@<TRIPOS>SET
LONE_PAIRS      STATIC     ATOMS    <user>   **** ""
6 31 32 33 34 35 36
DONOR_HYDROGENS      STATIC     ATOMS    <user>   **** ""
2 23 30
ATOM$BLUE        STATIC     ATOMS    COLORGROUP SYSTEM
6 31 32 33 34 35 36
ATOM$RED        STATIC     ATOMS    COLORGROUP SYSTEM
2 23 30
