AV-unprocessed.smi:157|AV-procd|sdf|1308|dock3
  -GOLD-   2262018593D 1   1.00000     0.00000
 Structure written by MMmdl.
 36 38  0  0  0  0  0  0  0  0  2 V2000
  150.4281  128.4170  153.5651 O   0  0  0  0  0  0  0  0  0  0  0  0
  149.2119  127.7258  153.3747 C   0  0  0  0  0  0  0  0  0  0  0  0
  148.2163  128.6037  152.5970 C   0  0  2  0  0  0  0  0  0  0  0  0
  148.0192  129.8576  153.2491 O   0  0  0  0  0  0  0  0  0  0  0  0
  146.6855  130.2540  153.1388 C   0  0  1  0  0  0  0  0  0  0  0  0
  146.6442  131.6585  152.6274 N   0  0  0  0  0  0  0  0  0  0  0  0
  147.5724  132.6042  152.8784 C   0  0  0  0  0  0  0  0  0  0  0  0
  147.3324  133.7718  152.3064 N   0  3  0  0  0  0  0  0  0  0  0  0
  146.1568  133.6269  151.6012 C   0  0  0  0  0  0  0  0  0  0  0  0
  145.7386  132.3113  151.8182 C   0  0  0  0  0  0  0  0  0  0  0  0
  144.6028  131.6432  151.3348 N   0  0  0  0  0  0  0  0  0  0  0  0
  143.5854  132.2563  150.8237 C   0  0  0  0  0  0  0  0  0  0  0  0
  143.4211  133.6057  150.5595 N   0  0  0  0  0  0  0  0  0  0  0  0
  144.4337  134.4112  149.9007 C   0  0  0  0  0  0  0  0  0  0  0  0
  145.6164  134.7754  150.8076 C   0  0  1  0  0  0  0  0  0  0  0  0
  145.2419  135.8678  151.6211 O   0  0  0  0  0  0  0  0  0  0  0  0
  145.9928  129.2909  152.1731 C   0  0  0  0  0  0  0  0  0  0  0  0
  146.8072  128.0302  152.3736 C   0  0  2  0  0  0  0  0  0  0  0  0
  146.3330  127.3039  153.4922 O   0  0  0  0  0  0  0  0  0  0  0  0
  148.6446  128.8369  151.6209 H   0  0  0  0  0  0  0  0  0  0  0  0
  146.2227  130.2799  154.1265 H   0  0  0  0  0  0  0  0  0  0  0  0
  146.4203  135.1408  150.1677 H   0  0  0  0  0  0  0  0  0  0  0  0
  146.7702  127.3794  151.4996 H   0  0  0  0  0  0  0  0  0  0  0  0
  151.0238  128.1731  152.8729 H   0  0  0  0  0  0  0  0  0  0  0  0
  149.3988  126.7801  152.8655 H   0  0  0  0  0  0  0  0  0  0  0  0
  148.8016  127.4815  154.3548 H   0  0  0  0  0  0  0  0  0  0  0  0
  148.4359  132.4184  153.4918 H   0  0  0  0  0  0  0  0  0  0  0  0
  142.7090  131.6739  150.5356 H   0  0  0  0  0  0  0  0  0  0  0  0
  142.4915  133.9501  150.3647 H   0  0  0  0  0  0  0  0  0  0  0  0
  144.8045  133.8371  149.0501 H   0  0  0  0  0  0  0  0  0  0  0  0
  143.9754  135.3082  149.4829 H   0  0  0  0  0  0  0  0  0  0  0  0
  145.0649  136.6124  151.0672 H   0  0  0  0  0  0  0  0  0  0  0  0
  144.9318  129.1873  152.4026 H   0  0  0  0  0  0  0  0  0  0  0  0
  146.0995  129.6459  151.1474 H   0  0  0  0  0  0  0  0  0  0  0  0
  145.5522  127.7282  153.8146 H   0  0  0  0  0  0  0  0  0  0  0  0
  147.9084  134.6017  152.3682 H   0  0  0  0  0  0  0  0  0  0  0  0
  1  2  1  0  0  0  0
  1 24  1  0  0  0  0
  2  3  1  0  0  0  0
  2 25  1  0  0  0  0
  2 26  1  0  0  0  0
  3 20  1  0  0  0  0
  3 18  1  0  0  0  0
  3  4  1  0  0  0  0
  4  5  1  0  0  0  0
  5 21  1  0  0  0  0
  5  6  1  0  0  0  0
  5 17  1  0  0  0  0
  6 10  1  0  0  0  0
  6  7  1  0  0  0  0
  7  8  2  0  0  0  0
  7 27  1  0  0  0  0
  8  9  1  0  0  0  0
  8 36  1  0  0  0  0
  9 15  1  0  0  0  0
  9 10  2  0  0  0  0
 10 11  1  0  0  0  0
 11 12  2  0  0  0  0
 12 13  1  0  0  0  0
 12 28  1  0  0  0  0
 13 14  1  0  0  0  0
 13 29  1  0  0  0  0
 14 15  1  0  0  0  0
 14 30  1  0  0  0  0
 14 31  1  0  0  0  0
 15 22  1  0  0  0  0
 15 16  1  0  0  0  0
 16 32  1  0  0  0  0
 17 18  1  0  0  0  0
 17 33  1  0  0  0  0
 17 34  1  0  0  0  0
 18 23  1  0  0  0  0
 18 19  1  0  0  0  0
 19 35  1  0  0  0  0
M  CHG  1   8   1
M  END
> <s_m_source_file>
AV-unprocessed.smi

> <i_m_source_file_index>
157

> <i_lp_mmshare_version>
43012

> <i_f3d_flags>
0

> <s_epik_input>
W09IXVtDSDJdW0NASF0xT1tDQEhdKFtDSDJdW0NAQEhdMVtPSF0pbihbY0hdbjIpYyhjMjMpTj1bQ0hdW05IXVtDSDJdW0NASF0zW09IXQ==

> <s_epik_cmdline>
J2VwaWtfcHl0aG9uJywgJy1waCcsICc3LjAnLCAnLXRuJywgJzgnLCAnLW1hJywgJzIwMCcsICctbWV0YWxfYmluZGluZycsICctaW1hZScsICc8aW5maWxlLm1hZT4nLCAnLW9tYWUnLCAnPG91dGZpbGUubWFlPic=

> <r_epik_Ionization_Penalty>
1.68594

> <r_epik_Ionization_Penalty_Charging>
0

> <r_epik_Ionization_Penalty_Neutral>
1.68594

> <r_epik_State_Penalty>
1.79006

> <r_epik_Charging_Adjusted_Penalty>
1.79006

> <i_epik_Tot_Q>
1

> <i_epik_Tot_abs_Q>
1

> <r_epik_Metal_State_Penalty>
5.85324

> <b_epik_Metal_Only>
0

> <s_epik_Chemistry_Notes>
This compound has an imine and may undergo hydrolysis. This compound contains an acetal/aminal-like group ( X-CH(R)-Y where X, Y are N, S, or O) that may be acid/base labile, releasing an aldehyde.

> <s_lp_Force_Field>
OPLS_2005

> <r_lp_Energy>
54.692

> <b_lp_Chiralities_Consistent>
1

> <s_lp_Variant>
AV-unprocessed.smi:157-18

> <Gold.Version>
5.8.1

> <Gold.Id.Protein>
6NUR|6NUR_protein|mol2

> <Gold.PLP.Fitness>
44.7453

> <Gold.PLP.PLP>
-31.2447

> <Gold.PLP.part.hbond>
-3.8636

> <Gold.PLP.part.metal>
0.0000

> <Gold.PLP.part.buried>
-2.4365

> <Gold.PLP.part.nonpolar>
-24.7715

> <Gold.PLP.part.repulsive>
0.2825

> <Gold.PLP.ligand.clash>
0.0000

> <Gold.PLP.ligand.torsion>
0.7517

> <Gold.PLP.Chemscore.Hbond>
4.0000

> <Gold.PLP.Chemscore.CHOScore>
1.0000

> <Gold.PLP.Chemscore.Metal>
0.0000

> <Gold.Chemscore.Hbonds>
donor molecule, donor type, donor heavy atom, donor atom, acceptor molecule, acceptor atom, score
      L1  H     1    24       P1 10737  1.00
      L1  H     8    36       P1  7948  2.00
      L1  H    13    29       P1 10186  1.00
      L1  C    12    28       P1 10952  1.00

> <Gold.PLP.Chemscore.Internal.Correction>
0.0040

> <Gold.Rescore>
     Score         DG    S(hbond)    S(metal)    S(lipo)     H(rot)  DE(clash)    DE(int)     intcor
      9.23     -11.53       3.01        0.00      45.90       3.67       0.24       2.06       ----

> <Gold.Chemscore.Fitness>
9.2339

> <Gold.Chemscore.DG>
-11.5311

> <Gold.Chemscore.ZeroCoef>
-5.4800

> <Gold.Chemscore.Hbond>
3.0135

> <Gold.Chemscore.Metal>
0.0000

> <Gold.Chemscore.Lipo>
45.9036

> <Gold.Chemscore.Internal_Hbond>
0.0000

> <Gold.Chemscore.DEClash>
0.2407

> <Gold.Chemscore.DEInternal>
2.0565

> <Gold.Chemscore.Rot>
3.6659

> <Gold.Chemscore.Internal.Correction>
   9.000000E+99

> <Gold.Chemscore.Hbonds>
donor molecule, donor type, donor heavy atom, donor atom, acceptor molecule, acceptor atom, score
      L1  H     1    24       P1 10737  0.99
      L1  H     8    36       P1  7948  0.54
      L1  H    13    29       P1 10186  0.94

> <Gold.Chemscore.Hbond.Weighted>
-10.0652

> <Gold.Chemscore.Metal.Weighted>
-0.0000

> <Gold.Chemscore.Lipo.Weighted>
-5.3707

> <Gold.Chemscore.Internal_Hbond.Weighted>
0.0000

> <Gold.Chemscore.DEClash.Weighted>
0.2407

> <Gold.Chemscore.DEInternal.Weighted>
2.0565

> <Gold.Chemscore.Rot.Weighted>
9.3848

> <Gold.Chemscore.Internal.Correction.Weighted>
   9.000000E+99

> <Gold.Protein.RotatedTorsions>
[ 6907 6896 6895 6894 ] final   80.23 input  -60.11 | X-H torsion
[ 7974 7965 7964 7962 ] final  124.43 input  175.53 | X-H torsion
[ 8008 7997 7996 7995 ] final   60.01 input   59.86 | X-H torsion
[ 10167 10162 10161 10158 ] final    1.90 input  -65.29 | X-H torsion
[ 10718 10713 10712 10709 ] final  -90.95 input   66.30 | X-H torsion
[ 10763 10752 10751 10750 ] final -130.72 input  -60.55 | X-H torsion
[ 11005 11000 10999 10996 ] final   89.39 input  -57.11 | X-H torsion

> <Gold.Protein.ActiveResidues>
 VAL166  LYS551  ARG553  GLY616  TRP617  ASP618  TYR619  PRO620  LYS621  CYS622 
 ASP623  PHE694  ASN695  SER759  ASP760  ASP761  ALA762  ILE779  LEU786  VAL792 
 PHE793  MET794  SER795  GLU796  ALA797  LYS798  CYS799  TRP800  GLU811  SER814 

> <Gold.Protein.RotatedAtoms>
  152.5227  134.3390  159.9209 H   0  0  0  0  0  0  0  0  0  0  0  0  # atno 6907 bound_to 6896
  151.3339  133.3983  159.2673 H   0  0  0  0  0  0  0  0  0  0  0  0  # atno 6908 bound_to 6896
  150.9858  134.9221  159.7928 H   0  0  0  0  0  0  0  0  0  0  0  0  # atno 6909 bound_to 6896
  145.0844  139.3633  143.4892 H   0  0  0  0  0  0  0  0  0  0  0  0  # atno 7974 bound_to 7965
  155.5754  140.3490  155.4526 H   0  0  0  0  0  0  0  0  0  0  0  0  # atno 8008 bound_to 7997
  156.0413  140.1296  157.0178 H   0  0  0  0  0  0  0  0  0  0  0  0  # atno 8009 bound_to 7997
  154.4393  140.1023  156.6227 H   0  0  0  0  0  0  0  0  0  0  0  0  # atno 8010 bound_to 7997
  140.6661  143.7176  150.7830 H   0  0  0  0  0  0  0  0  0  0  0  0  # atno 10167 bound_to 10162
  155.9990  130.4929  150.5400 H   0  0  0  0  0  0  0  0  0  0  0  0  # atno 10718 bound_to 10713
  154.8754  135.3853  154.4128 H   0  0  0  0  0  0  0  0  0  0  0  0  # atno 10763 bound_to 10752
  153.4840  135.7030  153.5927 H   0  0  0  0  0  0  0  0  0  0  0  0  # atno 10764 bound_to 10752
  153.4329  135.3874  155.2149 H   0  0  0  0  0  0  0  0  0  0  0  0  # atno 10765 bound_to 10752
  139.8876  134.8548  156.3135 H   0  0  0  0  0  0  0  0  0  0  0  0  # atno 11005 bound_to 11000
  146.3531  140.0650  142.8627 LP  0  0  0  0  0  0  0  0  0  0  0  0  # atno 17320 bound_to 7965
  145.1139  140.9422  143.4640 LP  0  0  0  0  0  0  0  0  0  0  0  0  # atno 17321 bound_to 7965
  140.0853  143.4929  152.2508 LP  0  0  0  0  0  0  0  0  0  0  0  0  # atno 17342 bound_to 10162
  139.5910  144.7550  151.3400 LP  0  0  0  0  0  0  0  0  0  0  0  0  # atno 17343 bound_to 10162
  157.3338  131.0704  151.1841 LP  0  0  0  0  0  0  0  0  0  0  0  0  # atno 17370 bound_to 10713
  157.2713  130.6705  149.6021 LP  0  0  0  0  0  0  0  0  0  0  0  0  # atno 17371 bound_to 10713
  140.9834  133.7253  156.0706 LP  0  0  0  0  0  0  0  0  0  0  0  0  # atno 17394 bound_to 11000
  140.7719  134.3822  157.5506 LP  0  0  0  0  0  0  0  0  0  0  0  0  # atno 17395 bound_to 11000

$$$$
