AV-unprocessed.smi:3252|AV-procd|sdf|12439|dock2
  -GOLD-   2272018333D 1   1.00000     0.00000
 Structure written by MMmdl.
 37 38  0  0  0  0  0  0  0  0  2 V2000
  146.8071  128.7647  151.6575 C   0  0  0  0  0  0  0  0  0  0  0  0
  145.8412  129.9580  151.6756 C   0  0  0  0  0  0  0  0  0  0  0  0
  146.5462  131.2642  151.6835 N   0  3  1  0  0  0  0  0  0  0  0  0
  145.6349  132.3964  151.3937 C   0  0  0  0  0  0  0  0  0  0  0  0
  146.4129  133.7220  151.3685 C   0  0  0  0  0  0  0  0  0  0  0  0
  147.0907  133.8974  152.6059 O   0  0  0  0  0  0  0  0  0  0  0  0
  148.0474  132.8705  152.8469 C   0  0  1  0  0  0  0  0  0  0  0  0
  148.7826  133.1939  154.1591 C   0  0  0  0  0  0  0  0  0  0  0  0
  148.8505  134.6258  154.4257 N   0  0  0  0  0  0  0  0  0  0  0  0
  148.6790  135.1472  155.7165 C   0  0  0  0  0  0  0  0  0  0  0  0
  148.6963  136.5479  155.8844 C   0  0  0  0  0  0  0  0  0  0  0  0
  148.5259  137.0808  157.1773 C   0  0  0  0  0  0  0  0  0  0  0  0
  148.3455  136.1945  158.2573 C   0  0  0  0  0  0  0  0  0  0  0  0
  148.1684  136.6941  159.6100 C   0  0  0  0  0  0  0  0  0  0  0  0
  148.0274  137.0919  160.6872 N   0  0  0  0  0  0  0  0  0  0  0  0
  148.3418  134.8101  157.9920 C   0  0  0  0  0  0  0  0  0  0  0  0
  148.5042  134.2939  156.7543 N   0  0  0  0  0  0  0  0  0  0  0  0
  147.3067  131.5220  152.9316 C   0  0  0  0  0  0  0  0  0  0  0  0
  146.2565  127.8297  151.5543 H   0  0  0  0  0  0  0  0  0  0  0  0
  147.3892  128.6943  152.5759 H   0  0  0  0  0  0  0  0  0  0  0  0
  147.5025  128.8320  150.8205 H   0  0  0  0  0  0  0  0  0  0  0  0
  145.2186  129.8970  150.7819 H   0  0  0  0  0  0  0  0  0  0  0  0
  145.1647  129.8915  152.5288 H   0  0  0  0  0  0  0  0  0  0  0  0
  145.1431  132.2419  150.4325 H   0  0  0  0  0  0  0  0  0  0  0  0
  144.8516  132.4384  152.1524 H   0  0  0  0  0  0  0  0  0  0  0  0
  147.1246  133.7433  150.5414 H   0  0  0  0  0  0  0  0  0  0  0  0
  145.7277  134.5568  151.2201 H   0  0  0  0  0  0  0  0  0  0  0  0
  148.7618  132.8343  152.0225 H   0  0  0  0  0  0  0  0  0  0  0  0
  148.2771  132.7109  154.9958 H   0  0  0  0  0  0  0  0  0  0  0  0
  149.7932  132.7842  154.1382 H   0  0  0  0  0  0  0  0  0  0  0  0
  149.0456  135.2519  153.6576 H   0  0  0  0  0  0  0  0  0  0  0  0
  148.8371  137.2070  155.0401 H   0  0  0  0  0  0  0  0  0  0  0  0
  148.5356  138.1505  157.3305 H   0  0  0  0  0  0  0  0  0  0  0  0
  148.2081  134.0932  158.7892 H   0  0  0  0  0  0  0  0  0  0  0  0
  146.6235  131.5201  153.7826 H   0  0  0  0  0  0  0  0  0  0  0  0
  148.0317  130.7267  153.1022 H   0  0  0  0  0  0  0  0  0  0  0  0
  147.2165  131.2376  150.9281 H   0  0  0  0  0  0  0  0  0  0  0  0
  1  2  1  0  0  0  0
  1 19  1  0  0  0  0
  1 20  1  0  0  0  0
  1 21  1  0  0  0  0
  2  3  1  0  0  0  0
  2 22  1  0  0  0  0
  2 23  1  0  0  0  0
  3 18  1  0  0  0  0
  3  4  1  0  0  0  0
  3 37  1  0  0  0  0
  4  5  1  0  0  0  0
  4 24  1  0  0  0  0
  4 25  1  0  0  0  0
  5  6  1  0  0  0  0
  5 26  1  0  0  0  0
  5 27  1  0  0  0  0
  6  7  1  0  0  0  0
  7  8  1  0  0  0  0
  7 18  1  0  0  0  0
  7 28  1  0  0  0  0
  8  9  1  0  0  0  0
  8 29  1  0  0  0  0
  8 30  1  0  0  0  0
  9 10  1  0  0  0  0
  9 31  1  0  0  0  0
 10 17  1  0  0  0  0
 10 11  2  0  0  0  0
 11 12  1  0  0  0  0
 11 32  1  0  0  0  0
 12 13  2  0  0  0  0
 12 33  1  0  0  0  0
 13 14  1  0  0  0  0
 13 16  1  0  0  0  0
 14 15  3  0  0  0  0
 16 17  2  0  0  0  0
 16 34  1  0  0  0  0
 18 35  1  0  0  0  0
 18 36  1  0  0  0  0
M  CHG  1   3   1
M  END
> <s_m_source_file>
AV-unprocessed.smi

> <i_m_source_file_index>
3252

> <i_lp_mmshare_version>
43012

> <i_f3d_flags>
0

> <s_epik_input>
W0NIM11bQ0gyXU4xW0NIMl1bQ0gyXU9bQ0BIXShbQ0gyXTEpW0NIMl1bTkhdYzJbY0hdW2NIXWMoQyNOKVtjSF1uMg==

> <s_epik_cmdline>
J2VwaWtfcHl0aG9uJywgJy1waCcsICc3LjAnLCAnLXRuJywgJzgnLCAnLW1hJywgJzIwMCcsICctbWV0YWxfYmluZGluZycsICctaW1hZScsICc8aW5maWxlLm1hZT4nLCAnLW9tYWUnLCAnPG91dGZpbGUubWFlPic=

> <r_epik_Ionization_Penalty>
0.178512

> <r_epik_Ionization_Penalty_Charging>
0.178504

> <r_epik_Ionization_Penalty_Neutral>
8.15545e-06

> <r_epik_State_Penalty>
0.167974

> <r_epik_Charging_Adjusted_Penalty>
0.346478

> <i_epik_Tot_Q>
1

> <i_epik_Tot_abs_Q>
1

> <r_epik_Metal_State_Penalty>
0.167974

> <b_epik_Metal_Only>
0

> <s_lp_Force_Field>
OPLS_2005

> <r_lp_Energy>
17.3379

> <b_lp_Chiralities_Consistent>
1

> <s_lp_Variant>
AV-unprocessed.smi:3252-1

> <Gold.Version>
5.8.1

> <Gold.Id.Protein>
6NUR|6NUR_protein|mol2

> <Gold.PLP.Fitness>
36.8177

> <Gold.PLP.PLP>
-27.2356

> <Gold.PLP.part.hbond>
-4.0000

> <Gold.PLP.part.metal>
0.0000

> <Gold.PLP.part.buried>
-3.9754

> <Gold.PLP.part.nonpolar>
-19.8680

> <Gold.PLP.part.repulsive>
0.8841

> <Gold.PLP.ligand.clash>
0.0000

> <Gold.PLP.ligand.torsion>
0.5974

> <Gold.PLP.Chemscore.Hbond>
3.5840

> <Gold.PLP.Chemscore.CHOScore>
0.0000

> <Gold.PLP.Chemscore.Metal>
0.0000

> <Gold.Chemscore.Hbonds>
donor molecule, donor type, donor heavy atom, donor atom, acceptor molecule, acceptor atom, score
      L1  H     3    37       P1 10747  1.00
      L1  H     9    31       P1  7948  1.00
      P1  H  6931  6943       L1    15  0.86
      P1  H  6934  6947       L1    15  0.61

> <Gold.PLP.Chemscore.Internal.Correction>
0.0248

> <Gold.Rescore>
     Score         DG    S(hbond)    S(metal)    S(lipo)     H(rot)  DE(clash)    DE(int)     intcor
     19.21     -19.83       3.47        0.00      55.72       1.47       0.01       0.61       ----

> <Gold.Chemscore.Fitness>
19.2051

> <Gold.Chemscore.DG>
-19.8324

> <Gold.Chemscore.ZeroCoef>
-5.4800

> <Gold.Chemscore.Hbond>
3.4707

> <Gold.Chemscore.Metal>
0.0000

> <Gold.Chemscore.Lipo>
55.7161

> <Gold.Chemscore.Internal_Hbond>
0.0000

> <Gold.Chemscore.DEClash>
0.0135

> <Gold.Chemscore.DEInternal>
0.6137

> <Gold.Chemscore.Rot>
1.4681

> <Gold.Chemscore.Internal.Correction>
   9.000000E+99

> <Gold.Chemscore.Hbonds>
donor molecule, donor type, donor heavy atom, donor atom, acceptor molecule, acceptor atom, score
      L1  H     3    37       P1 10747  0.95
      L1  H     9    31       P1  7948  0.52
      P1  H  6931  6943       L1    15  0.84
      P1  H  6934  6947       L1    15  0.57

> <Gold.Chemscore.Hbond.Weighted>
-11.5920

> <Gold.Chemscore.Metal.Weighted>
-0.0000

> <Gold.Chemscore.Lipo.Weighted>
-6.5188

> <Gold.Chemscore.Internal_Hbond.Weighted>
0.0000

> <Gold.Chemscore.DEClash.Weighted>
0.0135

> <Gold.Chemscore.DEInternal.Weighted>
0.6137

> <Gold.Chemscore.Rot.Weighted>
3.7584

> <Gold.Chemscore.Internal.Correction.Weighted>
   9.000000E+99

> <Gold.Protein.RotatedTorsions>
[ 6907 6896 6895 6894 ] final  -99.77 input  -60.11 | X-H torsion
[ 7974 7965 7964 7962 ] final  106.66 input  175.53 | X-H torsion
[ 8008 7997 7996 7995 ] final -106.59 input   59.86 | X-H torsion
[ 10167 10162 10161 10158 ] final  107.68 input  -65.29 | X-H torsion
[ 10718 10713 10712 10709 ] final -132.31 input   66.30 | X-H torsion
[ 10763 10752 10751 10750 ] final -117.96 input  -60.55 | X-H torsion
[ 11005 11000 10999 10996 ] final   39.51 input  -57.11 | X-H torsion

> <Gold.Protein.ActiveResidues>
 VAL166  LYS551  ARG553  GLY616  TRP617  ASP618  TYR619  PRO620  LYS621  CYS622 
 ASP623  PHE694  ASN695  SER759  ASP760  ASP761  ALA762  ILE779  LEU786  VAL792 
 PHE793  MET794  SER795  GLU796  ALA797  LYS798  CYS799  TRP800  GLU811  SER814 

> <Gold.Protein.RotatedAtoms>
  150.7092  134.0989  159.3958 H   0  0  0  0  0  0  0  0  0  0  0  0  # atno 6907 bound_to 6896
  151.8975  135.0389  160.0512 H   0  0  0  0  0  0  0  0  0  0  0  0  # atno 6908 bound_to 6896
  152.2441  133.5124  159.5324 H   0  0  0  0  0  0  0  0  0  0  0  0  # atno 6909 bound_to 6896
  145.3037  139.2561  143.3800 H   0  0  0  0  0  0  0  0  0  0  0  0  # atno 7974 bound_to 7965
  154.9167  140.0408  157.1976 H   0  0  0  0  0  0  0  0  0  0  0  0  # atno 8008 bound_to 7997
  154.8294  140.2896  155.5711 H   0  0  0  0  0  0  0  0  0  0  0  0  # atno 8009 bound_to 7997
  156.2986  140.2503  156.3216 H   0  0  0  0  0  0  0  0  0  0  0  0  # atno 8010 bound_to 7997
  139.6907  144.7108  151.1353 H   0  0  0  0  0  0  0  0  0  0  0  0  # atno 10167 bound_to 10162
  156.2333  130.7051  151.0881 H   0  0  0  0  0  0  0  0  0  0  0  0  # atno 10718 bound_to 10713
  154.8572  135.4291  154.2063 H   0  0  0  0  0  0  0  0  0  0  0  0  # atno 10763 bound_to 10752
  153.3099  135.6975  153.7131 H   0  0  0  0  0  0  0  0  0  0  0  0  # atno 10764 bound_to 10752
  153.6228  135.3499  155.2990 H   0  0  0  0  0  0  0  0  0  0  0  0  # atno 10765 bound_to 10752
  140.2021  134.3858  155.8091 H   0  0  0  0  0  0  0  0  0  0  0  0  # atno 11005 bound_to 11000
  146.3143  140.3557  142.8660 LP  0  0  0  0  0  0  0  0  0  0  0  0  # atno 17320 bound_to 7965
  144.9072  140.7714  143.5830 LP  0  0  0  0  0  0  0  0  0  0  0  0  # atno 17321 bound_to 7965
  140.7681  143.5563  150.9148 LP  0  0  0  0  0  0  0  0  0  0  0  0  # atno 17342 bound_to 10162
  139.9241  143.6571  152.3090 LP  0  0  0  0  0  0  0  0  0  0  0  0  # atno 17343 bound_to 10162
  157.7143  131.0718  150.6386 LP  0  0  0  0  0  0  0  0  0  0  0  0  # atno 17370 bound_to 10713
  156.6455  130.4470  149.5737 LP  0  0  0  0  0  0  0  0  0  0  0  0  # atno 17371 bound_to 10713
  141.2227  133.7099  156.8275 LP  0  0  0  0  0  0  0  0  0  0  0  0  # atno 17394 bound_to 11000
  140.2043  134.8874  157.3204 LP  0  0  0  0  0  0  0  0  0  0  0  0  # atno 17395 bound_to 11000

$$$$
