AV-unprocessed.smi:2209|AV-procd|sdf|8947|dock3
  -GOLD-   2272012163D 1   1.00000     0.00000
 Structure written by MMmdl.
 26 27  0  0  0  0  0  0  0  0  2 V2000
  150.5974  137.5446  159.3791 C   0  0  0  0  0  0  0  0  0  0  0  0
  151.4334  138.7022  158.9505 C   0  0  0  0  0  0  0  0  0  0  0  0
  152.6452  138.5280  158.4376 N   0  0  0  0  0  0  0  0  0  0  0  0
  153.0774  139.8362  158.1757 O   0  0  0  0  0  0  0  0  0  0  0  0
  152.0642  140.6461  158.5666 C   0  0  0  0  0  0  0  0  0  0  0  0
  152.2192  142.1266  158.4108 C   0  0  2  0  0  0  0  0  0  0  0  0
  152.2717  142.8497  159.7700 C   0  0  0  0  0  0  0  0  0  0  0  0
  152.4168  144.3660  159.5682 C   0  0  0  0  0  0  0  0  0  0  0  0
  151.3091  144.9075  158.6494 C   0  0  0  0  0  0  0  0  0  0  0  0
  151.3073  144.1914  157.3551 N   0  3  0  0  0  0  0  0  0  0  0  0
  151.1287  142.7295  157.5018 C   0  0  0  0  0  0  0  0  0  0  0  0
  151.0117  139.9924  159.0547 N   0  0  0  0  0  0  0  0  0  0  0  0
  151.1203  136.6017  159.2146 H   0  0  0  0  0  0  0  0  0  0  0  0
  149.6650  137.5241  158.8146 H   0  0  0  0  0  0  0  0  0  0  0  0
  150.3590  137.6251  160.4398 H   0  0  0  0  0  0  0  0  0  0  0  0
  153.1793  142.2924  157.9189 H   0  0  0  0  0  0  0  0  0  0  0  0
  151.3618  142.6449  160.3358 H   0  0  0  0  0  0  0  0  0  0  0  0
  153.1020  142.4720  160.3679 H   0  0  0  0  0  0  0  0  0  0  0  0
  152.3850  144.8751  160.5320 H   0  0  0  0  0  0  0  0  0  0  0  0
  153.3929  144.5865  159.1339 H   0  0  0  0  0  0  0  0  0  0  0  0
  150.3332  144.7971  159.1242 H   0  0  0  0  0  0  0  0  0  0  0  0
  151.4564  145.9723  158.4666 H   0  0  0  0  0  0  0  0  0  0  0  0
  150.5617  144.5565  156.7797 H   0  0  0  0  0  0  0  0  0  0  0  0
  151.1610  142.2706  156.5131 H   0  0  0  0  0  0  0  0  0  0  0  0
  150.1368  142.5334  157.9116 H   0  0  0  0  0  0  0  0  0  0  0  0
  152.1888  144.3637  156.8927 H   0  0  0  0  0  0  0  0  0  0  0  0
  1  2  1  0  0  0  0
  1 13  1  0  0  0  0
  1 14  1  0  0  0  0
  1 15  1  0  0  0  0
  2 12  1  0  0  0  0
  2  3  2  0  0  0  0
  3  4  1  0  0  0  0
  4  5  1  0  0  0  0
  5  6  1  0  0  0  0
  5 12  2  0  0  0  0
  6 11  1  0  0  0  0
  6  7  1  0  0  0  0
  6 16  1  0  0  0  0
  7  8  1  0  0  0  0
  7 17  1  0  0  0  0
  7 18  1  0  0  0  0
  8  9  1  0  0  0  0
  8 19  1  0  0  0  0
  8 20  1  0  0  0  0
  9 10  1  0  0  0  0
  9 21  1  0  0  0  0
  9 22  1  0  0  0  0
 10 11  1  0  0  0  0
 10 23  1  0  0  0  0
 10 26  1  0  0  0  0
 11 24  1  0  0  0  0
 11 25  1  0  0  0  0
M  CHG  1  10   1
M  END
> <s_m_source_file>
AV-unprocessed.smi

> <i_m_source_file_index>
2209

> <i_lp_mmshare_version>
43012

> <i_f3d_flags>
0

> <s_epik_input>
W0NIM11jMW5vYyhuMSlbQ0BASF0yW0NIMl1bQ0gyXVtDSDJdW05IXVtDSDJdMg==

> <s_epik_cmdline>
J2VwaWtfcHl0aG9uJywgJy1waCcsICc3LjAnLCAnLXRuJywgJzgnLCAnLW1hJywgJzIwMCcsICctbWV0YWxfYmluZGluZycsICctaW1hZScsICc8aW5maWxlLm1hZT4nLCAnLW9tYWUnLCAnPG91dGZpbGUubWFlPic=

> <r_lp_tautomer_probability>
1

> <r_epik_Ionization_Penalty>
0.000532935

> <r_epik_Ionization_Penalty_Charging>
0.000532935

> <r_epik_Ionization_Penalty_Neutral>
4.97553e-13

> <r_epik_State_Penalty>
0.000332992

> <r_epik_Charging_Adjusted_Penalty>
0.000865928

> <i_epik_Tot_Q>
1

> <i_epik_Tot_abs_Q>
1

> <r_epik_Metal_State_Penalty>
-0

> <b_epik_Metal_Only>
0

> <s_lp_Force_Field>
OPLS_2005

> <r_lp_Energy>
10.4199

> <b_lp_Chiralities_Consistent>
1

> <s_lp_Variant>
AV-unprocessed.smi:2209-1

> <Gold.Version>
5.8.1

> <Gold.Id.Protein>
6NUR|6NUR_protein|mol2

> <Gold.PLP.Fitness>
33.6734

> <Gold.PLP.PLP>
-24.7219

> <Gold.PLP.part.hbond>
-2.0000

> <Gold.PLP.part.metal>
0.0000

> <Gold.PLP.part.buried>
-4.1234

> <Gold.PLP.part.nonpolar>
-18.2438

> <Gold.PLP.part.repulsive>
0.0286

> <Gold.PLP.ligand.clash>
0.0000

> <Gold.PLP.ligand.torsion>
0.0410

> <Gold.PLP.Chemscore.Hbond>
3.0000

> <Gold.PLP.Chemscore.CHOScore>
0.0000

> <Gold.PLP.Chemscore.Metal>
0.0000

> <Gold.Chemscore.Hbonds>
donor molecule, donor type, donor heavy atom, donor atom, acceptor molecule, acceptor atom, score
      L1  H    10    23       P1  8028  2.00
      P1  H  7997  8010       L1     4  0.96

> <Gold.PLP.Chemscore.Internal.Correction>
0.0335

> <Gold.Rescore>
     Score         DG    S(hbond)    S(metal)    S(lipo)     H(rot)  DE(clash)    DE(int)     intcor
     16.62     -16.68       1.99        0.00      60.91       1.00       0.04       0.02       ----

> <Gold.Chemscore.Fitness>
16.6205

> <Gold.Chemscore.DG>
-16.6811

> <Gold.Chemscore.ZeroCoef>
-5.4800

> <Gold.Chemscore.Hbond>
1.9864

> <Gold.Chemscore.Metal>
0.0000

> <Gold.Chemscore.Lipo>
60.9093

> <Gold.Chemscore.Internal_Hbond>
0.0000

> <Gold.Chemscore.DEClash>
0.0358

> <Gold.Chemscore.DEInternal>
0.0248

> <Gold.Chemscore.Rot>
1.0000

> <Gold.Chemscore.Internal.Correction>
   9.000000E+99

> <Gold.Chemscore.Hbonds>
donor molecule, donor type, donor heavy atom, donor atom, acceptor molecule, acceptor atom, score
      L1  H    10    23       P1  8028  0.90
      P1  H  7997  8010       L1     4  0.86

> <Gold.Chemscore.Hbond.Weighted>
-6.6347

> <Gold.Chemscore.Metal.Weighted>
-0.0000

> <Gold.Chemscore.Lipo.Weighted>
-7.1264

> <Gold.Chemscore.Internal_Hbond.Weighted>
0.0000

> <Gold.Chemscore.DEClash.Weighted>
0.0358

> <Gold.Chemscore.DEInternal.Weighted>
0.0248

> <Gold.Chemscore.Rot.Weighted>
2.5600

> <Gold.Chemscore.Internal.Correction.Weighted>
   9.000000E+99

> <Gold.Protein.RotatedTorsions>
[ 6907 6896 6895 6894 ] final  129.23 input  -60.11 | X-H torsion
[ 7974 7965 7964 7962 ] final  -19.13 input  175.53 | X-H torsion
[ 8008 7997 7996 7995 ] final   54.26 input   59.86 | X-H torsion
[ 10167 10162 10161 10158 ] final   67.56 input  -65.29 | X-H torsion
[ 10718 10713 10712 10709 ] final  -52.21 input   66.30 | X-H torsion
[ 10763 10752 10751 10750 ] final   74.26 input  -60.55 | X-H torsion
[ 11005 11000 10999 10996 ] final  130.80 input  -57.11 | X-H torsion

> <Gold.Protein.ActiveResidues>
 VAL166  LYS551  ARG553  GLY616  TRP617  ASP618  TYR619  PRO620  LYS621  CYS622 
 ASP623  PHE694  ASN695  SER759  ASP760  ASP761  ALA762  ILE779  LEU786  VAL792 
 PHE793  MET794  SER795  GLU796  ALA797  LYS798  CYS799  TRP800  GLU811  SER814 

> <Gold.Protein.RotatedAtoms>
  152.3644  133.6338  159.6038 H   0  0  0  0  0  0  0  0  0  0  0  0  # atno 6907 bound_to 6896
  150.7623  133.9372  159.3454 H   0  0  0  0  0  0  0  0  0  0  0  0  # atno 6908 bound_to 6896
  151.7205  135.0896  160.0334 H   0  0  0  0  0  0  0  0  0  0  0  0  # atno 6909 bound_to 6896
  146.1857  140.4018  142.8477 H   0  0  0  0  0  0  0  0  0  0  0  0  # atno 7974 bound_to 7965
  155.4818  140.3468  155.4341 H   0  0  0  0  0  0  0  0  0  0  0  0  # atno 8008 bound_to 7997
  156.1034  140.1441  156.9465 H   0  0  0  0  0  0  0  0  0  0  0  0  # atno 8009 bound_to 7997
  154.4708  140.0901  156.7118 H   0  0  0  0  0  0  0  0  0  0  0  0  # atno 8010 bound_to 7997
  140.0882  144.5011  150.7116 H   0  0  0  0  0  0  0  0  0  0  0  0  # atno 10167 bound_to 10162
  156.1642  130.4149  149.9746 H   0  0  0  0  0  0  0  0  0  0  0  0  # atno 10718 bound_to 10713
  153.0575  135.5032  154.8015 H   0  0  0  0  0  0  0  0  0  0  0  0  # atno 10763 bound_to 10752
  154.6830  135.2971  154.9589 H   0  0  0  0  0  0  0  0  0  0  0  0  # atno 10764 bound_to 10752
  154.0369  135.6722  153.4839 H   0  0  0  0  0  0  0  0  0  0  0  0  # atno 10765 bound_to 10752
  139.9693  134.9582  156.9346 H   0  0  0  0  0  0  0  0  0  0  0  0  # atno 11005 bound_to 11000
  144.8393  140.6832  143.6240 LP  0  0  0  0  0  0  0  0  0  0  0  0  # atno 17320 bound_to 7965
  145.3945  139.1610  143.4211 LP  0  0  0  0  0  0  0  0  0  0  0  0  # atno 17321 bound_to 7965
  140.7042  143.2456  151.4774 LP  0  0  0  0  0  0  0  0  0  0  0  0  # atno 17342 bound_to 10162
  139.5740  144.1862  152.1877 LP  0  0  0  0  0  0  0  0  0  0  0  0  # atno 17343 bound_to 10162
  156.7566  130.9135  151.3640 LP  0  0  0  0  0  0  0  0  0  0  0  0  # atno 17370 bound_to 10713
  157.6755  130.9090  150.0140 LP  0  0  0  0  0  0  0  0  0  0  0  0  # atno 17371 bound_to 10713
  140.5328  134.0796  155.7320 LP  0  0  0  0  0  0  0  0  0  0  0  0  # atno 17394 bound_to 11000
  141.1373  133.9200  157.2406 LP  0  0  0  0  0  0  0  0  0  0  0  0  # atno 17395 bound_to 11000

$$$$
