AV-unprocessed.smi:1592|AV-procd|sdf|6408|dock5
  -GOLD-   22720 7 43D 1   1.00000     0.00000
 Structure written by MMmdl.
 26 27  0  0  0  0  0  0  0  0  2 V2000
  149.6843  142.2602  157.1326 O   0  0  0  0  0  0  0  0  0  0  0  0
  150.7664  141.9704  157.6457 C   0  0  0  0  0  0  0  0  0  0  0  0
  151.5642  140.9658  157.2396 N   0  0  0  0  0  0  0  0  0  0  0  0
  151.3729  140.0546  156.1641 C   0  0  0  0  0  0  0  0  0  0  0  0
  150.3728  140.1860  155.2561 N   0  0  0  0  0  0  0  0  0  0  0  0
  150.2571  139.2797  154.2639 C   0  0  0  0  0  0  0  0  0  0  0  0
  151.1287  138.1872  154.1118 C   0  0  0  0  0  0  0  0  0  0  0  0
  152.1700  138.0375  155.0441 C   0  0  0  0  0  0  0  0  0  0  0  0
  152.2980  138.9798  156.0843 C   0  0  0  0  0  0  0  0  0  0  0  0
  153.3134  138.8335  156.9906 O   0  5  0  0  0  0  0  0  0  0  0  0
  151.2763  142.7759  158.8461 C   0  0  1  0  0  0  0  0  0  0  0  0
  152.6451  143.4428  158.6123 C   0  0  0  0  0  0  0  0  0  0  0  0
  152.3286  144.9261  158.5937 C   0  0  0  0  0  0  0  0  0  0  0  0
  151.0923  144.9958  159.4779 C   0  0  0  0  0  0  0  0  0  0  0  0
  150.3625  143.8437  159.0889 O   0  0  0  0  0  0  0  0  0  0  0  0
  152.4216  140.8335  157.7565 H   0  0  0  0  0  0  0  0  0  0  0  0
  149.4438  139.4312  153.5699 H   0  0  0  0  0  0  0  0  0  0  0  0
  151.0026  137.4834  153.3029 H   0  0  0  0  0  0  0  0  0  0  0  0
  152.8604  137.2108  154.9603 H   0  0  0  0  0  0  0  0  0  0  0  0
  151.3245  142.1444  159.7352 H   0  0  0  0  0  0  0  0  0  0  0  0
  153.3110  143.2125  159.4449 H   0  0  0  0  0  0  0  0  0  0  0  0
  153.1470  143.1228  157.6979 H   0  0  0  0  0  0  0  0  0  0  0  0
  153.1499  145.5448  158.9561 H   0  0  0  0  0  0  0  0  0  0  0  0
  152.0793  145.2434  157.5801 H   0  0  0  0  0  0  0  0  0  0  0  0
  151.3603  144.9225  160.5331 H   0  0  0  0  0  0  0  0  0  0  0  0
  150.5145  145.9080  159.3280 H   0  0  0  0  0  0  0  0  0  0  0  0
  1  2  2  0  0  0  0
  2  3  1  0  0  0  0
  2 11  1  0  0  0  0
  3 16  1  0  0  0  0
  3  4  1  0  0  0  0
  4  9  2  0  0  0  0
  4  5  1  0  0  0  0
  5  6  2  0  0  0  0
  6 17  1  0  0  0  0
  6  7  1  0  0  0  0
  7 18  1  0  0  0  0
  7  8  2  0  0  0  0
  8  9  1  0  0  0  0
  8 19  1  0  0  0  0
  9 10  1  0  0  0  0
 11 15  1  0  0  0  0
 11 12  1  0  0  0  0
 11 20  1  0  0  0  0
 12 13  1  0  0  0  0
 12 21  1  0  0  0  0
 12 22  1  0  0  0  0
 13 14  1  0  0  0  0
 13 23  1  0  0  0  0
 13 24  1  0  0  0  0
 14 15  1  0  0  0  0
 14 25  1  0  0  0  0
 14 26  1  0  0  0  0
M  CHG  1  10  -1
M  END
> <s_m_source_file>
AV-unprocessed.smi

> <i_m_source_file_index>
1592

> <i_lp_mmshare_version>
43012

> <i_f3d_flags>
0

> <s_epik_input>
TzFbQ0gyXVtDSDJdW0NIMl1bQ0BIXTFDKD1PKVtOSF1jMm5bY0hdW2NIXVtjSF1jMltPSF0=

> <s_epik_cmdline>
J2VwaWtfcHl0aG9uJywgJy1waCcsICc3LjAnLCAnLXRuJywgJzgnLCAnLW1hJywgJzIwMCcsICctbWV0YWxfYmluZGluZycsICctaW1hZScsICc8aW5maWxlLm1hZT4nLCAnLW9tYWUnLCAnPG91dGZpbGUubWFlPic=

> <r_epik_Ionization_Penalty>
4.05601

> <r_epik_Ionization_Penalty_Charging>
2.06015

> <r_epik_Ionization_Penalty_Neutral>
1.99585

> <r_epik_State_Penalty>
2.62166

> <r_epik_Charging_Adjusted_Penalty>
4.68182

> <i_epik_Tot_Q>
-1

> <i_epik_Tot_abs_Q>
1

> <r_epik_Metal_State_Penalty>
0.603772

> <b_epik_Metal_Only>
0

> <s_lp_Force_Field>
OPLS_2005

> <r_lp_Energy>
18.4071

> <b_lp_Chiralities_Consistent>
1

> <s_lp_Variant>
AV-unprocessed.smi:1592-8

> <Gold.Version>
5.8.1

> <Gold.Id.Protein>
6NUR|6NUR_protein|mol2

> <Gold.PLP.Fitness>
40.2070

> <Gold.PLP.PLP>
-31.5838

> <Gold.PLP.part.hbond>
-1.2692

> <Gold.PLP.part.metal>
0.0000

> <Gold.PLP.part.buried>
-4.7647

> <Gold.PLP.part.nonpolar>
-26.9758

> <Gold.PLP.part.repulsive>
1.1607

> <Gold.PLP.ligand.clash>
0.0000

> <Gold.PLP.ligand.torsion>
0.0335

> <Gold.PLP.Chemscore.Hbond>
2.0000

> <Gold.PLP.Chemscore.CHOScore>
0.8940

> <Gold.PLP.Chemscore.Metal>
0.0000

> <Gold.Chemscore.Hbonds>
donor molecule, donor type, donor heavy atom, donor atom, acceptor molecule, acceptor atom, score
      P1  H  7997  8008       L1    10  1.98
      L1  C     6    17       P1  7957  0.94

> <Gold.PLP.Chemscore.Internal.Correction>
0.0082

> <Gold.Rescore>
     Score         DG    S(hbond)    S(metal)    S(lipo)     H(rot)  DE(clash)    DE(int)     intcor
     14.08     -15.47       0.98        0.00      79.27       1.00       0.01       1.38       ----

> <Gold.Chemscore.Fitness>
14.0830

> <Gold.Chemscore.DG>
-15.4732

> <Gold.Chemscore.ZeroCoef>
-5.4800

> <Gold.Chemscore.Hbond>
0.9817

> <Gold.Chemscore.Metal>
0.0000

> <Gold.Chemscore.Lipo>
79.2684

> <Gold.Chemscore.Internal_Hbond>
0.0000

> <Gold.Chemscore.DEClash>
0.0073

> <Gold.Chemscore.DEInternal>
1.3829

> <Gold.Chemscore.Rot>
1.0000

> <Gold.Chemscore.Internal.Correction>
   9.000000E+99

> <Gold.Chemscore.Hbonds>
donor molecule, donor type, donor heavy atom, donor atom, acceptor molecule, acceptor atom, score
      P1  H  7997  8008       L1    10  0.24

> <Gold.Chemscore.Hbond.Weighted>
-3.2788

> <Gold.Chemscore.Metal.Weighted>
-0.0000

> <Gold.Chemscore.Lipo.Weighted>
-9.2744

> <Gold.Chemscore.Internal_Hbond.Weighted>
0.0000

> <Gold.Chemscore.DEClash.Weighted>
0.0073

> <Gold.Chemscore.DEInternal.Weighted>
1.3829

> <Gold.Chemscore.Rot.Weighted>
2.5600

> <Gold.Chemscore.Internal.Correction.Weighted>
   9.000000E+99

> <Gold.Protein.RotatedTorsions>
[ 6907 6896 6895 6894 ] final   34.16 input  -60.11 | X-H torsion
[ 7974 7965 7964 7962 ] final  174.79 input  175.53 | X-H torsion
[ 8008 7997 7996 7995 ] final  -49.35 input   59.86 | X-H torsion
[ 10167 10162 10161 10158 ] final  157.79 input  -65.29 | X-H torsion
[ 10718 10713 10712 10709 ] final -131.15 input   66.30 | X-H torsion
[ 10763 10752 10751 10750 ] final  165.85 input  -60.55 | X-H torsion
[ 11005 11000 10999 10996 ] final -109.77 input  -57.11 | X-H torsion

> <Gold.Protein.ActiveResidues>
 VAL166  LYS551  ARG553  GLY616  TRP617  ASP618  TYR619  PRO620  LYS621  CYS622 
 ASP623  PHE694  ASN695  SER759  ASP760  ASP761  ALA762  ILE779  LEU786  VAL792 
 PHE793  MET794  SER795  GLU796  ALA797  LYS798  CYS799  TRP800  GLU811  SER814 

> <Gold.Protein.RotatedAtoms>
  152.0985  134.9358  160.0569 H   0  0  0  0  0  0  0  0  0  0  0  0  # atno 6907 bound_to 6896
  152.0581  133.4045  159.4414 H   0  0  0  0  0  0  0  0  0  0  0  0  # atno 6908 bound_to 6896
  150.6838  134.3151  159.4806 H   0  0  0  0  0  0  0  0  0  0  0  0  # atno 6909 bound_to 6896
  144.7214  139.9850  143.6439 H   0  0  0  0  0  0  0  0  0  0  0  0  # atno 7974 bound_to 7965
  154.4043  140.1299  156.4488 H   0  0  0  0  0  0  0  0  0  0  0  0  # atno 8008 bound_to 7997
  155.7387  140.3490  155.5074 H   0  0  0  0  0  0  0  0  0  0  0  0  # atno 8009 bound_to 7997
  155.9060  140.1027  157.1305 H   0  0  0  0  0  0  0  0  0  0  0  0  # atno 8010 bound_to 7997
  139.4824  144.4885  151.8343 H   0  0  0  0  0  0  0  0  0  0  0  0  # atno 10167 bound_to 10162
  156.2215  130.6981  151.0761 H   0  0  0  0  0  0  0  0  0  0  0  0  # atno 10718 bound_to 10713
  154.3302  135.2755  155.2476 H   0  0  0  0  0  0  0  0  0  0  0  0  # atno 10763 bound_to 10752
  154.4791  135.5863  153.6380 H   0  0  0  0  0  0  0  0  0  0  0  0  # atno 10764 bound_to 10752
  152.9867  135.6107  154.3494 H   0  0  0  0  0  0  0  0  0  0  0  0  # atno 10765 bound_to 10752
  141.0829  133.9189  157.2249 H   0  0  0  0  0  0  0  0  0  0  0  0  # atno 11005 bound_to 11000
  146.0457  139.3463  143.0670 LP  0  0  0  0  0  0  0  0  0  0  0  0  # atno 17320 bound_to 7965
  145.8278  140.9646  143.0865 LP  0  0  0  0  0  0  0  0  0  0  0  0  # atno 17321 bound_to 7965
  140.4367  144.2043  150.5889 LP  0  0  0  0  0  0  0  0  0  0  0  0  # atno 17342 bound_to 10162
  140.4725  143.2408  151.9069 LP  0  0  0  0  0  0  0  0  0  0  0  0  # atno 17343 bound_to 10162
  157.7090  131.0743  150.6568 LP  0  0  0  0  0  0  0  0  0  0  0  0  # atno 17370 bound_to 10713
  156.6632  130.4518  149.5681 LP  0  0  0  0  0  0  0  0  0  0  0  0  # atno 17371 bound_to 10713
  139.9644  135.0145  156.9349 LP  0  0  0  0  0  0  0  0  0  0  0  0  # atno 17394 bound_to 11000
  140.5428  134.0703  155.7346 LP  0  0  0  0  0  0  0  0  0  0  0  0  # atno 17395 bound_to 11000

$$$$
