#       Name:                AV-unprocessed.smi:2949
#       Creating user name   scv26
#       Creation time:       Fri Mar 27 16:17:42 2020


#       File generated by GOLD software.
#

@<TRIPOS>MOLECULE
AV-unprocessed.smi:2949
    39    40     1
SMALL
NO_CHARGES


@<TRIPOS>ATOM
      1 ****        -2.8135   2.0838   2.4196 N.pl3          1 S1                 0.0000
      2 ****        -3.3520   0.8679   2.5401 C.2            1 S1                 0.0000
      3 ****        -5.0521   0.5254   2.4239 S.3            1 S1                 0.0000
      4 ****        -4.7391  -1.1642   2.6831 C.2            1 S1                 0.0000
      5 ****        -3.4005  -1.4075   2.8429 C.2            1 S1                 0.0000
      6 ****        -2.6287  -0.2500   2.7613 N.pl3          1 S1                 1.0000
      7 ****        -1.1574  -0.2579   2.8915 C.3            1 S1                 0.0000
      8 ****        -0.4290  -0.3243   1.5415 C.2            1 S1                 0.0000
      9 ****        -1.0775  -0.3714   0.4927 O.2            1 S1                 0.0000
     10 ****         0.9206  -0.3211   1.6331 N.am           1 S1                 0.0000
     11 ****         1.8786  -0.3758   0.6769 C.2            1 S1                 0.0000
     12 ****         3.0694  -0.3568   0.9835 O.2            1 S1                 0.0000
     13 ****         1.4664  -0.4510  -0.6026 N.am           1 S1                 0.0000
     14 ****         2.3395  -0.5329  -1.7698 C.3            1 S1                 0.0000
     15 ****         2.9282   0.8440  -2.1431 C.3            1 S1                 0.0000
     16 ****         2.6557   1.0321  -3.6368 C.3            1 S1                 0.0000
     17 ****         1.3876   0.2246  -3.8940 C.3            1 S1                 0.0000
     18 ****         1.5450  -1.0055  -3.0005 C.3            1 S1                 0.0000
     19 ****        -1.8189   2.2442   2.4874 H              1 S1                 0.0000
     20 ****        -5.5548  -1.8722   2.6989 H              1 S1                 0.0000
     21 ****        -2.9020  -2.3513   3.0123 H              1 S1                 0.0000
     22 ****        -0.8427   0.6253   3.4493 H              1 S1                 0.0000
     23 ****        -0.8770  -1.1239   3.4928 H              1 S1                 0.0000
     24 ****         1.2796  -0.2720   2.5756 H              1 S1                 0.0000
     25 ****         0.4715  -0.4609  -0.7779 H              1 S1                 0.0000
     26 ****         3.1409  -1.2471  -1.5714 H              1 S1                 0.0000
     27 ****         2.4295   1.6407  -1.5886 H              1 S1                 0.0000
     28 ****         3.9921   0.9107  -1.9133 H              1 S1                 0.0000
     29 ****         2.5511   2.0809  -3.9161 H              1 S1                 0.0000
     30 ****         3.4796   0.6135  -4.2163 H              1 S1                 0.0000
     31 ****         0.5156   0.7994  -3.5792 H              1 S1                 0.0000
     32 ****         1.2573  -0.0327  -4.9454 H              1 S1                 0.0000
     33 ****         2.1249  -1.7610  -3.5326 H              1 S1                 0.0000
     34 ****         0.5842  -1.4581  -2.7505 H              1 S1                 0.0000
     35 ****        -3.3703   2.9050   2.2304 H              1 S1                 0.0000
     36 ****        -2.0771  -0.3663   0.5223 LP             1 S1                 0.0000
     37 ****        -0.6035  -0.4147  -0.3867 LP             1 S1                 0.0000
     38 ****         3.3372  -0.3006   1.9454 LP             1 S1                 0.0000
     39 ****         3.7698  -0.3976   0.2710 LP             1 S1                 0.0000
@<TRIPOS>BOND
    1    1    2 1     
    2    1   19 1     
    3    1   35 1     
    4    2    6 2     
    5    2    3 1     
    6    3    4 1     
    7    4    5 2     
    8    4   20 1     
    9    5    6 1     
   10    5   21 1     
   11    6    7 1     
   12    7    8 1     
   13    7   22 1     
   14    7   23 1     
   15    8    9 2     
   16    8   10 1     
   17   10   11 1     
   18   10   24 1     
   19   11   12 2     
   20   11   13 1     
   21   13   14 1     
   22   13   25 1     
   23   14   18 1     
   24   14   15 1     
   25   14   26 1     
   26   15   16 1     
   27   15   27 1     
   28   15   28 1     
   29   16   17 1     
   30   16   29 1     
   31   16   30 1     
   32   17   18 1     
   33   17   31 1     
   34   17   32 1     
   35   18   33 1     
   36   18   34 1     
   37    9   36 1     
   38    9   37 1     
   39   12   38 1     
   40   12   39 1     
@<TRIPOS>SUBSTRUCTURE
      1 S1             1
@<TRIPOS>SET
LONE_PAIRS      STATIC     ATOMS    <user>   **** ""
4 36 37 38 39
DONOR_HYDROGENS      STATIC     ATOMS    <user>   **** ""
4 19 35 24 25
ATOM$BLUE        STATIC     ATOMS    COLORGROUP SYSTEM
4 36 37 38 39
ATOM$RED        STATIC     ATOMS    COLORGROUP SYSTEM
4 19 35 24 25
