AV-unprocessed.smi:1817|AV-procd|sdf|7376|dock7
  -GOLD-   22720 9 43D 1   1.00000     0.00000
 Structure written by MMmdl.
 42 43  0  0  0  0  0  0  0  0  3 V2000
  144.3455  131.6308  150.6790 C   0  0  0  0  0  0  0  0  0  0  0  0
  144.5026  132.8060  151.6545 C   0  0  0  0  0  0  0  0  0  0  0  0
  145.4646  133.7964  151.1656 N   0  0  0  0  0  0  0  0  0  0  0  0
  145.5009  135.0000  151.9953 C   0  0  0  0  0  0  0  0  0  0  0  0
  146.1399  134.7401  153.3756 C   0  0  0  0  0  0  0  0  0  0  0  0
  147.5251  134.2114  153.2401 N   0  3  0  0  0  0  0  0  0  0  0  0
  148.2274  133.9837  154.5455 C   0  0  2  0  0  0  0  0  0  0  0  0
  149.4166  133.0064  154.4152 C   0  0  0  0  0  0  0  0  0  0  0  0
  147.2739  133.4650  155.6491 C   0  0  0  0  0  0  0  0  0  0  0  0
  147.8777  133.5736  156.9751 N   0  0  0  0  0  0  0  0  0  0  0  0
  148.2620  134.7028  157.5826 C   0  0  0  0  0  0  0  0  0  0  0  0
  148.1102  135.7907  157.0232 O   0  0  0  0  0  0  0  0  0  0  0  0
  148.8009  134.4947  158.8046 N   0  5  0  0  0  0  0  0  0  0  0  0
  148.3040  135.1357  159.8755 C   0  0  0  0  0  0  0  0  0  0  0  0
  148.2475  136.4752  159.9482 N   0  0  0  0  0  0  0  0  0  0  0  0
  147.6969  136.9343  161.1372 N   0  0  0  0  0  0  0  0  0  0  0  0
  147.3413  135.9239  161.9304 C   0  0  0  0  0  0  0  0  0  0  0  0
  147.6444  134.3200  161.2961 S   0  0  0  0  0  0  0  0  0  0  0  0
  147.5116  133.0082  152.3629 C   0  0  0  0  0  0  0  0  0  0  0  0
  146.8364  133.3071  151.0083 C   0  0  0  0  0  0  0  0  0  0  0  0
  143.5406  130.9716  151.0042 H   0  0  0  0  0  0  0  0  0  0  0  0
  145.2498  131.0261  150.6166 H   0  0  0  0  0  0  0  0  0  0  0  0
  144.0999  131.9797  149.6754 H   0  0  0  0  0  0  0  0  0  0  0  0
  143.5308  133.2909  151.7542 H   0  0  0  0  0  0  0  0  0  0  0  0
  144.7667  132.4400  152.6459 H   0  0  0  0  0  0  0  0  0  0  0  0
  146.0682  135.7696  151.4698 H   0  0  0  0  0  0  0  0  0  0  0  0
  144.4909  135.3942  152.1138 H   0  0  0  0  0  0  0  0  0  0  0  0
  146.1458  135.6929  153.9024 H   0  0  0  0  0  0  0  0  0  0  0  0
  145.5333  134.0551  153.9694 H   0  0  0  0  0  0  0  0  0  0  0  0
  148.6309  134.9411  154.8791 H   0  0  0  0  0  0  0  0  0  0  0  0
  149.8366  132.7682  155.3927 H   0  0  0  0  0  0  0  0  0  0  0  0
  150.2347  133.4270  153.8311 H   0  0  0  0  0  0  0  0  0  0  0  0
  149.1133  132.0663  153.9528 H   0  0  0  0  0  0  0  0  0  0  0  0
  146.3292  134.0092  155.6003 H   0  0  0  0  0  0  0  0  0  0  0  0
  147.0094  132.4220  155.4760 H   0  0  0  0  0  0  0  0  0  0  0  0
  148.0181  132.7150  157.4860 H   0  0  0  0  0  0  0  0  0  0  0  0
  146.8945  136.1237  162.8929 H   0  0  0  0  0  0  0  0  0  0  0  0
  148.5282  132.6831  152.1486 H   0  0  0  0  0  0  0  0  0  0  0  0
  147.0232  132.1772  152.8729 H   0  0  0  0  0  0  0  0  0  0  0  0
  146.8553  132.4226  150.3727 H   0  0  0  0  0  0  0  0  0  0  0  0
  147.4138  134.0657  150.4777 H   0  0  0  0  0  0  0  0  0  0  0  0
  148.0535  134.9198  152.7509 H   0  0  0  0  0  0  0  0  0  0  0  0
  1  2  1  0  0  0  0
  1 21  1  0  0  0  0
  1 22  1  0  0  0  0
  1 23  1  0  0  0  0
  2  3  1  0  0  0  0
  2 24  1  0  0  0  0
  2 25  1  0  0  0  0
  3 20  1  0  0  0  0
  3  4  1  0  0  0  0
  4  5  1  0  0  0  0
  4 26  1  0  0  0  0
  4 27  1  0  0  0  0
  5  6  1  0  0  0  0
  5 28  1  0  0  0  0
  5 29  1  0  0  0  0
  6  7  1  0  0  0  0
  6 19  1  0  0  0  0
  6 42  1  0  0  0  0
  7  8  1  0  0  0  0
  7  9  1  0  0  0  0
  7 30  1  0  0  0  0
  8 31  1  0  0  0  0
  8 32  1  0  0  0  0
  8 33  1  0  0  0  0
  9 10  1  0  0  0  0
  9 34  1  0  0  0  0
  9 35  1  0  0  0  0
 10 11  1  0  0  0  0
 10 36  1  0  0  0  0
 11 12  2  0  0  0  0
 11 13  1  0  0  0  0
 13 14  1  0  0  0  0
 14 18  1  0  0  0  0
 14 15  2  0  0  0  0
 15 16  1  0  0  0  0
 16 17  2  0  0  0  0
 17 18  1  0  0  0  0
 17 37  1  0  0  0  0
 19 20  1  0  0  0  0
 19 38  1  0  0  0  0
 19 39  1  0  0  0  0
 20 40  1  0  0  0  0
 20 41  1  0  0  0  0
M  CHG  1   6   1
M  CHG  1  13  -1
M  END
> <s_m_source_file>
AV-unprocessed.smi

> <i_m_source_file_index>
1817

> <i_lp_mmshare_version>
43012

> <i_f3d_flags>
0

> <s_epik_input>
W0NIM11bQ0gyXU4xW0NIMl1bQ0gyXU4oW0NIMl1bQ0gyXTEpW0NASF0oW0NIM10pW0NIMl1bTkhdQyg9TylbTkhdYzJubltjSF1zMg==

> <s_epik_cmdline>
J2VwaWtfcHl0aG9uJywgJy1waCcsICc3LjAnLCAnLXRuJywgJzgnLCAnLW1hJywgJzIwMCcsICctbWV0YWxfYmluZGluZycsICctaW1hZScsICc8aW5maWxlLm1hZT4nLCAnLW9tYWUnLCAnPG91dGZpbGUubWFlPic=

> <r_epik_Ionization_Penalty>
3.16835

> <r_epik_Ionization_Penalty_Charging>
3.13468

> <r_epik_Ionization_Penalty_Neutral>
0.0336711

> <r_epik_State_Penalty>
3.95884

> <r_epik_Charging_Adjusted_Penalty>
7.09351

> <i_epik_Tot_Q>
0

> <i_epik_Tot_abs_Q>
2

> <r_epik_Metal_State_Penalty>
1.39003

> <b_epik_Metal_Only>
1

> <s_lp_Force_Field>
OPLS_2005

> <r_lp_Energy>
20.7646

> <b_lp_Chiralities_Consistent>
1

> <s_lp_Variant>
AV-unprocessed.smi:1817-9

> <Gold.Version>
5.8.1

> <Gold.Id.Protein>
6NUR|6NUR_protein|mol2

> <Gold.PLP.Fitness>
43.6749

> <Gold.PLP.PLP>
-29.4902

> <Gold.PLP.part.hbond>
-4.0000

> <Gold.PLP.part.metal>
0.0000

> <Gold.PLP.part.buried>
-5.0348

> <Gold.PLP.part.nonpolar>
-20.7979

> <Gold.PLP.part.repulsive>
0.1406

> <Gold.PLP.ligand.clash>
0.0000

> <Gold.PLP.ligand.torsion>
1.6808

> <Gold.PLP.Chemscore.Hbond>
5.8240

> <Gold.PLP.Chemscore.CHOScore>
0.0000

> <Gold.PLP.Chemscore.Metal>
0.0000

> <Gold.Chemscore.Hbonds>
donor molecule, donor type, donor heavy atom, donor atom, acceptor molecule, acceptor atom, score
      L1  H     6    42       P1  7948  2.00
      P1  H  6896  6907       L1    13  2.00
      P1  H  6931  6943       L1    16  1.00
      P1  H  6934  6947       L1    16  0.61

> <Gold.PLP.Chemscore.Internal.Correction>
0.0743

> <Gold.Rescore>
     Score         DG    S(hbond)    S(metal)    S(lipo)     H(rot)  DE(clash)    DE(int)     intcor
     13.68     -16.29       2.57        0.00      60.11       1.88       0.05       2.56       ----

> <Gold.Chemscore.Fitness>
13.6840

> <Gold.Chemscore.DG>
-16.2917

> <Gold.Chemscore.ZeroCoef>
-5.4800

> <Gold.Chemscore.Hbond>
2.5744

> <Gold.Chemscore.Metal>
0.0000

> <Gold.Chemscore.Lipo>
60.1065

> <Gold.Chemscore.Internal_Hbond>
0.0000

> <Gold.Chemscore.DEClash>
0.0515

> <Gold.Chemscore.DEInternal>
2.5562

> <Gold.Chemscore.Rot>
1.8825

> <Gold.Chemscore.Internal.Correction>
   9.000000E+99

> <Gold.Chemscore.Hbonds>
donor molecule, donor type, donor heavy atom, donor atom, acceptor molecule, acceptor atom, score
      L1  H     6    42       P1  7948  0.88
      P1  H  6896  6907       L1    13  0.25
      P1  H  6931  6943       L1    16  0.46
      P1  H  6934  6947       L1    16  0.42

> <Gold.Chemscore.Hbond.Weighted>
-8.5984

> <Gold.Chemscore.Metal.Weighted>
-0.0000

> <Gold.Chemscore.Lipo.Weighted>
-7.0325

> <Gold.Chemscore.Internal_Hbond.Weighted>
0.0000

> <Gold.Chemscore.DEClash.Weighted>
0.0515

> <Gold.Chemscore.DEInternal.Weighted>
2.5562

> <Gold.Chemscore.Rot.Weighted>
4.8191

> <Gold.Chemscore.Internal.Correction.Weighted>
   9.000000E+99

> <Gold.Protein.RotatedTorsions>
[ 6907 6896 6895 6894 ] final  -94.09 input  -60.11 | X-H torsion
[ 7974 7965 7964 7962 ] final   23.47 input  175.53 | X-H torsion
[ 8008 7997 7996 7995 ] final  -38.89 input   59.86 | X-H torsion
[ 10167 10162 10161 10158 ] final  125.43 input  -65.29 | X-H torsion
[ 10718 10713 10712 10709 ] final    6.00 input   66.30 | X-H torsion
[ 10763 10752 10751 10750 ] final -128.23 input  -60.55 | X-H torsion
[ 11005 11000 10999 10996 ] final   -6.52 input  -57.11 | X-H torsion

> <Gold.Protein.ActiveResidues>
 VAL166  LYS551  ARG553  GLY616  TRP617  ASP618  TYR619  PRO620  LYS621  CYS622 
 ASP623  PHE694  ASN695  SER759  ASP760  ASP761  ALA762  ILE779  LEU786  VAL792 
 PHE793  MET794  SER795  GLU796  ALA797  LYS798  CYS799  TRP800  GLU811  SER814 

> <Gold.Protein.RotatedAtoms>
  150.6935  134.1867  159.4269 H   0  0  0  0  0  0  0  0  0  0  0  0  # atno 6907 bound_to 6896
  151.9839  135.0012  160.0568 H   0  0  0  0  0  0  0  0  0  0  0  0  # atno 6908 bound_to 6896
  152.1730  133.4621  159.4955 H   0  0  0  0  0  0  0  0  0  0  0  0  # atno 6909 bound_to 6896
  146.1982  139.7740  142.8781 H   0  0  0  0  0  0  0  0  0  0  0  0  # atno 7974 bound_to 7965
  154.4030  140.1566  156.2773 H   0  0  0  0  0  0  0  0  0  0  0  0  # atno 8008 bound_to 7997
  155.8901  140.3439  155.5927 H   0  0  0  0  0  0  0  0  0  0  0  0  # atno 8009 bound_to 7997
  155.7569  140.0812  157.2165 H   0  0  0  0  0  0  0  0  0  0  0  0  # atno 8010 bound_to 7997
  139.5686  144.6926  151.3842 H   0  0  0  0  0  0  0  0  0  0  0  0  # atno 10167 bound_to 10162
  156.9157  130.5772  149.5647 H   0  0  0  0  0  0  0  0  0  0  0  0  # atno 10718 bound_to 10713
  154.8755  135.3935  154.3722 H   0  0  0  0  0  0  0  0  0  0  0  0  # atno 10763 bound_to 10752
  153.4480  135.7028  153.6132 H   0  0  0  0  0  0  0  0  0  0  0  0  # atno 10764 bound_to 10752
  153.4684  135.3796  155.2346 H   0  0  0  0  0  0  0  0  0  0  0  0  # atno 10765 bound_to 10752
  140.7028  133.8975  155.8695 H   0  0  0  0  0  0  0  0  0  0  0  0  # atno 11005 bound_to 11000
  145.3571  141.0319  143.3305 LP  0  0  0  0  0  0  0  0  0  0  0  0  # atno 17320 bound_to 7965
  144.8626  139.5154  143.6805 LP  0  0  0  0  0  0  0  0  0  0  0  0  # atno 17321 bound_to 7965
  140.6970  143.7725  150.7342 LP  0  0  0  0  0  0  0  0  0  0  0  0  # atno 17342 bound_to 10162
  140.1224  143.4600  152.2305 LP  0  0  0  0  0  0  0  0  0  0  0  0  # atno 17343 bound_to 10162
  156.0515  130.5583  150.8999 LP  0  0  0  0  0  0  0  0  0  0  0  0  # atno 17370 bound_to 10713
  157.5940  131.0943  150.9072 LP  0  0  0  0  0  0  0  0  0  0  0  0  # atno 17371 bound_to 10713
  141.0149  134.0969  157.4182 LP  0  0  0  0  0  0  0  0  0  0  0  0  # atno 17394 bound_to 11000
  139.8892  135.0103  156.6665 LP  0  0  0  0  0  0  0  0  0  0  0  0  # atno 17395 bound_to 11000

$$$$
