AV-unprocessed.smi:2661|AV-procd|sdf|10317|dock4
  -GOLD-   2272014333D 1   1.00000     0.00000
 Structure written by MMmdl.
 44 46  0  0  0  0  0  0  0  0  1 V2000
  143.4253  135.8224  153.3562 C   0  0  0  0  0  0  0  0  0  0  0  0
  144.4802  136.4908  152.6069 N   0  0  0  0  0  0  0  0  0  0  0  0
  144.8625  136.0402  151.2802 C   0  0  0  0  0  0  0  0  0  0  0  0
  146.1648  136.7928  150.9741 C   0  0  0  0  0  0  0  0  0  0  0  0
  146.2026  137.9684  151.9696 C   0  0  2  0  0  0  0  0  0  0  0  0
  147.5274  138.1854  152.5475 N   0  0  0  0  0  0  0  0  0  0  0  0
  147.8270  139.0853  153.4949 C   0  0  0  0  0  0  0  0  0  0  0  0
  146.9922  139.8244  154.0162 O   0  0  0  0  0  0  0  0  0  0  0  0
  149.1354  139.0493  153.8003 N   0  0  0  0  0  0  0  0  0  0  0  0
  149.8542  139.8421  154.7362 C   0  0  0  0  0  0  0  0  0  0  0  0
  151.2077  139.6362  155.0908 C   0  0  0  0  0  0  0  0  0  0  0  0
  151.7998  140.4845  156.0459 C   0  0  0  0  0  0  0  0  0  0  0  0
  151.0275  141.5138  156.6345 C   0  0  0  0  0  0  0  0  0  0  0  0
  151.6017  142.3759  157.5945 N   0  0  0  0  0  0  0  0  0  0  0  0
  151.3288  142.0452  158.9912 C   0  0  0  0  0  0  0  0  0  0  0  0
  152.2492  142.8523  159.9231 C   0  0  0  0  0  0  0  0  0  0  0  0
  152.1162  144.2429  159.6485 O   0  0  0  0  0  0  0  0  0  0  0  0
  152.4976  144.5565  158.3133 C   0  0  0  0  0  0  0  0  0  0  0  0
  151.5832  143.8129  157.3250 C   0  0  0  0  0  0  0  0  0  0  0  0
  149.7286  141.7037  156.2957 N   0  0  0  0  0  0  0  0  0  0  0  0
  149.1647  140.8880  155.3809 C   0  0  0  0  0  0  0  0  0  0  0  0
  145.2053  137.5299  153.0335 C   0  0  0  0  0  0  0  0  0  0  0  0
  145.0949  138.0880  154.1250 O   0  0  0  0  0  0  0  0  0  0  0  0
  143.8270  135.3801  154.2687 H   0  0  0  0  0  0  0  0  0  0  0  0
  142.9670  135.0279  152.7665 H   0  0  0  0  0  0  0  0  0  0  0  0
  142.6440  136.5314  153.6328 H   0  0  0  0  0  0  0  0  0  0  0  0
  145.0012  134.9589  151.2455 H   0  0  0  0  0  0  0  0  0  0  0  0
  144.0786  136.3095  150.5710 H   0  0  0  0  0  0  0  0  0  0  0  0
  147.0095  136.1208  151.1356 H   0  0  0  0  0  0  0  0  0  0  0  0
  146.2098  137.1285  149.9376 H   0  0  0  0  0  0  0  0  0  0  0  0
  145.8354  138.8853  151.5057 H   0  0  0  0  0  0  0  0  0  0  0  0
  148.2735  137.6087  152.1866 H   0  0  0  0  0  0  0  0  0  0  0  0
  149.6770  138.3336  153.3381 H   0  0  0  0  0  0  0  0  0  0  0  0
  151.8018  138.8449  154.6618 H   0  0  0  0  0  0  0  0  0  0  0  0
  152.8383  140.3419  156.3048 H   0  0  0  0  0  0  0  0  0  0  0  0
  150.2849  142.2749  159.2086 H   0  0  0  0  0  0  0  0  0  0  0  0
  151.4675  140.9838  159.1916 H   0  0  0  0  0  0  0  0  0  0  0  0
  151.9814  142.6697  160.9638 H   0  0  0  0  0  0  0  0  0  0  0  0
  153.2895  142.5447  159.8038 H   0  0  0  0  0  0  0  0  0  0  0  0
  152.4150  145.6331  158.1634 H   0  0  0  0  0  0  0  0  0  0  0  0
  153.5437  144.2916  158.1506 H   0  0  0  0  0  0  0  0  0  0  0  0
  151.9178  144.0112  156.3060 H   0  0  0  0  0  0  0  0  0  0  0  0
  150.5608  144.1834  157.4116 H   0  0  0  0  0  0  0  0  0  0  0  0
  148.1267  141.0822  155.1534 H   0  0  0  0  0  0  0  0  0  0  0  0
  1  2  1  0  0  0  0
  1 24  1  0  0  0  0
  1 25  1  0  0  0  0
  1 26  1  0  0  0  0
  2 22  1  0  0  0  0
  2  3  1  0  0  0  0
  3  4  1  0  0  0  0
  3 27  1  0  0  0  0
  3 28  1  0  0  0  0
  4  5  1  0  0  0  0
  4 29  1  0  0  0  0
  4 30  1  0  0  0  0
  5  6  1  0  0  0  0
  5 22  1  0  0  0  0
  5 31  1  0  0  0  0
  6  7  1  0  0  0  0
  6 32  1  0  0  0  0
  7  8  2  0  0  0  0
  7  9  1  0  0  0  0
  9 10  1  0  0  0  0
  9 33  1  0  0  0  0
 10 21  1  0  0  0  0
 10 11  2  0  0  0  0
 11 12  1  0  0  0  0
 11 34  1  0  0  0  0
 12 13  2  0  0  0  0
 12 35  1  0  0  0  0
 13 14  1  0  0  0  0
 13 20  1  0  0  0  0
 14 19  1  0  0  0  0
 14 15  1  0  0  0  0
 15 16  1  0  0  0  0
 15 36  1  0  0  0  0
 15 37  1  0  0  0  0
 16 17  1  0  0  0  0
 16 38  1  0  0  0  0
 16 39  1  0  0  0  0
 17 18  1  0  0  0  0
 18 19  1  0  0  0  0
 18 40  1  0  0  0  0
 18 41  1  0  0  0  0
 19 42  1  0  0  0  0
 19 43  1  0  0  0  0
 20 21  2  0  0  0  0
 21 44  1  0  0  0  0
 22 23  2  0  0  0  0
M  END
> <s_m_source_file>
AV-unprocessed.smi

> <i_m_source_file_index>
2661

> <i_lp_mmshare_version>
43012

> <i_f3d_flags>
0

> <s_epik_input>
W0NIM11OMVtDSDJdW0NIMl1bQ0BIXShDMT1PKVtOSF1DKD1PKVtOSF1jMltjSF1bY0hdYyhuW2NIXTIpTjNbQ0gyXVtDSDJdT1tDSDJdW0NIMl0z

> <s_epik_cmdline>
J2VwaWtfcHl0aG9uJywgJy1waCcsICc3LjAnLCAnLXRuJywgJzgnLCAnLW1hJywgJzIwMCcsICctbWV0YWxfYmluZGluZycsICctaW1hZScsICc8aW5maWxlLm1hZT4nLCAnLW9tYWUnLCAnPG91dGZpbGUubWFlPic=

> <r_lp_tautomer_probability>
1

> <r_epik_Ionization_Penalty>
0.00172037

> <r_epik_Ionization_Penalty_Charging>
0

> <r_epik_Ionization_Penalty_Neutral>
0.00172037

> <r_epik_State_Penalty>
0.00114015

> <r_epik_Charging_Adjusted_Penalty>
0.00114015

> <i_epik_Tot_Q>
0

> <i_epik_Tot_abs_Q>
0

> <r_epik_Metal_State_Penalty>
-0

> <b_epik_Metal_Only>
0

> <s_lp_Force_Field>
OPLS_2005

> <r_lp_Energy>
33.1579

> <b_lp_Chiralities_Consistent>
1

> <s_lp_Variant>
AV-unprocessed.smi:2661-2

> <Gold.Version>
5.8.1

> <Gold.Id.Protein>
6NUR|6NUR_protein|mol2

> <Gold.PLP.Fitness>
43.2769

> <Gold.PLP.PLP>
-40.5731

> <Gold.PLP.part.hbond>
-2.6754

> <Gold.PLP.part.metal>
0.0000

> <Gold.PLP.part.buried>
1.3282

> <Gold.PLP.part.nonpolar>
-39.1110

> <Gold.PLP.part.repulsive>
0.5860

> <Gold.PLP.ligand.clash>
0.0000

> <Gold.PLP.ligand.torsion>
0.3294

> <Gold.PLP.Chemscore.Hbond>
1.0000

> <Gold.PLP.Chemscore.CHOScore>
0.0000

> <Gold.PLP.Chemscore.Metal>
0.0000

> <Gold.Chemscore.Hbonds>
donor molecule, donor type, donor heavy atom, donor atom, acceptor molecule, acceptor atom, score
      L1  H     6    32       P1  7948  1.00

> <Gold.PLP.Chemscore.Internal.Correction>
0.3627

> <Gold.Rescore>
     Score         DG    S(hbond)    S(metal)    S(lipo)     H(rot)  DE(clash)    DE(int)     intcor
     12.78     -17.16       1.05        0.00      97.50       1.26       1.23       3.15       ----

> <Gold.Chemscore.Fitness>
12.7820

> <Gold.Chemscore.DG>
-17.1600

> <Gold.Chemscore.ZeroCoef>
-5.4800

> <Gold.Chemscore.Hbond>
1.0501

> <Gold.Chemscore.Metal>
0.0000

> <Gold.Chemscore.Lipo>
97.4984

> <Gold.Chemscore.Internal_Hbond>
0.0000

> <Gold.Chemscore.DEClash>
1.2305

> <Gold.Chemscore.DEInternal>
3.1475

> <Gold.Chemscore.Rot>
1.2636

> <Gold.Chemscore.Internal.Correction>
   9.000000E+99

> <Gold.Chemscore.Hbonds>
donor molecule, donor type, donor heavy atom, donor atom, acceptor molecule, acceptor atom, score
      L1  H     6    32       P1  7948  0.93

> <Gold.Chemscore.Hbond.Weighted>
-3.5074

> <Gold.Chemscore.Metal.Weighted>
-0.0000

> <Gold.Chemscore.Lipo.Weighted>
-11.4073

> <Gold.Chemscore.Internal_Hbond.Weighted>
0.0000

> <Gold.Chemscore.DEClash.Weighted>
1.2305

> <Gold.Chemscore.DEInternal.Weighted>
3.1475

> <Gold.Chemscore.Rot.Weighted>
3.2348

> <Gold.Chemscore.Internal.Correction.Weighted>
   9.000000E+99

> <Gold.Protein.RotatedTorsions>
[ 6907 6896 6895 6894 ] final   85.86 input  -60.11 | X-H torsion
[ 7974 7965 7964 7962 ] final -125.76 input  175.53 | X-H torsion
[ 8008 7997 7996 7995 ] final -123.71 input   59.86 | X-H torsion
[ 10167 10162 10161 10158 ] final  -80.46 input  -65.29 | X-H torsion
[ 10718 10713 10712 10709 ] final    1.87 input   66.30 | X-H torsion
[ 10763 10752 10751 10750 ] final  150.72 input  -60.55 | X-H torsion
[ 11005 11000 10999 10996 ] final   63.08 input  -57.11 | X-H torsion

> <Gold.Protein.ActiveResidues>
 VAL166  LYS551  ARG553  GLY616  TRP617  ASP618  TYR619  PRO620  LYS621  CYS622 
 ASP623  PHE694  ASN695  SER759  ASP760  ASP761  ALA762  ILE779  LEU786  VAL792 
 PHE793  MET794  SER795  GLU796  ALA797  LYS798  CYS799  TRP800  GLU811  SER814 

> <Gold.Protein.RotatedAtoms>
  152.5383  134.2521  159.8902 H   0  0  0  0  0  0  0  0  0  0  0  0  # atno 6907 bound_to 6896
  151.2484  133.4356  159.2618 H   0  0  0  0  0  0  0  0  0  0  0  0  # atno 6908 bound_to 6896
  151.0562  134.9720  159.8293 H   0  0  0  0  0  0  0  0  0  0  0  0  # atno 6909 bound_to 6896
  144.9943  140.7761  143.4535 H   0  0  0  0  0  0  0  0  0  0  0  0  # atno 7974 bound_to 7965
  155.1850  140.0411  157.2889 H   0  0  0  0  0  0  0  0  0  0  0  0  # atno 8008 bound_to 7997
  154.6178  140.2493  155.7560 H   0  0  0  0  0  0  0  0  0  0  0  0  # atno 8009 bound_to 7997
  156.2416  140.2901  156.0471 H   0  0  0  0  0  0  0  0  0  0  0  0  # atno 8010 bound_to 7997
  140.4501  143.2486  151.8502 H   0  0  0  0  0  0  0  0  0  0  0  0  # atno 10167 bound_to 10162
  156.8545  130.5565  149.5667 H   0  0  0  0  0  0  0  0  0  0  0  0  # atno 10718 bound_to 10713
  154.0922  135.2851  155.3269 H   0  0  0  0  0  0  0  0  0  0  0  0  # atno 10763 bound_to 10752
  154.6612  135.5334  153.8024 H   0  0  0  0  0  0  0  0  0  0  0  0  # atno 10764 bound_to 10752
  153.0409  135.6534  154.1090 H   0  0  0  0  0  0  0  0  0  0  0  0  # atno 10765 bound_to 10752
  140.0048  134.6386  155.9872 H   0  0  0  0  0  0  0  0  0  0  0  0  # atno 11005 bound_to 11000
  145.2242  139.2145  143.5077 LP  0  0  0  0  0  0  0  0  0  0  0  0  # atno 17320 bound_to 7965
  146.3438  140.2106  142.8590 LP  0  0  0  0  0  0  0  0  0  0  0  0  # atno 17321 bound_to 7965
  139.4796  144.5130  151.8906 LP  0  0  0  0  0  0  0  0  0  0  0  0  # atno 17342 bound_to 10162
  140.4218  144.2233  150.5887 LP  0  0  0  0  0  0  0  0  0  0  0  0  # atno 17343 bound_to 10162
  156.0810  130.5820  150.9562 LP  0  0  0  0  0  0  0  0  0  0  0  0  # atno 17370 bound_to 10713
  157.6284  131.0923  150.8488 LP  0  0  0  0  0  0  0  0  0  0  0  0  # atno 17371 bound_to 10713
  141.1669  133.6537  156.4512 LP  0  0  0  0  0  0  0  0  0  0  0  0  # atno 17394 bound_to 11000
  140.4660  134.6797  157.5107 LP  0  0  0  0  0  0  0  0  0  0  0  0  # atno 17395 bound_to 11000

$$$$
