AV-unprocessed.smi:141|AV-procd|sdf|1187|dock1
  -GOLD-   2262018343D 1   1.00000     0.00000
 Structure written by MMmdl.
 56 59  0  0  0  0  0  0  0  0  1 V2000
  151.3562  135.2468  155.4357 O   0  0  0  0  0  0  0  0  0  0  0  0
  150.5769  135.6026  156.3222 C   0  0  0  0  0  0  0  0  0  0  0  0
  149.1740  134.9624  156.3881 C   0  0  0  0  0  0  0  0  0  0  0  0
  148.9288  133.9514  155.3351 N   0  0  0  0  0  0  0  0  0  0  0  0
  149.6991  132.7618  155.3412 C   0  0  0  0  0  0  0  0  0  0  0  0
  150.5690  132.5680  156.1916 O   0  0  0  0  0  0  0  0  0  0  0  0
  149.3800  131.7998  154.2925 C   0  0  0  0  0  0  0  0  0  0  0  0
  150.0499  130.6366  154.2291 F   0  0  0  0  0  0  0  0  0  0  0  0
  148.4166  132.0569  153.3844 C   0  0  0  0  0  0  0  0  0  0  0  0
  147.6859  133.2289  153.3770 N   0  0  0  0  0  0  0  0  0  0  0  0
  146.5891  133.4076  152.3529 C   0  0  2  0  0  0  0  0  0  0  0  0
  145.4544  132.3728  152.4750 C   0  0  0  0  0  0  0  0  0  0  0  0
  145.4489  131.7117  151.1063 C   0  0  0  0  0  0  0  0  0  0  0  0
  146.1436  132.7458  150.2275 C   0  0  0  0  0  0  0  0  0  0  0  0
  147.1440  133.2797  151.0802 O   0  0  0  0  0  0  0  0  0  0  0  0
  147.9093  134.1967  154.3837 C   0  0  0  0  0  0  0  0  0  0  0  0
  147.2305  135.2237  154.4388 O   0  0  0  0  0  0  0  0  0  0  0  0
  150.9151  136.5357  157.2452 N   0  0  0  0  0  0  0  0  0  0  0  0
  152.1847  137.2721  157.2917 C   0  0  0  0  0  0  0  0  0  0  0  0
  151.9200  138.7307  156.8791 C   0  0  0  0  0  0  0  0  0  0  0  0
  150.8591  139.3835  157.7938 C   0  0  0  0  0  0  0  0  0  0  0  0
  150.5147  140.8208  157.3439 C   0  0  0  0  0  0  0  0  0  0  0  0
  151.4031  141.8640  157.9951 C   0  0  0  0  0  0  0  0  0  0  0  0
  151.1975  143.2346  157.7321 C   0  0  0  0  0  0  0  0  0  0  0  0
  152.0188  144.2025  158.3425 C   0  0  0  0  0  0  0  0  0  0  0  0
  153.0478  143.8032  159.2175 C   0  0  0  0  0  0  0  0  0  0  0  0
  153.2534  142.4357  159.4845 C   0  0  0  0  0  0  0  0  0  0  0  0
  152.4321  141.4674  158.8749 C   0  0  0  0  0  0  0  0  0  0  0  0
  149.6011  138.4907  157.8944 C   0  0  0  0  0  0  0  0  0  0  0  0
  149.9696  137.0381  158.2495 C   0  0  0  0  0  0  0  0  0  0  0  0
  149.0345  134.5157  157.3738 H   0  0  0  0  0  0  0  0  0  0  0  0
  148.4261  135.7552  156.3402 H   0  0  0  0  0  0  0  0  0  0  0  0
  148.2158  131.3083  152.6320 H   0  0  0  0  0  0  0  0  0  0  0  0
  146.2203  134.4261  152.4814 H   0  0  0  0  0  0  0  0  0  0  0  0
  145.6157  131.6662  153.2896 H   0  0  0  0  0  0  0  0  0  0  0  0
  144.5196  132.9035  152.6586 H   0  0  0  0  0  0  0  0  0  0  0  0
  146.0337  130.7919  151.1307 H   0  0  0  0  0  0  0  0  0  0  0  0
  144.4463  131.4640  150.7570 H   0  0  0  0  0  0  0  0  0  0  0  0
  146.5732  132.3119  149.3243 H   0  0  0  0  0  0  0  0  0  0  0  0
  145.4516  133.5375  149.9356 H   0  0  0  0  0  0  0  0  0  0  0  0
  152.5804  137.2401  158.3080 H   0  0  0  0  0  0  0  0  0  0  0  0
  152.9673  136.8438  156.6680 H   0  0  0  0  0  0  0  0  0  0  0  0
  152.8486  139.3011  156.9210 H   0  0  0  0  0  0  0  0  0  0  0  0
  151.5854  138.7577  155.8409 H   0  0  0  0  0  0  0  0  0  0  0  0
  151.2958  139.4277  158.7933 H   0  0  0  0  0  0  0  0  0  0  0  0
  150.6058  140.9187  156.2613 H   0  0  0  0  0  0  0  0  0  0  0  0
  149.4735  141.0587  157.5663 H   0  0  0  0  0  0  0  0  0  0  0  0
  150.4080  143.5468  157.0638 H   0  0  0  0  0  0  0  0  0  0  0  0
  151.8583  145.2511  158.1398 H   0  0  0  0  0  0  0  0  0  0  0  0
  153.6777  144.5456  159.6849 H   0  0  0  0  0  0  0  0  0  0  0  0
  154.0405  142.1287  160.1576 H   0  0  0  0  0  0  0  0  0  0  0  0
  152.5919  140.4199  159.0859 H   0  0  0  0  0  0  0  0  0  0  0  0
  148.9180  138.8928  158.6434 H   0  0  0  0  0  0  0  0  0  0  0  0
  149.0620  138.5011  156.9458 H   0  0  0  0  0  0  0  0  0  0  0  0
  149.0646  136.4334  158.3213 H   0  0  0  0  0  0  0  0  0  0  0  0
  150.4317  136.9963  159.2367 H   0  0  0  0  0  0  0  0  0  0  0  0
  1  2  2  0  0  0  0
  2  3  1  0  0  0  0
  2 18  1  0  0  0  0
  3  4  1  0  0  0  0
  3 31  1  0  0  0  0
  3 32  1  0  0  0  0
  4 16  1  0  0  0  0
  4  5  1  0  0  0  0
  5  6  2  0  0  0  0
  5  7  1  0  0  0  0
  7  8  1  0  0  0  0
  7  9  2  0  0  0  0
  9 10  1  0  0  0  0
  9 33  1  0  0  0  0
 10 11  1  0  0  0  0
 10 16  1  0  0  0  0
 11 15  1  0  0  0  0
 11 12  1  0  0  0  0
 11 34  1  0  0  0  0
 12 13  1  0  0  0  0
 12 35  1  0  0  0  0
 12 36  1  0  0  0  0
 13 14  1  0  0  0  0
 13 37  1  0  0  0  0
 13 38  1  0  0  0  0
 14 15  1  0  0  0  0
 14 39  1  0  0  0  0
 14 40  1  0  0  0  0
 16 17  2  0  0  0  0
 18 30  1  0  0  0  0
 18 19  1  0  0  0  0
 19 20  1  0  0  0  0
 19 41  1  0  0  0  0
 19 42  1  0  0  0  0
 20 21  1  0  0  0  0
 20 43  1  0  0  0  0
 20 44  1  0  0  0  0
 21 22  1  0  0  0  0
 21 29  1  0  0  0  0
 21 45  1  0  0  0  0
 22 23  1  0  0  0  0
 22 46  1  0  0  0  0
 22 47  1  0  0  0  0
 23 28  1  0  0  0  0
 23 24  2  0  0  0  0
 24 25  1  0  0  0  0
 24 48  1  0  0  0  0
 25 26  2  0  0  0  0
 25 49  1  0  0  0  0
 26 27  1  0  0  0  0
 26 50  1  0  0  0  0
 27 28  2  0  0  0  0
 27 51  1  0  0  0  0
 28 52  1  0  0  0  0
 29 30  1  0  0  0  0
 29 53  1  0  0  0  0
 29 54  1  0  0  0  0
 30 55  1  0  0  0  0
 30 56  1  0  0  0  0
M  END
> <s_m_source_file>
AV-unprocessed.smi

> <i_m_source_file_index>
141

> <i_lp_mmshare_version>
43012

> <i_f3d_flags>
0

> <s_epik_input>
W2NIXTFbY0hdW2NIXVtjSF1bY0hdYzFbQ0gyXVtDSF0oW0NIMl1bQ0gyXTIpW0NIMl1bQ0gyXU4yQyg9TylbQ0gyXW4zYyg9TyljKEYpW2NIXW4oYzM9TylbQ0BASF00W0NIMl1bQ0gyXVtDSDJdTzQ=

> <s_epik_cmdline>
J2VwaWtfcHl0aG9uJywgJy1waCcsICc3LjAnLCAnLXRuJywgJzgnLCAnLW1hJywgJzIwMCcsICctbWV0YWxfYmluZGluZycsICctaW1hZScsICc8aW5maWxlLm1hZT4nLCAnLW9tYWUnLCAnPG91dGZpbGUubWFlPic=

> <r_lp_tautomer_probability>
1

> <r_epik_Ionization_Penalty>
3.78313e-08

> <r_epik_Ionization_Penalty_Charging>
4.95074e-09

> <r_epik_Ionization_Penalty_Neutral>
3.28806e-08

> <r_epik_State_Penalty>
-0

> <r_epik_Charging_Adjusted_Penalty>
4.95074e-09

> <i_epik_Tot_Q>
0

> <i_epik_Tot_abs_Q>
0

> <r_epik_Metal_State_Penalty>
-0

> <b_epik_Metal_Only>
0

> <s_epik_Chemistry_Notes>
This compound contains an acetal/aminal-like group ( X-CH(R)-Y where X, Y are N, S, or O) that may be acid/base labile, releasing an aldehyde.

> <s_lp_Force_Field>
OPLS_2005

> <r_lp_Energy>
44.5211

> <b_lp_Chiralities_Consistent>
1

> <s_lp_Variant>
AV-unprocessed.smi:141-1

> <Gold.Version>
5.8.1

> <Gold.Id.Protein>
6NUR|6NUR_protein|mol2

> <Gold.PLP.Fitness>
54.6734

> <Gold.PLP.PLP>
-49.5343

> <Gold.PLP.part.hbond>
-1.0000

> <Gold.PLP.part.metal>
0.0000

> <Gold.PLP.part.buried>
-5.5416

> <Gold.PLP.part.nonpolar>
-43.1670

> <Gold.PLP.part.repulsive>
0.4238

> <Gold.PLP.ligand.clash>
0.0000

> <Gold.PLP.ligand.torsion>
0.4965

> <Gold.PLP.Chemscore.Hbond>
1.0000

> <Gold.PLP.Chemscore.CHOScore>
0.9968

> <Gold.PLP.Chemscore.Metal>
0.0000

> <Gold.Chemscore.Hbonds>
donor molecule, donor type, donor heavy atom, donor atom, acceptor molecule, acceptor atom, score
      P1  H 10752 10764       L1     1  0.99
      L1  C     9    33       P1 10747  1.00

> <Gold.PLP.Chemscore.Internal.Correction>
0.1416

> <Gold.Rescore>
     Score         DG    S(hbond)    S(metal)    S(lipo)     H(rot)  DE(clash)    DE(int)     intcor
     18.52     -19.18       0.99        0.00     129.33       1.85       0.04       0.62       ----

> <Gold.Chemscore.Fitness>
18.5233

> <Gold.Chemscore.DG>
-19.1760

> <Gold.Chemscore.ZeroCoef>
-5.4800

> <Gold.Chemscore.Hbond>
0.9850

> <Gold.Chemscore.Metal>
0.0000

> <Gold.Chemscore.Lipo>
129.3324

> <Gold.Chemscore.Internal_Hbond>
0.0000

> <Gold.Chemscore.DEClash>
0.0363

> <Gold.Chemscore.DEInternal>
0.6164

> <Gold.Chemscore.Rot>
1.8461

> <Gold.Chemscore.Internal.Correction>
   9.000000E+99

> <Gold.Chemscore.Hbonds>
donor molecule, donor type, donor heavy atom, donor atom, acceptor molecule, acceptor atom, score
      P1  H 10752 10764       L1     1  0.94

> <Gold.Chemscore.Hbond.Weighted>
-3.2901

> <Gold.Chemscore.Metal.Weighted>
-0.0000

> <Gold.Chemscore.Lipo.Weighted>
-15.1319

> <Gold.Chemscore.Internal_Hbond.Weighted>
0.0000

> <Gold.Chemscore.DEClash.Weighted>
0.0363

> <Gold.Chemscore.DEInternal.Weighted>
0.6164

> <Gold.Chemscore.Rot.Weighted>
4.7260

> <Gold.Chemscore.Internal.Correction.Weighted>
   9.000000E+99

> <Gold.Protein.RotatedTorsions>
[ 6907 6896 6895 6894 ] final  136.41 input  -60.11 | X-H torsion
[ 7974 7965 7964 7962 ] final -169.16 input  175.53 | X-H torsion
[ 8008 7997 7996 7995 ] final  173.61 input   59.86 | X-H torsion
[ 10167 10162 10161 10158 ] final -162.81 input  -65.29 | X-H torsion
[ 10718 10713 10712 10709 ] final  124.77 input   66.30 | X-H torsion
[ 10763 10752 10751 10750 ] final  -52.61 input  -60.55 | X-H torsion
[ 11005 11000 10999 10996 ] final -109.18 input  -57.11 | X-H torsion

> <Gold.Protein.ActiveResidues>
 VAL166  LYS551  ARG553  GLY616  TRP617  ASP618  TYR619  PRO620  LYS621  CYS622 
 ASP623  PHE694  ASN695  SER759  ASP760  ASP761  ALA762  ILE779  LEU786  VAL792 
 PHE793  MET794  SER795  GLU796  ALA797  LYS798  CYS799  TRP800  GLU811  SER814 

> <Gold.Protein.RotatedAtoms>
  152.2896  133.5548  159.5548 H   0  0  0  0  0  0  0  0  0  0  0  0  # atno 6907 bound_to 6896
  150.7230  134.0448  159.3787 H   0  0  0  0  0  0  0  0  0  0  0  0  # atno 6908 bound_to 6896
  151.8354  135.0608  160.0492 H   0  0  0  0  0  0  0  0  0  0  0  0  # atno 6909 bound_to 6896
  144.7190  140.2262  143.6310 H   0  0  0  0  0  0  0  0  0  0  0  0  # atno 7974 bound_to 7965
  156.1058  140.1455  156.9406 H   0  0  0  0  0  0  0  0  0  0  0  0  # atno 8008 bound_to 7997
  154.4733  140.0903  156.7242 H   0  0  0  0  0  0  0  0  0  0  0  0  # atno 8009 bound_to 7997
  155.4682  140.3441  155.4324 H   0  0  0  0  0  0  0  0  0  0  0  0  # atno 8010 bound_to 7997
  139.6365  144.0340  152.2058 H   0  0  0  0  0  0  0  0  0  0  0  0  # atno 10167 bound_to 10162
  157.5557  131.1092  150.8625 H   0  0  0  0  0  0  0  0  0  0  0  0  # atno 10718 bound_to 10713
  154.1455  135.6498  153.4952 H   0  0  0  0  0  0  0  0  0  0  0  0  # atno 10763 bound_to 10752
  153.0153  135.5325  154.6861 H   0  0  0  0  0  0  0  0  0  0  0  0  # atno 10764 bound_to 10752
  154.6134  135.2956  155.0378 H   0  0  0  0  0  0  0  0  0  0  0  0  # atno 10765 bound_to 10752
  141.0861  133.9135  157.2181 H   0  0  0  0  0  0  0  0  0  0  0  0  # atno 11005 bound_to 11000
  145.8454  139.2149  143.1803 LP  0  0  0  0  0  0  0  0  0  0  0  0  # atno 17320 bound_to 7965
  146.0309  140.8259  142.9876 LP  0  0  0  0  0  0  0  0  0  0  0  0  # atno 17321 bound_to 7965
  140.0018  144.6287  150.7723 LP  0  0  0  0  0  0  0  0  0  0  0  0  # atno 17342 bound_to 10162
  140.7468  143.2896  151.3366 LP  0  0  0  0  0  0  0  0  0  0  0  0  # atno 17343 bound_to 10162
  156.9137  130.5290  149.5280 LP  0  0  0  0  0  0  0  0  0  0  0  0  # atno 17370 bound_to 10713
  156.0617  130.5668  150.9205 LP  0  0  0  0  0  0  0  0  0  0  0  0  # atno 17371 bound_to 10713
  139.9680  135.0136  156.9438 LP  0  0  0  0  0  0  0  0  0  0  0  0  # atno 17394 bound_to 11000
  140.5358  134.0768  155.7328 LP  0  0  0  0  0  0  0  0  0  0  0  0  # atno 17395 bound_to 11000

$$$$
