AV-unprocessed.smi:3280|AV-procd|sdf|12552|dock6
  -GOLD-   2272018473D 1   1.00000     0.00000
 Structure written by MMmdl.
 39 40  0  0  0  0  0  0  0  0  2 V2000
  145.3927  143.7343  154.1429 C   0  0  0  0  0  0  0  0  0  0  0  0
  145.7029  142.4144  154.8650 C   0  0  0  0  0  0  0  0  0  0  0  0
  145.3402  142.4486  156.3570 C   0  0  0  0  0  0  0  0  0  0  0  0
  147.1213  141.9821  154.6509 C   0  0  0  0  0  0  0  0  0  0  0  0
  147.5534  141.6081  153.4517 N   0  0  0  0  0  0  0  0  0  0  0  0
  148.8934  141.2653  153.6799 O   0  0  0  0  0  0  0  0  0  0  0  0
  149.1126  141.4914  154.9967 C   0  0  0  0  0  0  0  0  0  0  0  0
  150.4522  141.1700  155.5693 C   0  0  0  0  0  0  0  0  0  0  0  0
  150.6527  141.7824  156.9612 C   0  0  0  0  0  0  0  0  0  0  0  0
  151.2337  143.1386  156.8644 N   0  3  0  0  0  0  0  0  0  0  0  0
  151.8905  143.6416  158.0924 C   0  0  2  0  0  0  0  0  0  0  0  0
  152.5566  142.4615  158.8277 C   0  0  0  0  0  0  0  0  0  0  0  0
  153.3458  142.8966  160.0733 C   0  0  0  0  0  0  0  0  0  0  0  0
  152.4559  143.5751  161.1229 C   0  0  0  0  0  0  0  0  0  0  0  0
  151.7072  145.0868  160.4613 S   0  0  0  0  0  0  0  0  0  0  0  0
  150.8877  144.3750  159.0083 C   0  0  0  0  0  0  0  0  0  0  0  0
  148.0394  141.9168  155.6566 N   0  0  0  0  0  0  0  0  0  0  0  0
  145.5961  143.6549  153.0745 H   0  0  0  0  0  0  0  0  0  0  0  0
  145.9942  144.5540  154.5370 H   0  0  0  0  0  0  0  0  0  0  0  0
  144.3436  144.0072  154.2599 H   0  0  0  0  0  0  0  0  0  0  0  0
  145.0610  141.6584  154.4092 H   0  0  0  0  0  0  0  0  0  0  0  0
  145.5023  141.4756  156.8220 H   0  0  0  0  0  0  0  0  0  0  0  0
  144.2919  142.7119  156.4998 H   0  0  0  0  0  0  0  0  0  0  0  0
  145.9423  143.1808  156.8957 H   0  0  0  0  0  0  0  0  0  0  0  0
  150.5581  140.0853  155.6156 H   0  0  0  0  0  0  0  0  0  0  0  0
  151.2193  141.5320  154.8832 H   0  0  0  0  0  0  0  0  0  0  0  0
  149.6943  141.8344  157.4801 H   0  0  0  0  0  0  0  0  0  0  0  0
  151.3067  141.1407  157.5515 H   0  0  0  0  0  0  0  0  0  0  0  0
  151.8971  143.1639  156.1031 H   0  0  0  0  0  0  0  0  0  0  0  0
  152.6742  144.3383  157.7905 H   0  0  0  0  0  0  0  0  0  0  0  0
  151.8012  141.7286  159.1149 H   0  0  0  0  0  0  0  0  0  0  0  0
  153.2358  141.9464  158.1472 H   0  0  0  0  0  0  0  0  0  0  0  0
  153.8221  142.0230  160.5192 H   0  0  0  0  0  0  0  0  0  0  0  0
  154.1540  143.5697  159.7843 H   0  0  0  0  0  0  0  0  0  0  0  0
  151.6655  142.8983  161.4492 H   0  0  0  0  0  0  0  0  0  0  0  0
  153.0414  143.8326  162.0058 H   0  0  0  0  0  0  0  0  0  0  0  0
  150.3972  145.1937  158.4830 H   0  0  0  0  0  0  0  0  0  0  0  0
  150.1032  143.6949  159.3422 H   0  0  0  0  0  0  0  0  0  0  0  0
  150.4766  143.7717  156.6488 H   0  0  0  0  0  0  0  0  0  0  0  0
  1  2  1  0  0  0  0
  1 18  1  0  0  0  0
  1 19  1  0  0  0  0
  1 20  1  0  0  0  0
  2  3  1  0  0  0  0
  2  4  1  0  0  0  0
  2 21  1  0  0  0  0
  3 22  1  0  0  0  0
  3 23  1  0  0  0  0
  3 24  1  0  0  0  0
  4 17  1  0  0  0  0
  4  5  2  0  0  0  0
  5  6  1  0  0  0  0
  6  7  1  0  0  0  0
  7  8  1  0  0  0  0
  7 17  2  0  0  0  0
  8  9  1  0  0  0  0
  8 25  1  0  0  0  0
  8 26  1  0  0  0  0
  9 10  1  0  0  0  0
  9 27  1  0  0  0  0
  9 28  1  0  0  0  0
 10 11  1  0  0  0  0
 10 29  1  0  0  0  0
 10 39  1  0  0  0  0
 11 16  1  0  0  0  0
 11 12  1  0  0  0  0
 11 30  1  0  0  0  0
 12 13  1  0  0  0  0
 12 31  1  0  0  0  0
 12 32  1  0  0  0  0
 13 14  1  0  0  0  0
 13 33  1  0  0  0  0
 13 34  1  0  0  0  0
 14 15  1  0  0  0  0
 14 35  1  0  0  0  0
 14 36  1  0  0  0  0
 15 16  1  0  0  0  0
 16 37  1  0  0  0  0
 16 38  1  0  0  0  0
M  CHG  1  10   1
M  END
> <s_m_source_file>
AV-unprocessed.smi

> <i_m_source_file_index>
3280

> <i_lp_mmshare_version>
43012

> <i_f3d_flags>
0

> <s_epik_input>
W0NIM11bQ0hdKFtDSDNdKWMxbm9jKG4xKVtDSDJdW0NIMl1bTkhdW0NAQEhdMltDSDJdW0NIMl1bQ0gyXVNbQ0gyXTI=

> <s_epik_cmdline>
J2VwaWtfcHl0aG9uJywgJy1waCcsICc3LjAnLCAnLXRuJywgJzgnLCAnLW1hJywgJzIwMCcsICctbWV0YWxfYmluZGluZycsICctaW1hZScsICc8aW5maWxlLm1hZT4nLCAnLW9tYWUnLCAnPG91dGZpbGUubWFlPic=

> <r_lp_tautomer_probability>
1

> <r_epik_Ionization_Penalty>
0.0103043

> <r_epik_Ionization_Penalty_Charging>
0.0103043

> <r_epik_Ionization_Penalty_Neutral>
2.61801e-13

> <r_epik_State_Penalty>
0.0078728

> <r_epik_Charging_Adjusted_Penalty>
0.0181771

> <i_epik_Tot_Q>
1

> <i_epik_Tot_abs_Q>
1

> <r_epik_Metal_State_Penalty>
0.0078728

> <b_epik_Metal_Only>
0

> <s_lp_Force_Field>
OPLS_2005

> <r_lp_Energy>
0.790669

> <b_lp_Chiralities_Consistent>
1

> <s_lp_Variant>
AV-unprocessed.smi:3280-1

> <Gold.Version>
5.8.1

> <Gold.Id.Protein>
6NUR|6NUR_protein|mol2

> <Gold.PLP.Fitness>
44.8531

> <Gold.PLP.PLP>
-37.9905

> <Gold.PLP.part.hbond>
-2.3743

> <Gold.PLP.part.metal>
0.0000

> <Gold.PLP.part.buried>
-4.5453

> <Gold.PLP.part.nonpolar>
-34.8386

> <Gold.PLP.part.repulsive>
2.9872

> <Gold.PLP.ligand.clash>
0.0000

> <Gold.PLP.ligand.torsion>
1.0079

> <Gold.PLP.Chemscore.Hbond>
2.9280

> <Gold.PLP.Chemscore.CHOScore>
0.0000

> <Gold.PLP.Chemscore.Metal>
0.0000

> <Gold.Chemscore.Hbonds>
donor molecule, donor type, donor heavy atom, donor atom, acceptor molecule, acceptor atom, score
      L1  H    10    39       P1  8028  1.72
      P1  H  8011  8017       L1     6  0.88

> <Gold.PLP.Chemscore.Internal.Correction>
0.0943

> <Gold.Rescore>
     Score         DG    S(hbond)    S(metal)    S(lipo)     H(rot)  DE(clash)    DE(int)     intcor
     14.91     -17.06       1.40        0.00      97.50       1.76       1.18       0.96       ----

> <Gold.Chemscore.Fitness>
14.9133

> <Gold.Chemscore.DG>
-17.0607

> <Gold.Chemscore.ZeroCoef>
-5.4800

> <Gold.Chemscore.Hbond>
1.3987

> <Gold.Chemscore.Metal>
0.0000

> <Gold.Chemscore.Lipo>
97.4988

> <Gold.Chemscore.Internal_Hbond>
0.0000

> <Gold.Chemscore.DEClash>
1.1834

> <Gold.Chemscore.DEInternal>
0.9640

> <Gold.Chemscore.Rot>
1.7572

> <Gold.Chemscore.Internal.Correction>
   9.000000E+99

> <Gold.Chemscore.Hbonds>
donor molecule, donor type, donor heavy atom, donor atom, acceptor molecule, acceptor atom, score
      L1  H    10    39       P1  8028  0.84
      P1  H  8011  8017       L1     6  0.21

> <Gold.Chemscore.Hbond.Weighted>
-4.6717

> <Gold.Chemscore.Metal.Weighted>
-0.0000

> <Gold.Chemscore.Lipo.Weighted>
-11.4074

> <Gold.Chemscore.Internal_Hbond.Weighted>
0.0000

> <Gold.Chemscore.DEClash.Weighted>
1.1834

> <Gold.Chemscore.DEInternal.Weighted>
0.9640

> <Gold.Chemscore.Rot.Weighted>
4.4984

> <Gold.Chemscore.Internal.Correction.Weighted>
   9.000000E+99

> <Gold.Protein.RotatedTorsions>
[ 6907 6896 6895 6894 ] final   23.08 input  -60.11 | X-H torsion
[ 7974 7965 7964 7962 ] final  114.34 input  175.53 | X-H torsion
[ 8008 7997 7996 7995 ] final   36.27 input   59.86 | X-H torsion
[ 10167 10162 10161 10158 ] final -123.66 input  -65.29 | X-H torsion
[ 10718 10713 10712 10709 ] final -163.48 input   66.30 | X-H torsion
[ 10763 10752 10751 10750 ] final  159.39 input  -60.55 | X-H torsion
[ 11005 11000 10999 10996 ] final  143.29 input  -57.11 | X-H torsion

> <Gold.Protein.ActiveResidues>
 VAL166  LYS551  ARG553  GLY616  TRP617  ASP618  TYR619  PRO620  LYS621  CYS622 
 ASP623  PHE694  ASN695  SER759  ASP760  ASP761  ALA762  ILE779  LEU786  VAL792 
 PHE793  MET794  SER795  GLU796  ALA797  LYS798  CYS799  TRP800  GLU811  SER814 

> <Gold.Protein.RotatedAtoms>
  151.9369  135.0231  160.0532 H   0  0  0  0  0  0  0  0  0  0  0  0  # atno 6907 bound_to 6896
  152.2070  133.4878  159.5098 H   0  0  0  0  0  0  0  0  0  0  0  0  # atno 6908 bound_to 6896
  150.6967  134.1433  159.4156 H   0  0  0  0  0  0  0  0  0  0  0  0  # atno 6909 bound_to 6896
  145.2056  139.2931  143.4295 H   0  0  0  0  0  0  0  0  0  0  0  0  # atno 7974 bound_to 7965
  155.1847  140.3303  155.4369 H   0  0  0  0  0  0  0  0  0  0  0  0  # atno 8008 bound_to 7997
  156.2464  140.1921  156.6893 H   0  0  0  0  0  0  0  0  0  0  0  0  # atno 8009 bound_to 7997
  154.6247  140.0590  156.9644 H   0  0  0  0  0  0  0  0  0  0  0  0  # atno 8010 bound_to 7997
  140.0011  143.5539  152.2303 H   0  0  0  0  0  0  0  0  0  0  0  0  # atno 10167 bound_to 10162
  156.6253  130.8907  151.2966 H   0  0  0  0  0  0  0  0  0  0  0  0  # atno 10718 bound_to 10713
  154.2311  135.2778  155.2889 H   0  0  0  0  0  0  0  0  0  0  0  0  # atno 10763 bound_to 10752
  154.5623  135.5643  153.7022 H   0  0  0  0  0  0  0  0  0  0  0  0  # atno 10764 bound_to 10752
  153.0020  135.6301  154.2453 H   0  0  0  0  0  0  0  0  0  0  0  0  # atno 10765 bound_to 10752
  140.0543  134.9239  157.1072 H   0  0  0  0  0  0  0  0  0  0  0  0  # atno 11005 bound_to 11000
  146.3408  140.2315  142.8593 LP  0  0  0  0  0  0  0  0  0  0  0  0  # atno 17320 bound_to 7965
  144.9905  140.8543  143.5342 LP  0  0  0  0  0  0  0  0  0  0  0  0  # atno 17321 bound_to 7965
  139.6271  144.7639  151.2616 LP  0  0  0  0  0  0  0  0  0  0  0  0  # atno 17342 bound_to 10162
  140.7418  143.6545  150.8219 LP  0  0  0  0  0  0  0  0  0  0  0  0  # atno 17343 bound_to 10162
  157.7216  130.9566  150.1461 LP  0  0  0  0  0  0  0  0  0  0  0  0  # atno 17370 bound_to 10713
  156.2278  130.3679  149.8480 LP  0  0  0  0  0  0  0  0  0  0  0  0  # atno 17371 bound_to 10713
  140.3869  134.2226  155.7168 LP  0  0  0  0  0  0  0  0  0  0  0  0  # atno 17394 bound_to 11000
  141.1944  133.8128  157.0756 LP  0  0  0  0  0  0  0  0  0  0  0  0  # atno 17395 bound_to 11000

$$$$
