AV-unprocessed.smi:2453|AV-procd|sdf|9690|dock4
  -GOLD-   2272013323D 1   1.00000     0.00000
 Structure written by MMmdl.
 40 41  0  0  0  0  0  0  0  0  1 V2000
  150.7930  135.9282  154.6542 C   0  0  0  0  0  0  0  0  0  0  0  0
  150.4682  134.6182  155.3504 C   0  0  0  0  0  0  0  0  0  0  0  0
  151.1961  134.2312  156.4963 C   0  0  0  0  0  0  0  0  0  0  0  0
  150.9687  133.0871  157.1740 N   0  0  0  0  0  0  0  0  0  0  0  0
  149.9871  132.2774  156.7271 C   0  0  0  0  0  0  0  0  0  0  0  0
  149.1988  132.5648  155.5960 C   0  0  0  0  0  0  0  0  0  0  0  0
  149.4469  133.7591  154.8767 C   0  0  0  0  0  0  0  0  0  0  0  0
  148.6921  134.1570  153.7365 N   0  0  0  0  0  0  0  0  0  0  0  0
  147.5898  133.5922  153.2142 C   0  0  0  0  0  0  0  0  0  0  0  0
  147.0545  132.5611  153.6210 O   0  0  0  0  0  0  0  0  0  0  0  0
  147.1420  134.2925  152.1619 N   0  0  0  0  0  0  0  0  0  0  0  0
  145.9687  133.9540  151.3578 C   0  0  1  0  0  0  0  0  0  0  0  0
  146.2865  132.7388  150.4599 C   0  0  0  0  0  0  0  0  0  0  0  0
  145.0636  132.2996  149.6421 C   0  0  0  0  0  0  0  0  0  0  0  0
  143.8704  131.9936  150.5572 C   0  0  0  0  0  0  0  0  0  0  0  0
  143.5306  133.2036  151.4401 C   0  0  0  0  0  0  0  0  0  0  0  0
  144.7464  133.6703  152.2705 C   0  0  2  0  0  0  0  0  0  0  0  0
  144.3781  134.8460  153.2036 C   0  0  0  0  0  0  0  0  0  0  0  0
  143.3046  134.5180  154.0619 O   0  0  0  0  0  0  0  0  0  0  0  0
  151.6219  136.4420  155.1418 H   0  0  0  0  0  0  0  0  0  0  0  0
  149.9280  136.5916  154.6705 H   0  0  0  0  0  0  0  0  0  0  0  0
  151.0723  135.7480  153.6157 H   0  0  0  0  0  0  0  0  0  0  0  0
  151.9841  134.8593  156.8853 H   0  0  0  0  0  0  0  0  0  0  0  0
  149.8179  131.3738  157.2936 H   0  0  0  0  0  0  0  0  0  0  0  0
  148.4180  131.8752  155.3157 H   0  0  0  0  0  0  0  0  0  0  0  0
  149.0629  134.9485  153.2320 H   0  0  0  0  0  0  0  0  0  0  0  0
  147.6483  135.1240  151.8954 H   0  0  0  0  0  0  0  0  0  0  0  0
  145.7240  134.8016  150.7145 H   0  0  0  0  0  0  0  0  0  0  0  0
  147.1080  132.9754  149.7825 H   0  0  0  0  0  0  0  0  0  0  0  0
  146.6265  131.9044  151.0749 H   0  0  0  0  0  0  0  0  0  0  0  0
  144.7927  133.0864  148.9369 H   0  0  0  0  0  0  0  0  0  0  0  0
  145.3109  131.4208  149.0461 H   0  0  0  0  0  0  0  0  0  0  0  0
  143.0033  131.7170  149.9568 H   0  0  0  0  0  0  0  0  0  0  0  0
  144.1003  131.1320  151.1856 H   0  0  0  0  0  0  0  0  0  0  0  0
  143.1776  134.0189  150.8074 H   0  0  0  0  0  0  0  0  0  0  0  0
  142.7026  132.9480  152.1020 H   0  0  0  0  0  0  0  0  0  0  0  0
  145.0183  132.8367  152.9204 H   0  0  0  0  0  0  0  0  0  0  0  0
  145.2372  135.1238  153.8149 H   0  0  0  0  0  0  0  0  0  0  0  0
  144.1079  135.7315  152.6281 H   0  0  0  0  0  0  0  0  0  0  0  0
  143.4095  133.6234  154.3482 H   0  0  0  0  0  0  0  0  0  0  0  0
  1  2  1  0  0  0  0
  1 20  1  0  0  0  0
  1 21  1  0  0  0  0
  1 22  1  0  0  0  0
  2  7  1  0  0  0  0
  2  3  2  0  0  0  0
  3  4  1  0  0  0  0
  3 23  1  0  0  0  0
  4  5  2  0  0  0  0
  5  6  1  0  0  0  0
  5 24  1  0  0  0  0
  6  7  2  0  0  0  0
  6 25  1  0  0  0  0
  7  8  1  0  0  0  0
  8  9  1  0  0  0  0
  8 26  1  0  0  0  0
  9 10  2  0  0  0  0
  9 11  1  0  0  0  0
 11 12  1  0  0  0  0
 11 27  1  0  0  0  0
 12 17  1  0  0  0  0
 12 13  1  0  0  0  0
 12 28  1  0  0  0  0
 13 14  1  0  0  0  0
 13 29  1  0  0  0  0
 13 30  1  0  0  0  0
 14 15  1  0  0  0  0
 14 31  1  0  0  0  0
 14 32  1  0  0  0  0
 15 16  1  0  0  0  0
 15 33  1  0  0  0  0
 15 34  1  0  0  0  0
 16 17  1  0  0  0  0
 16 35  1  0  0  0  0
 16 36  1  0  0  0  0
 17 18  1  0  0  0  0
 17 37  1  0  0  0  0
 18 19  1  0  0  0  0
 18 38  1  0  0  0  0
 18 39  1  0  0  0  0
 19 40  1  0  0  0  0
M  END
> <s_m_source_file>
AV-unprocessed.smi

> <i_m_source_file_index>
2453

> <i_lp_mmshare_version>
43012

> <i_f3d_flags>
0

> <s_epik_input>
W0NIM11jMVtjSF1uW2NIXVtjSF1jMVtOSF1DKD1PKVtOSF1bQ0BASF0yW0NIMl1bQ0gyXVtDSDJdW0NIMl1bQ0BIXTJbQ0gyXVtPSF0=

> <s_epik_cmdline>
J2VwaWtfcHl0aG9uJywgJy1waCcsICc3LjAnLCAnLXRuJywgJzgnLCAnLW1hJywgJzIwMCcsICctbWV0YWxfYmluZGluZycsICctaW1hZScsICc8aW5maWxlLm1hZT4nLCAnLW9tYWUnLCAnPG91dGZpbGUubWFlPic=

> <r_epik_Ionization_Penalty>
0.210691

> <r_epik_Ionization_Penalty_Charging>
0

> <r_epik_Ionization_Penalty_Neutral>
0.210691

> <r_epik_State_Penalty>
0.200732

> <r_epik_Charging_Adjusted_Penalty>
0.200732

> <i_epik_Tot_Q>
0

> <i_epik_Tot_abs_Q>
0

> <r_epik_Metal_State_Penalty>
0.147519

> <b_epik_Metal_Only>
0

> <s_lp_Force_Field>
OPLS_2005

> <r_lp_Energy>
20.8004

> <b_lp_Chiralities_Consistent>
1

> <s_lp_Variant>
AV-unprocessed.smi:2453-4

> <Gold.Version>
5.8.1

> <Gold.Id.Protein>
6NUR|6NUR_protein|mol2

> <Gold.PLP.Fitness>
44.8024

> <Gold.PLP.PLP>
-33.5966

> <Gold.PLP.part.hbond>
-4.0000

> <Gold.PLP.part.metal>
0.0000

> <Gold.PLP.part.buried>
-3.1471

> <Gold.PLP.part.nonpolar>
-25.4181

> <Gold.PLP.part.repulsive>
0.1165

> <Gold.PLP.ligand.clash>
0.0000

> <Gold.PLP.ligand.torsion>
0.1501

> <Gold.PLP.Chemscore.Hbond>
3.8294

> <Gold.PLP.Chemscore.CHOScore>
0.0000

> <Gold.PLP.Chemscore.Metal>
0.0000

> <Gold.Chemscore.Hbonds>
donor molecule, donor type, donor heavy atom, donor atom, acceptor molecule, acceptor atom, score
      L1  H     8    26       P1  7948  0.85
      L1  H    11    27       P1  7948  1.00
      L1  H    19    40       P1 10957  0.96
      P1  H  6896  6909       L1     4  0.83

> <Gold.PLP.Chemscore.Internal.Correction>
0.0177

> <Gold.Rescore>
     Score         DG    S(hbond)    S(metal)    S(lipo)     H(rot)  DE(clash)    DE(int)     intcor
     18.98     -21.69       3.40        0.00      79.65       1.75       0.00       2.71       ----

> <Gold.Chemscore.Fitness>
18.9810

> <Gold.Chemscore.DG>
-21.6909

> <Gold.Chemscore.ZeroCoef>
-5.4800

> <Gold.Chemscore.Hbond>
3.4042

> <Gold.Chemscore.Metal>
0.0000

> <Gold.Chemscore.Lipo>
79.6507

> <Gold.Chemscore.Internal_Hbond>
0.0000

> <Gold.Chemscore.DEClash>
0.0000

> <Gold.Chemscore.DEInternal>
2.7099

> <Gold.Chemscore.Rot>
1.7493

> <Gold.Chemscore.Internal.Correction>
   9.000000E+99

> <Gold.Chemscore.Hbonds>
donor molecule, donor type, donor heavy atom, donor atom, acceptor molecule, acceptor atom, score
      L1  H     8    26       P1  7948  0.14
      L1  H    11    27       P1  7948  0.84
      L1  H    19    40       P1 10957  0.87
      P1  H  6896  6909       L1     4  0.54

> <Gold.Chemscore.Hbond.Weighted>
-11.3700

> <Gold.Chemscore.Metal.Weighted>
-0.0000

> <Gold.Chemscore.Lipo.Weighted>
-9.3191

> <Gold.Chemscore.Internal_Hbond.Weighted>
0.0000

> <Gold.Chemscore.DEClash.Weighted>
0.0000

> <Gold.Chemscore.DEInternal.Weighted>
2.7099

> <Gold.Chemscore.Rot.Weighted>
4.4782

> <Gold.Chemscore.Internal.Correction.Weighted>
   9.000000E+99

> <Gold.Protein.RotatedTorsions>
[ 6907 6896 6895 6894 ] final  -29.33 input  -60.11 | X-H torsion
[ 7974 7965 7964 7962 ] final  141.61 input  175.53 | X-H torsion
[ 8008 7997 7996 7995 ] final   88.96 input   59.86 | X-H torsion
[ 10167 10162 10161 10158 ] final  117.78 input  -65.29 | X-H torsion
[ 10718 10713 10712 10709 ] final  179.79 input   66.30 | X-H torsion
[ 10763 10752 10751 10750 ] final  -84.61 input  -60.55 | X-H torsion
[ 11005 11000 10999 10996 ] final  138.38 input  -57.11 | X-H torsion

> <Gold.Protein.ActiveResidues>
 VAL166  LYS551  ARG553  GLY616  TRP617  ASP618  TYR619  PRO620  LYS621  CYS622 
 ASP623  PHE694  ASN695  SER759  ASP760  ASP761  ALA762  ILE779  LEU786  VAL792 
 PHE793  MET794  SER795  GLU796  ALA797  LYS798  CYS799  TRP800  GLU811  SER814 

> <Gold.Protein.RotatedAtoms>
  151.1207  135.0078  159.8536 H   0  0  0  0  0  0  0  0  0  0  0  0  # atno 6907 bound_to 6896
  152.5447  134.1726  159.8613 H   0  0  0  0  0  0  0  0  0  0  0  0  # atno 6908 bound_to 6896
  151.1784  133.4696  159.2627 H   0  0  0  0  0  0  0  0  0  0  0  0  # atno 6909 bound_to 6896
  144.9081  139.5330  143.5722 H   0  0  0  0  0  0  0  0  0  0  0  0  # atno 7974 bound_to 7965
  155.9942  140.3366  155.6782 H   0  0  0  0  0  0  0  0  0  0  0  0  # atno 8008 bound_to 7997
  155.6379  140.0692  157.2646 H   0  0  0  0  0  0  0  0  0  0  0  0  # atno 8009 bound_to 7997
  154.4229  140.1748  156.1529 H   0  0  0  0  0  0  0  0  0  0  0  0  # atno 8010 bound_to 7997
  139.6156  144.7091  151.2747 H   0  0  0  0  0  0  0  0  0  0  0  0  # atno 10167 bound_to 10162
  156.8705  130.9782  151.3074 H   0  0  0  0  0  0  0  0  0  0  0  0  # atno 10718 bound_to 10713
  154.6015  135.5514  153.7380 H   0  0  0  0  0  0  0  0  0  0  0  0  # atno 10763 bound_to 10752
  153.0157  135.6367  154.1707 H   0  0  0  0  0  0  0  0  0  0  0  0  # atno 10764 bound_to 10752
  154.1647  135.2895  155.3078 H   0  0  0  0  0  0  0  0  0  0  0  0  # atno 10765 bound_to 10752
  140.0180  134.9410  157.0415 H   0  0  0  0  0  0  0  0  0  0  0  0  # atno 11005 bound_to 11000
  146.3144  139.7865  142.8995 LP  0  0  0  0  0  0  0  0  0  0  0  0  # atno 17320 bound_to 7965
  145.3501  141.0305  143.3343 LP  0  0  0  0  0  0  0  0  0  0  0  0  # atno 17321 bound_to 7965
  140.7348  143.6754  150.8046 LP  0  0  0  0  0  0  0  0  0  0  0  0  # atno 17342 bound_to 10162
  140.0356  143.5398  152.2741 LP  0  0  0  0  0  0  0  0  0  0  0  0  # atno 17343 bound_to 10162
  157.6198  130.8646  149.9090 LP  0  0  0  0  0  0  0  0  0  0  0  0  # atno 17370 bound_to 10713
  156.0729  130.3683  150.0738 LP  0  0  0  0  0  0  0  0  0  0  0  0  # atno 17371 bound_to 10713
  140.4437  134.1654  155.7176 LP  0  0  0  0  0  0  0  0  0  0  0  0  # atno 17394 bound_to 11000
  141.1755  133.8522  157.1434 LP  0  0  0  0  0  0  0  0  0  0  0  0  # atno 17395 bound_to 11000

$$$$
