AV-unprocessed.smi:526|AV-procd|sdf|2811|dock1
  -GOLD-   2262023293D 1   1.00000     0.00000
 Structure written by MMmdl.
 30 30  0  0  0  0  0  0  0  0  2 V2000
  152.7363  144.3625  158.6983 C   0  0  0  0  0  0  0  0  0  0  0  0
  151.7467  144.4288  159.6043 C   0  0  0  0  0  0  0  0  0  0  0  0
  150.2928  144.5759  159.1969 C   0  0  0  0  0  0  0  0  0  0  0  0
  152.0154  144.3603  161.0962 C   0  0  0  0  0  0  0  0  0  0  0  0
  152.7650  142.7841  161.5966 S   0  0  0  0  0  0  0  0  0  0  0  0
  152.3677  141.7334  160.1697 C   0  0  0  0  0  0  0  0  0  0  0  0
  151.2995  141.7150  159.4390 N   0  0  0  0  0  0  0  0  0  0  0  0
  151.1968  140.8170  158.3692 C   0  0  0  0  0  0  0  0  0  0  0  0
  149.9044  140.8853  157.5746 C   0  0  0  0  0  0  0  0  0  0  0  0
  152.2024  139.9459  158.0729 C   0  0  0  0  0  0  0  0  0  0  0  0
  152.1296  138.9539  156.9105 C   0  0  0  0  0  0  0  0  0  0  0  0
  152.1164  139.5961  155.5180 C   0  0  0  0  0  0  0  0  0  0  0  0
  153.1253  139.4017  154.8058 O   0  0  0  0  0  0  0  0  0  0  0  0
  151.1160  140.2689  155.1823 O   0  5  0  0  0  0  0  0  0  0  0  0
  153.4198  139.9533  158.9017 C   0  0  0  0  0  0  0  0  0  0  0  0
  154.3874  139.2127  158.7322 O   0  0  0  0  0  0  0  0  0  0  0  0
  153.4220  140.8584  159.9053 N   0  0  0  0  0  0  0  0  0  0  0  0
  154.2404  140.8982  160.4948 H   0  0  0  0  0  0  0  0  0  0  0  0
  152.5312  144.4123  157.6390 H   0  0  0  0  0  0  0  0  0  0  0  0
  153.7677  144.2565  159.0015 H   0  0  0  0  0  0  0  0  0  0  0  0
  149.8701  145.4846  159.6261 H   0  0  0  0  0  0  0  0  0  0  0  0
  149.7071  143.7259  159.5472 H   0  0  0  0  0  0  0  0  0  0  0  0
  150.1878  144.6334  158.1128 H   0  0  0  0  0  0  0  0  0  0  0  0
  152.6841  145.1706  161.3896 H   0  0  0  0  0  0  0  0  0  0  0  0
  151.0799  144.5074  161.6369 H   0  0  0  0  0  0  0  0  0  0  0  0
  149.3550  139.9473  157.6574 H   0  0  0  0  0  0  0  0  0  0  0  0
  150.1110  141.0754  156.5212 H   0  0  0  0  0  0  0  0  0  0  0  0
  149.2577  141.6853  157.9369 H   0  0  0  0  0  0  0  0  0  0  0  0
  152.9558  138.2438  156.9566 H   0  0  0  0  0  0  0  0  0  0  0  0
  151.2292  138.3487  157.0152 H   0  0  0  0  0  0  0  0  0  0  0  0
  1  2  2  0  0  0  0
  1 19  1  0  0  0  0
  1 20  1  0  0  0  0
  2  3  1  0  0  0  0
  2  4  1  0  0  0  0
  3 21  1  0  0  0  0
  3 22  1  0  0  0  0
  3 23  1  0  0  0  0
  4  5  1  0  0  0  0
  4 24  1  0  0  0  0
  4 25  1  0  0  0  0
  5  6  1  0  0  0  0
  6 17  1  0  0  0  0
  6  7  2  0  0  0  0
  7  8  1  0  0  0  0
  8  9  1  0  0  0  0
  8 10  2  0  0  0  0
  9 26  1  0  0  0  0
  9 27  1  0  0  0  0
  9 28  1  0  0  0  0
 10 11  1  0  0  0  0
 10 15  1  0  0  0  0
 11 12  1  0  0  0  0
 11 29  1  0  0  0  0
 11 30  1  0  0  0  0
 12 13  2  0  0  0  0
 12 14  1  0  0  0  0
 15 16  2  0  0  0  0
 15 17  1  0  0  0  0
 17 18  1  0  0  0  0
M  CHG  1  14  -1
M  END
> <s_m_source_file>
AV-unprocessed.smi

> <i_m_source_file_index>
526

> <i_lp_mmshare_version>
43012

> <i_f3d_flags>
0

> <s_epik_input>
W0NIMl09QyhbQ0gzXSlbQ0gyXVNjMW5jKFtDSDNdKWMoYyg9TylbbkhdMSlbQ0gyXUMoPU8pW09IXQ==

> <s_epik_cmdline>
J2VwaWtfcHl0aG9uJywgJy1waCcsICc3LjAnLCAnLXRuJywgJzgnLCAnLW1hJywgJzIwMCcsICctbWV0YWxfYmluZGluZycsICctaW1hZScsICc8aW5maWxlLm1hZT4nLCAnLW9tYWUnLCAnPG91dGZpbGUubWFlPic=

> <r_lp_tautomer_probability>
0.660323

> <r_epik_Ionization_Penalty>
0.000759783

> <r_epik_Ionization_Penalty_Charging>
0.000714454

> <r_epik_Ionization_Penalty_Neutral>
4.53284e-05

> <r_epik_State_Penalty>
0.230805

> <r_epik_Charging_Adjusted_Penalty>
0.231519

> <i_epik_Tot_Q>
-1

> <i_epik_Tot_abs_Q>
1

> <r_epik_Metal_State_Penalty>
0.34438

> <b_epik_Metal_Only>
0

> <s_lp_Force_Field>
OPLS_2005

> <r_lp_Energy>
1.72321

> <b_lp_Chiralities_Consistent>
1

> <s_lp_Variant>
AV-unprocessed.smi:526-1

> <Gold.Version>
5.8.1

> <Gold.Id.Protein>
6NUR|6NUR_protein|mol2

> <Gold.PLP.Fitness>
49.0466

> <Gold.PLP.PLP>
-38.4420

> <Gold.PLP.part.hbond>
-4.3830

> <Gold.PLP.part.metal>
0.0000

> <Gold.PLP.part.buried>
-5.4914

> <Gold.PLP.part.nonpolar>
-28.9033

> <Gold.PLP.part.repulsive>
0.1326

> <Gold.PLP.ligand.clash>
0.0000

> <Gold.PLP.ligand.torsion>
0.7272

> <Gold.PLP.Chemscore.Hbond>
4.0000

> <Gold.PLP.Chemscore.CHOScore>
0.0000

> <Gold.PLP.Chemscore.Metal>
0.0000

> <Gold.Chemscore.Hbonds>
donor molecule, donor type, donor heavy atom, donor atom, acceptor molecule, acceptor atom, score
      P1  H  7989  7998       L1    14  1.00
      P1  H  7997  8009       L1    16  1.00
      P1  H  7997  8010       L1    13  2.00

> <Gold.PLP.Chemscore.Internal.Correction>
0.0590

> <Gold.Rescore>
     Score         DG    S(hbond)    S(metal)    S(lipo)     H(rot)  DE(clash)    DE(int)     intcor
     11.16     -15.83       2.10        0.00      79.82       2.34       0.09       4.58       ----

> <Gold.Chemscore.Fitness>
11.1566

> <Gold.Chemscore.DG>
-15.8269

> <Gold.Chemscore.ZeroCoef>
-5.4800

> <Gold.Chemscore.Hbond>
2.0967

> <Gold.Chemscore.Metal>
0.0000

> <Gold.Chemscore.Lipo>
79.8247

> <Gold.Chemscore.Internal_Hbond>
0.0000

> <Gold.Chemscore.DEClash>
0.0913

> <Gold.Chemscore.DEInternal>
4.5789

> <Gold.Chemscore.Rot>
2.3420

> <Gold.Chemscore.Internal.Correction>
   9.000000E+99

> <Gold.Chemscore.Hbonds>
donor molecule, donor type, donor heavy atom, donor atom, acceptor molecule, acceptor atom, score
      P1  H  7989  7998       L1    14  0.29
      P1  H  7997  8009       L1    16  0.30
      P1  H  7997  8010       L1    13  0.50

> <Gold.Chemscore.Hbond.Weighted>
-7.0029

> <Gold.Chemscore.Metal.Weighted>
-0.0000

> <Gold.Chemscore.Lipo.Weighted>
-9.3395

> <Gold.Chemscore.Internal_Hbond.Weighted>
0.0000

> <Gold.Chemscore.DEClash.Weighted>
0.0913

> <Gold.Chemscore.DEInternal.Weighted>
4.5789

> <Gold.Chemscore.Rot.Weighted>
5.9955

> <Gold.Chemscore.Internal.Correction.Weighted>
   9.000000E+99

> <Gold.Protein.RotatedTorsions>
[ 6907 6896 6895 6894 ] final -176.53 input  -60.11 | X-H torsion
[ 7974 7965 7964 7962 ] final  -48.02 input  175.53 | X-H torsion
[ 8008 7997 7996 7995 ] final  114.05 input   59.86 | X-H torsion
[ 10167 10162 10161 10158 ] final  -85.29 input  -65.29 | X-H torsion
[ 10718 10713 10712 10709 ] final -107.13 input   66.30 | X-H torsion
[ 10763 10752 10751 10750 ] final  119.12 input  -60.55 | X-H torsion
[ 11005 11000 10999 10996 ] final  169.48 input  -57.11 | X-H torsion

> <Gold.Protein.ActiveResidues>
 VAL166  LYS551  ARG553  GLY616  TRP617  ASP618  TYR619  PRO620  LYS621  CYS622 
 ASP623  PHE694  ASN695  SER759  ASP760  ASP761  ALA762  ILE779  LEU786  VAL792 
 PHE793  MET794  SER795  GLU796  ALA797  LYS798  CYS799  TRP800  GLU811  SER814 

> <Gold.Protein.RotatedAtoms>
  151.6063  133.3351  159.3057 H   0  0  0  0  0  0  0  0  0  0  0  0  # atno 6907 bound_to 6896
  150.8180  134.7376  159.6759 H   0  0  0  0  0  0  0  0  0  0  0  0  # atno 6908 bound_to 6896
  152.4275  134.5845  160.0008 H   0  0  0  0  0  0  0  0  0  0  0  0  # atno 6909 bound_to 6896
  145.9556  140.7530  142.9483 H   0  0  0  0  0  0  0  0  0  0  0  0  # atno 7974 bound_to 7965
  156.2297  140.2967  156.0157 H   0  0  0  0  0  0  0  0  0  0  0  0  # atno 8008 bound_to 7997
  155.2259  140.0417  157.2972 H   0  0  0  0  0  0  0  0  0  0  0  0  # atno 8009 bound_to 7997
  154.5975  140.2418  155.7845 H   0  0  0  0  0  0  0  0  0  0  0  0  # atno 8010 bound_to 7997
  140.4052  143.2646  151.9091 H   0  0  0  0  0  0  0  0  0  0  0  0  # atno 10167 bound_to 10162
  156.0422  130.5647  150.7778 H   0  0  0  0  0  0  0  0  0  0  0  0  # atno 10718 bound_to 10713
  153.5781  135.3489  155.2864 H   0  0  0  0  0  0  0  0  0  0  0  0  # atno 10763 bound_to 10752
  154.8672  135.4175  154.2650 H   0  0  0  0  0  0  0  0  0  0  0  0  # atno 10764 bound_to 10752
  153.3431  135.7051  153.6921 H   0  0  0  0  0  0  0  0  0  0  0  0  # atno 10765 bound_to 10752
  140.2982  134.7617  157.3894 H   0  0  0  0  0  0  0  0  0  0  0  0  # atno 11005 bound_to 11000
  144.6804  140.2506  143.7332 LP  0  0  0  0  0  0  0  0  0  0  0  0  # atno 17320 bound_to 7965
  145.8111  139.2004  143.1992 LP  0  0  0  0  0  0  0  0  0  0  0  0  # atno 17321 bound_to 7965
  139.4783  144.5593  151.8264 LP  0  0  0  0  0  0  0  0  0  0  0  0  # atno 17342 bound_to 10162
  140.4697  144.1604  150.5916 LP  0  0  0  0  0  0  0  0  0  0  0  0  # atno 17343 bound_to 10162
  157.5254  131.0934  151.0024 LP  0  0  0  0  0  0  0  0  0  0  0  0  # atno 17370 bound_to 10713
  157.0344  130.5724  149.5347 LP  0  0  0  0  0  0  0  0  0  0  0  0  # atno 17371 bound_to 10713
  140.1133  134.5316  155.8247 LP  0  0  0  0  0  0  0  0  0  0  0  0  # atno 17394 bound_to 11000
  141.2133  133.6732  156.6730 LP  0  0  0  0  0  0  0  0  0  0  0  0  # atno 17395 bound_to 11000

$$$$
