AV-unprocessed.smi:937|AV-procd|sdf|4213|dock2
  -GOLD-   22720 2123D 1   1.00000     0.00000
 Structure written by MMmdl.
 46 47  0  0  0  0  0  0  0  0  2 V2000
  149.3915  143.0395  158.6036 C   0  0  0  0  0  0  0  0  0  0  0  0
  149.8220  141.8931  157.7131 C   0  0  0  0  0  0  0  0  0  0  0  0
  150.7576  140.9252  158.1371 C   0  0  0  0  0  0  0  0  0  0  0  0
  151.1171  139.8835  157.2570 C   0  0  0  0  0  0  0  0  0  0  0  0
  150.5340  139.8300  155.9719 C   0  0  0  0  0  0  0  0  0  0  0  0
  150.9038  138.7206  155.0075 C   0  0  0  0  0  0  0  0  0  0  0  0
  150.6343  137.3271  155.5978 C   0  0  0  0  0  0  0  0  0  0  0  0
  149.7272  136.5577  154.7553 N   0  0  0  0  0  0  0  0  0  0  0  0
  149.0722  135.4511  155.1454 C   0  0  0  0  0  0  0  0  0  0  0  0
  149.1815  134.9624  156.2686 O   0  0  0  0  0  0  0  0  0  0  0  0
  148.2754  134.9052  154.2098 N   0  0  0  0  0  0  0  0  0  0  0  0
  147.4319  133.7094  154.3083 C   0  0  2  0  0  0  0  0  0  0  0  0
  148.1155  132.4789  153.6736 C   0  0  0  0  0  0  0  0  0  0  0  0
  148.2107  132.5963  152.1437 C   0  0  0  0  0  0  0  0  0  0  0  0
  146.8301  132.8444  151.5162 C   0  0  0  0  0  0  0  0  0  0  0  0
  146.1483  134.0944  152.1108 C   0  0  1  0  0  0  0  0  0  0  0  0
  144.7678  134.3580  151.4751 C   0  0  0  0  0  0  0  0  0  0  0  0
  144.1372  135.3511  152.1031 F   0  0  0  0  0  0  0  0  0  0  0  0
  144.9119  134.6833  150.1905 F   0  0  0  0  0  0  0  0  0  0  0  0
  144.0163  133.2590  151.5435 F   0  0  0  0  0  0  0  0  0  0  0  0
  146.0626  133.9731  153.6501 C   0  0  0  0  0  0  0  0  0  0  0  0
  149.6067  140.8272  155.6009 C   0  0  0  0  0  0  0  0  0  0  0  0
  149.2891  141.8094  156.4728 N   0  3  0  0  0  0  0  0  0  0  0  0
  149.5172  142.7806  159.6555 H   0  0  0  0  0  0  0  0  0  0  0  0
  148.3421  143.2873  158.4397 H   0  0  0  0  0  0  0  0  0  0  0  0
  149.9920  143.9252  158.3947 H   0  0  0  0  0  0  0  0  0  0  0  0
  151.1963  140.9783  159.1231 H   0  0  0  0  0  0  0  0  0  0  0  0
  151.8332  139.1354  157.5660 H   0  0  0  0  0  0  0  0  0  0  0  0
  150.3380  138.8587  154.0850 H   0  0  0  0  0  0  0  0  0  0  0  0
  151.9568  138.8155  154.7379 H   0  0  0  0  0  0  0  0  0  0  0  0
  151.5688  136.7731  155.6902 H   0  0  0  0  0  0  0  0  0  0  0  0
  150.2218  137.4109  156.6048 H   0  0  0  0  0  0  0  0  0  0  0  0
  149.5838  136.8878  153.8119 H   0  0  0  0  0  0  0  0  0  0  0  0
  148.2658  135.3676  153.3122 H   0  0  0  0  0  0  0  0  0  0  0  0
  147.2470  133.5021  155.3636 H   0  0  0  0  0  0  0  0  0  0  0  0
  149.1086  132.3263  154.0970 H   0  0  0  0  0  0  0  0  0  0  0  0
  147.5426  131.5853  153.9246 H   0  0  0  0  0  0  0  0  0  0  0  0
  148.8873  133.4087  151.8760 H   0  0  0  0  0  0  0  0  0  0  0  0
  148.6460  131.6864  151.7302 H   0  0  0  0  0  0  0  0  0  0  0  0
  146.9398  132.9551  150.4370 H   0  0  0  0  0  0  0  0  0  0  0  0
  146.1989  131.9689  151.6732 H   0  0  0  0  0  0  0  0  0  0  0  0
  146.7770  134.9550  151.8765 H   0  0  0  0  0  0  0  0  0  0  0  0
  145.3856  133.1577  153.9077 H   0  0  0  0  0  0  0  0  0  0  0  0
  145.6201  134.8749  154.0747 H   0  0  0  0  0  0  0  0  0  0  0  0
  149.1134  140.8703  154.6406 H   0  0  0  0  0  0  0  0  0  0  0  0
  148.6166  142.5196  156.1822 H   0  0  0  0  0  0  0  0  0  0  0  0
  1  2  1  0  0  0  0
  1 24  1  0  0  0  0
  1 25  1  0  0  0  0
  1 26  1  0  0  0  0
  2 23  1  0  0  0  0
  2  3  2  0  0  0  0
  3  4  1  0  0  0  0
  3 27  1  0  0  0  0
  4  5  2  0  0  0  0
  4 28  1  0  0  0  0
  5  6  1  0  0  0  0
  5 22  1  0  0  0  0
  6  7  1  0  0  0  0
  6 29  1  0  0  0  0
  6 30  1  0  0  0  0
  7  8  1  0  0  0  0
  7 31  1  0  0  0  0
  7 32  1  0  0  0  0
  8  9  1  0  0  0  0
  8 33  1  0  0  0  0
  9 10  2  0  0  0  0
  9 11  1  0  0  0  0
 11 12  1  0  0  0  0
 11 34  1  0  0  0  0
 12 21  1  0  0  0  0
 12 13  1  0  0  0  0
 12 35  1  0  0  0  0
 13 14  1  0  0  0  0
 13 36  1  0  0  0  0
 13 37  1  0  0  0  0
 14 15  1  0  0  0  0
 14 38  1  0  0  0  0
 14 39  1  0  0  0  0
 15 16  1  0  0  0  0
 15 40  1  0  0  0  0
 15 41  1  0  0  0  0
 16 17  1  0  0  0  0
 16 21  1  0  0  0  0
 16 42  1  0  0  0  0
 17 18  1  0  0  0  0
 17 19  1  0  0  0  0
 17 20  1  0  0  0  0
 21 43  1  0  0  0  0
 21 44  1  0  0  0  0
 22 23  2  0  0  0  0
 22 45  1  0  0  0  0
 23 46  1  0  0  0  0
M  CHG  1  23   1
M  END
> <s_m_source_file>
AV-unprocessed.smi

> <i_m_source_file_index>
937

> <i_lp_mmshare_version>
43012

> <i_f3d_flags>
0

> <s_epik_input>
W0NIM11jMVtjSF1bY0hdYyhbY0hdbjEpW0NIMl1bQ0gyXVtOSF1DKD1PKVtOSF1bQ0BASF0yW0NIMl1bQ0gyXVtDSDJdW0NAQEhdKEMoRikoRilGKVtDSDJdMg==

> <s_epik_cmdline>
J2VwaWtfcHl0aG9uJywgJy1waCcsICc3LjAnLCAnLXRuJywgJzgnLCAnLW1hJywgJzIwMCcsICctbWV0YWxfYmluZGluZycsICctaW1hZScsICc8aW5maWxlLm1hZT4nLCAnLW9tYWUnLCAnPG91dGZpbGUubWFlPic=

> <r_epik_Ionization_Penalty>
1.4226

> <r_epik_Ionization_Penalty_Charging>
1.42255

> <r_epik_Ionization_Penalty_Neutral>
5.16456e-05

> <r_epik_State_Penalty>
1.50646

> <r_epik_Charging_Adjusted_Penalty>
2.92901

> <i_epik_Tot_Q>
1

> <i_epik_Tot_abs_Q>
1

> <r_epik_Metal_State_Penalty>
1.55846

> <b_epik_Metal_Only>
0

> <s_lp_Force_Field>
OPLS_2005

> <r_lp_Energy>
23.8668

> <b_lp_Chiralities_Consistent>
1

> <s_lp_Variant>
AV-unprocessed.smi:937-5

> <Gold.Version>
5.8.1

> <Gold.Id.Protein>
6NUR|6NUR_protein|mol2

> <Gold.PLP.Fitness>
48.7329

> <Gold.PLP.PLP>
-39.3680

> <Gold.PLP.part.hbond>
-3.0198

> <Gold.PLP.part.metal>
0.0000

> <Gold.PLP.part.buried>
-1.9195

> <Gold.PLP.part.nonpolar>
-34.7919

> <Gold.PLP.part.repulsive>
0.1670

> <Gold.PLP.ligand.clash>
0.0000

> <Gold.PLP.ligand.torsion>
0.8770

> <Gold.PLP.Chemscore.Hbond>
3.6864

> <Gold.PLP.Chemscore.CHOScore>
0.0000

> <Gold.PLP.Chemscore.Metal>
0.0000

> <Gold.Chemscore.Hbonds>
donor molecule, donor type, donor heavy atom, donor atom, acceptor molecule, acceptor atom, score
      L1  H     8    33       P1  7948  0.65
      L1  H    11    34       P1  7948  1.00
      L1  H    23    46       P1  8028  0.52

> <Gold.PLP.Chemscore.Internal.Correction>
0.0598

> <Gold.Rescore>
     Score         DG    S(hbond)    S(metal)    S(lipo)     H(rot)  DE(clash)    DE(int)     intcor
     16.30     -18.91       2.57        0.00      77.75       1.66       1.30       1.32       ----

> <Gold.Chemscore.Fitness>
16.2962

> <Gold.Chemscore.DG>
-18.9142

> <Gold.Chemscore.ZeroCoef>
-5.4800

> <Gold.Chemscore.Hbond>
2.5699

> <Gold.Chemscore.Metal>
0.0000

> <Gold.Chemscore.Lipo>
77.7490

> <Gold.Chemscore.Internal_Hbond>
0.0000

> <Gold.Chemscore.DEClash>
1.3009

> <Gold.Chemscore.DEInternal>
1.3172

> <Gold.Chemscore.Rot>
1.6585

> <Gold.Chemscore.Internal.Correction>
   9.000000E+99

> <Gold.Chemscore.Hbonds>
donor molecule, donor type, donor heavy atom, donor atom, acceptor molecule, acceptor atom, score
      L1  H     8    33       P1  7948  0.52
      L1  H    11    34       P1  7948  0.98
      L1  H    23    46       P1  8028  0.25

> <Gold.Chemscore.Hbond.Weighted>
-8.5833

> <Gold.Chemscore.Metal.Weighted>
-0.0000

> <Gold.Chemscore.Lipo.Weighted>
-9.0966

> <Gold.Chemscore.Internal_Hbond.Weighted>
0.0000

> <Gold.Chemscore.DEClash.Weighted>
1.3009

> <Gold.Chemscore.DEInternal.Weighted>
1.3172

> <Gold.Chemscore.Rot.Weighted>
4.2457

> <Gold.Chemscore.Internal.Correction.Weighted>
   9.000000E+99

> <Gold.Protein.RotatedTorsions>
[ 6907 6896 6895 6894 ] final   70.17 input  -60.11 | X-H torsion
[ 7974 7965 7964 7962 ] final  138.48 input  175.53 | X-H torsion
[ 8008 7997 7996 7995 ] final  135.82 input   59.86 | X-H torsion
[ 10167 10162 10161 10158 ] final -124.54 input  -65.29 | X-H torsion
[ 10718 10713 10712 10709 ] final  -64.32 input   66.30 | X-H torsion
[ 10763 10752 10751 10750 ] final  -32.59 input  -60.55 | X-H torsion
[ 11005 11000 10999 10996 ] final   17.29 input  -57.11 | X-H torsion

> <Gold.Protein.ActiveResidues>
 VAL166  LYS551  ARG553  GLY616  TRP617  ASP618  TYR619  PRO620  LYS621  CYS622 
 ASP623  PHE694  ASN695  SER759  ASP760  ASP761  ALA762  ILE779  LEU786  VAL792 
 PHE793  MET794  SER795  GLU796  ALA797  LYS798  CYS799  TRP800  GLU811  SER814 

> <Gold.Protein.RotatedAtoms>
  152.4732  134.4908  159.9694 H   0  0  0  0  0  0  0  0  0  0  0  0  # atno 6907 bound_to 6896
  151.4930  133.3515  159.2864 H   0  0  0  0  0  0  0  0  0  0  0  0  # atno 6908 bound_to 6896
  150.8755  134.8164  159.7248 H   0  0  0  0  0  0  0  0  0  0  0  0  # atno 6909 bound_to 6896
  144.9369  139.4978  143.5591 H   0  0  0  0  0  0  0  0  0  0  0  0  # atno 7974 bound_to 7965
  156.3003  140.2461  156.3644 H   0  0  0  0  0  0  0  0  0  0  0  0  # atno 8008 bound_to 7997
  154.8846  140.0411  157.1822 H   0  0  0  0  0  0  0  0  0  0  0  0  # atno 8009 bound_to 7997
  154.8660  140.2928  155.5514 H   0  0  0  0  0  0  0  0  0  0  0  0  # atno 8010 bound_to 7997
  139.9917  143.5633  152.2339 H   0  0  0  0  0  0  0  0  0  0  0  0  # atno 10167 bound_to 10162
  156.0736  130.4232  150.1403 H   0  0  0  0  0  0  0  0  0  0  0  0  # atno 10718 bound_to 10713
  153.8163  135.6878  153.4833 H   0  0  0  0  0  0  0  0  0  0  0  0  # atno 10763 bound_to 10752
  153.1597  135.4585  154.9752 H   0  0  0  0  0  0  0  0  0  0  0  0  # atno 10764 bound_to 10752
  154.7946  135.3314  154.7639 H   0  0  0  0  0  0  0  0  0  0  0  0  # atno 10765 bound_to 10752
  140.4376  134.1355  155.7687 H   0  0  0  0  0  0  0  0  0  0  0  0  # atno 11005 bound_to 11000
  146.3270  139.8360  142.8899 LP  0  0  0  0  0  0  0  0  0  0  0  0  # atno 17320 bound_to 7965
  145.3053  141.0205  143.3585 LP  0  0  0  0  0  0  0  0  0  0  0  0  # atno 17321 bound_to 7965
  139.6335  144.7647  151.2487 LP  0  0  0  0  0  0  0  0  0  0  0  0  # atno 17342 bound_to 10162
  140.7452  143.6439  150.8310 LP  0  0  0  0  0  0  0  0  0  0  0  0  # atno 17343 bound_to 10162
  156.9448  130.9756  151.3509 LP  0  0  0  0  0  0  0  0  0  0  0  0  # atno 17370 bound_to 10713
  157.5821  130.8383  149.8537 LP  0  0  0  0  0  0  0  0  0  0  0  0  # atno 17371 bound_to 10713
  141.1719  133.8591  157.1543 LP  0  0  0  0  0  0  0  0  0  0  0  0  # atno 17394 bound_to 11000
  140.0092  134.9995  157.0358 LP  0  0  0  0  0  0  0  0  0  0  0  0  # atno 17395 bound_to 11000

$$$$
