AV-unprocessed.smi:2825|AV-procd|sdf|10889|dock8
  -GOLD-   2272015333D 1   1.00000     0.00000
 Structure written by MMmdl.
 48 49  0  0  0  0  0  0  0  0  1 V2000
  149.2021  133.3605  153.5672 C   0  0  0  0  0  0  0  0  0  0  0  0
  149.9715  134.1761  154.6112 C   0  0  0  0  0  0  0  0  0  0  0  0
  149.2915  135.5160  154.9261 C   0  0  0  0  0  0  0  0  0  0  0  0
  150.3111  136.5498  156.0668 S   0  0  0  0  0  0  0  0  0  0  0  0
  149.4903  136.9290  157.2269 O   0  0  0  0  0  0  0  0  0  0  0  0
  151.6066  135.8814  156.2667 O   0  0  0  0  0  0  0  0  0  0  0  0
  150.5857  137.9869  155.1334 N   0  0  0  0  0  0  0  0  0  0  0  0
  151.1989  137.8619  153.8073 C   0  0  0  0  0  0  0  0  0  0  0  0
  149.6926  139.1432  155.3061 C   0  0  0  0  0  0  0  0  0  0  0  0
  150.3243  140.4255  154.7295 C   0  0  1  0  0  0  0  0  0  0  0  0
  149.5058  140.8954  153.6754 O   0  0  0  0  0  0  0  0  0  0  0  0
  150.4485  141.5287  155.7970 C   0  0  0  0  0  0  0  0  0  0  0  0
  151.3175  141.1430  156.8941 N   0  0  0  0  0  0  0  0  0  0  0  0
  152.0929  140.0440  156.9627 C   0  0  0  0  0  0  0  0  0  0  0  0
  152.8175  139.8780  158.0652 N   0  0  0  0  0  0  0  0  0  0  0  0
  152.4729  141.0015  158.7968 C   0  0  0  0  0  0  0  0  0  0  0  0
  152.8972  141.4291  160.0740 C   0  0  0  0  0  0  0  0  0  0  0  0
  152.4090  142.6305  160.6356 C   0  0  0  0  0  0  0  0  0  0  0  0
  152.8909  143.0517  162.0127 C   0  0  0  0  0  0  0  0  0  0  0  0
  151.4821  143.4263  159.9154 C   0  0  0  0  0  0  0  0  0  0  0  0
  150.9467  144.7231  160.4966 C   0  0  0  0  0  0  0  0  0  0  0  0
  151.0459  143.0126  158.6393 C   0  0  0  0  0  0  0  0  0  0  0  0
  151.5375  141.8143  158.0920 C   0  0  0  0  0  0  0  0  0  0  0  0
  149.7121  132.4200  153.3578 H   0  0  0  0  0  0  0  0  0  0  0  0
  149.1141  133.9073  152.6279 H   0  0  0  0  0  0  0  0  0  0  0  0
  148.1961  133.1238  153.9148 H   0  0  0  0  0  0  0  0  0  0  0  0
  150.0732  133.5872  155.5231 H   0  0  0  0  0  0  0  0  0  0  0  0
  150.9819  134.3580  154.2449 H   0  0  0  0  0  0  0  0  0  0  0  0
  149.0925  136.0848  154.0188 H   0  0  0  0  0  0  0  0  0  0  0  0
  148.3329  135.3395  155.4147 H   0  0  0  0  0  0  0  0  0  0  0  0
  151.6583  138.8046  153.5085 H   0  0  0  0  0  0  0  0  0  0  0  0
  150.4452  137.5869  153.0691 H   0  0  0  0  0  0  0  0  0  0  0  0
  151.9731  137.0956  153.8119 H   0  0  0  0  0  0  0  0  0  0  0  0
  148.7173  138.9574  154.8526 H   0  0  0  0  0  0  0  0  0  0  0  0
  149.5053  139.2617  156.3740 H   0  0  0  0  0  0  0  0  0  0  0  0
  151.3161  140.2205  154.3280 H   0  0  0  0  0  0  0  0  0  0  0  0
  149.5508  140.2781  152.9616 H   0  0  0  0  0  0  0  0  0  0  0  0
  150.8260  142.4519  155.3556 H   0  0  0  0  0  0  0  0  0  0  0  0
  149.4665  141.7613  156.2112 H   0  0  0  0  0  0  0  0  0  0  0  0
  152.1275  139.3261  156.1561 H   0  0  0  0  0  0  0  0  0  0  0  0
  153.6050  140.8232  160.6205 H   0  0  0  0  0  0  0  0  0  0  0  0
  153.4271  143.9994  161.9560 H   0  0  0  0  0  0  0  0  0  0  0  0
  153.5651  142.3106  162.4430 H   0  0  0  0  0  0  0  0  0  0  0  0
  152.0476  143.1705  162.6935 H   0  0  0  0  0  0  0  0  0  0  0  0
  150.2845  145.2306  159.7941 H   0  0  0  0  0  0  0  0  0  0  0  0
  151.7648  145.4033  160.7348 H   0  0  0  0  0  0  0  0  0  0  0  0
  150.3815  144.5270  161.4080 H   0  0  0  0  0  0  0  0  0  0  0  0
  150.3408  143.6093  158.0801 H   0  0  0  0  0  0  0  0  0  0  0  0
  1  2  1  0  0  0  0
  1 24  1  0  0  0  0
  1 25  1  0  0  0  0
  1 26  1  0  0  0  0
  2  3  1  0  0  0  0
  2 27  1  0  0  0  0
  2 28  1  0  0  0  0
  3  4  1  0  0  0  0
  3 29  1  0  0  0  0
  3 30  1  0  0  0  0
  4  5  2  0  0  0  0
  4  6  2  0  0  0  0
  4  7  1  0  0  0  0
  7  8  1  0  0  0  0
  7  9  1  0  0  0  0
  8 31  1  0  0  0  0
  8 32  1  0  0  0  0
  8 33  1  0  0  0  0
  9 10  1  0  0  0  0
  9 34  1  0  0  0  0
  9 35  1  0  0  0  0
 10 11  1  0  0  0  0
 10 12  1  0  0  0  0
 10 36  1  0  0  0  0
 11 37  1  0  0  0  0
 12 13  1  0  0  0  0
 12 38  1  0  0  0  0
 12 39  1  0  0  0  0
 13 23  1  0  0  0  0
 13 14  1  0  0  0  0
 14 15  2  0  0  0  0
 14 40  1  0  0  0  0
 15 16  1  0  0  0  0
 16 23  2  0  0  0  0
 16 17  1  0  0  0  0
 17 18  2  0  0  0  0
 17 41  1  0  0  0  0
 18 19  1  0  0  0  0
 18 20  1  0  0  0  0
 19 42  1  0  0  0  0
 19 43  1  0  0  0  0
 19 44  1  0  0  0  0
 20 21  1  0  0  0  0
 20 22  2  0  0  0  0
 21 45  1  0  0  0  0
 21 46  1  0  0  0  0
 21 47  1  0  0  0  0
 22 23  1  0  0  0  0
 22 48  1  0  0  0  0
M  END
> <s_m_source_file>
AV-unprocessed.smi

> <i_m_source_file_index>
2825

> <i_lp_mmshare_version>
43012

> <i_f3d_flags>
0

> <s_epik_input>
W0NIM11bQ0gyXVtDSDJdUyg9TykoPU8pTihbQ0gzXSlbQ0gyXVtDQEhdKFtPSF0pW0NIMl1uKFtjSF1uMSljKGMxMilbY0hdYyhbQ0gzXSljKFtjSF0yKVtDSDNd

> <s_epik_cmdline>
J2VwaWtfcHl0aG9uJywgJy1waCcsICc3LjAnLCAnLXRuJywgJzgnLCAnLW1hJywgJzIwMCcsICctbWV0YWxfYmluZGluZycsICctaW1hZScsICc8aW5maWxlLm1hZT4nLCAnLW9tYWUnLCAnPG91dGZpbGUubWFlPic=

> <r_epik_Ionization_Penalty>
0.104931

> <r_epik_Ionization_Penalty_Charging>
0

> <r_epik_Ionization_Penalty_Neutral>
0.104931

> <r_epik_State_Penalty>
0.0948201

> <r_epik_Charging_Adjusted_Penalty>
0.0948201

> <i_epik_Tot_Q>
0

> <i_epik_Tot_abs_Q>
0

> <r_epik_Metal_State_Penalty>
0.00010282

> <b_epik_Metal_Only>
0

> <s_lp_Force_Field>
OPLS_2005

> <r_lp_Energy>
7.6372

> <b_lp_Chiralities_Consistent>
1

> <s_lp_Variant>
AV-unprocessed.smi:2825-2

> <Gold.Version>
5.8.1

> <Gold.Id.Protein>
6NUR|6NUR_protein|mol2

> <Gold.PLP.Fitness>
53.1656

> <Gold.PLP.PLP>
-45.4165

> <Gold.PLP.part.hbond>
-5.0000

> <Gold.PLP.part.metal>
0.0000

> <Gold.PLP.part.buried>
-1.2573

> <Gold.PLP.part.nonpolar>
-38.8472

> <Gold.PLP.part.repulsive>
0.0066

> <Gold.PLP.ligand.clash>
0.0000

> <Gold.PLP.ligand.torsion>
2.1056

> <Gold.PLP.Chemscore.Hbond>
3.1476

> <Gold.PLP.Chemscore.CHOScore>
0.0000

> <Gold.PLP.Chemscore.Metal>
0.0000

> <Gold.Chemscore.Hbonds>
donor molecule, donor type, donor heavy atom, donor atom, acceptor molecule, acceptor atom, score
      L1  H    11    37       P1  7957  0.93
      P1  H  7997  8008       L1    15  0.64
      P1  H  8011  8017       L1    11  0.43
      P1  H 10752 10764       L1     6  1.00

> <Gold.PLP.Chemscore.Internal.Correction>
2.5176

> <Gold.Rescore>
     Score         DG    S(hbond)    S(metal)    S(lipo)     H(rot)  DE(clash)    DE(int)     intcor
     19.04     -21.77       2.51        0.00     120.86       2.43       0.52       2.21       ----

> <Gold.Chemscore.Fitness>
19.0441

> <Gold.Chemscore.DG>
-21.7676

> <Gold.Chemscore.ZeroCoef>
-5.4800

> <Gold.Chemscore.Hbond>
2.5078

> <Gold.Chemscore.Metal>
0.0000

> <Gold.Chemscore.Lipo>
120.8607

> <Gold.Chemscore.Internal_Hbond>
0.0000

> <Gold.Chemscore.DEClash>
0.5176

> <Gold.Chemscore.DEInternal>
2.2059

> <Gold.Chemscore.Rot>
2.4332

> <Gold.Chemscore.Internal.Correction>
   9.000000E+99

> <Gold.Chemscore.Hbonds>
donor molecule, donor type, donor heavy atom, donor atom, acceptor molecule, acceptor atom, score
      L1  H    11    37       P1  7957  0.90
      P1  H  7997  8008       L1    15  0.07
      P1  H  8011  8017       L1    11  0.01
      P1  H 10752 10764       L1     6  0.97

> <Gold.Chemscore.Hbond.Weighted>
-8.3759

> <Gold.Chemscore.Metal.Weighted>
-0.0000

> <Gold.Chemscore.Lipo.Weighted>
-14.1407

> <Gold.Chemscore.Internal_Hbond.Weighted>
0.0000

> <Gold.Chemscore.DEClash.Weighted>
0.5176

> <Gold.Chemscore.DEInternal.Weighted>
2.2059

> <Gold.Chemscore.Rot.Weighted>
6.2289

> <Gold.Chemscore.Internal.Correction.Weighted>
   9.000000E+99

> <Gold.Protein.RotatedTorsions>
[ 6907 6896 6895 6894 ] final  -78.12 input  -60.11 | X-H torsion
[ 7974 7965 7964 7962 ] final   40.72 input  175.53 | X-H torsion
[ 8008 7997 7996 7995 ] final  -94.36 input   59.86 | X-H torsion
[ 10167 10162 10161 10158 ] final  131.22 input  -65.29 | X-H torsion
[ 10718 10713 10712 10709 ] final  176.00 input   66.30 | X-H torsion
[ 10763 10752 10751 10750 ] final  -29.06 input  -60.55 | X-H torsion
[ 11005 11000 10999 10996 ] final    3.34 input  -57.11 | X-H torsion

> <Gold.Protein.ActiveResidues>
 VAL166  LYS551  ARG553  GLY616  TRP617  ASP618  TYR619  PRO620  LYS621  CYS622 
 ASP623  PHE694  ASN695  SER759  ASP760  ASP761  ALA762  ILE779  LEU786  VAL792 
 PHE793  MET794  SER795  GLU796  ALA797  LYS798  CYS799  TRP800  GLU811  SER814 

> <Gold.Protein.RotatedAtoms>
  150.6981  134.4319  159.5252 H   0  0  0  0  0  0  0  0  0  0  0  0  # atno 6907 bound_to 6896
  152.2044  134.8555  160.0513 H   0  0  0  0  0  0  0  0  0  0  0  0  # atno 6908 bound_to 6896
  151.9464  133.3618  159.4020 H   0  0  0  0  0  0  0  0  0  0  0  0  # atno 6909 bound_to 6896
  146.0882  139.5500  142.9493 H   0  0  0  0  0  0  0  0  0  0  0  0  # atno 7974 bound_to 7965
  154.7474  140.0490  157.0864 H   0  0  0  0  0  0  0  0  0  0  0  0  # atno 8008 bound_to 7997
  155.0100  140.3135  155.4814 H   0  0  0  0  0  0  0  0  0  0  0  0  # atno 8009 bound_to 7997
  156.2878  140.2186  156.5214 H   0  0  0  0  0  0  0  0  0  0  0  0  # atno 8010 bound_to 7997
  139.5394  144.6715  151.4675 H   0  0  0  0  0  0  0  0  0  0  0  0  # atno 10167 bound_to 10162
  156.9266  130.9957  151.2995 H   0  0  0  0  0  0  0  0  0  0  0  0  # atno 10718 bound_to 10713
  153.7584  135.6921  153.4930 H   0  0  0  0  0  0  0  0  0  0  0  0  # atno 10763 bound_to 10752
  153.1955  135.4455  155.0201 H   0  0  0  0  0  0  0  0  0  0  0  0  # atno 10764 bound_to 10752
  154.8162  135.3400  154.7101 H   0  0  0  0  0  0  0  0  0  0  0  0  # atno 10765 bound_to 10752
  140.5943  133.9895  155.8102 H   0  0  0  0  0  0  0  0  0  0  0  0  # atno 11005 bound_to 11000
  145.6089  141.0343  143.1977 LP  0  0  0  0  0  0  0  0  0  0  0  0  # atno 17320 bound_to 7965
  144.7341  139.7638  143.7336 LP  0  0  0  0  0  0  0  0  0  0  0  0  # atno 17321 bound_to 7965
  140.6617  143.8485  150.6895 LP  0  0  0  0  0  0  0  0  0  0  0  0  # atno 17342 bound_to 10162
  140.1881  143.4059  152.1883 LP  0  0  0  0  0  0  0  0  0  0  0  0  # atno 17343 bound_to 10162
  157.5874  130.8419  149.8609 LP  0  0  0  0  0  0  0  0  0  0  0  0  # atno 17370 bound_to 10713
  156.0466  130.3726  150.1302 LP  0  0  0  0  0  0  0  0  0  0  0  0  # atno 17371 bound_to 10713
  141.0915  133.9910  157.3230 LP  0  0  0  0  0  0  0  0  0  0  0  0  # atno 17394 bound_to 11000
  139.9260  135.0201  156.8237 LP  0  0  0  0  0  0  0  0  0  0  0  0  # atno 17395 bound_to 11000

$$$$
