AV-unprocessed.smi:2244|AV-procd|sdf|9074|dock8
  -GOLD-   2272012283D 1   1.00000     0.00000
 Structure written by MMmdl.
 49 51  0  0  0  0  0  0  0  0  1 V2000
  157.6289  141.0978  164.5557 C   0  0  0  0  0  0  0  0  0  0  0  0
  156.1094  141.0251  164.8289 C   0  0  0  0  0  0  0  0  0  0  0  0
  155.8281  139.6752  165.5213 C   0  0  0  0  0  0  0  0  0  0  0  0
  155.7526  142.1875  165.7785 C   0  0  0  0  0  0  0  0  0  0  0  0
  155.2747  141.1337  163.5401 C   0  0  0  0  0  0  0  0  0  0  0  0
  155.3720  140.2108  162.4747 C   0  0  0  0  0  0  0  0  0  0  0  0
  154.5608  140.4247  161.3477 C   0  0  0  0  0  0  0  0  0  0  0  0
  153.6964  141.5379  161.3385 C   0  0  0  0  0  0  0  0  0  0  0  0
  152.9217  141.6846  160.1510 N   0  0  0  0  0  0  0  0  0  0  0  0
  152.4112  140.7695  159.2997 C   0  0  0  0  0  0  0  0  0  0  0  0
  152.5795  139.5661  159.4895 O   0  0  0  0  0  0  0  0  0  0  0  0
  151.7150  141.2501  158.2562 N   0  0  0  0  0  0  0  0  0  0  0  0
  151.0874  140.4490  157.2103 C   0  0  2  0  0  0  0  0  0  0  0  0
  152.1534  139.7435  156.3566 C   0  0  0  0  0  0  0  0  0  0  0  0
  151.5069  139.0421  155.1516 C   0  0  0  0  0  0  0  0  0  0  0  0
  150.7528  139.9778  154.3879 O   0  0  0  0  0  0  0  0  0  0  0  0
  149.6720  140.5528  155.1161 C   0  0  2  0  0  0  0  0  0  0  0  0
  148.8782  141.4327  154.1710 C   0  0  0  0  0  0  0  0  0  0  0  0
  147.5337  141.9878  154.5799 C   0  0  0  0  0  0  0  0  0  0  0  0
  147.6174  140.9216  153.5142 C   0  0  0  0  0  0  0  0  0  0  0  0
  150.2271  141.3489  156.3113 C   0  0  0  0  0  0  0  0  0  0  0  0
  153.6572  142.3838  162.3996 N   0  0  0  0  0  0  0  0  0  0  0  0
  154.4255  142.1878  163.4746 N   0  0  0  0  0  0  0  0  0  0  0  0
  158.2008  141.0170  165.4809 H   0  0  0  0  0  0  0  0  0  0  0  0
  157.9107  142.0431  164.0899 H   0  0  0  0  0  0  0  0  0  0  0  0
  157.9612  140.2883  163.9046 H   0  0  0  0  0  0  0  0  0  0  0  0
  156.0703  138.8378  164.8661 H   0  0  0  0  0  0  0  0  0  0  0  0
  154.7808  139.5757  165.8083 H   0  0  0  0  0  0  0  0  0  0  0  0
  156.4212  139.5639  166.4297 H   0  0  0  0  0  0  0  0  0  0  0  0
  156.3426  142.1475  166.6949 H   0  0  0  0  0  0  0  0  0  0  0  0
  154.7024  142.1648  166.0717 H   0  0  0  0  0  0  0  0  0  0  0  0
  155.9412  143.1533  165.3083 H   0  0  0  0  0  0  0  0  0  0  0  0
  156.0387  139.3627  162.4937 H   0  0  0  0  0  0  0  0  0  0  0  0
  154.6056  139.7454  160.5086 H   0  0  0  0  0  0  0  0  0  0  0  0
  152.6756  142.6388  159.9316 H   0  0  0  0  0  0  0  0  0  0  0  0
  151.6251  142.2531  158.1748 H   0  0  0  0  0  0  0  0  0  0  0  0
  150.4371  139.6972  157.6616 H   0  0  0  0  0  0  0  0  0  0  0  0
  152.8823  140.4718  155.9975 H   0  0  0  0  0  0  0  0  0  0  0  0
  152.7049  139.0198  156.9575 H   0  0  0  0  0  0  0  0  0  0  0  0
  152.2773  138.6080  154.5142 H   0  0  0  0  0  0  0  0  0  0  0  0
  150.8654  138.2221  155.4778 H   0  0  0  0  0  0  0  0  0  0  0  0
  149.0189  139.7553  155.4764 H   0  0  0  0  0  0  0  0  0  0  0  0
  149.4962  142.0892  153.5612 H   0  0  0  0  0  0  0  0  0  0  0  0
  147.1391  141.6966  155.5514 H   0  0  0  0  0  0  0  0  0  0  0  0
  147.2913  142.9998  154.2621 H   0  0  0  0  0  0  0  0  0  0  0  0
  147.4303  141.2224  152.4855 H   0  0  0  0  0  0  0  0  0  0  0  0
  147.2791  139.9209  153.7764 H   0  0  0  0  0  0  0  0  0  0  0  0
  149.4079  141.7808  156.8877 H   0  0  0  0  0  0  0  0  0  0  0  0
  150.8249  142.1847  155.9440 H   0  0  0  0  0  0  0  0  0  0  0  0
  1  2  1  0  0  0  0
  1 24  1  0  0  0  0
  1 25  1  0  0  0  0
  1 26  1  0  0  0  0
  2  3  1  0  0  0  0
  2  4  1  0  0  0  0
  2  5  1  0  0  0  0
  3 27  1  0  0  0  0
  3 28  1  0  0  0  0
  3 29  1  0  0  0  0
  4 30  1  0  0  0  0
  4 31  1  0  0  0  0
  4 32  1  0  0  0  0
  5 23  1  0  0  0  0
  5  6  2  0  0  0  0
  6  7  1  0  0  0  0
  6 33  1  0  0  0  0
  7  8  2  0  0  0  0
  7 34  1  0  0  0  0
  8  9  1  0  0  0  0
  8 22  1  0  0  0  0
  9 10  1  0  0  0  0
  9 35  1  0  0  0  0
 10 11  2  0  0  0  0
 10 12  1  0  0  0  0
 12 13  1  0  0  0  0
 12 36  1  0  0  0  0
 13 21  1  0  0  0  0
 13 14  1  0  0  0  0
 13 37  1  0  0  0  0
 14 15  1  0  0  0  0
 14 38  1  0  0  0  0
 14 39  1  0  0  0  0
 15 16  1  0  0  0  0
 15 40  1  0  0  0  0
 15 41  1  0  0  0  0
 16 17  1  0  0  0  0
 17 18  1  0  0  0  0
 17 21  1  0  0  0  0
 17 42  1  0  0  0  0
 18 20  1  0  0  0  0
 18 19  1  0  0  0  0
 18 43  1  0  0  0  0
 19 20  1  0  0  0  0
 19 44  1  0  0  0  0
 19 45  1  0  0  0  0
 20 46  1  0  0  0  0
 20 47  1  0  0  0  0
 21 48  1  0  0  0  0
 21 49  1  0  0  0  0
 22 23  2  0  0  0  0
M  END
> <s_m_source_file>
AV-unprocessed.smi

> <i_m_source_file_index>
2244

> <i_lp_mmshare_version>
43012

> <i_f3d_flags>
0

> <s_epik_input>
W0NIM11DKFtDSDNdKShbQ0gzXSljMVtjSF1bY0hdYyhubjEpW05IXUMoPU8pW05IXVtDQEBIXTJbQ0gyXVtDSDJdT1tDQEhdKFtDSDJdMilbQ0hdM1tDSDJdW0NIMl0z

> <s_epik_cmdline>
J2VwaWtfcHl0aG9uJywgJy1waCcsICc3LjAnLCAnLXRuJywgJzgnLCAnLW1hJywgJzIwMCcsICctbWV0YWxfYmluZGluZycsICctaW1hZScsICc8aW5maWxlLm1hZT4nLCAnLW9tYWUnLCAnPG91dGZpbGUubWFlPic=

> <r_lp_tautomer_probability>
1

> <r_epik_Ionization_Penalty>
0.011369

> <r_epik_Ionization_Penalty_Charging>
0

> <r_epik_Ionization_Penalty_Neutral>
0.011369

> <r_epik_State_Penalty>
0.00456331

> <r_epik_Charging_Adjusted_Penalty>
0.00456331

> <i_epik_Tot_Q>
0

> <i_epik_Tot_abs_Q>
0

> <r_epik_Metal_State_Penalty>
-0

> <b_epik_Metal_Only>
0

> <s_lp_Force_Field>
OPLS_2005

> <r_lp_Energy>
27.8211

> <b_lp_Chiralities_Consistent>
1

> <s_lp_Variant>
AV-unprocessed.smi:2244-3

> <Gold.Version>
5.8.1

> <Gold.Id.Protein>
6NUR|6NUR_protein|mol2

> <Gold.PLP.Fitness>
43.7379

> <Gold.PLP.PLP>
-41.3641

> <Gold.PLP.part.hbond>
-2.3515

> <Gold.PLP.part.metal>
0.0000

> <Gold.PLP.part.buried>
0.5759

> <Gold.PLP.part.nonpolar>
-38.0423

> <Gold.PLP.part.repulsive>
0.3515

> <Gold.PLP.ligand.clash>
0.0000

> <Gold.PLP.ligand.torsion>
0.8529

> <Gold.PLP.Chemscore.Hbond>
1.0000

> <Gold.PLP.Chemscore.CHOScore>
0.0000

> <Gold.PLP.Chemscore.Metal>
0.0000

> <Gold.Chemscore.Hbonds>
donor molecule, donor type, donor heavy atom, donor atom, acceptor molecule, acceptor atom, score
      P1  H  7989  7998       L1    16  1.00

> <Gold.PLP.Chemscore.Internal.Correction>
1.0796

> <Gold.Rescore>
     Score         DG    S(hbond)    S(metal)    S(lipo)     H(rot)  DE(clash)    DE(int)     intcor
     14.34     -16.77       0.93        0.00      98.48       1.30       0.21       2.21       ----

> <Gold.Chemscore.Fitness>
14.3447

> <Gold.Chemscore.DG>
-16.7682

> <Gold.Chemscore.ZeroCoef>
-5.4800

> <Gold.Chemscore.Hbond>
0.9264

> <Gold.Chemscore.Metal>
0.0000

> <Gold.Chemscore.Lipo>
98.4809

> <Gold.Chemscore.Internal_Hbond>
0.0000

> <Gold.Chemscore.DEClash>
0.2114

> <Gold.Chemscore.DEInternal>
2.2121

> <Gold.Chemscore.Rot>
1.3002

> <Gold.Chemscore.Internal.Correction>
   9.000000E+99

> <Gold.Chemscore.Hbonds>
donor molecule, donor type, donor heavy atom, donor atom, acceptor molecule, acceptor atom, score
      P1  H  7989  7998       L1    16  0.78

> <Gold.Chemscore.Hbond.Weighted>
-3.0943

> <Gold.Chemscore.Metal.Weighted>
-0.0000

> <Gold.Chemscore.Lipo.Weighted>
-11.5223

> <Gold.Chemscore.Internal_Hbond.Weighted>
0.0000

> <Gold.Chemscore.DEClash.Weighted>
0.2114

> <Gold.Chemscore.DEInternal.Weighted>
2.2121

> <Gold.Chemscore.Rot.Weighted>
3.3284

> <Gold.Chemscore.Internal.Correction.Weighted>
   9.000000E+99

> <Gold.Protein.RotatedTorsions>
[ 6907 6896 6895 6894 ] final    9.68 input  -60.11 | X-H torsion
[ 7974 7965 7964 7962 ] final  135.48 input  175.53 | X-H torsion
[ 8008 7997 7996 7995 ] final   41.18 input   59.86 | X-H torsion
[ 10167 10162 10161 10158 ] final  -14.60 input  -65.29 | X-H torsion
[ 10718 10713 10712 10709 ] final  -21.68 input   66.30 | X-H torsion
[ 10763 10752 10751 10750 ] final -129.19 input  -60.55 | X-H torsion
[ 11005 11000 10999 10996 ] final  106.83 input  -57.11 | X-H torsion

> <Gold.Protein.ActiveResidues>
 VAL166  LYS551  ARG553  GLY616  TRP617  ASP618  TYR619  PRO620  LYS621  CYS622 
 ASP623  PHE694  ASN695  SER759  ASP760  ASP761  ALA762  ILE779  LEU786  VAL792 
 PHE793  MET794  SER795  GLU796  ALA797  LYS798  CYS799  TRP800  GLU811  SER814 

> <Gold.Protein.RotatedAtoms>
  151.7261  135.0884  160.0292 H   0  0  0  0  0  0  0  0  0  0  0  0  # atno 6907 bound_to 6896
  152.3571  133.6246  159.5996 H   0  0  0  0  0  0  0  0  0  0  0  0  # atno 6908 bound_to 6896
  150.7578  133.9399  159.3494 H   0  0  0  0  0  0  0  0  0  0  0  0  # atno 6909 bound_to 6896
  144.9659  139.4658  143.5456 H   0  0  0  0  0  0  0  0  0  0  0  0  # atno 7974 bound_to 7965
  155.2654  140.3362  155.4269 H   0  0  0  0  0  0  0  0  0  0  0  0  # atno 8008 bound_to 7997
  156.2156  140.1787  156.7638 H   0  0  0  0  0  0  0  0  0  0  0  0  # atno 8009 bound_to 7997
  154.5749  140.0663  156.9003 H   0  0  0  0  0  0  0  0  0  0  0  0  # atno 8010 bound_to 7997
  140.7204  143.5304  150.9526 H   0  0  0  0  0  0  0  0  0  0  0  0  # atno 10167 bound_to 10162
  156.5149  130.4618  149.6628 H   0  0  0  0  0  0  0  0  0  0  0  0  # atno 10718 bound_to 10713
  154.8757  135.3903  154.3880 H   0  0  0  0  0  0  0  0  0  0  0  0  # atno 10763 bound_to 10752
  153.4619  135.7029  153.6050 H   0  0  0  0  0  0  0  0  0  0  0  0  # atno 10764 bound_to 10752
  153.4545  135.3826  155.2271 H   0  0  0  0  0  0  0  0  0  0  0  0  # atno 10765 bound_to 10752
  139.8819  134.9381  156.5726 H   0  0  0  0  0  0  0  0  0  0  0  0  # atno 11005 bound_to 11000
  146.3367  139.8840  142.8819 LP  0  0  0  0  0  0  0  0  0  0  0  0  # atno 17320 bound_to 7965
  145.2630  141.0083  143.3815 LP  0  0  0  0  0  0  0  0  0  0  0  0  # atno 17321 bound_to 7965
  139.9024  143.6819  152.3129 LP  0  0  0  0  0  0  0  0  0  0  0  0  # atno 17342 bound_to 10162
  139.7173  144.7609  151.1012 LP  0  0  0  0  0  0  0  0  0  0  0  0  # atno 17343 bound_to 10162
  156.3205  130.7278  151.2189 LP  0  0  0  0  0  0  0  0  0  0  0  0  # atno 17370 bound_to 10713
  157.7445  131.0457  150.4856 LP  0  0  0  0  0  0  0  0  0  0  0  0  # atno 17371 bound_to 10713
  140.8087  133.8447  155.8790 LP  0  0  0  0  0  0  0  0  0  0  0  0  # atno 17394 bound_to 11000
  140.9526  134.1759  157.4716 LP  0  0  0  0  0  0  0  0  0  0  0  0  # atno 17395 bound_to 11000

$$$$
