AV-unprocessed.smi:2310|AV-procd|sdf|9258|dock1
  -GOLD-   2272012483D 1   1.00000     0.00000
 Structure written by MMmdl.
 46 47  0  0  0  0  0  0  0  0  2 V2000
  148.4224  132.7944  153.6395 C   0  0  0  0  0  0  0  0  0  0  0  0
  148.3299  134.3235  153.7479 C   0  0  0  0  0  0  0  0  0  0  0  0
  149.0357  134.9013  154.9887 C   0  0  1  0  0  0  0  0  0  0  0  0
  150.3755  134.1957  155.2501 C   0  0  0  0  0  0  0  0  0  0  0  0
  150.4202  133.4938  156.5429 C   0  0  0  0  0  0  0  0  0  0  0  0
  150.4535  132.9429  157.5597 N   0  0  0  0  0  0  0  0  0  0  0  0
  149.2607  136.3370  154.8168 N   0  0  0  0  0  0  0  0  0  0  0  0
  149.6997  137.1808  155.7619 C   0  0  0  0  0  0  0  0  0  0  0  0
  149.9691  136.8379  156.9127 O   0  0  0  0  0  0  0  0  0  0  0  0
  149.7843  138.4361  155.2894 N   0  0  0  0  0  0  0  0  0  0  0  0
  150.1561  139.6159  155.9919 C   0  0  0  0  0  0  0  0  0  0  0  0
  150.9740  139.6004  157.1485 C   0  0  0  0  0  0  0  0  0  0  0  0
  151.3064  140.8125  157.7859 C   0  0  0  0  0  0  0  0  0  0  0  0
  150.8274  142.0356  157.2623 C   0  0  0  0  0  0  0  0  0  0  0  0
  151.1172  143.2838  157.8468 N   0  0  0  0  0  0  0  0  0  0  0  0
  152.4578  143.6088  158.3059 C   0  0  0  0  0  0  0  0  0  0  0  0
  152.3035  144.9323  159.0539 C   0  0  0  0  0  0  0  0  0  0  0  0
  150.8961  144.8354  159.6417 C   0  0  0  0  0  0  0  0  0  0  0  0
  150.1141  144.0238  158.6026 C   0  0  0  0  0  0  0  0  0  0  0  0
  150.0704  142.0036  156.1401 N   0  3  0  0  0  0  0  0  0  0  0  0
  149.7257  140.8680  155.4927 C   0  0  0  0  0  0  0  0  0  0  0  0
  148.8689  141.0062  154.2474 C   0  0  0  0  0  0  0  0  0  0  0  0
  147.9535  132.4433  152.7201 H   0  0  0  0  0  0  0  0  0  0  0  0
  147.9215  132.3007  154.4724 H   0  0  0  0  0  0  0  0  0  0  0  0
  149.4613  132.4635  153.6294 H   0  0  0  0  0  0  0  0  0  0  0  0
  148.7703  134.7620  152.8517 H   0  0  0  0  0  0  0  0  0  0  0  0
  147.2812  134.6231  153.7463 H   0  0  0  0  0  0  0  0  0  0  0  0
  148.3918  134.7156  155.8505 H   0  0  0  0  0  0  0  0  0  0  0  0
  150.5694  133.4542  154.4748 H   0  0  0  0  0  0  0  0  0  0  0  0
  151.1995  134.9094  155.2237 H   0  0  0  0  0  0  0  0  0  0  0  0
  149.0611  136.7159  153.9025 H   0  0  0  0  0  0  0  0  0  0  0  0
  149.4534  138.5785  154.3463 H   0  0  0  0  0  0  0  0  0  0  0  0
  151.3648  138.6797  157.5538 H   0  0  0  0  0  0  0  0  0  0  0  0
  151.9294  140.7855  158.6675 H   0  0  0  0  0  0  0  0  0  0  0  0
  152.8116  142.8265  158.9792 H   0  0  0  0  0  0  0  0  0  0  0  0
  153.1592  143.6971  157.4757 H   0  0  0  0  0  0  0  0  0  0  0  0
  153.0741  145.0848  159.8102 H   0  0  0  0  0  0  0  0  0  0  0  0
  152.3521  145.7648  158.3503 H   0  0  0  0  0  0  0  0  0  0  0  0
  150.9337  144.2855  160.5831 H   0  0  0  0  0  0  0  0  0  0  0  0
  150.4499  145.8100  159.8422 H   0  0  0  0  0  0  0  0  0  0  0  0
  149.5785  144.6843  157.9201 H   0  0  0  0  0  0  0  0  0  0  0  0
  149.3870  143.3708  159.0867 H   0  0  0  0  0  0  0  0  0  0  0  0
  147.9226  140.4809  154.3786 H   0  0  0  0  0  0  0  0  0  0  0  0
  149.3818  140.5820  153.3838 H   0  0  0  0  0  0  0  0  0  0  0  0
  148.6484  142.0515  154.0288 H   0  0  0  0  0  0  0  0  0  0  0  0
  149.7384  142.8899  155.7600 H   0  0  0  0  0  0  0  0  0  0  0  0
  1  2  1  0  0  0  0
  1 23  1  0  0  0  0
  1 24  1  0  0  0  0
  1 25  1  0  0  0  0
  2  3  1  0  0  0  0
  2 26  1  0  0  0  0
  2 27  1  0  0  0  0
  3  4  1  0  0  0  0
  3  7  1  0  0  0  0
  3 28  1  0  0  0  0
  4  5  1  0  0  0  0
  4 29  1  0  0  0  0
  4 30  1  0  0  0  0
  5  6  3  0  0  0  0
  7  8  1  0  0  0  0
  7 31  1  0  0  0  0
  8  9  2  0  0  0  0
  8 10  1  0  0  0  0
 10 11  1  0  0  0  0
 10 32  1  0  0  0  0
 11 21  1  0  0  0  0
 11 12  2  0  0  0  0
 12 13  1  0  0  0  0
 12 33  1  0  0  0  0
 13 14  2  0  0  0  0
 13 34  1  0  0  0  0
 14 15  1  0  0  0  0
 14 20  1  0  0  0  0
 15 19  1  0  0  0  0
 15 16  1  0  0  0  0
 16 17  1  0  0  0  0
 16 35  1  0  0  0  0
 16 36  1  0  0  0  0
 17 18  1  0  0  0  0
 17 37  1  0  0  0  0
 17 38  1  0  0  0  0
 18 19  1  0  0  0  0
 18 39  1  0  0  0  0
 18 40  1  0  0  0  0
 19 41  1  0  0  0  0
 19 42  1  0  0  0  0
 20 21  2  0  0  0  0
 20 46  1  0  0  0  0
 21 22  1  0  0  0  0
 22 43  1  0  0  0  0
 22 44  1  0  0  0  0
 22 45  1  0  0  0  0
M  CHG  1  20   1
M  END
> <s_m_source_file>
AV-unprocessed.smi

> <i_m_source_file_index>
2310

> <i_lp_mmshare_version>
43012

> <i_f3d_flags>
0

> <s_epik_input>
TiNDW0NIMl1bQ0BASF0oW0NIMl1bQ0gzXSlbTkhdQyg9TylbTkhdYzFbY0hdW2NIXWMobmMxW0NIM10pTjJbQ0gyXVtDSDJdW0NIMl1bQ0gyXTI=

> <s_epik_cmdline>
J2VwaWtfcHl0aG9uJywgJy1waCcsICc3LjAnLCAnLXRuJywgJzgnLCAnLW1hJywgJzIwMCcsICctbWV0YWxfYmluZGluZycsICctaW1hZScsICc8aW5maWxlLm1hZT4nLCAnLW9tYWUnLCAnPG91dGZpbGUubWFlPic=

> <r_lp_tautomer_probability>
0.999994

> <r_epik_Ionization_Penalty>
0.577302

> <r_epik_Ionization_Penalty_Charging>
0.577278

> <r_epik_Ionization_Penalty_Neutral>
2.39253e-05

> <r_epik_State_Penalty>
0.589738

> <r_epik_Charging_Adjusted_Penalty>
1.16702

> <i_epik_Tot_Q>
1

> <i_epik_Tot_abs_Q>
1

> <r_epik_Metal_State_Penalty>
0.784556

> <b_epik_Metal_Only>
0

> <s_lp_Force_Field>
OPLS_2005

> <r_lp_Energy>
35.6243

> <b_lp_Chiralities_Consistent>
1

> <s_lp_Variant>
AV-unprocessed.smi:2310-4

> <Gold.Version>
5.8.1

> <Gold.Id.Protein>
6NUR|6NUR_protein|mol2

> <Gold.PLP.Fitness>
44.9475

> <Gold.PLP.PLP>
-37.6335

> <Gold.PLP.part.hbond>
-3.0000

> <Gold.PLP.part.metal>
0.0000

> <Gold.PLP.part.buried>
-1.8396

> <Gold.PLP.part.nonpolar>
-33.8700

> <Gold.PLP.part.repulsive>
0.1337

> <Gold.PLP.ligand.clash>
0.0000

> <Gold.PLP.ligand.torsion>
2.1425

> <Gold.PLP.Chemscore.Hbond>
3.7722

> <Gold.PLP.Chemscore.CHOScore>
0.0000

> <Gold.PLP.Chemscore.Metal>
0.0000

> <Gold.Chemscore.Hbonds>
donor molecule, donor type, donor heavy atom, donor atom, acceptor molecule, acceptor atom, score
      L1  H     7    31       P1  7948  0.74
      L1  H    20    46       P1  8028  2.00
      P1  H  6896  6907       L1     6  1.00

> <Gold.PLP.Chemscore.Internal.Correction>
0.2825

> <Gold.Rescore>
     Score         DG    S(hbond)    S(metal)    S(lipo)     H(rot)  DE(clash)    DE(int)     intcor
     17.20     -21.98       2.78        0.00      93.93       1.47       1.48       3.30       ----

> <Gold.Chemscore.Fitness>
17.2014

> <Gold.Chemscore.DG>
-21.9830

> <Gold.Chemscore.ZeroCoef>
-5.4800

> <Gold.Chemscore.Hbond>
2.7767

> <Gold.Chemscore.Metal>
0.0000

> <Gold.Chemscore.Lipo>
93.9277

> <Gold.Chemscore.Internal_Hbond>
0.0000

> <Gold.Chemscore.DEClash>
1.4846

> <Gold.Chemscore.DEInternal>
3.2970

> <Gold.Chemscore.Rot>
1.4690

> <Gold.Chemscore.Internal.Correction>
   9.000000E+99

> <Gold.Chemscore.Hbonds>
donor molecule, donor type, donor heavy atom, donor atom, acceptor molecule, acceptor atom, score
      L1  H     7    31       P1  7948  0.71
      L1  H    20    46       P1  8028  0.94
      P1  H  6896  6907       L1     6  0.99

> <Gold.Chemscore.Hbond.Weighted>
-9.2740

> <Gold.Chemscore.Metal.Weighted>
-0.0000

> <Gold.Chemscore.Lipo.Weighted>
-10.9895

> <Gold.Chemscore.Internal_Hbond.Weighted>
0.0000

> <Gold.Chemscore.DEClash.Weighted>
1.4846

> <Gold.Chemscore.DEInternal.Weighted>
3.2970

> <Gold.Chemscore.Rot.Weighted>
3.7606

> <Gold.Chemscore.Internal.Correction.Weighted>
   9.000000E+99

> <Gold.Protein.RotatedTorsions>
[ 6907 6896 6895 6894 ] final -146.80 input  -60.11 | X-H torsion
[ 7974 7965 7964 7962 ] final  -14.64 input  175.53 | X-H torsion
[ 8008 7997 7996 7995 ] final   90.11 input   59.86 | X-H torsion
[ 10167 10162 10161 10158 ] final  -51.71 input  -65.29 | X-H torsion
[ 10718 10713 10712 10709 ] final -135.27 input   66.30 | X-H torsion
[ 10763 10752 10751 10750 ] final  -83.59 input  -60.55 | X-H torsion
[ 11005 11000 10999 10996 ] final -126.29 input  -57.11 | X-H torsion

> <Gold.Protein.ActiveResidues>
 VAL166  LYS551  ARG553  GLY616  TRP617  ASP618  TYR619  PRO620  LYS621  CYS622 
 ASP623  PHE694  ASN695  SER759  ASP760  ASP761  ALA762  ILE779  LEU786  VAL792 
 PHE793  MET794  SER795  GLU796  ALA797  LYS798  CYS799  TRP800  GLU811  SER814 

> <Gold.Protein.RotatedAtoms>
  151.1468  133.4934  159.2595 H   0  0  0  0  0  0  0  0  0  0  0  0  # atno 6907 bound_to 6896
  151.1596  135.0267  159.8714 H   0  0  0  0  0  0  0  0  0  0  0  0  # atno 6908 bound_to 6896
  152.5463  134.1343  159.8505 H   0  0  0  0  0  0  0  0  0  0  0  0  # atno 6909 bound_to 6896
  146.2066  140.3377  142.8405 H   0  0  0  0  0  0  0  0  0  0  0  0  # atno 7974 bound_to 7965
  156.0081  140.3353  155.6913 H   0  0  0  0  0  0  0  0  0  0  0  0  # atno 8008 bound_to 7997
  155.6196  140.0673  157.2700 H   0  0  0  0  0  0  0  0  0  0  0  0  # atno 8009 bound_to 7997
  154.4272  140.1779  156.1346 H   0  0  0  0  0  0  0  0  0  0  0  0  # atno 8010 bound_to 7997
  140.6574  143.2610  151.4543 H   0  0  0  0  0  0  0  0  0  0  0  0  # atno 10167 bound_to 10162
  156.2643  130.7228  151.1174 H   0  0  0  0  0  0  0  0  0  0  0  0  # atno 10718 bound_to 10713
  154.5895  135.5551  153.7264 H   0  0  0  0  0  0  0  0  0  0  0  0  # atno 10763 bound_to 10752
  153.0111  135.6340  154.1869 H   0  0  0  0  0  0  0  0  0  0  0  0  # atno 10764 bound_to 10752
  154.1810  135.2887  155.3032 H   0  0  0  0  0  0  0  0  0  0  0  0  # atno 10765 bound_to 10752
  140.9693  134.0827  157.3886 H   0  0  0  0  0  0  0  0  0  0  0  0  # atno 11005 bound_to 11000
  144.8807  140.7397  143.5988 LP  0  0  0  0  0  0  0  0  0  0  0  0  # atno 17320 bound_to 7965
  145.3298  139.1763  143.4543 LP  0  0  0  0  0  0  0  0  0  0  0  0  # atno 17321 bound_to 7965
  139.5800  144.1731  152.1955 LP  0  0  0  0  0  0  0  0  0  0  0  0  # atno 17342 bound_to 10162
  140.1053  144.5504  150.6961 LP  0  0  0  0  0  0  0  0  0  0  0  0  # atno 17343 bound_to 10162
  157.7262  131.0648  150.5921 LP  0  0  0  0  0  0  0  0  0  0  0  0  # atno 17370 bound_to 10713
  156.6011  130.4355  149.5897 LP  0  0  0  0  0  0  0  0  0  0  0  0  # atno 17371 bound_to 10713
  139.8906  135.0113  156.6746 LP  0  0  0  0  0  0  0  0  0  0  0  0  # atno 17394 bound_to 11000
  140.7352  133.9024  155.8239 LP  0  0  0  0  0  0  0  0  0  0  0  0  # atno 17395 bound_to 11000

$$$$
