#       Name:                AV-unprocessed.smi:1295
#       Creating user name   scv26
#       Creation time:       Fri Mar 27 04:56:34 2020


#       File generated by GOLD software.
#

@<TRIPOS>MOLECULE
AV-unprocessed.smi:1295
    48    49     1
SMALL
NO_CHARGES


@<TRIPOS>ATOM
      1 ****        -6.4535  -1.3358   0.6462 C.3            1 S1                 0.0000
      2 ****        -4.9419  -1.4018   0.6741 C.2            1 S1                 0.0000
      3 ****        -4.3374  -0.1909   0.9686 N.pl3          1 S1                 0.0000
      4 ****        -2.9551  -0.1525   1.0182 C.2            1 S1                 0.0000
      5 ****        -2.3725   1.2111   1.3487 C.3            1 S1                 0.0000
      6 ****        -2.2126  -1.2637   0.7810 C.2            1 S1                 0.0000
      7 ****        -0.6855  -1.2591   0.8207 C.3            1 S1                 0.0000
      8 ****         0.0037  -0.7101  -0.4306 C.2            1 S1                 0.0000
      9 ****        -0.4369  -0.9799  -1.5478 O.2            1 S1                 0.0000
     10 ****         1.0811   0.0627  -0.2239 N.am           1 S1                 0.0000
     11 ****         1.8773   0.7312  -1.2551 C.3            1 S1                 0.0000
     12 ****         2.0663   2.2151  -0.8813 C.3            1 S1                 0.0000
     13 ****         2.9986   2.3953   0.3294 C.3            1 S1                 0.0000
     14 ****         4.3519   1.7070   0.0969 C.3            1 S1                 0.0000
     15 ****         4.1725   0.2216  -0.2557 C.3            1 S1                 0.0000
     16 ****         3.2452   0.0348  -1.4745 C.3            1 S1                 0.0000
     17 ****         3.1152  -1.4479  -1.8634 C.3            1 S1                 0.0000
     18 ****        -2.9163  -2.5291   0.4642 C.2            1 S1                 0.0000
     19 ****        -2.3003  -3.5675   0.2280 O.2            1 S1                 0.0000
     20 ****        -4.3203  -2.5159   0.4336 N.2            1 S1                 0.0000
     21 ****        -4.8517   0.6597   1.1471 H              1 S1                 0.0000
     22 ****        -6.8860  -2.3336   0.5614 H              1 S1                 0.0000
     23 ****        -6.7902  -0.7435  -0.2050 H              1 S1                 0.0000
     24 ****        -6.8337  -0.8777   1.5599 H              1 S1                 0.0000
     25 ****        -1.7926   1.1650   2.2705 H              1 S1                 0.0000
     26 ****        -3.1540   1.9599   1.4830 H              1 S1                 0.0000
     27 ****        -1.7184   1.5520   0.5457 H              1 S1                 0.0000
     28 ****        -0.2982  -2.2605   1.0098 H              1 S1                 0.0000
     29 ****        -0.3698  -0.6739   1.6852 H              1 S1                 0.0000
     30 ****         1.3670   0.2189   0.7319 H              1 S1                 0.0000
     31 ****         1.3315   0.7073  -2.1999 H              1 S1                 0.0000
     32 ****         2.4858   2.7483  -1.7354 H              1 S1                 0.0000
     33 ****         1.0998   2.6795  -0.6810 H              1 S1                 0.0000
     34 ****         3.1517   3.4572   0.5238 H              1 S1                 0.0000
     35 ****         2.5281   1.9850   1.2238 H              1 S1                 0.0000
     36 ****         4.8840   2.2119  -0.7104 H              1 S1                 0.0000
     37 ****         4.9756   1.8049   0.9857 H              1 S1                 0.0000
     38 ****         5.1477  -0.2217  -0.4599 H              1 S1                 0.0000
     39 ****         3.7686  -0.3125   0.6054 H              1 S1                 0.0000
     40 ****         3.7223   0.5348  -2.3188 H              1 S1                 0.0000
     41 ****         2.7005  -2.0445  -1.0506 H              1 S1                 0.0000
     42 ****         4.0872  -1.8715  -2.1171 H              1 S1                 0.0000
     43 ****         2.4670  -1.5698  -2.7315 H              1 S1                 0.0000
     44 ****        -1.2470  -1.5590  -1.6394 LP             1 S1                 0.0000
     45 ****         0.0152  -0.6200  -2.3639 LP             1 S1                 0.0000
     46 ****        -1.3005  -3.5711   0.2470 LP             1 S1                 0.0000
     47 ****        -2.7994  -4.4079   0.0169 LP             1 S1                 0.0000
     48 ****        -4.8325  -3.3503   0.2300 LP             1 S1                 0.0000
@<TRIPOS>BOND
    1    1   22 1     
    2    1   23 1     
    3    1   24 1     
    4    1    2 1     
    5    2    3 1     
    6    2   20 2     
    7    3    4 1     
    8    3   21 1     
    9    4    6 2     
   10    4    5 1     
   11    5   25 1     
   12    5   26 1     
   13    5   27 1     
   14    6   18 1     
   15    6    7 1     
   16    7    8 1     
   17    7   28 1     
   18    7   29 1     
   19    8    9 2     
   20    8   10 am    
   21   10   11 1     
   22   10   30 1     
   23   11   16 1     
   24   11   12 1     
   25   11   31 1     
   26   12   13 1     
   27   12   32 1     
   28   12   33 1     
   29   13   14 1     
   30   13   34 1     
   31   13   35 1     
   32   14   15 1     
   33   14   36 1     
   34   14   37 1     
   35   15   16 1     
   36   15   38 1     
   37   15   39 1     
   38   16   17 1     
   39   16   40 1     
   40   17   41 1     
   41   17   42 1     
   42   17   43 1     
   43   18   19 2     
   44   18   20 1     
   45    9   44 1     
   46    9   45 1     
   47   19   46 1     
   48   19   47 1     
   49   20   48 1     
@<TRIPOS>SUBSTRUCTURE
      1 S1             1
@<TRIPOS>SET
LONE_PAIRS      STATIC     ATOMS    <user>   **** ""
5 44 45 46 47 48
DONOR_HYDROGENS      STATIC     ATOMS    <user>   **** ""
2 21 30
ATOM$BLUE        STATIC     ATOMS    COLORGROUP SYSTEM
5 44 45 46 47 48
ATOM$RED        STATIC     ATOMS    COLORGROUP SYSTEM
2 21 30
