AV-unprocessed.smi:956|AV-procd|sdf|4264|dock10
  -GOLD-   22720 2173D 1   1.00000     0.00000
 Structure written by MMmdl.
 42 43  0  0  0  0  0  0  0  0  1 V2000
  154.3554  136.5375  159.6566 C   0  0  0  0  0  0  0  0  0  0  0  0
  153.9000  137.2421  158.0027 S   0  0  1  0  0  0  0  0  0  0  0  0
  153.9507  136.0948  156.9920 O   0  0  0  0  0  0  0  0  0  0  0  0
  152.1248  137.4197  158.3967 C   0  0  0  0  0  0  0  0  0  0  0  0
  151.6144  137.2593  159.6214 N   0  0  0  0  0  0  0  0  0  0  0  0
  150.2579  137.4795  159.4734 N   0  0  0  0  0  0  0  0  0  0  0  0
  150.0971  137.7471  158.1757 C   0  0  0  0  0  0  0  0  0  0  0  0
  151.2238  137.7293  157.4456 N   0  0  0  0  0  0  0  0  0  0  0  0
  151.3882  137.9670  156.0225 C   0  0  0  0  0  0  0  0  0  0  0  0
  150.9556  139.3865  155.6568 C   0  0  0  0  0  0  0  0  0  0  0  0
  150.7665  139.6871  154.4787 O   0  0  0  0  0  0  0  0  0  0  0  0
  150.8116  140.2500  156.6724 N   0  0  0  0  0  0  0  0  0  0  0  0
  150.4327  141.6467  156.5167 C   0  0  0  0  0  0  0  0  0  0  0  0
  151.5746  142.5688  156.9736 C   0  0  0  0  0  0  0  0  0  0  0  0
  151.3572  143.1961  158.3662 C   0  0  0  0  0  0  0  0  0  0  0  0
  151.2694  144.7336  158.2644 C   0  0  0  0  0  0  0  0  0  0  0  0
  151.0446  145.3880  159.6373 C   0  0  0  0  0  0  0  0  0  0  0  0
  152.1405  144.9807  160.6330 C   0  0  0  0  0  0  0  0  0  0  0  0
  152.2344  143.4523  160.7506 C   0  0  0  0  0  0  0  0  0  0  0  0
  152.4561  142.7977  159.3769 C   0  0  0  0  0  0  0  0  0  0  0  0
  153.7498  136.9783  160.4488 H   0  0  0  0  0  0  0  0  0  0  0  0
  155.4037  136.7408  159.8731 H   0  0  0  0  0  0  0  0  0  0  0  0
  154.2033  135.4581  159.6623 H   0  0  0  0  0  0  0  0  0  0  0  0
  149.1293  137.9599  157.7457 H   0  0  0  0  0  0  0  0  0  0  0  0
  152.4374  137.8236  155.7607 H   0  0  0  0  0  0  0  0  0  0  0  0
  150.8161  137.2297  155.4584 H   0  0  0  0  0  0  0  0  0  0  0  0
  150.9904  139.9237  157.6111 H   0  0  0  0  0  0  0  0  0  0  0  0
  150.1908  141.8382  155.4703 H   0  0  0  0  0  0  0  0  0  0  0  0
  149.5301  141.8329  157.0991 H   0  0  0  0  0  0  0  0  0  0  0  0
  152.5181  142.0215  156.9608 H   0  0  0  0  0  0  0  0  0  0  0  0
  151.6813  143.3702  156.2405 H   0  0  0  0  0  0  0  0  0  0  0  0
  150.3999  142.8375  158.7480 H   0  0  0  0  0  0  0  0  0  0  0  0
  152.1863  145.1261  157.8224 H   0  0  0  0  0  0  0  0  0  0  0  0
  150.4588  145.0183  157.5928 H   0  0  0  0  0  0  0  0  0  0  0  0
  151.0230  146.4729  159.5326 H   0  0  0  0  0  0  0  0  0  0  0  0
  150.0686  145.0957  160.0269 H   0  0  0  0  0  0  0  0  0  0  0  0
  153.1004  145.3826  160.3063 H   0  0  0  0  0  0  0  0  0  0  0  0
  151.9371  145.4185  161.6107 H   0  0  0  0  0  0  0  0  0  0  0  0
  153.0460  143.1813  161.4263 H   0  0  0  0  0  0  0  0  0  0  0  0
  151.3184  143.0632  161.1969 H   0  0  0  0  0  0  0  0  0  0  0  0
  152.4836  141.7162  159.5071 H   0  0  0  0  0  0  0  0  0  0  0  0
  153.4344  143.0867  158.9908 H   0  0  0  0  0  0  0  0  0  0  0  0
  1  2  1  0  0  0  0
  1 21  1  0  0  0  0
  1 22  1  0  0  0  0
  1 23  1  0  0  0  0
  2  3  2  0  0  0  0
  2  4  1  0  0  0  0
  4  8  1  0  0  0  0
  4  5  2  0  0  0  0
  5  6  1  0  0  0  0
  6  7  2  0  0  0  0
  7  8  1  0  0  0  0
  7 24  1  0  0  0  0
  8  9  1  0  0  0  0
  9 10  1  0  0  0  0
  9 25  1  0  0  0  0
  9 26  1  0  0  0  0
 10 11  2  0  0  0  0
 10 12  1  0  0  0  0
 12 13  1  0  0  0  0
 12 27  1  0  0  0  0
 13 14  1  0  0  0  0
 13 28  1  0  0  0  0
 13 29  1  0  0  0  0
 14 15  1  0  0  0  0
 14 30  1  0  0  0  0
 14 31  1  0  0  0  0
 15 20  1  0  0  0  0
 15 16  1  0  0  0  0
 15 32  1  0  0  0  0
 16 17  1  0  0  0  0
 16 33  1  0  0  0  0
 16 34  1  0  0  0  0
 17 18  1  0  0  0  0
 17 35  1  0  0  0  0
 17 36  1  0  0  0  0
 18 19  1  0  0  0  0
 18 37  1  0  0  0  0
 18 38  1  0  0  0  0
 19 20  1  0  0  0  0
 19 39  1  0  0  0  0
 19 40  1  0  0  0  0
 20 41  1  0  0  0  0
 20 42  1  0  0  0  0
M  END
> <s_m_source_file>
AV-unprocessed.smi

> <i_m_source_file_index>
956

> <i_lp_mmshare_version>
43012

> <i_f3d_flags>
0

> <s_epik_input>
W0NIM11bU0BdKD1PKWMxbm5bY0hdbjFbQ0gyXUMoPU8pW05IXVtDSDJdW0NIMl1bQ0hdMltDSDJdW0NIMl1bQ0gyXVtDSDJdW0NIMl0y

> <s_epik_cmdline>
J2VwaWtfcHl0aG9uJywgJy1waCcsICc3LjAnLCAnLXRuJywgJzgnLCAnLW1hJywgJzIwMCcsICctbWV0YWxfYmluZGluZycsICctaW1hZScsICc8aW5maWxlLm1hZT4nLCAnLW9tYWUnLCAnPG91dGZpbGUubWFlPic=

> <r_lp_tautomer_probability>
1

> <r_epik_Ionization_Penalty>
7.32521e-08

> <r_epik_Ionization_Penalty_Charging>
0

> <r_epik_Ionization_Penalty_Neutral>
7.32521e-08

> <r_epik_State_Penalty>
-0

> <r_epik_Charging_Adjusted_Penalty>
0

> <i_epik_Tot_Q>
0

> <i_epik_Tot_abs_Q>
0

> <r_epik_Metal_State_Penalty>
-0

> <b_epik_Metal_Only>
0

> <s_lp_Force_Field>
OPLS_2005

> <r_lp_Energy>
10.1233

> <b_lp_Chiralities_Consistent>
1

> <s_lp_Variant>
AV-unprocessed.smi:956-2

> <Gold.Version>
5.8.1

> <Gold.Id.Protein>
6NUR|6NUR_protein|mol2

> <Gold.PLP.Fitness>
41.9042

> <Gold.PLP.PLP>
-35.5468

> <Gold.PLP.part.hbond>
-3.4800

> <Gold.PLP.part.metal>
0.0000

> <Gold.PLP.part.buried>
-7.7767

> <Gold.PLP.part.nonpolar>
-24.4367

> <Gold.PLP.part.repulsive>
0.1772

> <Gold.PLP.ligand.clash>
0.0000

> <Gold.PLP.ligand.torsion>
1.8446

> <Gold.PLP.Chemscore.Hbond>
2.9913

> <Gold.PLP.Chemscore.CHOScore>
0.0000

> <Gold.PLP.Chemscore.Metal>
0.0000

> <Gold.Chemscore.Hbonds>
donor molecule, donor type, donor heavy atom, donor atom, acceptor molecule, acceptor atom, score
      P1  H  6896  6907       L1     5  0.70
      P1  H  7989  7998       L1    11  1.00
      P1  H 10752 10763       L1     3  1.00

> <Gold.PLP.Chemscore.Internal.Correction>
1.0730

> <Gold.Rescore>
     Score         DG    S(hbond)    S(metal)    S(lipo)     H(rot)  DE(clash)    DE(int)     intcor
     17.24     -19.47       2.79        0.00      89.36       2.26       0.26       1.97       ----

> <Gold.Chemscore.Fitness>
17.2428

> <Gold.Chemscore.DG>
-19.4736

> <Gold.Chemscore.ZeroCoef>
-5.4800

> <Gold.Chemscore.Hbond>
2.7881

> <Gold.Chemscore.Metal>
0.0000

> <Gold.Chemscore.Lipo>
89.3592

> <Gold.Chemscore.Internal_Hbond>
0.0000

> <Gold.Chemscore.DEClash>
0.2588

> <Gold.Chemscore.DEInternal>
1.9719

> <Gold.Chemscore.Rot>
2.2554

> <Gold.Chemscore.Internal.Correction>
   9.000000E+99

> <Gold.Chemscore.Hbonds>
donor molecule, donor type, donor heavy atom, donor atom, acceptor molecule, acceptor atom, score
      P1  H  6896  6907       L1     5  0.08
      P1  H  7989  7998       L1    11  1.00
      P1  H 10752 10763       L1     3  1.00

> <Gold.Chemscore.Hbond.Weighted>
-9.3124

> <Gold.Chemscore.Metal.Weighted>
-0.0000

> <Gold.Chemscore.Lipo.Weighted>
-10.4550

> <Gold.Chemscore.Internal_Hbond.Weighted>
0.0000

> <Gold.Chemscore.DEClash.Weighted>
0.2588

> <Gold.Chemscore.DEInternal.Weighted>
1.9719

> <Gold.Chemscore.Rot.Weighted>
5.7738

> <Gold.Chemscore.Internal.Correction.Weighted>
   9.000000E+99

> <Gold.Protein.RotatedTorsions>
[ 6907 6896 6895 6894 ] final   -2.04 input  -60.11 | X-H torsion
[ 7974 7965 7964 7962 ] final  -43.36 input  175.53 | X-H torsion
[ 8008 7997 7996 7995 ] final   93.60 input   59.86 | X-H torsion
[ 10167 10162 10161 10158 ] final    6.47 input  -65.29 | X-H torsion
[ 10718 10713 10712 10709 ] final  -26.85 input   66.30 | X-H torsion
[ 10763 10752 10751 10750 ] final  137.77 input  -60.55 | X-H torsion
[ 11005 11000 10999 10996 ] final  -85.74 input  -57.11 | X-H torsion

> <Gold.Protein.ActiveResidues>
 VAL166  LYS551  ARG553  GLY616  TRP617  ASP618  TYR619  PRO620  LYS621  CYS622 
 ASP623  PHE694  ASN695  SER759  ASP760  ASP761  ALA762  ILE779  LEU786  VAL792 
 PHE793  MET794  SER795  GLU796  ALA797  LYS798  CYS799  TRP800  GLU811  SER814 

> <Gold.Protein.RotatedAtoms>
  151.5363  135.1068  159.9914 H   0  0  0  0  0  0  0  0  0  0  0  0  # atno 6907 bound_to 6896
  152.4556  133.7712  159.6810 H   0  0  0  0  0  0  0  0  0  0  0  0  # atno 6908 bound_to 6896
  150.8498  133.7739  159.3054 H   0  0  0  0  0  0  0  0  0  0  0  0  # atno 6909 bound_to 6896
  146.0026  140.7056  142.9263 H   0  0  0  0  0  0  0  0  0  0  0  0  # atno 7974 bound_to 7965
  156.0486  140.3311  155.7325 H   0  0  0  0  0  0  0  0  0  0  0  0  # atno 8008 bound_to 7997
  155.5636  140.0621  157.2841 H   0  0  0  0  0  0  0  0  0  0  0  0  # atno 8009 bound_to 7997
  154.4425  140.1873  156.0795 H   0  0  0  0  0  0  0  0  0  0  0  0  # atno 8010 bound_to 7997
  140.6426  143.7739  150.7450 H   0  0  0  0  0  0  0  0  0  0  0  0  # atno 10167 bound_to 10162
  156.4458  130.4473  149.7022 H   0  0  0  0  0  0  0  0  0  0  0  0  # atno 10718 bound_to 10713
  153.8785  135.3047  155.3444 H   0  0  0  0  0  0  0  0  0  0  0  0  # atno 10763 bound_to 10752
  154.7772  135.4855  153.9772 H   0  0  0  0  0  0  0  0  0  0  0  0  # atno 10764 bound_to 10752
  153.1365  135.6815  153.9191 H   0  0  0  0  0  0  0  0  0  0  0  0  # atno 10765 bound_to 10752
  141.1638  133.7416  156.9059 H   0  0  0  0  0  0  0  0  0  0  0  0  # atno 11005 bound_to 11000
  144.6925  140.3260  143.7224 LP  0  0  0  0  0  0  0  0  0  0  0  0  # atno 17320 bound_to 7965
  145.7464  139.1780  143.2346 LP  0  0  0  0  0  0  0  0  0  0  0  0  # atno 17321 bound_to 7965
  140.1373  143.4472  152.2216 LP  0  0  0  0  0  0  0  0  0  0  0  0  # atno 17342 bound_to 10162
  139.5635  144.7421  151.4087 LP  0  0  0  0  0  0  0  0  0  0  0  0  # atno 17343 bound_to 10162
  156.3869  130.7607  151.2605 LP  0  0  0  0  0  0  0  0  0  0  0  0  # atno 17370 bound_to 10713
  157.7505  131.0279  150.4026 LP  0  0  0  0  0  0  0  0  0  0  0  0  # atno 17371 bound_to 10713
  140.1550  134.9204  157.2642 LP  0  0  0  0  0  0  0  0  0  0  0  0  # atno 17394 bound_to 11000
  140.2677  134.3496  155.7384 LP  0  0  0  0  0  0  0  0  0  0  0  0  # atno 17395 bound_to 11000

$$$$
