#       Name:                AV-unprocessed.smi:79
#       Creating user name   scv26
#       Creation time:       Thu Mar 26 17:13:45 2020


#       File generated by GOLD software.
#

@<TRIPOS>MOLECULE
AV-unprocessed.smi:79
    66    69     1
SMALL
NO_CHARGES


@<TRIPOS>ATOM
      1 ****        -7.2674  -1.7725   0.6301 C.3            1 S1                 0.0000
      2 ****        -5.7631  -1.5282   0.8079 C.3            1 S1                 0.0000
      3 ****        -5.5967  -0.6052   1.8657 O.3            1 S1                 0.0000
      4 ****        -5.1217  -0.9609  -0.4748 C.3            1 S1                 0.0000
      5 ****        -3.6440  -0.8421  -0.3801 N.4            1 S1                 1.0000
      6 ****        -2.9363  -2.1392  -0.5285 C.3            1 S1                 0.0000
      7 ****        -1.4234  -1.9618  -0.3351 C.3            1 S1                 0.0000
      8 ****        -0.8957  -0.9290  -1.2210 N.3            1 S1                 0.0000
      9 ****         0.4545  -0.8858  -1.1720 C.ar           1 S1                 0.0000
     10 ****         1.1269  -1.3546  -2.2510 N.ar           1 S1                 0.0000
     11 ****         2.4635  -1.3361  -2.2633 C.ar           1 S1                 0.0000
     12 ****         3.3012  -0.9043  -1.3177 N.ar           1 S1                 0.0000
     13 ****         2.6252  -0.4366  -0.2293 C.ar           1 S1                 0.0000
     14 ****         1.2118  -0.3910  -0.0730 C.ar           1 S1                 0.0000
     15 ****         0.8880   0.1441   1.1678 N.2            1 S1                 0.0000
     16 ****         2.0455   0.3999   1.7144 C.2            1 S1                 0.0000
     17 ****         3.1425   0.0902   0.9416 N.pl3          1 S1                 0.0000
     18 ****         4.5414   0.2661   1.3010 C.3            1 S1                 0.0000
     19 ****         5.0462   1.7150   1.1501 C.3            1 S1                 0.0000
     20 ****         4.8555   2.2088  -0.2949 C.3            1 S1                 0.0000
     21 ****         5.5973   1.4306  -1.2120 O.3            1 S1                 0.0000
     22 ****         4.5701   2.7039   2.2240 C.3            1 S1                 0.0000
     23 ****         5.9172   3.1355   2.5080 O.3            1 S1                 0.0000
     24 ****         6.4240   2.0113   1.7578 C.3            1 S1                 0.0000
     25 ****        -1.5788   0.3666  -1.1296 C.3            1 S1                 0.0000
     26 ****        -1.0486   1.3947  -2.1497 C.3            1 S1                 0.0000
     27 ****        -3.0999   0.1779  -1.3114 C.3            1 S1                 0.0000
     28 ****        -7.4548  -2.4980  -0.1619 H              1 S1                 0.0000
     29 ****        -7.7936  -0.8535   0.3693 H              1 S1                 0.0000
     30 ****        -7.7135  -2.1632   1.5455 H              1 S1                 0.0000
     31 ****        -5.2974  -2.4699   1.0961 H              1 S1                 0.0000
     32 ****        -4.6832  -0.5701   2.1038 H              1 S1                 0.0000
     33 ****        -5.3739  -1.5829  -1.3351 H              1 S1                 0.0000
     34 ****        -5.5592   0.0190  -0.6734 H              1 S1                 0.0000
     35 ****        -3.3034  -2.8643   0.1966 H              1 S1                 0.0000
     36 ****        -3.1371  -2.5518  -1.5185 H              1 S1                 0.0000
     37 ****        -1.2173  -1.6936   0.7022 H              1 S1                 0.0000
     38 ****        -0.9162  -2.9092  -0.5254 H              1 S1                 0.0000
     39 ****         2.9283  -1.7226  -3.1585 H              1 S1                 0.0000
     40 ****         2.1297   0.8232   2.7047 H              1 S1                 0.0000
     41 ****         4.6602  -0.0722   2.3312 H              1 S1                 0.0000
     42 ****         5.1431  -0.4184   0.7023 H              1 S1                 0.0000
     43 ****         3.8059   2.2041  -0.5888 H              1 S1                 0.0000
     44 ****         5.1904   3.2422  -0.3922 H              1 S1                 0.0000
     45 ****         5.2540   0.5498  -1.2055 H              1 S1                 0.0000
     46 ****         3.9421   3.5093   1.8410 H              1 S1                 0.0000
     47 ****         4.1105   2.2327   3.0939 H              1 S1                 0.0000
     48 ****         6.7988   1.2234   2.4130 H              1 S1                 0.0000
     49 ****         7.1803   2.3017   1.0277 H              1 S1                 0.0000
     50 ****        -1.4127   0.7661  -0.1284 H              1 S1                 0.0000
     51 ****        -1.6076   2.3289  -2.0887 H              1 S1                 0.0000
     52 ****        -1.1387   1.0217  -3.1706 H              1 S1                 0.0000
     53 ****        -0.0007   1.6408  -1.9755 H              1 S1                 0.0000
     54 ****        -3.3216  -0.1219  -2.3374 H              1 S1                 0.0000
     55 ****        -3.6040   1.1307  -1.1434 H              1 S1                 0.0000
     56 ****        -3.4449  -0.5014   0.5493 H              1 S1                 0.0000
     57 ****        -6.1374  -0.8983   2.6542 LP             1 S1                 0.0000
     58 ****        -5.9011   0.3006   1.5710 LP             1 S1                 0.0000
     59 ****        -1.1231  -1.2033  -2.1553 LP             1 S1                 0.0000
     60 ****         0.6239  -1.7139  -3.0370 LP             1 S1                 0.0000
     61 ****         4.2979  -0.9215  -1.3973 LP             1 S1                 0.0000
     62 ****        -0.0219   0.2978   1.5532 LP             1 S1                 0.0000
     63 ****         6.5603   1.4191  -0.9428 LP             1 S1                 0.0000
     64 ****         5.5124   1.8188  -2.1296 LP             1 S1                 0.0000
     65 ****         6.1559   3.1213   3.4790 LP             1 S1                 0.0000
     66 ****         6.1524   4.0267   2.1200 LP             1 S1                 0.0000
@<TRIPOS>BOND
    1    1    2 1     
    2    1   28 1     
    3    1   29 1     
    4    1   30 1     
    5    2    3 1     
    6    2    4 1     
    7    2   31 1     
    8    3   32 1     
    9    4    5 1     
   10    4   33 1     
   11    4   34 1     
   12    5   27 1     
   13    5    6 1     
   14    5   56 1     
   15    6    7 1     
   16    6   35 1     
   17    6   36 1     
   18    7    8 1     
   19    7   37 1     
   20    7   38 1     
   21    8    9 1     
   22    8   25 1     
   23    9   14 ar    
   24    9   10 ar    
   25   10   11 ar    
   26   11   12 ar    
   27   11   39 1     
   28   12   13 ar    
   29   13   17 1     
   30   13   14 ar    
   31   14   15 1     
   32   15   16 2     
   33   16   17 1     
   34   16   40 1     
   35   17   18 1     
   36   18   19 1     
   37   18   41 1     
   38   18   42 1     
   39   19   24 1     
   40   19   20 1     
   41   19   22 1     
   42   20   21 1     
   43   20   43 1     
   44   20   44 1     
   45   21   45 1     
   46   22   23 1     
   47   22   46 1     
   48   22   47 1     
   49   23   24 1     
   50   24   48 1     
   51   24   49 1     
   52   25   26 1     
   53   25   27 1     
   54   25   50 1     
   55   26   51 1     
   56   26   52 1     
   57   26   53 1     
   58   27   54 1     
   59   27   55 1     
   60    3   57 1     
   61    3   58 1     
   62    8   59 1     
   63   10   60 1     
   64   12   61 1     
   65   15   62 1     
   66   21   63 1     
   67   21   64 1     
   68   23   65 1     
   69   23   66 1     
@<TRIPOS>SUBSTRUCTURE
      1 S1             1
@<TRIPOS>SET
LONE_PAIRS      STATIC     ATOMS    <user>   **** ""
10 57 58 59 60 61 62 63 64 65 66
DONOR_HYDROGENS      STATIC     ATOMS    <user>   **** ""
3 32 56 45
ATOM$BLUE        STATIC     ATOMS    COLORGROUP SYSTEM
10 57 58 59 60 61 62 63 64 65 66
ATOM$RED        STATIC     ATOMS    COLORGROUP SYSTEM
3 32 56 45
