AV-unprocessed.smi:530|AV-procd|sdf|2843|dock8
  -GOLD-   2262023333D 1   1.00000     0.00000
 Structure written by MMmdl.
 35 37  0  0  0  0  0  0  0  0  1 V2000
  150.7171  145.2936  159.4114 C   0  0  0  0  0  0  0  0  0  0  0  0
  151.5801  144.2485  160.0446 C   0  0  0  0  0  0  0  0  0  0  0  0
  151.9611  144.3180  161.3203 N   0  0  0  0  0  0  0  0  0  0  0  0
  152.7230  143.1751  161.4712 C   0  0  0  0  0  0  0  0  0  0  0  0
  153.4105  142.6717  162.5989 C   0  0  0  0  0  0  0  0  0  0  0  0
  154.1360  141.4654  162.5131 C   0  0  0  0  0  0  0  0  0  0  0  0
  154.1848  140.7466  161.3010 C   0  0  0  0  0  0  0  0  0  0  0  0
  153.5053  141.2292  160.1660 C   0  0  0  0  0  0  0  0  0  0  0  0
  152.7817  142.4333  160.2571 C   0  0  0  0  0  0  0  0  0  0  0  0
  152.0211  143.1690  159.3532 N   0  0  0  0  0  0  0  0  0  0  0  0
  151.7628  142.8307  157.9601 C   0  0  0  0  0  0  0  0  0  0  0  0
  150.5420  141.9058  157.7824 C   0  0  1  0  0  0  0  0  0  0  0  0
  149.3697  142.6774  157.6022 O   0  0  0  0  0  0  0  0  0  0  0  0
  150.7621  140.9200  156.6455 C   0  0  0  0  0  0  0  0  0  0  0  0
  151.9005  140.0840  156.6277 C   0  0  0  0  0  0  0  0  0  0  0  0
  152.0915  139.1669  155.5758 C   0  0  0  0  0  0  0  0  0  0  0  0
  151.1446  139.0784  154.5375 C   0  0  0  0  0  0  0  0  0  0  0  0
  150.0056  139.9060  154.5525 C   0  0  0  0  0  0  0  0  0  0  0  0
  149.8140  140.8231  155.6043 C   0  0  0  0  0  0  0  0  0  0  0  0
  150.4719  146.0742  160.1322 H   0  0  0  0  0  0  0  0  0  0  0  0
  149.7860  144.8520  159.0563 H   0  0  0  0  0  0  0  0  0  0  0  0
  151.2342  145.7555  158.5706 H   0  0  0  0  0  0  0  0  0  0  0  0
  153.3801  143.2156  163.5314 H   0  0  0  0  0  0  0  0  0  0  0  0
  154.6583  141.0903  163.3810 H   0  0  0  0  0  0  0  0  0  0  0  0
  154.7446  139.8244  161.2428 H   0  0  0  0  0  0  0  0  0  0  0  0
  153.5430  140.6831  159.2352 H   0  0  0  0  0  0  0  0  0  0  0  0
  151.6220  143.7557  157.3994 H   0  0  0  0  0  0  0  0  0  0  0  0
  152.6542  142.3612  157.5438 H   0  0  0  0  0  0  0  0  0  0  0  0
  150.3942  141.3356  158.6998 H   0  0  0  0  0  0  0  0  0  0  0  0
  149.4853  143.2237  156.8399 H   0  0  0  0  0  0  0  0  0  0  0  0
  152.6297  140.1414  157.4226 H   0  0  0  0  0  0  0  0  0  0  0  0
  152.9641  138.5304  155.5666 H   0  0  0  0  0  0  0  0  0  0  0  0
  151.2909  138.3749  153.7312 H   0  0  0  0  0  0  0  0  0  0  0  0
  149.2775  139.8367  153.7577 H   0  0  0  0  0  0  0  0  0  0  0  0
  148.9347  141.4507  155.6087 H   0  0  0  0  0  0  0  0  0  0  0  0
  1  2  1  0  0  0  0
  1 20  1  0  0  0  0
  1 21  1  0  0  0  0
  1 22  1  0  0  0  0
  2 10  1  0  0  0  0
  2  3  2  0  0  0  0
  3  4  1  0  0  0  0
  4  9  2  0  0  0  0
  4  5  1  0  0  0  0
  5  6  2  0  0  0  0
  5 23  1  0  0  0  0
  6  7  1  0  0  0  0
  6 24  1  0  0  0  0
  7  8  2  0  0  0  0
  7 25  1  0  0  0  0
  8  9  1  0  0  0  0
  8 26  1  0  0  0  0
  9 10  1  0  0  0  0
 10 11  1  0  0  0  0
 11 12  1  0  0  0  0
 11 27  1  0  0  0  0
 11 28  1  0  0  0  0
 12 13  1  0  0  0  0
 12 14  1  0  0  0  0
 12 29  1  0  0  0  0
 13 30  1  0  0  0  0
 14 19  1  0  0  0  0
 14 15  2  0  0  0  0
 15 16  1  0  0  0  0
 15 31  1  0  0  0  0
 16 17  2  0  0  0  0
 16 32  1  0  0  0  0
 17 18  1  0  0  0  0
 17 33  1  0  0  0  0
 18 19  2  0  0  0  0
 18 34  1  0  0  0  0
 19 35  1  0  0  0  0
M  END
> <s_m_source_file>
AV-unprocessed.smi

> <i_m_source_file_index>
530

> <i_lp_mmshare_version>
43012

> <i_f3d_flags>
0

> <s_epik_input>
W2NIXTFbY0hdW2NIXVtjSF1jKGMxMiluKGMobjIpW0NIM10pW0NIMl1bQ0BIXShbT0hdKWMzW2NIXVtjSF1bY0hdW2NIXVtjSF0z

> <s_epik_cmdline>
J2VwaWtfcHl0aG9uJywgJy1waCcsICc3LjAnLCAnLXRuJywgJzgnLCAnLW1hJywgJzIwMCcsICctbWV0YWxfYmluZGluZycsICctaW1hZScsICc8aW5maWxlLm1hZT4nLCAnLW9tYWUnLCAnPG91dGZpbGUubWFlPic=

> <r_epik_Ionization_Penalty>
0.129663

> <r_epik_Ionization_Penalty_Charging>
0

> <r_epik_Ionization_Penalty_Neutral>
0.129663

> <r_epik_State_Penalty>
0.119073

> <r_epik_Charging_Adjusted_Penalty>
0.119073

> <i_epik_Tot_Q>
0

> <i_epik_Tot_abs_Q>
0

> <r_epik_Metal_State_Penalty>
0.000131867

> <b_epik_Metal_Only>
0

> <s_lp_Force_Field>
OPLS_2005

> <r_lp_Energy>
11.6979

> <b_lp_Chiralities_Consistent>
1

> <s_lp_Variant>
AV-unprocessed.smi:530-2

> <Gold.Version>
5.8.1

> <Gold.Id.Protein>
6NUR|6NUR_protein|mol2

> <Gold.PLP.Fitness>
51.5641

> <Gold.PLP.PLP>
-50.2159

> <Gold.PLP.part.hbond>
-1.0000

> <Gold.PLP.part.metal>
0.0000

> <Gold.PLP.part.buried>
-3.6465

> <Gold.PLP.part.nonpolar>
-45.2834

> <Gold.PLP.part.repulsive>
0.1721

> <Gold.PLP.ligand.clash>
0.0000

> <Gold.PLP.ligand.torsion>
0.8371

> <Gold.PLP.Chemscore.Hbond>
1.0000

> <Gold.PLP.Chemscore.CHOScore>
0.0000

> <Gold.PLP.Chemscore.Metal>
0.0000

> <Gold.Chemscore.Hbonds>
donor molecule, donor type, donor heavy atom, donor atom, acceptor molecule, acceptor atom, score
      L1  H    13    30       P1  8028  1.00

> <Gold.PLP.Chemscore.Internal.Correction>
0.0223

> <Gold.Rescore>
     Score         DG    S(hbond)    S(metal)    S(lipo)     H(rot)  DE(clash)    DE(int)     intcor
     18.66     -19.51       0.92        0.00     130.86       1.70       0.06       0.80       ----

> <Gold.Chemscore.Fitness>
18.6559

> <Gold.Chemscore.DG>
-19.5115

> <Gold.Chemscore.ZeroCoef>
-5.4800

> <Gold.Chemscore.Hbond>
0.9212

> <Gold.Chemscore.Metal>
0.0000

> <Gold.Chemscore.Lipo>
130.8553

> <Gold.Chemscore.Internal_Hbond>
0.0000

> <Gold.Chemscore.DEClash>
0.0599

> <Gold.Chemscore.DEInternal>
0.7957

> <Gold.Chemscore.Rot>
1.7013

> <Gold.Chemscore.Internal.Correction>
   9.000000E+99

> <Gold.Chemscore.Hbonds>
donor molecule, donor type, donor heavy atom, donor atom, acceptor molecule, acceptor atom, score
      L1  H    13    30       P1  8028  0.91

> <Gold.Chemscore.Hbond.Weighted>
-3.0768

> <Gold.Chemscore.Metal.Weighted>
-0.0000

> <Gold.Chemscore.Lipo.Weighted>
-15.3101

> <Gold.Chemscore.Internal_Hbond.Weighted>
0.0000

> <Gold.Chemscore.DEClash.Weighted>
0.0599

> <Gold.Chemscore.DEInternal.Weighted>
0.7957

> <Gold.Chemscore.Rot.Weighted>
4.3554

> <Gold.Chemscore.Internal.Correction.Weighted>
   9.000000E+99

> <Gold.Protein.RotatedTorsions>
[ 6907 6896 6895 6894 ] final  140.08 input  -60.11 | X-H torsion
[ 7974 7965 7964 7962 ] final  145.38 input  175.53 | X-H torsion
[ 8008 7997 7996 7995 ] final  101.52 input   59.86 | X-H torsion
[ 10167 10162 10161 10158 ] final   73.47 input  -65.29 | X-H torsion
[ 10718 10713 10712 10709 ] final    9.64 input   66.30 | X-H torsion
[ 10763 10752 10751 10750 ] final   -7.49 input  -60.55 | X-H torsion
[ 11005 11000 10999 10996 ] final   -8.18 input  -57.11 | X-H torsion

> <Gold.Protein.ActiveResidues>
 VAL166  LYS551  ARG553  GLY616  TRP617  ASP618  TYR619  PRO620  LYS621  CYS622 
 ASP623  PHE694  ASN695  SER759  ASP760  ASP761  ALA762  ILE779  LEU786  VAL792 
 PHE793  MET794  SER795  GLU796  ALA797  LYS798  CYS799  TRP800  GLU811  SER814 

> <Gold.Protein.RotatedAtoms>
  152.2473  133.5185  159.5304 H   0  0  0  0  0  0  0  0  0  0  0  0  # atno 6907 bound_to 6896
  150.7082  134.1008  159.3974 H   0  0  0  0  0  0  0  0  0  0  0  0  # atno 6908 bound_to 6896
  151.8928  135.0409  160.0550 H   0  0  0  0  0  0  0  0  0  0  0  0  # atno 6909 bound_to 6896
  144.8757  139.5776  143.5866 H   0  0  0  0  0  0  0  0  0  0  0  0  # atno 7974 bound_to 7965
  156.1307  140.3196  155.8345 H   0  0  0  0  0  0  0  0  0  0  0  0  # atno 8008 bound_to 7997
  155.4337  140.0520  157.3033 H   0  0  0  0  0  0  0  0  0  0  0  0  # atno 8009 bound_to 7997
  154.4897  140.2087  155.9588 H   0  0  0  0  0  0  0  0  0  0  0  0  # atno 8010 bound_to 7997
  140.0241  144.5517  150.7558 H   0  0  0  0  0  0  0  0  0  0  0  0  # atno 10167 bound_to 10162
  156.9693  130.5963  149.5667 H   0  0  0  0  0  0  0  0  0  0  0  0  # atno 10718 bound_to 10713
  153.4271  135.7011  153.6255 H   0  0  0  0  0  0  0  0  0  0  0  0  # atno 10763 bound_to 10752
  153.4685  135.3720  155.2378 H   0  0  0  0  0  0  0  0  0  0  0  0  # atno 10764 bound_to 10752
  154.8724  135.4037  154.3649 H   0  0  0  0  0  0  0  0  0  0  0  0  # atno 10765 bound_to 10752
  140.7207  133.8830  155.8819 H   0  0  0  0  0  0  0  0  0  0  0  0  # atno 11005 bound_to 11000
  146.2961  139.7283  142.9125 LP  0  0  0  0  0  0  0  0  0  0  0  0  # atno 17320 bound_to 7965
  145.4046  141.0389  143.3051 LP  0  0  0  0  0  0  0  0  0  0  0  0  # atno 17321 bound_to 7965
  140.7330  143.2712  151.3883 LP  0  0  0  0  0  0  0  0  0  0  0  0  # atno 17342 bound_to 10162
  139.6120  144.1080  152.2308 LP  0  0  0  0  0  0  0  0  0  0  0  0  # atno 17343 bound_to 10162
  156.0289  130.5382  150.8482 LP  0  0  0  0  0  0  0  0  0  0  0  0  # atno 17370 bound_to 10713
  157.5604  131.0946  150.9568 LP  0  0  0  0  0  0  0  0  0  0  0  0  # atno 17371 bound_to 10713
  141.0005  134.1156  157.4321 LP  0  0  0  0  0  0  0  0  0  0  0  0  # atno 17394 bound_to 11000
  139.8849  135.0067  156.6398 LP  0  0  0  0  0  0  0  0  0  0  0  0  # atno 17395 bound_to 11000

$$$$
