#       Name:                AV-unprocessed.smi:572
#       Creating user name   scv26
#       Creation time:       Thu Mar 26 23:47:04 2020


#       File generated by GOLD software.
#

@<TRIPOS>MOLECULE
AV-unprocessed.smi:572
    53    55     1
SMALL
NO_CHARGES


@<TRIPOS>ATOM
      1 ****        -0.3959   0.8247  -3.6458 C.3            1 S1                 0.0000
      2 ****        -0.3065   0.8534  -2.2330 O.3            1 S1                 0.0000
      3 ****        -1.0298   1.9310  -1.6615 C.3            1 S1                 0.0000
      4 ****        -0.9131   1.8799  -0.1319 C.3            1 S1                 0.0000
      5 ****        -1.4023   0.6200   0.4082 N.pl3          1 S1                 0.0000
      6 ****        -0.6753  -0.4619   0.7851 C.2            1 S1                 0.0000
      7 ****         0.7753  -0.5292   0.7076 C.ar           1 S1                 0.0000
      8 ****         1.3895  -1.1396  -0.4015 C.ar           1 S1                 0.0000
      9 ****         2.8009  -1.1986  -0.4957 C.ar           1 S1                 0.0000
     10 ****         3.4748  -1.7665  -1.5577 O.3            1 S1                 0.0000
     11 ****         2.7108  -2.2910  -2.6340 C.3            1 S1                 0.0000
     12 ****         3.5772  -0.6467   0.5480 C.ar           1 S1                 0.0000
     13 ****         4.9400  -0.7018   0.4653 O.3            1 S1                 0.0000
     14 ****         2.9732  -0.0390   1.6720 C.ar           1 S1                 0.0000
     15 ****         3.8077   0.4739   2.6440 O.3            1 S1                 0.0000
     16 ****         3.2187   1.0809   3.7847 C.3            1 S1                 0.0000
     17 ****         1.5599   0.0149   1.7418 C.ar           1 S1                 0.0000
     18 ****        -1.3897  -1.4942   1.2380 N.2            1 S1                 0.0000
     19 ****        -2.6905  -1.0404   1.1446 C.ar           1 S1                 0.0000
     20 ****        -3.9118  -1.6727   1.4708 C.ar           1 S1                 0.0000
     21 ****        -5.1364  -0.9993   1.2807 C.ar           1 S1                 0.0000
     22 ****        -5.1575   0.3124   0.7638 C.ar           1 S1                 0.0000
     23 ****        -3.9517   0.9605   0.4342 C.ar           1 S1                 0.0000
     24 ****        -2.7330   0.2832   0.6264 C.ar           1 S1                 0.0000
     25 ****         0.1747  -0.0202  -4.0306 H              1 S1                 0.0000
     26 ****         0.0118   1.7359  -4.0849 H              1 S1                 0.0000
     27 ****        -1.4299   0.7091  -3.9731 H              1 S1                 0.0000
     28 ****        -0.6396   2.8804  -2.0308 H              1 S1                 0.0000
     29 ****        -2.0788   1.8729  -1.9563 H              1 S1                 0.0000
     30 ****         0.1229   2.0302   0.1719 H              1 S1                 0.0000
     31 ****        -1.4854   2.6935   0.3149 H              1 S1                 0.0000
     32 ****         0.7546  -1.5476  -1.1734 H              1 S1                 0.0000
     33 ****         3.3848  -2.6850  -3.3946 H              1 S1                 0.0000
     34 ****         2.1002  -1.5184  -3.1034 H              1 S1                 0.0000
     35 ****         2.0695  -3.1102  -2.3063 H              1 S1                 0.0000
     36 ****         5.2385  -1.1288  -0.3232 H              1 S1                 0.0000
     37 ****         4.0059   1.4257   4.4550 H              1 S1                 0.0000
     38 ****         2.6013   0.3727   4.3390 H              1 S1                 0.0000
     39 ****         2.6172   1.9480   3.5093 H              1 S1                 0.0000
     40 ****         1.0530   0.4721   2.5781 H              1 S1                 0.0000
     41 ****        -3.9062  -2.6775   1.8663 H              1 S1                 0.0000
     42 ****        -6.0641  -1.4918   1.5322 H              1 S1                 0.0000
     43 ****        -6.0999   0.8207   0.6204 H              1 S1                 0.0000
     44 ****        -3.9630   1.9647   0.0371 H              1 S1                 0.0000
     45 ****         0.6556   0.9411  -1.9749 LP             1 S1                 0.0000
     46 ****        -0.6717  -0.0046  -1.8717 LP             1 S1                 0.0000
     47 ****         4.0260  -2.5165  -1.1922 LP             1 S1                 0.0000
     48 ****         4.0772  -1.0639  -1.9365 LP             1 S1                 0.0000
     49 ****         5.2888  -1.2066   1.2548 LP             1 S1                 0.0000
     50 ****         5.2999   0.2310   0.4805 LP             1 S1                 0.0000
     51 ****         4.3838   1.1638   2.2057 LP             1 S1                 0.0000
     52 ****         4.3791  -0.2788   2.9709 LP             1 S1                 0.0000
     53 ****        -1.0626  -2.3807   1.5653 LP             1 S1                 0.0000
@<TRIPOS>BOND
    1    1    2 1     
    2    1   25 1     
    3    1   26 1     
    4    1   27 1     
    5    2    3 1     
    6    3    4 1     
    7    3   28 1     
    8    3   29 1     
    9    4    5 1     
   10    4   30 1     
   11    4   31 1     
   12    5   24 1     
   13    5    6 1     
   14    6    7 1     
   15    6   18 2     
   16    7   17 ar    
   17    7    8 ar    
   18    8    9 ar    
   19    8   32 1     
   20    9   10 1     
   21    9   12 ar    
   22   10   11 1     
   23   11   33 1     
   24   11   34 1     
   25   11   35 1     
   26   12   13 1     
   27   12   14 ar    
   28   13   36 1     
   29   14   15 1     
   30   14   17 ar    
   31   15   16 1     
   32   16   37 1     
   33   16   38 1     
   34   16   39 1     
   35   17   40 1     
   36   18   19 1     
   37   19   24 ar    
   38   19   20 ar    
   39   20   21 ar    
   40   20   41 1     
   41   21   22 ar    
   42   21   42 1     
   43   22   23 ar    
   44   22   43 1     
   45   23   24 ar    
   46   23   44 1     
   47    2   45 1     
   48    2   46 1     
   49   10   47 1     
   50   10   48 1     
   51   13   49 1     
   52   13   50 1     
   53   15   51 1     
   54   15   52 1     
   55   18   53 1     
@<TRIPOS>SUBSTRUCTURE
      1 S1             1
@<TRIPOS>SET
LONE_PAIRS      STATIC     ATOMS    <user>   **** ""
9 45 46 47 48 49 50 51 52 53
DONOR_HYDROGENS      STATIC     ATOMS    <user>   **** ""
1 36
ATOM$BLUE        STATIC     ATOMS    COLORGROUP SYSTEM
9 45 46 47 48 49 50 51 52 53
ATOM$RED        STATIC     ATOMS    COLORGROUP SYSTEM
1 36
