AV-unprocessed.smi:1572|AV-procd|sdf|6328|dock7
  -GOLD-   22720 6533D 1   1.00000     0.00000
 Structure written by MMmdl.
 43 44  0  0  0  0  0  0  0  0  2 V2000
  144.1257  133.5939  151.2887 C   0  0  0  0  0  0  0  0  0  0  0  0
  145.1172  134.6625  151.3471 N   0  0  0  0  0  0  0  0  0  0  0  0
  145.3241  135.1920  152.6937 C   0  0  0  0  0  0  0  0  0  0  0  0
  146.0618  134.1897  153.6042 C   0  0  0  0  0  0  0  0  0  0  0  0
  147.3856  133.8139  153.0262 N   0  3  0  0  0  0  0  0  0  0  0  0
  148.2827  133.0040  153.9333 C   0  0  0  0  0  0  0  0  0  0  0  0
  147.8278  133.1033  155.4097 C   0  0  0  0  0  0  0  0  0  0  0  0
  148.2642  131.5043  153.5325 C   0  0  0  0  0  0  0  0  0  0  0  0
  149.7432  133.5336  153.7906 C   0  0  0  0  0  0  0  0  0  0  0  0
  149.8550  134.9925  153.7777 N   0  0  0  0  0  0  0  0  0  0  0  0
  150.6386  135.7193  154.5885 C   0  0  0  0  0  0  0  0  0  0  0  0
  151.3485  135.2261  155.4651 O   0  0  0  0  0  0  0  0  0  0  0  0
  150.5365  137.0324  154.3171 N   0  0  0  0  0  0  0  0  0  0  0  0
  151.1774  138.1176  154.9715 C   0  0  0  0  0  0  0  0  0  0  0  0
  152.3963  138.0361  155.5279 N   0  0  0  0  0  0  0  0  0  0  0  0
  152.7860  139.2381  156.1040 N   0  0  0  0  0  0  0  0  0  0  0  0
  151.8463  140.1771  155.9616 C   0  0  0  0  0  0  0  0  0  0  0  0
  150.3918  139.6838  155.1117 S   0  0  0  0  0  0  0  0  0  0  0  0
  147.1771  133.2775  151.6491 C   0  0  0  0  0  0  0  0  0  0  0  0
  146.4054  134.2849  150.7700 C   0  0  0  0  0  0  0  0  0  0  0  0
  143.1713  133.9436  151.6834 H   0  0  0  0  0  0  0  0  0  0  0  0
  144.4225  132.7119  151.8550 H   0  0  0  0  0  0  0  0  0  0  0  0
  143.9627  133.2891  150.2544 H   0  0  0  0  0  0  0  0  0  0  0  0
  145.9021  136.1143  152.6218 H   0  0  0  0  0  0  0  0  0  0  0  0
  144.3618  135.4639  153.1290 H   0  0  0  0  0  0  0  0  0  0  0  0
  146.1747  134.6615  154.5770 H   0  0  0  0  0  0  0  0  0  0  0  0
  145.4456  133.3050  153.7626 H   0  0  0  0  0  0  0  0  0  0  0  0
  148.4103  132.4394  156.0495 H   0  0  0  0  0  0  0  0  0  0  0  0
  146.7821  132.8209  155.5310 H   0  0  0  0  0  0  0  0  0  0  0  0
  147.9507  134.1089  155.8116 H   0  0  0  0  0  0  0  0  0  0  0  0
  148.9639  130.9116  154.1207 H   0  0  0  0  0  0  0  0  0  0  0  0
  148.5264  131.3675  152.4827 H   0  0  0  0  0  0  0  0  0  0  0  0
  147.2938  131.0396  153.7061 H   0  0  0  0  0  0  0  0  0  0  0  0
  150.3733  133.1047  154.5719 H   0  0  0  0  0  0  0  0  0  0  0  0
  150.1865  133.2157  152.8491 H   0  0  0  0  0  0  0  0  0  0  0  0
  149.3029  135.4834  153.0895 H   0  0  0  0  0  0  0  0  0  0  0  0
  149.9259  137.2878  153.5552 H   0  0  0  0  0  0  0  0  0  0  0  0
  152.0110  141.1671  156.3603 H   0  0  0  0  0  0  0  0  0  0  0  0
  148.1254  133.1101  151.1427 H   0  0  0  0  0  0  0  0  0  0  0  0
  146.6646  132.3161  151.6864 H   0  0  0  0  0  0  0  0  0  0  0  0
  146.2514  133.8767  149.7704 H   0  0  0  0  0  0  0  0  0  0  0  0
  147.0040  135.1883  150.6433 H   0  0  0  0  0  0  0  0  0  0  0  0
  147.8789  134.6848  152.8899 H   0  0  0  0  0  0  0  0  0  0  0  0
  1  2  1  0  0  0  0
  1 21  1  0  0  0  0
  1 22  1  0  0  0  0
  1 23  1  0  0  0  0
  2 20  1  0  0  0  0
  2  3  1  0  0  0  0
  3  4  1  0  0  0  0
  3 24  1  0  0  0  0
  3 25  1  0  0  0  0
  4  5  1  0  0  0  0
  4 26  1  0  0  0  0
  4 27  1  0  0  0  0
  5  6  1  0  0  0  0
  5 19  1  0  0  0  0
  5 43  1  0  0  0  0
  6  7  1  0  0  0  0
  6  8  1  0  0  0  0
  6  9  1  0  0  0  0
  7 28  1  0  0  0  0
  7 29  1  0  0  0  0
  7 30  1  0  0  0  0
  8 31  1  0  0  0  0
  8 32  1  0  0  0  0
  8 33  1  0  0  0  0
  9 10  1  0  0  0  0
  9 34  1  0  0  0  0
  9 35  1  0  0  0  0
 10 11  1  0  0  0  0
 10 36  1  0  0  0  0
 11 12  2  0  0  0  0
 11 13  1  0  0  0  0
 13 14  1  0  0  0  0
 13 37  1  0  0  0  0
 14 18  1  0  0  0  0
 14 15  2  0  0  0  0
 15 16  1  0  0  0  0
 16 17  2  0  0  0  0
 17 18  1  0  0  0  0
 17 38  1  0  0  0  0
 19 20  1  0  0  0  0
 19 39  1  0  0  0  0
 19 40  1  0  0  0  0
 20 41  1  0  0  0  0
 20 42  1  0  0  0  0
M  CHG  1   5   1
M  END
> <s_m_source_file>
AV-unprocessed.smi

> <i_m_source_file_index>
1572

> <i_lp_mmshare_version>
43012

> <i_f3d_flags>
0

> <s_epik_input>
W0NIM11OMVtDSDJdW0NIMl1OKFtDSDJdW0NIMl0xKUMoW0NIM10pKFtDSDNdKVtDSDJdW05IXUMoPU8pW05IXWMybm5bY0hdczI=

> <s_epik_cmdline>
J2VwaWtfcHl0aG9uJywgJy1waCcsICc3LjAnLCAnLXRuJywgJzgnLCAnLW1hJywgJzIwMCcsICctbWV0YWxfYmluZGluZycsICctaW1hZScsICc8aW5maWxlLm1hZT4nLCAnLW9tYWUnLCAnPG91dGZpbGUubWFlPic=

> <r_epik_Ionization_Penalty>
0.104337

> <r_epik_Ionization_Penalty_Charging>
0.0985296

> <r_epik_Ionization_Penalty_Neutral>
0.00580738

> <r_epik_State_Penalty>
1.056

> <r_epik_Charging_Adjusted_Penalty>
1.15453

> <i_epik_Tot_Q>
1

> <i_epik_Tot_abs_Q>
1

> <r_epik_Metal_State_Penalty>
1.38982

> <b_epik_Metal_Only>
0

> <s_lp_Force_Field>
OPLS_2005

> <r_lp_Energy>
26.4424

> <b_lp_Chiralities_Consistent>
1

> <s_lp_Variant>
AV-unprocessed.smi:1572-2

> <Gold.Version>
5.8.1

> <Gold.Id.Protein>
6NUR|6NUR_protein|mol2

> <Gold.PLP.Fitness>
38.2233

> <Gold.PLP.PLP>
-28.0859

> <Gold.PLP.part.hbond>
-6.2874

> <Gold.PLP.part.metal>
0.0000

> <Gold.PLP.part.buried>
-0.5901

> <Gold.PLP.part.nonpolar>
-20.3983

> <Gold.PLP.part.repulsive>
0.3525

> <Gold.PLP.ligand.clash>
0.0233

> <Gold.PLP.ligand.torsion>
1.9661

> <Gold.PLP.Chemscore.Hbond>
4.6692

> <Gold.PLP.Chemscore.CHOScore>
0.0000

> <Gold.PLP.Chemscore.Metal>
0.0000

> <Gold.Chemscore.Hbonds>
donor molecule, donor type, donor heavy atom, donor atom, acceptor molecule, acceptor atom, score
      L1  H     5    43       P1  7948  1.59
      L1  H    10    36       P1  7948  0.61
      L1  H    13    37       P1  7948  0.44
      P1  H  7997  8010       L1    16  1.00
      P1  H 10752 10764       L1    12  0.94

> <Gold.PLP.Chemscore.Internal.Correction>
0.0851

> <Gold.Rescore>
     Score         DG    S(hbond)    S(metal)    S(lipo)     H(rot)  DE(clash)    DE(int)     intcor
     12.93     -16.99       2.72        0.00      57.83       1.70       1.42       2.65       ----

> <Gold.Chemscore.Fitness>
12.9253

> <Gold.Chemscore.DG>
-16.9934

> <Gold.Chemscore.ZeroCoef>
-5.4800

> <Gold.Chemscore.Hbond>
2.7210

> <Gold.Chemscore.Metal>
0.0000

> <Gold.Chemscore.Lipo>
57.8281

> <Gold.Chemscore.Internal_Hbond>
0.0000

> <Gold.Chemscore.DEClash>
1.4172

> <Gold.Chemscore.DEInternal>
2.6510

> <Gold.Chemscore.Rot>
1.6956

> <Gold.Chemscore.Internal.Correction>
   9.000000E+99

> <Gold.Chemscore.Hbonds>
donor molecule, donor type, donor heavy atom, donor atom, acceptor molecule, acceptor atom, score
      L1  H     5    43       P1  7948  0.66
      L1  H    10    36       P1  7948  0.09
      L1  H    13    37       P1  7948  0.22
      P1  H  7997  8010       L1    16  0.60
      P1  H 10752 10764       L1    12  0.55

> <Gold.Chemscore.Hbond.Weighted>
-9.0883

> <Gold.Chemscore.Metal.Weighted>
-0.0000

> <Gold.Chemscore.Lipo.Weighted>
-6.7659

> <Gold.Chemscore.Internal_Hbond.Weighted>
0.0000

> <Gold.Chemscore.DEClash.Weighted>
1.4172

> <Gold.Chemscore.DEInternal.Weighted>
2.6510

> <Gold.Chemscore.Rot.Weighted>
4.3407

> <Gold.Chemscore.Internal.Correction.Weighted>
   9.000000E+99

> <Gold.Protein.RotatedTorsions>
[ 6907 6896 6895 6894 ] final -113.79 input  -60.11 | X-H torsion
[ 7974 7965 7964 7962 ] final  138.71 input  175.53 | X-H torsion
[ 8008 7997 7996 7995 ] final   68.85 input   59.86 | X-H torsion
[ 10167 10162 10161 10158 ] final  -33.01 input  -65.29 | X-H torsion
[ 10718 10713 10712 10709 ] final   69.83 input   66.30 | X-H torsion
[ 10763 10752 10751 10750 ] final  -35.20 input  -60.55 | X-H torsion
[ 11005 11000 10999 10996 ] final   48.90 input  -57.11 | X-H torsion

> <Gold.Protein.ActiveResidues>
 VAL166  LYS551  ARG553  GLY616  TRP617  ASP618  TYR619  PRO620  LYS621  CYS622 
 ASP623  PHE694  ASN695  SER759  ASP760  ASP761  ALA762  ILE779  LEU786  VAL792 
 PHE793  MET794  SER795  GLU796  ALA797  LYS798  CYS799  TRP800  GLU811  SER814 

> <Gold.Protein.RotatedAtoms>
  150.7855  133.8894  159.3308 H   0  0  0  0  0  0  0  0  0  0  0  0  # atno 6907 bound_to 6896
  151.6745  135.0969  160.0214 H   0  0  0  0  0  0  0  0  0  0  0  0  # atno 6908 bound_to 6896
  152.3917  133.6650  159.6278 H   0  0  0  0  0  0  0  0  0  0  0  0  # atno 6909 bound_to 6896
  144.9347  139.5004  143.5601 H   0  0  0  0  0  0  0  0  0  0  0  0  # atno 7974 bound_to 7965
  155.7147  140.3494  155.4989 H   0  0  0  0  0  0  0  0  0  0  0  0  # atno 8008 bound_to 7997
  155.9324  140.1086  157.1143 H   0  0  0  0  0  0  0  0  0  0  0  0  # atno 8009 bound_to 7997
  154.4087  140.1228  156.4807 H   0  0  0  0  0  0  0  0  0  0  0  0  # atno 8010 bound_to 7997
  140.7212  143.3652  151.1885 H   0  0  0  0  0  0  0  0  0  0  0  0  # atno 10167 bound_to 10162
  157.6367  130.9446  150.0567 H   0  0  0  0  0  0  0  0  0  0  0  0  # atno 10718 bound_to 10713
  153.8593  135.6841  153.4784 H   0  0  0  0  0  0  0  0  0  0  0  0  # atno 10763 bound_to 10752
  153.1351  135.4681  154.9408 H   0  0  0  0  0  0  0  0  0  0  0  0  # atno 10764 bound_to 10752
  154.7766  135.3255  154.8028 H   0  0  0  0  0  0  0  0  0  0  0  0  # atno 10765 bound_to 10752
  140.1150  134.4905  155.8645 H   0  0  0  0  0  0  0  0  0  0  0  0  # atno 11005 bound_to 11000
  146.3261  139.8323  142.8906 LP  0  0  0  0  0  0  0  0  0  0  0  0  # atno 17320 bound_to 7965
  145.3086  141.0213  143.3567 LP  0  0  0  0  0  0  0  0  0  0  0  0  # atno 17321 bound_to 7965
  139.7212  143.9221  152.2986 LP  0  0  0  0  0  0  0  0  0  0  0  0  # atno 17342 bound_to 10162
  139.8978  144.6929  150.8698 LP  0  0  0  0  0  0  0  0  0  0  0  0  # atno 17343 bound_to 10162
  156.1612  130.3644  149.9297 LP  0  0  0  0  0  0  0  0  0  0  0  0  # atno 17370 bound_to 10713
  156.7294  130.9037  151.3624 LP  0  0  0  0  0  0  0  0  0  0  0  0  # atno 17371 bound_to 10713
  141.2139  133.6740  156.6778 LP  0  0  0  0  0  0  0  0  0  0  0  0  # atno 17394 bound_to 11000
  140.3041  134.8140  157.4122 LP  0  0  0  0  0  0  0  0  0  0  0  0  # atno 17395 bound_to 11000

$$$$
