AV-unprocessed.smi:492|AV-procd|sdf|2709|dock2
  -GOLD-   2262023153D 1   1.00000     0.00000
 Structure written by MMmdl.
 46 48  0  0  0  0  0  0  0  0  1 V2000
  142.3530  146.8699  154.1106 C   0  0  0  0  0  0  0  0  0  0  0  0
  142.5112  145.6648  154.8453 O   0  0  0  0  0  0  0  0  0  0  0  0
  143.5270  144.8089  154.4765 C   0  0  0  0  0  0  0  0  0  0  0  0
  144.3510  144.9946  153.3381 C   0  0  0  0  0  0  0  0  0  0  0  0
  145.3686  144.0690  153.0349 C   0  0  0  0  0  0  0  0  0  0  0  0
  145.5844  142.9491  153.8627 C   0  0  0  0  0  0  0  0  0  0  0  0
  146.6726  141.9494  153.5169 C   0  0  0  0  0  0  0  0  0  0  0  0
  147.6215  141.8115  154.5615 O   0  0  0  0  0  0  0  0  0  0  0  0
  147.8772  140.4599  154.9083 C   0  0  0  0  0  0  0  0  0  0  0  0
  149.3663  140.1429  154.6989 C   0  0  1  0  0  0  0  0  0  0  0  0
  149.5792  139.8264  153.3377 O   0  0  0  0  0  0  0  0  0  0  0  0
  150.3089  141.2644  155.1847 C   0  0  0  0  0  0  0  0  0  0  0  0
  151.2738  140.8030  156.1729 N   0  0  0  0  0  0  0  0  0  0  0  0
  152.1009  139.7311  156.0994 C   0  0  0  0  0  0  0  0  0  0  0  0
  152.1188  138.8258  154.9088 C   0  0  0  0  0  0  0  0  0  0  0  0
  152.8928  139.5342  157.1538 N   0  0  0  0  0  0  0  0  0  0  0  0
  152.5447  140.5755  157.9926 C   0  0  0  0  0  0  0  0  0  0  0  0
  153.0276  140.9231  159.2745 C   0  0  0  0  0  0  0  0  0  0  0  0
  152.5118  142.0484  159.9507 C   0  0  0  0  0  0  0  0  0  0  0  0
  151.5086  142.8411  159.3562 C   0  0  0  0  0  0  0  0  0  0  0  0
  151.0139  142.5127  158.0795 C   0  0  0  0  0  0  0  0  0  0  0  0
  151.5317  141.3881  157.4089 C   0  0  0  0  0  0  0  0  0  0  0  0
  144.7608  142.7546  154.9909 C   0  0  0  0  0  0  0  0  0  0  0  0
  143.7447  143.6809  155.2941 C   0  0  0  0  0  0  0  0  0  0  0  0
  141.5170  147.4352  154.5222 H   0  0  0  0  0  0  0  0  0  0  0  0
  142.1315  146.6705  153.0614 H   0  0  0  0  0  0  0  0  0  0  0  0
  143.2413  147.4992  154.1793 H   0  0  0  0  0  0  0  0  0  0  0  0
  144.2227  145.8400  152.6796 H   0  0  0  0  0  0  0  0  0  0  0  0
  145.9856  144.2244  152.1619 H   0  0  0  0  0  0  0  0  0  0  0  0
  146.2034  140.9866  153.3103 H   0  0  0  0  0  0  0  0  0  0  0  0
  147.1782  142.2698  152.6045 H   0  0  0  0  0  0  0  0  0  0  0  0
  147.6218  140.3074  155.9582 H   0  0  0  0  0  0  0  0  0  0  0  0
  147.2519  139.7840  154.3225 H   0  0  0  0  0  0  0  0  0  0  0  0
  149.5917  139.2331  155.2551 H   0  0  0  0  0  0  0  0  0  0  0  0
  149.3383  140.5771  152.8165 H   0  0  0  0  0  0  0  0  0  0  0  0
  150.8616  141.6882  154.3457 H   0  0  0  0  0  0  0  0  0  0  0  0
  149.7328  142.0869  155.6084 H   0  0  0  0  0  0  0  0  0  0  0  0
  152.8291  138.0120  155.0586 H   0  0  0  0  0  0  0  0  0  0  0  0
  152.4150  139.3767  154.0167 H   0  0  0  0  0  0  0  0  0  0  0  0
  151.1322  138.3912  154.7472 H   0  0  0  0  0  0  0  0  0  0  0  0
  153.7966  140.3225  159.7374 H   0  0  0  0  0  0  0  0  0  0  0  0
  152.8886  142.3048  160.9300 H   0  0  0  0  0  0  0  0  0  0  0  0
  151.1193  143.7019  159.8799 H   0  0  0  0  0  0  0  0  0  0  0  0
  150.2473  143.1190  157.6206 H   0  0  0  0  0  0  0  0  0  0  0  0
  144.9038  141.8956  155.6300 H   0  0  0  0  0  0  0  0  0  0  0  0
  143.1237  143.5228  156.1637 H   0  0  0  0  0  0  0  0  0  0  0  0
  1  2  1  0  0  0  0
  1 25  1  0  0  0  0
  1 26  1  0  0  0  0
  1 27  1  0  0  0  0
  2  3  1  0  0  0  0
  3 24  1  0  0  0  0
  3  4  2  0  0  0  0
  4  5  1  0  0  0  0
  4 28  1  0  0  0  0
  5  6  2  0  0  0  0
  5 29  1  0  0  0  0
  6  7  1  0  0  0  0
  6 23  1  0  0  0  0
  7  8  1  0  0  0  0
  7 30  1  0  0  0  0
  7 31  1  0  0  0  0
  8  9  1  0  0  0  0
  9 10  1  0  0  0  0
  9 32  1  0  0  0  0
  9 33  1  0  0  0  0
 10 11  1  0  0  0  0
 10 12  1  0  0  0  0
 10 34  1  0  0  0  0
 11 35  1  0  0  0  0
 12 13  1  0  0  0  0
 12 36  1  0  0  0  0
 12 37  1  0  0  0  0
 13 22  1  0  0  0  0
 13 14  1  0  0  0  0
 14 15  1  0  0  0  0
 14 16  2  0  0  0  0
 15 38  1  0  0  0  0
 15 39  1  0  0  0  0
 15 40  1  0  0  0  0
 16 17  1  0  0  0  0
 17 22  2  0  0  0  0
 17 18  1  0  0  0  0
 18 19  2  0  0  0  0
 18 41  1  0  0  0  0
 19 20  1  0  0  0  0
 19 42  1  0  0  0  0
 20 21  2  0  0  0  0
 20 43  1  0  0  0  0
 21 22  1  0  0  0  0
 21 44  1  0  0  0  0
 23 24  2  0  0  0  0
 23 45  1  0  0  0  0
 24 46  1  0  0  0  0
M  END
> <s_m_source_file>
AV-unprocessed.smi

> <i_m_source_file_index>
492

> <i_lp_mmshare_version>
43012

> <i_f3d_flags>
0

> <s_epik_input>
W0NIM11PYzFbY0hdW2NIXWMoW2NIXVtjSF0xKVtDSDJdT1tDSDJdW0NASF0oW09IXSlbQ0gyXW4oYyhuMilbQ0gzXSljKGMyMylbY0hdW2NIXVtjSF1bY0hdMw==

> <s_epik_cmdline>
J2VwaWtfcHl0aG9uJywgJy1waCcsICc3LjAnLCAnLXRuJywgJzgnLCAnLW1hJywgJzIwMCcsICctbWV0YWxfYmluZGluZycsICctaW1hZScsICc8aW5maWxlLm1hZT4nLCAnLW9tYWUnLCAnPG91dGZpbGUubWFlPic=

> <r_lp_tautomer_probability>
1

> <r_epik_Ionization_Penalty>
0.132603

> <r_epik_Ionization_Penalty_Charging>
0

> <r_epik_Ionization_Penalty_Neutral>
0.132603

> <r_epik_State_Penalty>
0.121982

> <r_epik_Charging_Adjusted_Penalty>
0.121982

> <i_epik_Tot_Q>
0

> <i_epik_Tot_abs_Q>
0

> <r_epik_Metal_State_Penalty>
0.000135431

> <b_epik_Metal_Only>
0

> <s_lp_Force_Field>
OPLS_2005

> <r_lp_Energy>
18.9568

> <b_lp_Chiralities_Consistent>
1

> <s_lp_Variant>
AV-unprocessed.smi:492-2

> <Gold.Version>
5.8.1

> <Gold.Id.Protein>
6NUR|6NUR_protein|mol2

> <Gold.PLP.Fitness>
49.0788

> <Gold.PLP.PLP>
-49.2140

> <Gold.PLP.part.hbond>
-1.9548

> <Gold.PLP.part.metal>
0.0000

> <Gold.PLP.part.buried>
-6.9658

> <Gold.PLP.part.nonpolar>
-40.0423

> <Gold.PLP.part.repulsive>
0.1591

> <Gold.PLP.ligand.clash>
0.0000

> <Gold.PLP.ligand.torsion>
1.7720

> <Gold.PLP.Chemscore.Hbond>
1.0480

> <Gold.PLP.Chemscore.CHOScore>
0.0000

> <Gold.PLP.Chemscore.Metal>
0.0000

> <Gold.Chemscore.Hbonds>
donor molecule, donor type, donor heavy atom, donor atom, acceptor molecule, acceptor atom, score
      L1  H    11    35       P1  7957  0.08
      P1  H  7989  7998       L1    11  0.02
      P1  H  7997  8009       L1    16  0.90

> <Gold.PLP.Chemscore.Internal.Correction>
0.2648

> <Gold.Rescore>
     Score         DG    S(hbond)    S(metal)    S(lipo)     H(rot)  DE(clash)    DE(int)     intcor
     12.88     -14.98       0.33        0.00     124.36       2.40       0.43       1.68       ----

> <Gold.Chemscore.Fitness>
12.8751

> <Gold.Chemscore.DG>
-14.9850

> <Gold.Chemscore.ZeroCoef>
-5.4800

> <Gold.Chemscore.Hbond>
0.3285

> <Gold.Chemscore.Metal>
0.0000

> <Gold.Chemscore.Lipo>
124.3562

> <Gold.Chemscore.Internal_Hbond>
0.0000

> <Gold.Chemscore.DEClash>
0.4253

> <Gold.Chemscore.DEInternal>
1.6846

> <Gold.Chemscore.Rot>
2.3991

> <Gold.Chemscore.Internal.Correction>
   9.000000E+99

> <Gold.Chemscore.Hbonds>
donor molecule, donor type, donor heavy atom, donor atom, acceptor molecule, acceptor atom, score
      L1  H    11    35       P1  7957  0.10
      P1  H  7997  8009       L1    16  0.06

> <Gold.Chemscore.Hbond.Weighted>
-1.0970

> <Gold.Chemscore.Metal.Weighted>
-0.0000

> <Gold.Chemscore.Lipo.Weighted>
-14.5497

> <Gold.Chemscore.Internal_Hbond.Weighted>
0.0000

> <Gold.Chemscore.DEClash.Weighted>
0.4253

> <Gold.Chemscore.DEInternal.Weighted>
1.6846

> <Gold.Chemscore.Rot.Weighted>
6.1417

> <Gold.Chemscore.Internal.Correction.Weighted>
   9.000000E+99

> <Gold.Protein.RotatedTorsions>
[ 6907 6896 6895 6894 ] final  163.51 input  -60.11 | X-H torsion
[ 7974 7965 7964 7962 ] final  -80.11 input  175.53 | X-H torsion
[ 8008 7997 7996 7995 ] final -169.72 input   59.86 | X-H torsion
[ 10167 10162 10161 10158 ] final   30.62 input  -65.29 | X-H torsion
[ 10718 10713 10712 10709 ] final  105.90 input   66.30 | X-H torsion
[ 10763 10752 10751 10750 ] final  121.84 input  -60.55 | X-H torsion
[ 11005 11000 10999 10996 ] final  -92.19 input  -57.11 | X-H torsion

> <Gold.Protein.ActiveResidues>
 VAL166  LYS551  ARG553  GLY616  TRP617  ASP618  TYR619  PRO620  LYS621  CYS622 
 ASP623  PHE694  ASN695  SER759  ASP760  ASP761  ALA762  ILE779  LEU786  VAL792 
 PHE793  MET794  SER795  GLU796  ALA797  LYS798  CYS799  TRP800  GLU811  SER814 

> <Gold.Protein.RotatedAtoms>
  151.9241  133.3593  159.3907 H   0  0  0  0  0  0  0  0  0  0  0  0  # atno 6907 bound_to 6896
  150.7031  134.4605  159.5388 H   0  0  0  0  0  0  0  0  0  0  0  0  # atno 6908 bound_to 6896
  152.2234  134.8391  160.0534 H   0  0  0  0  0  0  0  0  0  0  0  0  # atno 6909 bound_to 6896
  145.5642  140.9477  143.1430 H   0  0  0  0  0  0  0  0  0  0  0  0  # atno 7974 bound_to 7965
  155.9087  140.1053  157.1295 H   0  0  0  0  0  0  0  0  0  0  0  0  # atno 8008 bound_to 7997
  154.4036  140.1278  156.4594 H   0  0  0  0  0  0  0  0  0  0  0  0  # atno 8009 bound_to 7997
  155.7336  140.3468  155.5073 H   0  0  0  0  0  0  0  0  0  0  0  0  # atno 8010 bound_to 7997
  140.4662  144.0832  150.6225 H   0  0  0  0  0  0  0  0  0  0  0  0  # atno 10167 bound_to 10162
  157.6688  131.0838  150.5926 H   0  0  0  0  0  0  0  0  0  0  0  0  # atno 10718 bound_to 10713
  153.6203  135.3414  155.3008 H   0  0  0  0  0  0  0  0  0  0  0  0  # atno 10763 bound_to 10752
  154.8601  135.4271  154.2214 H   0  0  0  0  0  0  0  0  0  0  0  0  # atno 10764 bound_to 10752
  153.3085  135.7030  153.7210 H   0  0  0  0  0  0  0  0  0  0  0  0  # atno 10765 bound_to 10752
  141.1527  133.7805  156.9986 H   0  0  0  0  0  0  0  0  0  0  0  0  # atno 11005 bound_to 11000
  144.7468  139.7299  143.7289 LP  0  0  0  0  0  0  0  0  0  0  0  0  # atno 17320 bound_to 7965
  146.1829  139.5031  142.9854 LP  0  0  0  0  0  0  0  0  0  0  0  0  # atno 17321 bound_to 7965
  140.4033  143.2693  151.9921 LP  0  0  0  0  0  0  0  0  0  0  0  0  # atno 17342 bound_to 10162
  139.4812  144.5978  151.7658 LP  0  0  0  0  0  0  0  0  0  0  0  0  # atno 17343 bound_to 10162
  156.6227  130.4410  149.5816 LP  0  0  0  0  0  0  0  0  0  0  0  0  # atno 17370 bound_to 10713
  156.2343  130.6813  151.1494 LP  0  0  0  0  0  0  0  0  0  0  0  0  # atno 17371 bound_to 10713
  140.0955  134.9567  157.1843 LP  0  0  0  0  0  0  0  0  0  0  0  0  # atno 17394 bound_to 11000
  140.3388  134.2727  155.7215 LP  0  0  0  0  0  0  0  0  0  0  0  0  # atno 17395 bound_to 11000

$$$$
