AV-unprocessed.smi:2778|AV-procd|sdf|10710|dock6
  -GOLD-   2272015143D 1   1.00000     0.00000
 Structure written by MMmdl.
 37 38  0  0  0  0  0  0  0  0  1 V2000
  146.2200  142.3999  154.2421 C   0  0  0  0  0  0  0  0  0  0  0  0
  147.4275  142.2268  154.9688 O   0  0  0  0  0  0  0  0  0  0  0  0
  148.1605  141.0756  154.7542 C   0  0  0  0  0  0  0  0  0  0  0  0
  147.6632  139.9472  154.0538 C   0  0  0  0  0  0  0  0  0  0  0  0
  148.4863  138.8200  153.8866 C   0  0  0  0  0  0  0  0  0  0  0  0
  149.7836  138.8583  154.4279 C   0  0  0  0  0  0  0  0  0  0  0  0
  150.7249  137.6807  154.2860 C   0  0  0  0  0  0  0  0  0  0  0  0
  150.2676  139.9252  155.0949 N   0  0  0  0  0  0  0  0  0  0  0  0
  149.4839  141.0191  155.2626 C   0  0  0  0  0  0  0  0  0  0  0  0
  149.9203  142.1837  155.9505 N   0  0  0  0  0  0  0  0  0  0  0  0
  150.9819  142.3352  156.7668 C   0  0  0  0  0  0  0  0  0  0  0  0
  151.7662  141.4387  157.0726 O   0  0  0  0  0  0  0  0  0  0  0  0
  151.1218  143.5803  157.2580 N   0  0  0  0  0  0  0  0  0  0  0  0
  152.1576  144.0820  158.1652 C   0  0  0  0  0  0  0  0  0  0  0  0
  152.5079  143.0250  159.2294 C   0  0  0  0  0  0  0  0  0  0  0  0
  152.5397  143.7665  160.5664 C   0  0  0  0  0  0  0  0  0  0  0  0
  151.5200  144.8875  160.3967 C   0  0  0  0  0  0  0  0  0  0  0  0
  151.6864  145.3295  158.9422 C   0  0  0  0  0  0  0  0  0  0  0  0
  145.7622  143.3471  154.5268 H   0  0  0  0  0  0  0  0  0  0  0  0
  145.5034  141.6080  154.4641 H   0  0  0  0  0  0  0  0  0  0  0  0
  146.4027  142.4324  153.1672 H   0  0  0  0  0  0  0  0  0  0  0  0
  146.6665  139.9227  153.6403 H   0  0  0  0  0  0  0  0  0  0  0  0
  148.1269  137.9510  153.3555 H   0  0  0  0  0  0  0  0  0  0  0  0
  150.2328  136.8361  153.8028 H   0  0  0  0  0  0  0  0  0  0  0  0
  151.0756  137.3542  155.2655 H   0  0  0  0  0  0  0  0  0  0  0  0
  151.5914  137.9595  153.6859 H   0  0  0  0  0  0  0  0  0  0  0  0
  149.3526  143.0053  155.8035 H   0  0  0  0  0  0  0  0  0  0  0  0
  150.4096  144.2468  156.9967 H   0  0  0  0  0  0  0  0  0  0  0  0
  153.0599  144.3235  157.6002 H   0  0  0  0  0  0  0  0  0  0  0  0
  151.7371  142.2537  159.2731 H   0  0  0  0  0  0  0  0  0  0  0  0
  153.4527  142.5238  159.0173 H   0  0  0  0  0  0  0  0  0  0  0  0
  152.3144  143.1167  161.4123 H   0  0  0  0  0  0  0  0  0  0  0  0
  153.5305  144.1935  160.7276 H   0  0  0  0  0  0  0  0  0  0  0  0
  150.5140  144.4939  160.5481 H   0  0  0  0  0  0  0  0  0  0  0  0
  151.6695  145.7039  161.1041 H   0  0  0  0  0  0  0  0  0  0  0  0
  152.4579  146.0986  158.8845 H   0  0  0  0  0  0  0  0  0  0  0  0
  150.7694  145.7688  158.5473 H   0  0  0  0  0  0  0  0  0  0  0  0
  1  2  1  0  0  0  0
  1 19  1  0  0  0  0
  1 20  1  0  0  0  0
  1 21  1  0  0  0  0
  2  3  1  0  0  0  0
  3  9  1  0  0  0  0
  3  4  2  0  0  0  0
  4  5  1  0  0  0  0
  4 22  1  0  0  0  0
  5  6  2  0  0  0  0
  5 23  1  0  0  0  0
  6  7  1  0  0  0  0
  6  8  1  0  0  0  0
  7 24  1  0  0  0  0
  7 25  1  0  0  0  0
  7 26  1  0  0  0  0
  8  9  2  0  0  0  0
  9 10  1  0  0  0  0
 10 11  1  0  0  0  0
 10 27  1  0  0  0  0
 11 12  2  0  0  0  0
 11 13  1  0  0  0  0
 13 14  1  0  0  0  0
 13 28  1  0  0  0  0
 14 18  1  0  0  0  0
 14 15  1  0  0  0  0
 14 29  1  0  0  0  0
 15 16  1  0  0  0  0
 15 30  1  0  0  0  0
 15 31  1  0  0  0  0
 16 17  1  0  0  0  0
 16 32  1  0  0  0  0
 16 33  1  0  0  0  0
 17 18  1  0  0  0  0
 17 34  1  0  0  0  0
 17 35  1  0  0  0  0
 18 36  1  0  0  0  0
 18 37  1  0  0  0  0
M  END
> <s_m_source_file>
AV-unprocessed.smi

> <i_m_source_file_index>
2778

> <i_lp_mmshare_version>
43012

> <i_f3d_flags>
0

> <s_epik_input>
W0NIM11PYzFbY0hdW2NIXWMoW0NIM10pbmMxW05IXUMoPU8pW05IXVtDSF0yW0NIMl1bQ0gyXVtDSDJdW0NIMl0y

> <s_epik_cmdline>
J2VwaWtfcHl0aG9uJywgJy1waCcsICc3LjAnLCAnLXRuJywgJzgnLCAnLW1hJywgJzIwMCcsICctbWV0YWxfYmluZGluZycsICctaW1hZScsICc8aW5maWxlLm1hZT4nLCAnLW9tYWUnLCAnPG91dGZpbGUubWFlPic=

> <r_lp_tautomer_probability>
1

> <r_epik_Ionization_Penalty>
6.53997e-05

> <r_epik_Ionization_Penalty_Charging>
0

> <r_epik_Ionization_Penalty_Neutral>
6.53997e-05

> <r_epik_State_Penalty>
-0

> <r_epik_Charging_Adjusted_Penalty>
0

> <i_epik_Tot_Q>
0

> <i_epik_Tot_abs_Q>
0

> <r_epik_Metal_State_Penalty>
-0

> <b_epik_Metal_Only>
0

> <s_lp_Force_Field>
OPLS_2005

> <r_lp_Energy>
34.0049

> <b_lp_Chiralities_Consistent>
1

> <s_lp_Variant>
AV-unprocessed.smi:2778-1

> <Gold.Version>
5.8.1

> <Gold.Id.Protein>
6NUR|6NUR_protein|mol2

> <Gold.PLP.Fitness>
47.2088

> <Gold.PLP.PLP>
-40.1909

> <Gold.PLP.part.hbond>
-2.9187

> <Gold.PLP.part.metal>
0.0000

> <Gold.PLP.part.buried>
-0.4731

> <Gold.PLP.part.nonpolar>
-38.6782

> <Gold.PLP.part.repulsive>
1.9648

> <Gold.PLP.ligand.clash>
0.0000

> <Gold.PLP.ligand.torsion>
0.5099

> <Gold.PLP.Chemscore.Hbond>
2.6783

> <Gold.PLP.Chemscore.CHOScore>
0.0000

> <Gold.PLP.Chemscore.Metal>
0.0000

> <Gold.Chemscore.Hbonds>
donor molecule, donor type, donor heavy atom, donor atom, acceptor molecule, acceptor atom, score
      L1  H    10    27       P1  8028  1.00
      L1  H    13    28       P1  8028  0.90
      P1  H  7989  7998       L1     8  0.24

> <Gold.PLP.Chemscore.Internal.Correction>
0.0030

> <Gold.Rescore>
     Score         DG    S(hbond)    S(metal)    S(lipo)     H(rot)  DE(clash)    DE(int)     intcor
     16.51     -20.74       1.94        0.00     101.66       1.21       1.20       3.04       ----

> <Gold.Chemscore.Fitness>
16.5078

> <Gold.Chemscore.DG>
-20.7438

> <Gold.Chemscore.ZeroCoef>
-5.4800

> <Gold.Chemscore.Hbond>
1.9365

> <Gold.Chemscore.Metal>
0.0000

> <Gold.Chemscore.Lipo>
101.6592

> <Gold.Chemscore.Internal_Hbond>
0.0000

> <Gold.Chemscore.DEClash>
1.1951

> <Gold.Chemscore.DEInternal>
3.0409

> <Gold.Chemscore.Rot>
1.2103

> <Gold.Chemscore.Internal.Correction>
   9.000000E+99

> <Gold.Chemscore.Hbonds>
donor molecule, donor type, donor heavy atom, donor atom, acceptor molecule, acceptor atom, score
      L1  H    10    27       P1  8028  1.00
      L1  H    13    28       P1  8028  0.78
      P1  H  7989  7998       L1     8  0.01

> <Gold.Chemscore.Hbond.Weighted>
-6.4681

> <Gold.Chemscore.Metal.Weighted>
-0.0000

> <Gold.Chemscore.Lipo.Weighted>
-11.8941

> <Gold.Chemscore.Internal_Hbond.Weighted>
0.0000

> <Gold.Chemscore.DEClash.Weighted>
1.1951

> <Gold.Chemscore.DEInternal.Weighted>
3.0409

> <Gold.Chemscore.Rot.Weighted>
3.0984

> <Gold.Chemscore.Internal.Correction.Weighted>
   9.000000E+99

> <Gold.Protein.RotatedTorsions>
[ 6907 6896 6895 6894 ] final   79.97 input  -60.11 | X-H torsion
[ 7974 7965 7964 7962 ] final -142.36 input  175.53 | X-H torsion
[ 8008 7997 7996 7995 ] final  165.15 input   59.86 | X-H torsion
[ 10167 10162 10161 10158 ] final  -46.97 input  -65.29 | X-H torsion
[ 10718 10713 10712 10709 ] final -125.67 input   66.30 | X-H torsion
[ 10763 10752 10751 10750 ] final -108.69 input  -60.55 | X-H torsion
[ 11005 11000 10999 10996 ] final   78.07 input  -57.11 | X-H torsion

> <Gold.Protein.ActiveResidues>
 VAL166  LYS551  ARG553  GLY616  TRP617  ASP618  TYR619  PRO620  LYS621  CYS622 
 ASP623  PHE694  ASN695  SER759  ASP760  ASP761  ALA762  ILE779  LEU786  VAL792 
 PHE793  MET794  SER795  GLU796  ALA797  LYS798  CYS799  TRP800  GLU811  SER814 

> <Gold.Protein.RotatedAtoms>
  152.5218  134.3429  159.9223 H   0  0  0  0  0  0  0  0  0  0  0  0  # atno 6907 bound_to 6896
  151.3379  133.3968  159.2676 H   0  0  0  0  0  0  0  0  0  0  0  0  # atno 6908 bound_to 6896
  150.9827  134.9197  159.7911 H   0  0  0  0  0  0  0  0  0  0  0  0  # atno 6909 bound_to 6896
  144.8449  140.5967  143.5428 H   0  0  0  0  0  0  0  0  0  0  0  0  # atno 7974 bound_to 7965
  156.1823  140.1677  156.8250 H   0  0  0  0  0  0  0  0  0  0  0  0  # atno 8008 bound_to 7997
  154.5374  140.0744  156.8484 H   0  0  0  0  0  0  0  0  0  0  0  0  # atno 8009 bound_to 7997
  155.3283  140.3377  155.4242 H   0  0  0  0  0  0  0  0  0  0  0  0  # atno 8010 bound_to 7997
  140.6795  143.2806  151.3860 H   0  0  0  0  0  0  0  0  0  0  0  0  # atno 10167 bound_to 10162
  156.1697  130.6659  151.0162 H   0  0  0  0  0  0  0  0  0  0  0  0  # atno 10718 bound_to 10713
  154.8150  135.4628  154.0619 H   0  0  0  0  0  0  0  0  0  0  0  0  # atno 10763 bound_to 10752
  153.2019  135.6870  153.8227 H   0  0  0  0  0  0  0  0  0  0  0  0  # atno 10764 bound_to 10752
  153.7709  135.3270  155.3329 H   0  0  0  0  0  0  0  0  0  0  0  0  # atno 10765 bound_to 10752
  139.9228  134.7734  156.1602 H   0  0  0  0  0  0  0  0  0  0  0  0  # atno 11005 bound_to 11000
  145.4617  139.1512  143.3863 LP  0  0  0  0  0  0  0  0  0  0  0  0  # atno 17320 bound_to 7965
  146.2735  140.4747  142.8804 LP  0  0  0  0  0  0  0  0  0  0  0  0  # atno 17321 bound_to 7965
  139.6108  144.1103  152.2296 LP  0  0  0  0  0  0  0  0  0  0  0  0  # atno 17342 bound_to 10162
  140.0516  144.5928  150.7331 LP  0  0  0  0  0  0  0  0  0  0  0  0  # atno 17343 bound_to 10162
  157.6793  131.0842  150.7411 LP  0  0  0  0  0  0  0  0  0  0  0  0  # atno 17370 bound_to 10713
  156.7471  130.4757  149.5465 LP  0  0  0  0  0  0  0  0  0  0  0  0  # atno 17371 bound_to 10713
  141.0762  133.6774  156.2242 LP  0  0  0  0  0  0  0  0  0  0  0  0  # atno 17394 bound_to 11000
  140.6424  134.5152  157.5570 LP  0  0  0  0  0  0  0  0  0  0  0  0  # atno 17395 bound_to 11000

$$$$
