#       Name:                AV-unprocessed.smi:3091
#       Creating user name   scv26
#       Creation time:       Fri Mar 27 17:16:15 2020


#       File generated by GOLD software.
#

@<TRIPOS>MOLECULE
AV-unprocessed.smi:3091
    34    35     1
SMALL
NO_CHARGES


@<TRIPOS>ATOM
      1 ****        -4.2279   1.0532   1.1816 N.3            1 S1                 0.0000
      2 ****        -3.8157  -0.3088   0.9102 C.3            1 S1                 0.0000
      3 ****        -2.3176  -0.4884   1.0357 C.ar           1 S1                 0.0000
      4 ****        -1.7310  -0.7636   2.2868 C.ar           1 S1                 0.0000
      5 ****        -0.3322  -0.9122   2.3519 C.ar           1 S1                 0.0000
      6 ****         0.4752  -0.8022   1.2756 N.ar           1 S1                 0.0000
      7 ****        -0.0899  -0.5320   0.0721 C.ar           1 S1                 0.0000
      8 ****         0.7205  -0.4140  -1.0397 O.3            1 S1                 0.0000
      9 ****         2.1376  -0.5331  -0.8967 C.3            1 S1                 0.0000
     10 ****         2.7455   0.7611  -0.3714 C.3            1 S1                 0.0000
     11 ****         2.9868   1.5507  -1.6490 C.3            1 S1                 0.0000
     12 ****         3.4522   0.5604  -2.5499 O.3            1 S1                 0.0000
     13 ****         2.7467  -0.6522  -2.3019 C.3            1 S1                 0.0000
     14 ****        -1.4805  -0.3671  -0.0920 C.ar           1 S1                 0.0000
     15 ****        -3.4108   1.6344   1.3032 H              1 S1                 0.0000
     16 ****        -4.7319   1.4220   0.3880 H              1 S1                 0.0000
     17 ****        -4.3279  -0.9827   1.5976 H              1 S1                 0.0000
     18 ****        -4.1317  -0.5810  -0.0973 H              1 S1                 0.0000
     19 ****        -2.3368  -0.8578   3.1760 H              1 S1                 0.0000
     20 ****         0.1514  -1.1242   3.2939 H              1 S1                 0.0000
     21 ****         2.4099  -1.3991  -0.2912 H              1 S1                 0.0000
     22 ****         2.1143   1.2909   0.3420 H              1 S1                 0.0000
     23 ****         3.6991   0.5510   0.1143 H              1 S1                 0.0000
     24 ****         2.0560   1.9795  -2.0236 H              1 S1                 0.0000
     25 ****         3.7128   2.3536  -1.5215 H              1 S1                 0.0000
     26 ****         3.4417  -1.4895  -2.3672 H              1 S1                 0.0000
     27 ****         1.9783  -0.7991  -3.0620 H              1 S1                 0.0000
     28 ****        -1.8937  -0.1502  -1.0662 H              1 S1                 0.0000
     29 ****        -4.7997   1.0528   2.0020 LP             1 S1                 0.0000
     30 ****         1.4647  -0.9169   1.3632 LP             1 S1                 0.0000
     31 ****         0.5432   0.4878  -1.4338 LP             1 S1                 0.0000
     32 ****         0.4332  -1.1220  -1.6848 LP             1 S1                 0.0000
     33 ****         4.4317   0.4139  -2.4118 LP             1 S1                 0.0000
     34 ****         3.2890   0.8581  -3.4905 LP             1 S1                 0.0000
@<TRIPOS>BOND
    1    1    2 1     
    2    1   15 1     
    3    1   16 1     
    4    2    3 1     
    5    2   17 1     
    6    2   18 1     
    7    3   14 ar    
    8    3    4 ar    
    9    4    5 ar    
   10    4   19 1     
   11    5    6 ar    
   12    5   20 1     
   13    6    7 ar    
   14    7    8 1     
   15    7   14 ar    
   16    8    9 1     
   17    9   13 1     
   18    9   10 1     
   19    9   21 1     
   20   10   11 1     
   21   10   22 1     
   22   10   23 1     
   23   11   12 1     
   24   11   24 1     
   25   11   25 1     
   26   12   13 1     
   27   13   26 1     
   28   13   27 1     
   29   14   28 1     
   30    1   29 1     
   31    6   30 1     
   32    8   31 1     
   33    8   32 1     
   34   12   33 1     
   35   12   34 1     
@<TRIPOS>SUBSTRUCTURE
      1 S1             1
@<TRIPOS>SET
LONE_PAIRS      STATIC     ATOMS    <user>   **** ""
6 29 30 31 32 33 34
DONOR_HYDROGENS      STATIC     ATOMS    <user>   **** ""
2 15 16
ATOM$BLUE        STATIC     ATOMS    COLORGROUP SYSTEM
6 29 30 31 32 33 34
ATOM$RED        STATIC     ATOMS    COLORGROUP SYSTEM
2 15 16
