AV-unprocessed.smi:1136|AV-procd|sdf|4862|dock9
  -GOLD-   22720 3433D 1   1.00000     0.00000
 Structure written by MMmdl.
 42 43  0  0  0  0  0  0  0  0  1 V2000
  145.2887  143.5261  162.1135 C   0  0  0  0  0  0  0  0  0  0  0  0
  145.4868  143.4272  160.6298 C   0  0  0  0  0  0  0  0  0  0  0  0
  144.7331  144.0487  159.5951 C   0  0  0  0  0  0  0  0  0  0  0  0
  145.3314  143.6269  158.4411 C   0  0  0  0  0  0  0  0  0  0  0  0
  145.0012  143.9329  157.0171 C   0  0  0  0  0  0  0  0  0  0  0  0
  146.3784  142.8006  158.8107 N   0  0  0  0  0  0  0  0  0  0  0  0
  147.3288  142.0869  157.9688 C   0  0  0  0  0  0  0  0  0  0  0  0
  148.7643  142.5848  158.1655 C   0  0  0  0  0  0  0  0  0  0  0  0
  149.0455  143.2656  159.1513 O   0  0  0  0  0  0  0  0  0  0  0  0
  149.6632  142.2329  157.2319 N   0  0  0  0  0  0  0  0  0  0  0  0
  151.0787  142.5945  157.2381 C   0  0  0  0  0  0  0  0  0  0  0  0
  151.8628  141.9822  158.4143 C   0  0  0  0  0  0  0  0  0  0  0  0
  151.8824  140.7570  158.5495 O   0  0  0  0  0  0  0  0  0  0  0  0
  152.5206  142.8108  159.2617 N   0  0  0  0  0  0  0  0  0  0  0  0
  153.2728  142.3922  160.4529 C   0  0  0  0  0  0  0  0  0  0  0  0
  152.4878  142.8176  161.7070 C   0  0  0  0  0  0  0  0  0  0  0  0
  152.2170  144.3344  161.6973 C   0  0  0  0  0  0  0  0  0  0  0  0
  151.6091  144.7967  160.3589 C   0  0  0  0  0  0  0  0  0  0  0  0
  152.4332  144.2740  159.1674 C   0  0  0  0  0  0  0  0  0  0  0  0
  146.4702  142.6816  160.1536 N   0  0  0  0  0  0  0  0  0  0  0  0
  144.5029  144.2406  162.3597 H   0  0  0  0  0  0  0  0  0  0  0  0
  146.2017  143.8540  162.6113 H   0  0  0  0  0  0  0  0  0  0  0  0
  145.0054  142.5620  162.5361 H   0  0  0  0  0  0  0  0  0  0  0  0
  143.8806  144.7053  159.6870 H   0  0  0  0  0  0  0  0  0  0  0  0
  144.1184  144.5689  156.9503 H   0  0  0  0  0  0  0  0  0  0  0  0
  144.7965  143.0195  156.4585 H   0  0  0  0  0  0  0  0  0  0  0  0
  145.8268  144.4519  156.5299 H   0  0  0  0  0  0  0  0  0  0  0  0
  147.2676  141.0222  158.1974 H   0  0  0  0  0  0  0  0  0  0  0  0
  147.0484  142.2028  156.9206 H   0  0  0  0  0  0  0  0  0  0  0  0
  149.3422  141.6654  156.4607 H   0  0  0  0  0  0  0  0  0  0  0  0
  151.5079  142.2382  156.3014 H   0  0  0  0  0  0  0  0  0  0  0  0
  151.1860  143.6804  157.2487 H   0  0  0  0  0  0  0  0  0  0  0  0
  153.4812  141.3245  160.4902 H   0  0  0  0  0  0  0  0  0  0  0  0
  154.2510  142.8752  160.4454 H   0  0  0  0  0  0  0  0  0  0  0  0
  151.5413  142.2763  161.7449 H   0  0  0  0  0  0  0  0  0  0  0  0
  153.0389  142.5429  162.6067 H   0  0  0  0  0  0  0  0  0  0  0  0
  151.5608  144.6062  162.5244 H   0  0  0  0  0  0  0  0  0  0  0  0
  153.1563  144.8638  161.8626 H   0  0  0  0  0  0  0  0  0  0  0  0
  150.5842  144.4317  160.2783 H   0  0  0  0  0  0  0  0  0  0  0  0
  151.5535  145.8851  160.3298 H   0  0  0  0  0  0  0  0  0  0  0  0
  153.4375  144.6996  159.1886 H   0  0  0  0  0  0  0  0  0  0  0  0
  151.9882  144.6139  158.2314 H   0  0  0  0  0  0  0  0  0  0  0  0
  1  2  1  0  0  0  0
  1 21  1  0  0  0  0
  1 22  1  0  0  0  0
  1 23  1  0  0  0  0
  2 20  2  0  0  0  0
  2  3  1  0  0  0  0
  3  4  2  0  0  0  0
  3 24  1  0  0  0  0
  4  5  1  0  0  0  0
  4  6  1  0  0  0  0
  5 25  1  0  0  0  0
  5 26  1  0  0  0  0
  5 27  1  0  0  0  0
  6  7  1  0  0  0  0
  6 20  1  0  0  0  0
  7  8  1  0  0  0  0
  7 28  1  0  0  0  0
  7 29  1  0  0  0  0
  8  9  2  0  0  0  0
  8 10  1  0  0  0  0
 10 11  1  0  0  0  0
 10 30  1  0  0  0  0
 11 12  1  0  0  0  0
 11 31  1  0  0  0  0
 11 32  1  0  0  0  0
 12 13  2  0  0  0  0
 12 14  1  0  0  0  0
 14 19  1  0  0  0  0
 14 15  1  0  0  0  0
 15 16  1  0  0  0  0
 15 33  1  0  0  0  0
 15 34  1  0  0  0  0
 16 17  1  0  0  0  0
 16 35  1  0  0  0  0
 16 36  1  0  0  0  0
 17 18  1  0  0  0  0
 17 37  1  0  0  0  0
 17 38  1  0  0  0  0
 18 19  1  0  0  0  0
 18 39  1  0  0  0  0
 18 40  1  0  0  0  0
 19 41  1  0  0  0  0
 19 42  1  0  0  0  0
M  END
> <s_m_source_file>
AV-unprocessed.smi

> <i_m_source_file_index>
1136

> <i_lp_mmshare_version>
43012

> <i_f3d_flags>
0

> <s_epik_input>
W0NIM11jMVtjSF1jKFtDSDNdKW4objEpW0NIMl1DKD1PKVtOSF1bQ0gyXUMoPU8pTjJbQ0gyXVtDSDJdW0NIMl1bQ0gyXVtDSDJdMg==

> <s_epik_cmdline>
J2VwaWtfcHl0aG9uJywgJy1waCcsICc3LjAnLCAnLXRuJywgJzgnLCAnLW1hJywgJzIwMCcsICctbWV0YWxfYmluZGluZycsICctaW1hZScsICc8aW5maWxlLm1hZT4nLCAnLW9tYWUnLCAnPG91dGZpbGUubWFlPic=

> <r_lp_tautomer_probability>
1

> <r_epik_Ionization_Penalty>
0.000263643

> <r_epik_Ionization_Penalty_Charging>
0

> <r_epik_Ionization_Penalty_Neutral>
0.000263643

> <r_epik_State_Penalty>
-0

> <r_epik_Charging_Adjusted_Penalty>
0

> <i_epik_Tot_Q>
0

> <i_epik_Tot_abs_Q>
0

> <r_epik_Metal_State_Penalty>
-0

> <b_epik_Metal_Only>
0

> <s_lp_Force_Field>
OPLS_2005

> <r_lp_Energy>
19.7074

> <b_lp_Chiralities_Consistent>
1

> <s_lp_Variant>
AV-unprocessed.smi:1136-1

> <Gold.Version>
5.8.1

> <Gold.Id.Protein>
6NUR|6NUR_protein|mol2

> <Gold.PLP.Fitness>
46.1561

> <Gold.PLP.PLP>
-43.1647

> <Gold.PLP.part.hbond>
-3.4145

> <Gold.PLP.part.metal>
0.0000

> <Gold.PLP.part.buried>
-6.4478

> <Gold.PLP.part.nonpolar>
-34.6305

> <Gold.PLP.part.repulsive>
0.1864

> <Gold.PLP.ligand.clash>
0.0000

> <Gold.PLP.ligand.torsion>
0.2442

> <Gold.PLP.Chemscore.Hbond>
1.1529

> <Gold.PLP.Chemscore.CHOScore>
0.0000

> <Gold.PLP.Chemscore.Metal>
0.0000

> <Gold.Chemscore.Hbonds>
donor molecule, donor type, donor heavy atom, donor atom, acceptor molecule, acceptor atom, score
      P1  H  6933  6944       L1    20  0.04
      P1  H  6934  6946       L1    20  1.00

> <Gold.PLP.Chemscore.Internal.Correction>
0.0211

> <Gold.Rescore>
     Score         DG    S(hbond)    S(metal)    S(lipo)     H(rot)  DE(clash)    DE(int)     intcor
     14.34     -15.89       1.20        0.00      90.15       1.61       0.15       1.40       ----

> <Gold.Chemscore.Fitness>
14.3406

> <Gold.Chemscore.DG>
-15.8887

> <Gold.Chemscore.ZeroCoef>
-5.4800

> <Gold.Chemscore.Hbond>
1.1952

> <Gold.Chemscore.Metal>
0.0000

> <Gold.Chemscore.Lipo>
90.1452

> <Gold.Chemscore.Internal_Hbond>
0.0000

> <Gold.Chemscore.DEClash>
0.1462

> <Gold.Chemscore.DEInternal>
1.4019

> <Gold.Chemscore.Rot>
1.6134

> <Gold.Chemscore.Internal.Correction>
   9.000000E+99

> <Gold.Chemscore.Hbonds>
donor molecule, donor type, donor heavy atom, donor atom, acceptor molecule, acceptor atom, score
      P1  H  6933  6944       L1    20  0.08
      P1  H  6934  6946       L1    20  0.84

> <Gold.Chemscore.Hbond.Weighted>
-3.9920

> <Gold.Chemscore.Metal.Weighted>
-0.0000

> <Gold.Chemscore.Lipo.Weighted>
-10.5470

> <Gold.Chemscore.Internal_Hbond.Weighted>
0.0000

> <Gold.Chemscore.DEClash.Weighted>
0.1462

> <Gold.Chemscore.DEInternal.Weighted>
1.4019

> <Gold.Chemscore.Rot.Weighted>
4.1303

> <Gold.Chemscore.Internal.Correction.Weighted>
   9.000000E+99

> <Gold.Protein.RotatedTorsions>
[ 6907 6896 6895 6894 ] final   72.71 input  -60.11 | X-H torsion
[ 7974 7965 7964 7962 ] final   76.00 input  175.53 | X-H torsion
[ 8008 7997 7996 7995 ] final  -57.80 input   59.86 | X-H torsion
[ 10167 10162 10161 10158 ] final   30.43 input  -65.29 | X-H torsion
[ 10718 10713 10712 10709 ] final   44.63 input   66.30 | X-H torsion
[ 10763 10752 10751 10750 ] final  154.69 input  -60.55 | X-H torsion
[ 11005 11000 10999 10996 ] final    5.25 input  -57.11 | X-H torsion

> <Gold.Protein.ActiveResidues>
 VAL166  LYS551  ARG553  GLY616  TRP617  ASP618  TYR619  PRO620  LYS621  CYS622 
 ASP623  PHE694  ASN695  SER759  ASP760  ASP761  ALA762  ILE779  LEU786  VAL792 
 PHE793  MET794  SER795  GLU796  ALA797  LYS798  CYS799  TRP800  GLU811  SER814 

> <Gold.Protein.RotatedAtoms>
  152.4883  134.4530  159.9580 H   0  0  0  0  0  0  0  0  0  0  0  0  # atno 6907 bound_to 6896
  151.4522  133.3608  159.2805 H   0  0  0  0  0  0  0  0  0  0  0  0  # atno 6908 bound_to 6896
  150.9014  134.8450  159.7423 H   0  0  0  0  0  0  0  0  0  0  0  0  # atno 6909 bound_to 6896
  145.7085  139.2606  143.1664 H   0  0  0  0  0  0  0  0  0  0  0  0  # atno 7974 bound_to 7965
  154.4282  140.1098  156.5855 H   0  0  0  0  0  0  0  0  0  0  0  0  # atno 8008 bound_to 7997
  155.6067  140.3494  155.4591 H   0  0  0  0  0  0  0  0  0  0  0  0  # atno 8009 bound_to 7997
  156.0131  140.1223  157.0423 H   0  0  0  0  0  0  0  0  0  0  0  0  # atno 8010 bound_to 7997
  140.4678  144.0808  150.6229 H   0  0  0  0  0  0  0  0  0  0  0  0  # atno 10167 bound_to 10162
  157.4289  130.8013  149.7584 H   0  0  0  0  0  0  0  0  0  0  0  0  # atno 10718 bound_to 10713
  154.1564  135.2812  155.3121 H   0  0  0  0  0  0  0  0  0  0  0  0  # atno 10763 bound_to 10752
  154.6179  135.5477  153.7547 H   0  0  0  0  0  0  0  0  0  0  0  0  # atno 10764 bound_to 10752
  153.0205  135.6432  154.1707 H   0  0  0  0  0  0  0  0  0  0  0  0  # atno 10765 bound_to 10752
  140.5728  134.0086  155.8015 H   0  0  0  0  0  0  0  0  0  0  0  0  # atno 11005 bound_to 11000
  146.0734  140.7844  142.9677 LP  0  0  0  0  0  0  0  0  0  0  0  0  # atno 17320 bound_to 7965
  144.6948  140.3377  143.7205 LP  0  0  0  0  0  0  0  0  0  0  0  0  # atno 17321 bound_to 7965
  140.4014  143.2702  151.9943 LP  0  0  0  0  0  0  0  0  0  0  0  0  # atno 17342 bound_to 10162
  139.4814  144.5994  151.7632 LP  0  0  0  0  0  0  0  0  0  0  0  0  # atno 17343 bound_to 10162
  155.9906  130.3943  150.3021 LP  0  0  0  0  0  0  0  0  0  0  0  0  # atno 17370 bound_to 10713
  157.1176  131.0238  151.3023 LP  0  0  0  0  0  0  0  0  0  0  0  0  # atno 17371 bound_to 10713
  141.1045  133.9715  157.3021 LP  0  0  0  0  0  0  0  0  0  0  0  0  # atno 17394 bound_to 11000
  139.9353  135.0197  156.8537 LP  0  0  0  0  0  0  0  0  0  0  0  0  # atno 17395 bound_to 11000

$$$$
