AV-unprocessed.smi:1624|AV-procd|sdf|6504|dock1
  -GOLD-   22720 7173D 1   1.00000     0.00000
 Structure written by MMmdl.
 35 36  0  0  0  0  0  0  0  0  2 V2000
  154.5555  138.8006  158.3433 O   0  0  0  0  0  0  0  0  0  0  0  0
  154.3107  138.4351  159.4957 C   0  0  0  0  0  0  0  0  0  0  0  0
  154.1551  139.3466  160.4669 N   0  0  0  0  0  0  0  0  0  0  0  0
  154.2387  140.7931  160.2982 C   0  0  0  0  0  0  0  0  0  0  0  0
  152.9699  141.3576  159.6329 C   0  0  0  0  0  0  0  0  0  0  0  0
  152.8467  142.8022  159.8556 N   0  0  0  0  0  0  0  0  0  0  0  0
  153.3382  143.6628  158.7686 C   0  0  0  0  0  0  0  0  0  0  0  0
  152.2114  144.3748  157.9872 C   0  0  0  0  0  0  0  0  0  0  0  0
  150.9534  144.7433  158.7982 C   0  0  0  0  0  0  0  0  0  0  0  0
  151.2235  145.5067  160.1118 C   0  0  0  0  0  0  0  0  0  0  0  0
  152.1882  144.8359  161.1210 C   0  0  0  0  0  0  0  0  0  0  0  0
  152.2989  143.3077  160.9875 C   0  0  0  0  0  0  0  0  0  0  0  0
  151.8899  142.6016  161.9095 O   0  0  0  0  0  0  0  0  0  0  0  0
  154.1681  137.1576  159.9168 N   0  5  0  0  0  0  0  0  0  0  0  0
  154.4824  136.1424  159.0954 C   0  0  0  0  0  0  0  0  0  0  0  0
  154.0093  134.8985  159.2743 N   0  0  0  0  0  0  0  0  0  0  0  0
  154.4549  134.0014  158.3126 N   0  0  0  0  0  0  0  0  0  0  0  0
  155.2490  134.5970  157.4233 C   0  0  0  0  0  0  0  0  0  0  0  0
  155.5230  136.3075  157.6783 S   0  0  0  0  0  0  0  0  0  0  0  0
  153.9558  139.0058  161.3960 H   0  0  0  0  0  0  0  0  0  0  0  0
  154.3796  141.2404  161.2822 H   0  0  0  0  0  0  0  0  0  0  0  0
  155.1242  141.0475  159.7133 H   0  0  0  0  0  0  0  0  0  0  0  0
  152.9795  141.1500  158.5620 H   0  0  0  0  0  0  0  0  0  0  0  0
  152.0877  140.8398  160.0131 H   0  0  0  0  0  0  0  0  0  0  0  0
  154.0257  144.4024  159.1794 H   0  0  0  0  0  0  0  0  0  0  0  0
  153.9541  143.0938  158.0709 H   0  0  0  0  0  0  0  0  0  0  0  0
  152.6205  145.2706  157.5191 H   0  0  0  0  0  0  0  0  0  0  0  0
  151.8991  143.7300  157.1652 H   0  0  0  0  0  0  0  0  0  0  0  0
  150.2955  145.3444  158.1698 H   0  0  0  0  0  0  0  0  0  0  0  0
  150.3847  143.8377  159.0148 H   0  0  0  0  0  0  0  0  0  0  0  0
  151.6090  146.4977  159.8705 H   0  0  0  0  0  0  0  0  0  0  0  0
  150.2672  145.6794  160.6065 H   0  0  0  0  0  0  0  0  0  0  0  0
  153.1846  145.2681  161.0300 H   0  0  0  0  0  0  0  0  0  0  0  0
  151.8714  145.0827  162.1351 H   0  0  0  0  0  0  0  0  0  0  0  0
  155.6736  134.0268  156.6106 H   0  0  0  0  0  0  0  0  0  0  0  0
  1  2  2  0  0  0  0
  2  3  1  0  0  0  0
  2 14  1  0  0  0  0
  3  4  1  0  0  0  0
  3 20  1  0  0  0  0
  4  5  1  0  0  0  0
  4 21  1  0  0  0  0
  4 22  1  0  0  0  0
  5  6  1  0  0  0  0
  5 23  1  0  0  0  0
  5 24  1  0  0  0  0
  6 12  1  0  0  0  0
  6  7  1  0  0  0  0
  7  8  1  0  0  0  0
  7 25  1  0  0  0  0
  7 26  1  0  0  0  0
  8  9  1  0  0  0  0
  8 27  1  0  0  0  0
  8 28  1  0  0  0  0
  9 10  1  0  0  0  0
  9 29  1  0  0  0  0
  9 30  1  0  0  0  0
 10 11  1  0  0  0  0
 10 31  1  0  0  0  0
 10 32  1  0  0  0  0
 11 12  1  0  0  0  0
 11 33  1  0  0  0  0
 11 34  1  0  0  0  0
 12 13  2  0  0  0  0
 14 15  1  0  0  0  0
 15 19  1  0  0  0  0
 15 16  2  0  0  0  0
 16 17  1  0  0  0  0
 17 18  2  0  0  0  0
 18 19  1  0  0  0  0
 18 35  1  0  0  0  0
M  CHG  1  14  -1
M  END
> <s_m_source_file>
AV-unprocessed.smi

> <i_m_source_file_index>
1624

> <i_lp_mmshare_version>
43012

> <i_f3d_flags>
0

> <s_epik_input>
czFbY0hdbm5jMVtOSF1DKD1PKVtOSF1bQ0gyXVtDSDJdTjJbQ0gyXVtDSDJdW0NIMl1bQ0gyXVtDSDJdQzI9Tw==

> <s_epik_cmdline>
J2VwaWtfcHl0aG9uJywgJy1waCcsICc3LjAnLCAnLXRuJywgJzgnLCAnLW1hJywgJzIwMCcsICctbWV0YWxfYmluZGluZycsICctaW1hZScsICc8aW5maWxlLm1hZT4nLCAnLW9tYWUnLCAnPG91dGZpbGUubWFlPic=

> <r_lp_tautomer_probability>
1

> <r_epik_Ionization_Penalty>
3.35684

> <r_epik_Ionization_Penalty_Charging>
3.31562

> <r_epik_Ionization_Penalty_Neutral>
0.0412242

> <r_epik_State_Penalty>
3.31341

> <r_epik_Charging_Adjusted_Penalty>
6.62903

> <i_epik_Tot_Q>
-1

> <i_epik_Tot_abs_Q>
1

> <r_epik_Metal_State_Penalty>
0.484053

> <b_epik_Metal_Only>
1

> <s_lp_Force_Field>
OPLS_2005

> <r_lp_Energy>
19.6576

> <b_lp_Chiralities_Consistent>
1

> <s_lp_Variant>
AV-unprocessed.smi:1624-2

> <Gold.Version>
5.8.1

> <Gold.Id.Protein>
6NUR|6NUR_protein|mol2

> <Gold.PLP.Fitness>
44.9407

> <Gold.PLP.PLP>
-37.5928

> <Gold.PLP.part.hbond>
-3.1738

> <Gold.PLP.part.metal>
0.0000

> <Gold.PLP.part.buried>
-5.3814

> <Gold.PLP.part.nonpolar>
-29.1796

> <Gold.PLP.part.repulsive>
0.1695

> <Gold.PLP.ligand.clash>
0.0000

> <Gold.PLP.ligand.torsion>
0.6284

> <Gold.PLP.Chemscore.Hbond>
2.8167

> <Gold.PLP.Chemscore.CHOScore>
0.0000

> <Gold.PLP.Chemscore.Metal>
0.0000

> <Gold.Chemscore.Hbonds>
donor molecule, donor type, donor heavy atom, donor atom, acceptor molecule, acceptor atom, score
      P1  H  6896  6909       L1    16  0.99
      P1  H  6933  6945       L1    13  0.81
      P1  H  7997  8009       L1     1  1.00

> <Gold.PLP.Chemscore.Internal.Correction>
0.1546

> <Gold.Rescore>
     Score         DG    S(hbond)    S(metal)    S(lipo)     H(rot)  DE(clash)    DE(int)     intcor
     18.10     -20.31       2.81        0.00      84.38       1.73       0.08       2.13       ----

> <Gold.Chemscore.Fitness>
18.0969

> <Gold.Chemscore.DG>
-20.3088

> <Gold.Chemscore.ZeroCoef>
-5.4800

> <Gold.Chemscore.Hbond>
2.8134

> <Gold.Chemscore.Metal>
0.0000

> <Gold.Chemscore.Lipo>
84.3820

> <Gold.Chemscore.Internal_Hbond>
0.0000

> <Gold.Chemscore.DEClash>
0.0828

> <Gold.Chemscore.DEInternal>
2.1292

> <Gold.Chemscore.Rot>
1.7346

> <Gold.Chemscore.Internal.Correction>
   9.000000E+99

> <Gold.Chemscore.Hbonds>
donor molecule, donor type, donor heavy atom, donor atom, acceptor molecule, acceptor atom, score
      P1  H  6896  6909       L1    16  0.88
      P1  H  6933  6945       L1    13  0.75
      P1  H  7997  8009       L1     1  0.99

> <Gold.Chemscore.Hbond.Weighted>
-9.3967

> <Gold.Chemscore.Metal.Weighted>
-0.0000

> <Gold.Chemscore.Lipo.Weighted>
-9.8727

> <Gold.Chemscore.Internal_Hbond.Weighted>
0.0000

> <Gold.Chemscore.DEClash.Weighted>
0.0828

> <Gold.Chemscore.DEInternal.Weighted>
2.1292

> <Gold.Chemscore.Rot.Weighted>
4.4406

> <Gold.Chemscore.Internal.Correction.Weighted>
   9.000000E+99

> <Gold.Protein.RotatedTorsions>
[ 6907 6896 6895 6894 ] final -175.62 input  -60.11 | X-H torsion
[ 7974 7965 7964 7962 ] final  116.31 input  175.53 | X-H torsion
[ 8008 7997 7996 7995 ] final  119.80 input   59.86 | X-H torsion
[ 10167 10162 10161 10158 ] final -152.03 input  -65.29 | X-H torsion
[ 10718 10713 10712 10709 ] final  -17.49 input   66.30 | X-H torsion
[ 10763 10752 10751 10750 ] final   18.98 input  -60.55 | X-H torsion
[ 11005 11000 10999 10996 ] final   15.26 input  -57.11 | X-H torsion

> <Gold.Protein.ActiveResidues>
 VAL166  LYS551  ARG553  GLY616  TRP617  ASP618  TYR619  PRO620  LYS621  CYS622 
 ASP623  PHE694  ASN695  SER759  ASP760  ASP761  ALA762  ILE779  LEU786  VAL792 
 PHE793  MET794  SER795  GLU796  ALA797  LYS798  CYS799  TRP800  GLU811  SER814 

> <Gold.Protein.RotatedAtoms>
  151.5915  133.3366  159.3028 H   0  0  0  0  0  0  0  0  0  0  0  0  # atno 6907 bound_to 6896
  150.8258  134.7491  159.6822 H   0  0  0  0  0  0  0  0  0  0  0  0  # atno 6908 bound_to 6896
  152.4347  134.5716  159.9974 H   0  0  0  0  0  0  0  0  0  0  0  0  # atno 6909 bound_to 6896
  145.1812  139.3049  143.4417 H   0  0  0  0  0  0  0  0  0  0  0  0  # atno 7974 bound_to 7965
  156.2613  140.2845  156.1049 H   0  0  0  0  0  0  0  0  0  0  0  0  # atno 8008 bound_to 7997
  155.1320  140.0394  157.2794 H   0  0  0  0  0  0  0  0  0  0  0  0  # atno 8009 bound_to 7997
  154.6593  140.2562  155.7133 H   0  0  0  0  0  0  0  0  0  0  0  0  # atno 8010 bound_to 7997
  139.7216  143.8948  152.2505 H   0  0  0  0  0  0  0  0  0  0  0  0  # atno 10167 bound_to 10162
  156.5728  130.4754  149.6355 H   0  0  0  0  0  0  0  0  0  0  0  0  # atno 10718 bound_to 10713
  153.1202  135.6717  153.9349 H   0  0  0  0  0  0  0  0  0  0  0  0  # atno 10763 bound_to 10752
  153.8867  135.3052  155.3448 H   0  0  0  0  0  0  0  0  0  0  0  0  # atno 10764 bound_to 10752
  154.7614  135.4986  153.9551 H   0  0  0  0  0  0  0  0  0  0  0  0  # atno 10765 bound_to 10752
  140.4603  134.1134  155.7715 H   0  0  0  0  0  0  0  0  0  0  0  0  # atno 11005 bound_to 11000
  146.3453  140.1992  142.8589 LP  0  0  0  0  0  0  0  0  0  0  0  0  # atno 17320 bound_to 7965
  145.0134  140.8733  143.5210 LP  0  0  0  0  0  0  0  0  0  0  0  0  # atno 17321 bound_to 7965
  139.8846  144.6999  150.8839 LP  0  0  0  0  0  0  0  0  0  0  0  0  # atno 17342 bound_to 10162
  140.7755  143.3634  151.1784 LP  0  0  0  0  0  0  0  0  0  0  0  0  # atno 17343 bound_to 10162
  156.2699  130.7011  151.1805 LP  0  0  0  0  0  0  0  0  0  0  0  0  # atno 17370 bound_to 10713
  157.7344  131.0582  150.5525 LP  0  0  0  0  0  0  0  0  0  0  0  0  # atno 17371 bound_to 10713
  141.1624  133.8768  157.1811 LP  0  0  0  0  0  0  0  0  0  0  0  0  # atno 17394 bound_to 11000
  139.9949  135.0050  157.0060 LP  0  0  0  0  0  0  0  0  0  0  0  0  # atno 17395 bound_to 11000

$$$$
