AV-unprocessed.smi:3335|AV-procd|sdf|12839|dock1
  -GOLD-   2272019223D 1   1.00000     0.00000
 Structure written by MMmdl.
 47 48  0  0  0  0  0  0  0  0  2 V2000
  141.0770  137.5963  154.3206 C   0  0  0  0  0  0  0  0  0  0  0  0
  142.1656  136.6841  153.8342 C   0  0  0  0  0  0  0  0  0  0  0  0
  142.3280  135.2957  154.1027 C   0  0  0  0  0  0  0  0  0  0  0  0
  143.4027  134.7843  153.5259 N   0  0  0  0  0  0  0  0  0  0  0  0
  143.9603  135.8217  152.8617 N   0  0  0  0  0  0  0  0  0  0  0  0
  145.1981  135.6361  152.1138 C   0  0  2  0  0  0  0  0  0  0  0  0
  144.9866  136.0650  150.6479 C   0  0  0  0  0  0  0  0  0  0  0  0
  145.7475  134.1877  152.2615 C   0  0  1  0  0  0  0  0  0  0  0  0
  144.9570  133.1694  151.4224 C   0  0  0  0  0  0  0  0  0  0  0  0
  147.1730  134.1090  151.8495 N   0  3  0  0  0  0  0  0  0  0  0  0
  148.0303  133.1557  152.5954 C   0  0  2  0  0  0  0  0  0  0  0  0
  147.2550  131.8521  152.8382 C   0  0  0  0  0  0  0  0  0  0  0  0
  148.5036  133.7470  153.9378 C   0  0  0  0  0  0  0  0  0  0  0  0
  147.9915  134.7939  154.3376 O   0  0  0  0  0  0  0  0  0  0  0  0
  149.4569  133.1019  154.6442 N   0  0  0  0  0  0  0  0  0  0  0  0
  150.1182  131.8516  154.2685 C   0  0  0  0  0  0  0  0  0  0  0  0
  150.9286  131.4251  155.4923 C   0  0  0  0  0  0  0  0  0  0  0  0
  151.1995  132.7281  156.2303 C   0  0  0  0  0  0  0  0  0  0  0  0
  149.9784  133.5931  155.9188 C   0  0  0  0  0  0  0  0  0  0  0  0
  143.2309  136.9802  153.0318 C   0  0  0  0  0  0  0  0  0  0  0  0
  140.4603  137.1211  155.0839 H   0  0  0  0  0  0  0  0  0  0  0  0
  140.4119  137.8949  153.5102 H   0  0  0  0  0  0  0  0  0  0  0  0
  141.4818  138.5091  154.7582 H   0  0  0  0  0  0  0  0  0  0  0  0
  141.7029  134.6491  154.7011 H   0  0  0  0  0  0  0  0  0  0  0  0
  145.9317  136.3205  152.5430 H   0  0  0  0  0  0  0  0  0  0  0  0
  145.9310  136.1406  150.1097 H   0  0  0  0  0  0  0  0  0  0  0  0
  144.5132  137.0460  150.5925 H   0  0  0  0  0  0  0  0  0  0  0  0
  144.3510  135.3600  150.1107 H   0  0  0  0  0  0  0  0  0  0  0  0
  145.6541  133.8772  153.3031 H   0  0  0  0  0  0  0  0  0  0  0  0
  143.9281  133.0724  151.7682 H   0  0  0  0  0  0  0  0  0  0  0  0
  145.4049  132.1772  151.4905 H   0  0  0  0  0  0  0  0  0  0  0  0
  144.9339  133.4516  150.3694 H   0  0  0  0  0  0  0  0  0  0  0  0
  147.2009  133.8277  150.8796 H   0  0  0  0  0  0  0  0  0  0  0  0
  148.8839  132.9158  151.9687 H   0  0  0  0  0  0  0  0  0  0  0  0
  147.8638  131.1184  153.3676 H   0  0  0  0  0  0  0  0  0  0  0  0
  146.9501  131.3996  151.8939 H   0  0  0  0  0  0  0  0  0  0  0  0
  146.3542  132.0243  153.4292 H   0  0  0  0  0  0  0  0  0  0  0  0
  149.4090  131.0746  153.9806 H   0  0  0  0  0  0  0  0  0  0  0  0
  150.7819  132.0398  153.4233 H   0  0  0  0  0  0  0  0  0  0  0  0
  150.3250  130.7689  156.1207 H   0  0  0  0  0  0  0  0  0  0  0  0
  151.8413  130.8895  155.2298 H   0  0  0  0  0  0  0  0  0  0  0  0
  151.3552  132.5849  157.3000 H   0  0  0  0  0  0  0  0  0  0  0  0
  152.0951  133.1987  155.8222 H   0  0  0  0  0  0  0  0  0  0  0  0
  150.2439  134.6507  155.8757 H   0  0  0  0  0  0  0  0  0  0  0  0
  149.2138  133.4669  156.6868 H   0  0  0  0  0  0  0  0  0  0  0  0
  143.5293  137.9136  152.5773 H   0  0  0  0  0  0  0  0  0  0  0  0
  147.5706  135.0341  151.9230 H   0  0  0  0  0  0  0  0  0  0  0  0
  1  2  1  0  0  0  0
  1 21  1  0  0  0  0
  1 22  1  0  0  0  0
  1 23  1  0  0  0  0
  2 20  2  0  0  0  0
  2  3  1  0  0  0  0
  3  4  2  0  0  0  0
  3 24  1  0  0  0  0
  4  5  1  0  0  0  0
  5  6  1  0  0  0  0
  5 20  1  0  0  0  0
  6  7  1  0  0  0  0
  6  8  1  0  0  0  0
  6 25  1  0  0  0  0
  7 26  1  0  0  0  0
  7 27  1  0  0  0  0
  7 28  1  0  0  0  0
  8  9  1  0  0  0  0
  8 10  1  0  0  0  0
  8 29  1  0  0  0  0
  9 30  1  0  0  0  0
  9 31  1  0  0  0  0
  9 32  1  0  0  0  0
 10 11  1  0  0  0  0
 10 33  1  0  0  0  0
 10 47  1  0  0  0  0
 11 12  1  0  0  0  0
 11 13  1  0  0  0  0
 11 34  1  0  0  0  0
 12 35  1  0  0  0  0
 12 36  1  0  0  0  0
 12 37  1  0  0  0  0
 13 14  2  0  0  0  0
 13 15  1  0  0  0  0
 15 19  1  0  0  0  0
 15 16  1  0  0  0  0
 16 17  1  0  0  0  0
 16 38  1  0  0  0  0
 16 39  1  0  0  0  0
 17 18  1  0  0  0  0
 17 40  1  0  0  0  0
 17 41  1  0  0  0  0
 18 19  1  0  0  0  0
 18 42  1  0  0  0  0
 18 43  1  0  0  0  0
 19 44  1  0  0  0  0
 19 45  1  0  0  0  0
 20 46  1  0  0  0  0
M  CHG  1  10   1
M  END
> <s_m_source_file>
AV-unprocessed.smi

> <i_m_source_file_index>
3335

> <i_lp_mmshare_version>
43012

> <i_f3d_flags>
0

> <s_epik_input>
W0NIM11jMVtjSF1ubihbY0hdMSlbQ0BIXShbQ0gzXSlbQ0BIXShbQ0gzXSlbTkhdW0NASF0oW0NIM10pQyg9TylOMltDSDJdW0NIMl1bQ0gyXVtDSDJdMg==

> <s_epik_cmdline>
J2VwaWtfcHl0aG9uJywgJy1waCcsICc3LjAnLCAnLXRuJywgJzgnLCAnLW1hJywgJzIwMCcsICctbWV0YWxfYmluZGluZycsICctaW1hZScsICc8aW5maWxlLm1hZT4nLCAnLW9tYWUnLCAnPG91dGZpbGUubWFlPic=

> <r_lp_tautomer_probability>
1

> <r_epik_Ionization_Penalty>
0.14175

> <r_epik_Ionization_Penalty_Charging>
0.141731

> <r_epik_Ionization_Penalty_Neutral>
1.91261e-05

> <r_epik_State_Penalty>
0.131043

> <r_epik_Charging_Adjusted_Penalty>
0.272773

> <i_epik_Tot_Q>
1

> <i_epik_Tot_abs_Q>
1

> <r_epik_Metal_State_Penalty>
0.131408

> <b_epik_Metal_Only>
0

> <s_lp_Force_Field>
OPLS_2005

> <r_lp_Energy>
35.8146

> <b_lp_Chiralities_Consistent>
1

> <s_lp_Variant>
AV-unprocessed.smi:3335-3

> <Gold.Version>
5.8.1

> <Gold.Id.Protein>
6NUR|6NUR_protein|mol2

> <Gold.PLP.Fitness>
46.8174

> <Gold.PLP.PLP>
-33.5512

> <Gold.PLP.part.hbond>
-1.0000

> <Gold.PLP.part.metal>
0.0000

> <Gold.PLP.part.buried>
-4.1131

> <Gold.PLP.part.nonpolar>
-29.9584

> <Gold.PLP.part.repulsive>
0.8893

> <Gold.PLP.ligand.clash>
0.0000

> <Gold.PLP.ligand.torsion>
0.9992

> <Gold.PLP.Chemscore.Hbond>
2.0000

> <Gold.PLP.Chemscore.CHOScore>
2.9454

> <Gold.PLP.Chemscore.Metal>
0.0000

> <Gold.Chemscore.Hbonds>
donor molecule, donor type, donor heavy atom, donor atom, acceptor molecule, acceptor atom, score
      L1  H    10    47       P1  7948  2.00
      L1  C     3    24       P1 11000  1.00
      L1  C    20    46       P1 10171  0.20
      L1  C    20    46       P1 10175  1.00

> <Gold.PLP.Chemscore.Internal.Correction>
0.4285

> <Gold.Rescore>
     Score         DG    S(hbond)    S(metal)    S(lipo)     H(rot)  DE(clash)    DE(int)     intcor
     10.17     -12.18       0.81        0.00      70.77       1.68       0.05       1.96       ----

> <Gold.Chemscore.Fitness>
10.1678

> <Gold.Chemscore.DG>
-12.1763

> <Gold.Chemscore.ZeroCoef>
-5.4800

> <Gold.Chemscore.Hbond>
0.8118

> <Gold.Chemscore.Metal>
0.0000

> <Gold.Chemscore.Lipo>
70.7702

> <Gold.Chemscore.Internal_Hbond>
0.0000

> <Gold.Chemscore.DEClash>
0.0515

> <Gold.Chemscore.DEInternal>
1.9570

> <Gold.Chemscore.Rot>
1.6778

> <Gold.Chemscore.Internal.Correction>
   9.000000E+99

> <Gold.Chemscore.Hbonds>
donor molecule, donor type, donor heavy atom, donor atom, acceptor molecule, acceptor atom, score
      L1  H    10    47       P1  7948  0.82

> <Gold.Chemscore.Hbond.Weighted>
-2.7113

> <Gold.Chemscore.Metal.Weighted>
-0.0000

> <Gold.Chemscore.Lipo.Weighted>
-8.2801

> <Gold.Chemscore.Internal_Hbond.Weighted>
0.0000

> <Gold.Chemscore.DEClash.Weighted>
0.0515

> <Gold.Chemscore.DEInternal.Weighted>
1.9570

> <Gold.Chemscore.Rot.Weighted>
4.2952

> <Gold.Chemscore.Internal.Correction.Weighted>
   9.000000E+99

> <Gold.Protein.RotatedTorsions>
[ 6907 6896 6895 6894 ] final  179.85 input  -60.11 | X-H torsion
[ 7974 7965 7964 7962 ] final  175.02 input  175.53 | X-H torsion
[ 8008 7997 7996 7995 ] final  -54.86 input   59.86 | X-H torsion
[ 10167 10162 10161 10158 ] final -116.79 input  -65.29 | X-H torsion
[ 10718 10713 10712 10709 ] final  156.86 input   66.30 | X-H torsion
[ 10763 10752 10751 10750 ] final  150.21 input  -60.55 | X-H torsion
[ 11005 11000 10999 10996 ] final -159.20 input  -57.11 | X-H torsion

> <Gold.Protein.ActiveResidues>
 VAL166  LYS551  ARG553  GLY616  TRP617  ASP618  TYR619  PRO620  LYS621  CYS622 
 ASP623  PHE694  ASN695  SER759  ASP760  ASP761  ALA762  ILE779  LEU786  VAL792 
 PHE793  MET794  SER795  GLU796  ALA797  LYS798  CYS799  TRP800  GLU811  SER814 

> <Gold.Protein.RotatedAtoms>
  151.6650  133.3315  159.3182 H   0  0  0  0  0  0  0  0  0  0  0  0  # atno 6907 bound_to 6896
  150.7895  134.6911  159.6506 H   0  0  0  0  0  0  0  0  0  0  0  0  # atno 6908 bound_to 6896
  152.3972  134.6350  160.0137 H   0  0  0  0  0  0  0  0  0  0  0  0  # atno 6909 bound_to 6896
  144.7210  139.9884  143.6439 H   0  0  0  0  0  0  0  0  0  0  0  0  # atno 7974 bound_to 7965
  154.4176  140.1166  156.5384 H   0  0  0  0  0  0  0  0  0  0  0  0  # atno 8008 bound_to 7997
  155.6533  140.3496  155.4737 H   0  0  0  0  0  0  0  0  0  0  0  0  # atno 8009 bound_to 7997
  155.9774  140.1153  157.0747 H   0  0  0  0  0  0  0  0  0  0  0  0  # atno 8010 bound_to 7997
  140.0754  143.4837  152.1956 H   0  0  0  0  0  0  0  0  0  0  0  0  # atno 10167 bound_to 10162
  157.1993  131.0672  151.2034 H   0  0  0  0  0  0  0  0  0  0  0  0  # atno 10718 bound_to 10713
  154.0838  135.2857  155.3285 H   0  0  0  0  0  0  0  0  0  0  0  0  # atno 10763 bound_to 10752
  154.6666  135.5315  153.8088 H   0  0  0  0  0  0  0  0  0  0  0  0  # atno 10764 bound_to 10752
  153.0439  135.6547  154.1011 H   0  0  0  0  0  0  0  0  0  0  0  0  # atno 10765 bound_to 10752
  140.6453  134.4508  157.5234 H   0  0  0  0  0  0  0  0  0  0  0  0  # atno 11005 bound_to 11000
  146.0431  139.3440  143.0685 LP  0  0  0  0  0  0  0  0  0  0  0  0  # atno 17320 bound_to 7965
  145.8309  140.9631  143.0849 LP  0  0  0  0  0  0  0  0  0  0  0  0  # atno 17321 bound_to 7965
  139.5811  144.7510  151.3638 LP  0  0  0  0  0  0  0  0  0  0  0  0  # atno 17342 bound_to 10162
  140.7104  143.7404  150.7557 LP  0  0  0  0  0  0  0  0  0  0  0  0  # atno 17343 bound_to 10162
  157.3783  130.7218  149.6612 LP  0  0  0  0  0  0  0  0  0  0  0  0  # atno 17370 bound_to 10713
  155.9702  130.4179  150.4304 LP  0  0  0  0  0  0  0  0  0  0  0  0  # atno 17371 bound_to 10713
  139.9065  134.8437  156.1686 LP  0  0  0  0  0  0  0  0  0  0  0  0  # atno 17394 bound_to 11000
  141.0577  133.6857  156.1892 LP  0  0  0  0  0  0  0  0  0  0  0  0  # atno 17395 bound_to 11000

$$$$
