AV-unprocessed.smi:1261|AV-procd|sdf|5302|dock4
  -GOLD-   22720 4423D 1   1.00000     0.00000
 Structure written by MMmdl.
 49 50  0  0  0  0  0  0  0  0  3 V2000
  145.9491  132.4462  149.7470 C   0  0  0  0  0  0  0  0  0  0  0  0
  146.4001  133.5234  150.7435 C   0  0  1  0  0  0  0  0  0  0  0  0
  145.2638  134.5114  151.0553 C   0  0  0  0  0  0  0  0  0  0  0  0
  145.7300  135.5707  152.0675 C   0  0  1  0  0  0  0  0  0  0  0  0
  144.6024  136.5559  152.4068 C   0  0  0  0  0  0  0  0  0  0  0  0
  146.2842  134.8887  153.3332 C   0  0  0  0  0  0  0  0  0  0  0  0
  147.3827  133.9428  153.0056 N   0  3  1  0  0  0  0  0  0  0  0  0
  148.0207  133.3852  154.2253 C   0  0  0  0  0  0  0  0  0  0  0  0
  148.8265  134.4376  155.0064 C   0  0  0  0  0  0  0  0  0  0  0  0
  150.2253  134.6585  154.4086 C   0  0  0  0  0  0  0  0  0  0  0  0
  150.4778  136.0685  154.1399 N   0  0  0  0  0  0  0  0  0  0  0  0
  151.4380  136.8050  154.7192 C   0  0  0  0  0  0  0  0  0  0  0  0
  152.2411  136.3506  155.5347 O   0  0  0  0  0  0  0  0  0  0  0  0
  151.5128  138.2760  154.2955 C   0  0  0  0  0  0  0  0  0  0  0  0
  151.4315  139.1814  155.4483 N   0  0  0  0  0  0  0  0  0  0  0  0
  152.4816  138.9592  156.4392 N   0  5  0  0  0  0  0  0  0  0  0  0
  152.5296  139.7512  157.5431 C   0  0  0  0  0  0  0  0  0  0  0  0
  153.3892  139.6301  158.4128 O   0  0  0  0  0  0  0  0  0  0  0  0
  151.5146  140.7811  157.6909 C   0  0  0  0  0  0  0  0  0  0  0  0
  150.5510  140.9569  156.7655 C   0  0  0  0  0  0  0  0  0  0  0  0
  150.4648  140.1362  155.5633 C   0  0  0  0  0  0  0  0  0  0  0  0
  149.5874  140.2934  154.7144 O   0  0  0  0  0  0  0  0  0  0  0  0
  146.9350  132.8981  152.0463 C   0  0  0  0  0  0  0  0  0  0  0  0
  145.1315  131.8486  150.1513 H   0  0  0  0  0  0  0  0  0  0  0  0
  146.7676  131.7685  149.5031 H   0  0  0  0  0  0  0  0  0  0  0  0
  145.6045  132.8936  148.8143 H   0  0  0  0  0  0  0  0  0  0  0  0
  147.2143  134.0803  150.2769 H   0  0  0  0  0  0  0  0  0  0  0  0
  144.9291  134.9960  150.1370 H   0  0  0  0  0  0  0  0  0  0  0  0
  144.4030  133.9718  151.4536 H   0  0  0  0  0  0  0  0  0  0  0  0
  146.5389  136.1430  151.6103 H   0  0  0  0  0  0  0  0  0  0  0  0
  143.7551  136.0464  152.8668 H   0  0  0  0  0  0  0  0  0  0  0  0
  144.2403  137.0615  151.5111 H   0  0  0  0  0  0  0  0  0  0  0  0
  144.9460  137.3236  153.1007 H   0  0  0  0  0  0  0  0  0  0  0  0
  146.6553  135.6540  154.0164 H   0  0  0  0  0  0  0  0  0  0  0  0
  145.4895  134.3547  153.8571 H   0  0  0  0  0  0  0  0  0  0  0  0
  147.2440  133.0001  154.8876 H   0  0  0  0  0  0  0  0  0  0  0  0
  148.6493  132.5334  153.9608 H   0  0  0  0  0  0  0  0  0  0  0  0
  148.2927  135.3875  155.0182 H   0  0  0  0  0  0  0  0  0  0  0  0
  148.9247  134.1237  156.0464 H   0  0  0  0  0  0  0  0  0  0  0  0
  150.9883  134.3074  155.1037 H   0  0  0  0  0  0  0  0  0  0  0  0
  150.3481  134.0761  153.4938 H   0  0  0  0  0  0  0  0  0  0  0  0
  149.8572  136.5338  153.4924 H   0  0  0  0  0  0  0  0  0  0  0  0
  152.4403  138.4423  153.7452 H   0  0  0  0  0  0  0  0  0  0  0  0
  150.7141  138.4914  153.5830 H   0  0  0  0  0  0  0  0  0  0  0  0
  151.5329  141.4186  158.5625 H   0  0  0  0  0  0  0  0  0  0  0  0
  149.8167  141.7339  156.9172 H   0  0  0  0  0  0  0  0  0  0  0  0
  146.1654  132.2817  152.5141 H   0  0  0  0  0  0  0  0  0  0  0  0
  147.7632  132.2341  151.8019 H   0  0  0  0  0  0  0  0  0  0  0  0
  148.0923  134.4882  152.5374 H   0  0  0  0  0  0  0  0  0  0  0  0
  1  2  1  0  0  0  0
  1 24  1  0  0  0  0
  1 25  1  0  0  0  0
  1 26  1  0  0  0  0
  2 23  1  0  0  0  0
  2  3  1  0  0  0  0
  2 27  1  0  0  0  0
  3  4  1  0  0  0  0
  3 28  1  0  0  0  0
  3 29  1  0  0  0  0
  4  5  1  0  0  0  0
  4  6  1  0  0  0  0
  4 30  1  0  0  0  0
  5 31  1  0  0  0  0
  5 32  1  0  0  0  0
  5 33  1  0  0  0  0
  6  7  1  0  0  0  0
  6 34  1  0  0  0  0
  6 35  1  0  0  0  0
  7  8  1  0  0  0  0
  7 23  1  0  0  0  0
  7 49  1  0  0  0  0
  8  9  1  0  0  0  0
  8 36  1  0  0  0  0
  8 37  1  0  0  0  0
  9 10  1  0  0  0  0
  9 38  1  0  0  0  0
  9 39  1  0  0  0  0
 10 11  1  0  0  0  0
 10 40  1  0  0  0  0
 10 41  1  0  0  0  0
 11 12  1  0  0  0  0
 11 42  1  0  0  0  0
 12 13  2  0  0  0  0
 12 14  1  0  0  0  0
 14 43  1  0  0  0  0
 14 44  1  0  0  0  0
 14 15  1  0  0  0  0
 15 16  1  0  0  0  0
 15 21  1  0  0  0  0
 16 17  1  0  0  0  0
 17 18  2  0  0  0  0
 17 19  1  0  0  0  0
 19 45  1  0  0  0  0
 19 20  2  0  0  0  0
 20 46  1  0  0  0  0
 20 21  1  0  0  0  0
 21 22  2  0  0  0  0
 23 47  1  0  0  0  0
 23 48  1  0  0  0  0
M  CHG  1   7   1
M  CHG  1  16  -1
M  END
> <s_m_source_file>
AV-unprocessed.smi

> <i_m_source_file_index>
1261

> <i_lp_mmshare_version>
43012

> <i_f3d_flags>
0

> <s_epik_input>
W0NIM11bQ0BASF0xW0NIMl1bQ0BASF0oW0NIM10pW0NIMl1OKFtDSDJdMSlbQ0gyXVtDSDJdW0NIMl1bTkhdQyg9TylbQ0gyXW4yW25IXWMoPU8pW2NIXVtjSF1jMj1P

> <s_epik_cmdline>
J2VwaWtfcHl0aG9uJywgJy1waCcsICc3LjAnLCAnLXRuJywgJzgnLCAnLW1hJywgJzIwMCcsICctbWV0YWxfYmluZGluZycsICctaW1hZScsICc8aW5maWxlLm1hZT4nLCAnLW9tYWUnLCAnPG91dGZpbGUubWFlPic=

> <r_lp_tautomer_probability>
1

> <r_epik_Ionization_Penalty>
0.0955723

> <r_epik_Ionization_Penalty_Charging>
0.0955723

> <r_epik_Ionization_Penalty_Neutral>
2.68632e-08

> <r_epik_State_Penalty>
0.0334406

> <r_epik_Charging_Adjusted_Penalty>
0.129013

> <i_epik_Tot_Q>
0

> <i_epik_Tot_abs_Q>
2

> <r_epik_Metal_State_Penalty>
0.0334406

> <b_epik_Metal_Only>
0

> <s_lp_Force_Field>
OPLS_2005

> <r_lp_Energy>
31.5278

> <b_lp_Chiralities_Consistent>
1

> <s_lp_Variant>
AV-unprocessed.smi:1261-2

> <Gold.Version>
5.8.1

> <Gold.Id.Protein>
6NUR|6NUR_protein|mol2

> <Gold.PLP.Fitness>
50.9865

> <Gold.PLP.PLP>
-38.2838

> <Gold.PLP.part.hbond>
-5.3951

> <Gold.PLP.part.metal>
0.0000

> <Gold.PLP.part.buried>
-1.5099

> <Gold.PLP.part.nonpolar>
-31.2211

> <Gold.PLP.part.repulsive>
0.2333

> <Gold.PLP.ligand.clash>
0.0000

> <Gold.PLP.ligand.torsion>
0.5779

> <Gold.PLP.Chemscore.Hbond>
4.6000

> <Gold.PLP.Chemscore.CHOScore>
0.0000

> <Gold.PLP.Chemscore.Metal>
0.0000

> <Gold.Chemscore.Hbonds>
donor molecule, donor type, donor heavy atom, donor atom, acceptor molecule, acceptor atom, score
      L1  H     7    49       P1  7948  2.00
      L1  H    11    42       P1  7948  0.80
      P1  H  7997  8009       L1    18  0.50
      P1  H 10752 10764       L1    13  0.47

> <Gold.PLP.Chemscore.Internal.Correction>
0.0585

> <Gold.Rescore>
     Score         DG    S(hbond)    S(metal)    S(lipo)     H(rot)  DE(clash)    DE(int)     intcor
     13.27     -15.47       2.35        0.00      72.94       2.49       0.16       2.04       ----

> <Gold.Chemscore.Fitness>
13.2694

> <Gold.Chemscore.DG>
-15.4733

> <Gold.Chemscore.ZeroCoef>
-5.4800

> <Gold.Chemscore.Hbond>
2.3484

> <Gold.Chemscore.Metal>
0.0000

> <Gold.Chemscore.Lipo>
72.9390

> <Gold.Chemscore.Internal_Hbond>
0.0000

> <Gold.Chemscore.DEClash>
0.1649

> <Gold.Chemscore.DEInternal>
2.0390

> <Gold.Chemscore.Rot>
2.4938

> <Gold.Chemscore.Internal.Correction>
   9.000000E+99

> <Gold.Chemscore.Hbonds>
donor molecule, donor type, donor heavy atom, donor atom, acceptor molecule, acceptor atom, score
      L1  H     7    49       P1  7948  0.33
      L1  H    11    42       P1  7948  0.20
      P1  H  7997  8009       L1    18  0.02
      P1  H 10752 10764       L1    13  0.39

> <Gold.Chemscore.Hbond.Weighted>
-7.8435

> <Gold.Chemscore.Metal.Weighted>
-0.0000

> <Gold.Chemscore.Lipo.Weighted>
-8.5339

> <Gold.Chemscore.Internal_Hbond.Weighted>
0.0000

> <Gold.Chemscore.DEClash.Weighted>
0.1649

> <Gold.Chemscore.DEInternal.Weighted>
2.0390

> <Gold.Chemscore.Rot.Weighted>
6.3840

> <Gold.Chemscore.Internal.Correction.Weighted>
   9.000000E+99

> <Gold.Protein.RotatedTorsions>
[ 6907 6896 6895 6894 ] final    7.01 input  -60.11 | X-H torsion
[ 7974 7965 7964 7962 ] final  -96.07 input  175.53 | X-H torsion
[ 8008 7997 7996 7995 ] final  143.50 input   59.86 | X-H torsion
[ 10167 10162 10161 10158 ] final -107.41 input  -65.29 | X-H torsion
[ 10718 10713 10712 10709 ] final  -55.36 input   66.30 | X-H torsion
[ 10763 10752 10751 10750 ] final  -35.18 input  -60.55 | X-H torsion
[ 11005 11000 10999 10996 ] final  -81.15 input  -57.11 | X-H torsion

> <Gold.Protein.ActiveResidues>
 VAL166  LYS551  ARG553  GLY616  TRP617  ASP618  TYR619  PRO620  LYS621  CYS622 
 ASP623  PHE694  ASN695  SER759  ASP760  ASP761  ALA762  ILE779  LEU786  VAL792 
 PHE793  MET794  SER795  GLU796  ALA797  LYS798  CYS799  TRP800  GLU811  SER814 

> <Gold.Protein.RotatedAtoms>
  151.6830  135.0959  160.0219 H   0  0  0  0  0  0  0  0  0  0  0  0  # atno 6907 bound_to 6896
  152.3824  133.6560  159.6180 H   0  0  0  0  0  0  0  0  0  0  0  0  # atno 6908 bound_to 6896
  150.7758  133.9008  159.3382 H   0  0  0  0  0  0  0  0  0  0  0  0  # atno 6909 bound_to 6896
  145.3517  140.9477  143.2550 H   0  0  0  0  0  0  0  0  0  0  0  0  # atno 7974 bound_to 7965
  156.2929  140.2260  156.4901 H   0  0  0  0  0  0  0  0  0  0  0  0  # atno 8008 bound_to 7997
  154.7778  140.0462  157.1124 H   0  0  0  0  0  0  0  0  0  0  0  0  # atno 8009 bound_to 7997
  154.9795  140.3076  155.4956 H   0  0  0  0  0  0  0  0  0  0  0  0  # atno 8010 bound_to 7997
  140.1773  143.3995  152.1309 H   0  0  0  0  0  0  0  0  0  0  0  0  # atno 10167 bound_to 10162
  156.1375  130.4156  150.0161 H   0  0  0  0  0  0  0  0  0  0  0  0  # atno 10718 bound_to 10713
  153.8589  135.6842  153.4785 H   0  0  0  0  0  0  0  0  0  0  0  0  # atno 10763 bound_to 10752
  153.1353  135.4680  154.9411 H   0  0  0  0  0  0  0  0  0  0  0  0  # atno 10764 bound_to 10752
  154.7768  135.3256  154.8025 H   0  0  0  0  0  0  0  0  0  0  0  0  # atno 10765 bound_to 10752
  141.1667  133.7183  156.8379 H   0  0  0  0  0  0  0  0  0  0  0  0  # atno 11005 bound_to 11000
  144.8712  139.5035  143.6766 LP  0  0  0  0  0  0  0  0  0  0  0  0  # atno 17320 bound_to 7965
  146.2965  139.7294  142.9123 LP  0  0  0  0  0  0  0  0  0  0  0  0  # atno 17321 bound_to 7965
  139.5311  144.7160  151.5052 LP  0  0  0  0  0  0  0  0  0  0  0  0  # atno 17342 bound_to 10162
  140.6543  143.8632  150.6818 LP  0  0  0  0  0  0  0  0  0  0  0  0  # atno 17343 bound_to 10162
  156.8056  130.9306  151.3645 LP  0  0  0  0  0  0  0  0  0  0  0  0  # atno 17370 bound_to 10713
  157.6545  130.8913  149.9701 LP  0  0  0  0  0  0  0  0  0  0  0  0  # atno 17371 bound_to 10713
  140.2004  134.8901  157.3162 LP  0  0  0  0  0  0  0  0  0  0  0  0  # atno 17394 bound_to 11000
  140.2194  134.4042  155.7573 LP  0  0  0  0  0  0  0  0  0  0  0  0  # atno 17395 bound_to 11000

$$$$
