AV-unprocessed.smi:795|AV-procd|sdf|3764|dock6
  -GOLD-   22720 1193D 1   1.00000     0.00000
 Structure written by MMmdl.
 49 52  0  0  0  0  0  0  0  0  1 V2000
  151.6509  142.8204  159.0890 C   0  0  0  0  0  0  0  0  0  0  0  0
  152.4457  142.1028  160.1464 C   0  0  0  0  0  0  0  0  0  0  0  0
  153.1126  141.0638  159.7649 N   0  0  0  0  0  0  0  0  0  0  0  0
  153.8725  140.3281  160.6541 N   0  0  0  0  0  0  0  0  0  0  0  0
  154.5257  139.1617  160.0445 C   0  0  0  0  0  0  0  0  0  0  0  0
  153.5197  138.2296  159.3570 C   0  0  0  0  0  0  0  0  0  0  0  0
  153.3213  137.0935  159.7880 O   0  0  0  0  0  0  0  0  0  0  0  0
  152.8986  138.7255  158.2765 N   0  0  0  0  0  0  0  0  0  0  0  0
  151.8759  138.0368  157.4916 C   0  0  2  0  0  0  0  0  0  0  0  0
  152.3138  137.9016  156.0116 C   0  0  2  0  0  0  0  0  0  0  0  0
  152.4046  139.2925  155.3384 C   0  0  0  0  0  0  0  0  0  0  0  0
  151.0256  139.9841  155.3982 C   0  0  1  0  0  0  0  0  0  0  0  0
  149.9858  139.1234  154.6485 C   0  0  0  0  0  0  0  0  0  0  0  0
  149.8953  137.7339  155.3159 C   0  0  1  0  0  0  0  0  0  0  0  0
  151.2757  137.0418  155.2565 C   0  0  0  0  0  0  0  0  0  0  0  0
  149.4589  137.8995  156.7886 C   0  0  0  0  0  0  0  0  0  0  0  0
  150.5011  138.7582  157.5394 C   0  0  2  0  0  0  0  0  0  0  0  0
  150.5914  140.1498  156.8704 C   0  0  0  0  0  0  0  0  0  0  0  0
  154.0052  140.6132  161.9818 C   0  0  0  0  0  0  0  0  0  0  0  0
  154.6951  139.9318  162.7413 O   0  0  0  0  0  0  0  0  0  0  0  0
  153.2485  141.7932  162.4070 C   0  0  0  0  0  0  0  0  0  0  0  0
  153.3575  142.1252  163.7910 C   0  0  0  0  0  0  0  0  0  0  0  0
  153.4651  142.4045  164.9092 N   0  0  0  0  0  0  0  0  0  0  0  0
  152.4935  142.5185  161.5442 C   0  0  0  0  0  0  0  0  0  0  0  0
  151.6870  143.7492  161.9356 C   0  0  0  0  0  0  0  0  0  0  0  0
  151.9723  143.8584  158.9997 H   0  0  0  0  0  0  0  0  0  0  0  0
  150.5885  142.8136  159.3329 H   0  0  0  0  0  0  0  0  0  0  0  0
  151.7654  142.3555  158.1084 H   0  0  0  0  0  0  0  0  0  0  0  0
  155.2703  139.4990  159.3204 H   0  0  0  0  0  0  0  0  0  0  0  0
  155.0850  138.5872  160.7845 H   0  0  0  0  0  0  0  0  0  0  0  0
  153.1315  139.6649  157.9890 H   0  0  0  0  0  0  0  0  0  0  0  0
  151.7681  137.0351  157.9125 H   0  0  0  0  0  0  0  0  0  0  0  0
  153.2865  137.4104  155.9616 H   0  0  0  0  0  0  0  0  0  0  0  0
  153.1586  139.9102  155.8274 H   0  0  0  0  0  0  0  0  0  0  0  0
  152.7262  139.1869  154.3016 H   0  0  0  0  0  0  0  0  0  0  0  0
  151.0913  140.9653  154.9272 H   0  0  0  0  0  0  0  0  0  0  0  0
  149.0111  139.6126  154.6618 H   0  0  0  0  0  0  0  0  0  0  0  0
  150.2653  139.0216  153.5992 H   0  0  0  0  0  0  0  0  0  0  0  0
  149.1615  137.1249  154.7871 H   0  0  0  0  0  0  0  0  0  0  0  0
  151.5834  136.9026  154.2193 H   0  0  0  0  0  0  0  0  0  0  0  0
  151.2180  136.0452  155.6958 H   0  0  0  0  0  0  0  0  0  0  0  0
  148.4756  138.3687  156.8406 H   0  0  0  0  0  0  0  0  0  0  0  0
  149.3586  136.9238  157.2656 H   0  0  0  0  0  0  0  0  0  0  0  0
  150.1754  138.8762  158.5732 H   0  0  0  0  0  0  0  0  0  0  0  0
  151.2954  140.7884  157.4051 H   0  0  0  0  0  0  0  0  0  0  0  0
  149.6255  140.6537  156.9224 H   0  0  0  0  0  0  0  0  0  0  0  0
  151.7475  143.9598  163.0028 H   0  0  0  0  0  0  0  0  0  0  0  0
  150.6333  143.6116  161.6907 H   0  0  0  0  0  0  0  0  0  0  0  0
  152.0518  144.6294  161.4052 H   0  0  0  0  0  0  0  0  0  0  0  0
  1  2  1  0  0  0  0
  1 26  1  0  0  0  0
  1 27  1  0  0  0  0
  1 28  1  0  0  0  0
  2 24  1  0  0  0  0
  2  3  2  0  0  0  0
  3  4  1  0  0  0  0
  4  5  1  0  0  0  0
  4 19  1  0  0  0  0
  5  6  1  0  0  0  0
  5 29  1  0  0  0  0
  5 30  1  0  0  0  0
  6  7  2  0  0  0  0
  6  8  1  0  0  0  0
  8  9  1  0  0  0  0
  8 31  1  0  0  0  0
  9 17  1  0  0  0  0
  9 10  1  0  0  0  0
  9 32  1  0  0  0  0
 10 15  1  0  0  0  0
 10 11  1  0  0  0  0
 10 33  1  0  0  0  0
 11 12  1  0  0  0  0
 11 34  1  0  0  0  0
 11 35  1  0  0  0  0
 12 18  1  0  0  0  0
 12 13  1  0  0  0  0
 12 36  1  0  0  0  0
 13 14  1  0  0  0  0
 13 37  1  0  0  0  0
 13 38  1  0  0  0  0
 14 15  1  0  0  0  0
 14 16  1  0  0  0  0
 14 39  1  0  0  0  0
 15 40  1  0  0  0  0
 15 41  1  0  0  0  0
 16 17  1  0  0  0  0
 16 42  1  0  0  0  0
 16 43  1  0  0  0  0
 17 18  1  0  0  0  0
 17 44  1  0  0  0  0
 18 45  1  0  0  0  0
 18 46  1  0  0  0  0
 19 20  2  0  0  0  0
 19 21  1  0  0  0  0
 21 22  1  0  0  0  0
 21 24  2  0  0  0  0
 22 23  3  0  0  0  0
 24 25  1  0  0  0  0
 25 47  1  0  0  0  0
 25 48  1  0  0  0  0
 25 49  1  0  0  0  0
M  END
> <s_m_source_file>
AV-unprocessed.smi

> <i_m_source_file_index>
795

> <i_lp_mmshare_version>
43012

> <i_f3d_flags>
0

> <s_epik_input>
TiNDYyhjMVtDSDNdKWMoPU8pbihuYzFbQ0gzXSlbQ0gyXUMoPU8pW05IXVtDQEhdKFtDQEhdMjMpW0NAQEhdNFtDSDJdW0NASF0oW0NIMl0zKVtDSDJdW0NASF0oW0NIMl0yKVtDSDJdNA==

> <s_epik_cmdline>
J2VwaWtfcHl0aG9uJywgJy1waCcsICc3LjAnLCAnLXRuJywgJzgnLCAnLW1hJywgJzIwMCcsICctbWV0YWxfYmluZGluZycsICctaW1hZScsICc8aW5maWxlLm1hZT4nLCAnLW9tYWUnLCAnPG91dGZpbGUubWFlPic=

> <r_lp_tautomer_probability>
1

> <r_epik_Ionization_Penalty>
2.02301e-08

> <r_epik_Ionization_Penalty_Charging>
2.3673e-11

> <r_epik_Ionization_Penalty_Neutral>
2.02064e-08

> <r_epik_State_Penalty>
-0

> <r_epik_Charging_Adjusted_Penalty>
2.3673e-11

> <i_epik_Tot_Q>
0

> <i_epik_Tot_abs_Q>
0

> <r_epik_Metal_State_Penalty>
-0

> <b_epik_Metal_Only>
0

> <s_lp_Force_Field>
OPLS_2005

> <r_lp_Energy>
43.8057

> <b_lp_Chiralities_Consistent>
1

> <s_lp_Variant>
AV-unprocessed.smi:795-1

> <Gold.Version>
5.8.1

> <Gold.Id.Protein>
6NUR|6NUR_protein|mol2

> <Gold.PLP.Fitness>
47.5037

> <Gold.PLP.PLP>
-47.6226

> <Gold.PLP.part.hbond>
-1.0000

> <Gold.PLP.part.metal>
0.0000

> <Gold.PLP.part.buried>
-4.3198

> <Gold.PLP.part.nonpolar>
-41.7138

> <Gold.PLP.part.repulsive>
0.1493

> <Gold.PLP.ligand.clash>
0.0000

> <Gold.PLP.ligand.torsion>
0.0616

> <Gold.PLP.Chemscore.Hbond>
0.0000

> <Gold.PLP.Chemscore.CHOScore>
0.0000

> <Gold.PLP.Chemscore.Metal>
0.0000

> <Gold.PLP.Chemscore.Internal.Correction>
0.0044

> <Gold.Rescore>
     Score         DG    S(hbond)    S(metal)    S(lipo)     H(rot)  DE(clash)    DE(int)     intcor
     14.33     -14.88       0.00        0.00     111.92       1.44       0.42       0.12       ----

> <Gold.Chemscore.Fitness>
14.3340

> <Gold.Chemscore.DG>
-14.8779

> <Gold.Chemscore.ZeroCoef>
-5.4800

> <Gold.Chemscore.Hbond>
0.0000

> <Gold.Chemscore.Metal>
0.0000

> <Gold.Chemscore.Lipo>
111.9227

> <Gold.Chemscore.Internal_Hbond>
0.0000

> <Gold.Chemscore.DEClash>
0.4208

> <Gold.Chemscore.DEInternal>
0.1230

> <Gold.Chemscore.Rot>
1.4442

> <Gold.Chemscore.Internal.Correction>
   9.000000E+99

> <Gold.Chemscore.Hbond.Weighted>
-0.0000

> <Gold.Chemscore.Metal.Weighted>
-0.0000

> <Gold.Chemscore.Lipo.Weighted>
-13.0950

> <Gold.Chemscore.Internal_Hbond.Weighted>
0.0000

> <Gold.Chemscore.DEClash.Weighted>
0.4208

> <Gold.Chemscore.DEInternal.Weighted>
0.1230

> <Gold.Chemscore.Rot.Weighted>
3.6971

> <Gold.Chemscore.Internal.Correction.Weighted>
   9.000000E+99

> <Gold.Protein.RotatedTorsions>
[ 6907 6896 6895 6894 ] final  -12.88 input  -60.11 | X-H torsion
[ 7974 7965 7964 7962 ] final   41.03 input  175.53 | X-H torsion
[ 8008 7997 7996 7995 ] final   48.93 input   59.86 | X-H torsion
[ 10167 10162 10161 10158 ] final -124.03 input  -65.29 | X-H torsion
[ 10718 10713 10712 10709 ] final  -37.85 input   66.30 | X-H torsion
[ 10763 10752 10751 10750 ] final  -88.74 input  -60.55 | X-H torsion
[ 11005 11000 10999 10996 ] final  105.64 input  -57.11 | X-H torsion

> <Gold.Protein.ActiveResidues>
 VAL166  LYS551  ARG553  GLY616  TRP617  ASP618  TYR619  PRO620  LYS621  CYS622 
 ASP623  PHE694  ASN695  SER759  ASP760  ASP761  ALA762  ILE779  LEU786  VAL792 
 PHE793  MET794  SER795  GLU796  ALA797  LYS798  CYS799  TRP800  GLU811  SER814 

> <Gold.Protein.RotatedAtoms>
  151.3636  135.0909  159.9442 H   0  0  0  0  0  0  0  0  0  0  0  0  # atno 6907 bound_to 6896
  152.5155  133.9234  159.7556 H   0  0  0  0  0  0  0  0  0  0  0  0  # atno 6908 bound_to 6896
  150.9633  133.6367  159.2780 H   0  0  0  0  0  0  0  0  0  0  0  0  # atno 6909 bound_to 6896
  146.0856  139.5463  142.9508 H   0  0  0  0  0  0  0  0  0  0  0  0  # atno 7974 bound_to 7965
  155.3937  140.3434  155.4253 H   0  0  0  0  0  0  0  0  0  0  0  0  # atno 8008 bound_to 7997
  156.1543  140.1580  156.8751 H   0  0  0  0  0  0  0  0  0  0  0  0  # atno 8009 bound_to 7997
  154.5080  140.0797  156.7915 H   0  0  0  0  0  0  0  0  0  0  0  0  # atno 8010 bound_to 7997
  139.9971  143.5579  152.2318 H   0  0  0  0  0  0  0  0  0  0  0  0  # atno 10167 bound_to 10162
  156.3105  130.4252  149.8055 H   0  0  0  0  0  0  0  0  0  0  0  0  # atno 10718 bound_to 10713
  154.6478  135.5366  153.7865 H   0  0  0  0  0  0  0  0  0  0  0  0  # atno 10763 bound_to 10752
  153.0369  135.6475  154.1063 H   0  0  0  0  0  0  0  0  0  0  0  0  # atno 10764 bound_to 10752
  154.0983  135.2935  155.3237 H   0  0  0  0  0  0  0  0  0  0  0  0  # atno 10765 bound_to 10752
  139.8804  134.9342  156.5545 H   0  0  0  0  0  0  0  0  0  0  0  0  # atno 11005 bound_to 11000
  145.6135  141.0335  143.1953 LP  0  0  0  0  0  0  0  0  0  0  0  0  # atno 17320 bound_to 7965
  144.7324  139.7687  143.7342 LP  0  0  0  0  0  0  0  0  0  0  0  0  # atno 17321 bound_to 7965
  139.6298  144.7642  151.2560 LP  0  0  0  0  0  0  0  0  0  0  0  0  # atno 17342 bound_to 10162
  140.7433  143.6499  150.8258 LP  0  0  0  0  0  0  0  0  0  0  0  0  # atno 17343 bound_to 10162
  156.5401  130.8296  151.3266 LP  0  0  0  0  0  0  0  0  0  0  0  0  # atno 17370 bound_to 10713
  157.7390  130.9823  150.2284 LP  0  0  0  0  0  0  0  0  0  0  0  0  # atno 17371 bound_to 10713
  140.8215  133.8350  155.8900 LP  0  0  0  0  0  0  0  0  0  0  0  0  # atno 17394 bound_to 11000
  140.9413  134.1897  157.4795 LP  0  0  0  0  0  0  0  0  0  0  0  0  # atno 17395 bound_to 11000

$$$$
