#       Name:                AV-unprocessed.smi:1047
#       Creating user name   scv26
#       Creation time:       Fri Mar 27 03:00:21 2020


#       File generated by GOLD software.
#

@<TRIPOS>MOLECULE
AV-unprocessed.smi:1047
    62    64     1
SMALL
NO_CHARGES


@<TRIPOS>ATOM
      1 ****        -6.1146   3.6995  -2.3206 C.3            1 S1                 0.0000
      2 ****        -4.9788   4.0604  -1.3525 C.3            1 S1                 0.0000
      3 ****        -5.0451   3.2848  -0.0851 N.4            1 S1                 1.0000
      4 ****        -4.3149   3.9212   1.0382 C.3            1 S1                 0.0000
      5 ****        -2.7985   3.6874   0.9193 C.3            1 S1                 0.0000
      6 ****        -2.5389   2.2898   0.8584 O.3            1 S1                 0.0000
      7 ****        -3.1291   1.6727  -0.2816 C.3            1 S1                 0.0000
      8 ****        -2.7301   0.1887  -0.2791 C.3            1 S1                 0.0000
      9 ****        -1.2808   0.0211  -0.5094 N.4            1 S1                 1.0000
     10 ****        -0.8364  -1.3861  -0.5673 C.3            1 S1                 0.0000
     11 ****         0.6763  -1.4835  -0.8246 C.3            1 S1                 0.0000
     12 ****         0.9493  -0.9727  -2.1156 O.3            1 S1                 0.0000
     13 ****         1.1839  -2.9354  -0.7327 C.3            1 S1                 0.0000
     14 ****         2.6155  -3.0369  -0.9534 N.pl3          1 S1                 0.0000
     15 ****         3.2413  -3.3961  -2.0912 C.2            1 S1                 0.0000
     16 ****         4.5706  -3.4169  -2.0740 N.2            1 S1                 0.0000
     17 ****         4.8393  -3.0347  -0.7709 C.ar           1 S1                 0.0000
     18 ****         6.0703  -2.8621  -0.1012 C.ar           1 S1                 0.0000
     19 ****         6.1083  -2.4630   1.2539 C.ar           1 S1                 0.0000
     20 ****         7.4546  -2.2922   1.9355 C.3            1 S1                 0.0000
     21 ****         4.9010  -2.2279   1.9598 C.ar           1 S1                 0.0000
     22 ****         4.9187  -1.8014   3.4170 C.3            1 S1                 0.0000
     23 ****         3.6622  -2.3920   1.3047 C.ar           1 S1                 0.0000
     24 ****         3.6376  -2.7913  -0.0433 C.ar           1 S1                 0.0000
     25 ****        -4.6625   1.8538  -0.2064 C.3            1 S1                 0.0000
     26 ****        -6.0949   4.3520  -3.1939 H              1 S1                 0.0000
     27 ****        -7.0895   3.8154  -1.8457 H              1 S1                 0.0000
     28 ****        -6.0361   2.6751  -2.6834 H              1 S1                 0.0000
     29 ****        -4.0110   3.9358  -1.8382 H              1 S1                 0.0000
     30 ****        -5.0684   5.1227  -1.1224 H              1 S1                 0.0000
     31 ****        -4.5410   4.9866   1.0935 H              1 S1                 0.0000
     32 ****        -4.6737   3.4847   1.9715 H              1 S1                 0.0000
     33 ****        -2.3864   4.1882   0.0419 H              1 S1                 0.0000
     34 ****        -2.2871   4.1014   1.7885 H              1 S1                 0.0000
     35 ****        -2.7426   2.1365  -1.1906 H              1 S1                 0.0000
     36 ****        -3.0093  -0.2793   0.6662 H              1 S1                 0.0000
     37 ****        -3.2684  -0.3366  -1.0691 H              1 S1                 0.0000
     38 ****        -1.0373   0.4597  -1.3866 H              1 S1                 0.0000
     39 ****        -1.0801  -1.8646   0.3822 H              1 S1                 0.0000
     40 ****        -1.3895  -1.9168  -1.3440 H              1 S1                 0.0000
     41 ****         1.2086  -0.8724  -0.0941 H              1 S1                 0.0000
     42 ****         1.8799  -1.0351  -2.2727 H              1 S1                 0.0000
     43 ****         0.9625  -3.3513   0.2511 H              1 S1                 0.0000
     44 ****         0.6723  -3.5678  -1.4600 H              1 S1                 0.0000
     45 ****         2.6896  -3.6509  -2.9845 H              1 S1                 0.0000
     46 ****         6.9899  -3.0412  -0.6389 H              1 S1                 0.0000
     47 ****         7.5277  -2.9421   2.8077 H              1 S1                 0.0000
     48 ****         7.5895  -1.2602   2.2596 H              1 S1                 0.0000
     49 ****         8.2761  -2.5424   1.2637 H              1 S1                 0.0000
     50 ****         3.9097  -1.6399   3.7975 H              1 S1                 0.0000
     51 ****         5.4739  -0.8709   3.5367 H              1 S1                 0.0000
     52 ****         5.3897  -2.5677   4.0331 H              1 S1                 0.0000
     53 ****         2.7357  -2.2163   1.8308 H              1 S1                 0.0000
     54 ****        -5.0434   1.3313   0.6724 H              1 S1                 0.0000
     55 ****        -5.1488   1.3907  -1.0643 H              1 S1                 0.0000
     56 ****        -0.7782   0.4859   0.2334 H              1 S1                 0.0000
     57 ****        -6.0205   3.3015   0.1786 H              1 S1                 0.0000
     58 ****        -2.9073   1.8593   1.6824 LP             1 S1                 0.0000
     59 ****        -1.5495   2.1490   0.8227 LP             1 S1                 0.0000
     60 ****         0.6619  -0.0163  -2.1676 LP             1 S1                 0.0000
     61 ****         0.4550  -1.5071  -2.8012 LP             1 S1                 0.0000
     62 ****         5.2084  -3.6478  -2.8088 LP             1 S1                 0.0000
@<TRIPOS>BOND
    1    1    2 1     
    2    1   26 1     
    3    1   27 1     
    4    1   28 1     
    5    2    3 1     
    6    2   29 1     
    7    2   30 1     
    8    3   25 1     
    9    3    4 1     
   10    3   57 1     
   11    4    5 1     
   12    4   31 1     
   13    4   32 1     
   14    5    6 1     
   15    5   33 1     
   16    5   34 1     
   17    6    7 1     
   18    7    8 1     
   19    7   25 1     
   20    7   35 1     
   21    8    9 1     
   22    8   36 1     
   23    8   37 1     
   24    9   10 1     
   25    9   38 1     
   26    9   56 1     
   27   10   11 1     
   28   10   39 1     
   29   10   40 1     
   30   11   12 1     
   31   11   13 1     
   32   11   41 1     
   33   12   42 1     
   34   13   14 1     
   35   13   43 1     
   36   13   44 1     
   37   14   24 1     
   38   14   15 1     
   39   15   16 2     
   40   15   45 1     
   41   16   17 1     
   42   17   24 ar    
   43   17   18 ar    
   44   18   19 ar    
   45   18   46 1     
   46   19   20 1     
   47   19   21 ar    
   48   20   47 1     
   49   20   48 1     
   50   20   49 1     
   51   21   22 1     
   52   21   23 ar    
   53   22   50 1     
   54   22   51 1     
   55   22   52 1     
   56   23   24 ar    
   57   23   53 1     
   58   25   54 1     
   59   25   55 1     
   60    6   58 1     
   61    6   59 1     
   62   12   60 1     
   63   12   61 1     
   64   16   62 1     
@<TRIPOS>SUBSTRUCTURE
      1 S1             1
@<TRIPOS>SET
LONE_PAIRS      STATIC     ATOMS    <user>   **** ""
5 58 59 60 61 62
DONOR_HYDROGENS      STATIC     ATOMS    <user>   **** ""
4 57 38 56 42
ATOM$BLUE        STATIC     ATOMS    COLORGROUP SYSTEM
5 58 59 60 61 62
ATOM$RED        STATIC     ATOMS    COLORGROUP SYSTEM
4 57 38 56 42
