AV-unprocessed.smi:1486|AV-procd|sdf|6006|dock2
  -GOLD-   22720 6103D 1   1.00000     0.00000
 Structure written by MMmdl.
 39 40  0  0  0  0  0  0  0  0  1 V2000
  155.2398  144.2018  164.9946 C   0  0  0  0  0  0  0  0  0  0  0  0
  155.9790  143.2576  165.7490 O   0  0  0  0  0  0  0  0  0  0  0  0
  155.4238  143.0363  167.0357 C   0  0  0  0  0  0  0  0  0  0  0  0
  156.0911  141.8100  167.6767 C   0  0  1  0  0  0  0  0  0  0  0  0
  155.6485  141.6266  169.1371 C   0  0  0  0  0  0  0  0  0  0  0  0
  155.7681  140.6144  166.9027 N   0  0  0  0  0  0  0  0  0  0  0  0
  156.4363  140.1875  165.8195 C   0  0  0  0  0  0  0  0  0  0  0  0
  157.4123  140.7719  165.3490 O   0  0  0  0  0  0  0  0  0  0  0  0
  155.9300  138.9003  165.1678 C   0  0  0  0  0  0  0  0  0  0  0  0
  155.7602  139.0981  163.6890 C   0  0  0  0  0  0  0  0  0  0  0  0
  156.4331  138.4420  162.6867 C   0  0  0  0  0  0  0  0  0  0  0  0
  155.9357  138.9767  161.1055 S   0  0  0  0  0  0  0  0  0  0  0  0
  154.8142  140.1027  161.8760 C   0  0  0  0  0  0  0  0  0  0  0  0
  153.9450  141.0184  161.2110 N   0  0  0  0  0  0  0  0  0  0  0  0
  153.3433  142.1515  161.9078 C   0  0  0  0  0  0  0  0  0  0  0  0
  152.6891  143.0133  160.8225 C   0  0  0  0  0  0  0  0  0  0  0  0
  152.6158  142.1183  159.5873 C   0  0  0  0  0  0  0  0  0  0  0  0
  153.5494  140.9678  159.9264 C   0  0  0  0  0  0  0  0  0  0  0  0
  153.8613  140.1255  159.0860 O   0  0  0  0  0  0  0  0  0  0  0  0
  154.8435  140.0417  163.2122 N   0  0  0  0  0  0  0  0  0  0  0  0
  155.7059  144.3373  164.0186 H   0  0  0  0  0  0  0  0  0  0  0  0
  155.2147  145.1718  165.4926 H   0  0  0  0  0  0  0  0  0  0  0  0
  154.2150  143.8638  164.8348 H   0  0  0  0  0  0  0  0  0  0  0  0
  155.5943  143.9168  167.6576 H   0  0  0  0  0  0  0  0  0  0  0  0
  154.3444  142.8911  166.9646 H   0  0  0  0  0  0  0  0  0  0  0  0
  157.1709  141.9699  167.6616 H   0  0  0  0  0  0  0  0  0  0  0  0
  155.8904  142.5070  169.7329 H   0  0  0  0  0  0  0  0  0  0  0  0
  156.1472  140.7734  169.5984 H   0  0  0  0  0  0  0  0  0  0  0  0
  154.5728  141.4617  169.2082 H   0  0  0  0  0  0  0  0  0  0  0  0
  154.9757  140.0715  167.2144 H   0  0  0  0  0  0  0  0  0  0  0  0
  156.6268  138.0877  165.3795 H   0  0  0  0  0  0  0  0  0  0  0  0
  154.9812  138.6170  165.6249 H   0  0  0  0  0  0  0  0  0  0  0  0
  157.1869  137.6747  162.7849 H   0  0  0  0  0  0  0  0  0  0  0  0
  152.5953  141.7819  162.6107 H   0  0  0  0  0  0  0  0  0  0  0  0
  154.0857  142.7204  162.4693 H   0  0  0  0  0  0  0  0  0  0  0  0
  151.7067  143.3751  161.1277 H   0  0  0  0  0  0  0  0  0  0  0  0
  153.3100  143.8849  160.6105 H   0  0  0  0  0  0  0  0  0  0  0  0
  151.6073  141.7321  159.4355 H   0  0  0  0  0  0  0  0  0  0  0  0
  152.9323  142.6377  158.6823 H   0  0  0  0  0  0  0  0  0  0  0  0
  1  2  1  0  0  0  0
  1 21  1  0  0  0  0
  1 22  1  0  0  0  0
  1 23  1  0  0  0  0
  2  3  1  0  0  0  0
  3  4  1  0  0  0  0
  3 24  1  0  0  0  0
  3 25  1  0  0  0  0
  4  5  1  0  0  0  0
  4  6  1  0  0  0  0
  4 26  1  0  0  0  0
  5 27  1  0  0  0  0
  5 28  1  0  0  0  0
  5 29  1  0  0  0  0
  6  7  1  0  0  0  0
  6 30  1  0  0  0  0
  7  8  2  0  0  0  0
  7  9  1  0  0  0  0
  9 10  1  0  0  0  0
  9 31  1  0  0  0  0
  9 32  1  0  0  0  0
 10 20  1  0  0  0  0
 10 11  2  0  0  0  0
 11 12  1  0  0  0  0
 11 33  1  0  0  0  0
 12 13  1  0  0  0  0
 13 14  1  0  0  0  0
 13 20  2  0  0  0  0
 14 18  1  0  0  0  0
 14 15  1  0  0  0  0
 15 16  1  0  0  0  0
 15 34  1  0  0  0  0
 15 35  1  0  0  0  0
 16 17  1  0  0  0  0
 16 36  1  0  0  0  0
 16 37  1  0  0  0  0
 17 18  1  0  0  0  0
 17 38  1  0  0  0  0
 17 39  1  0  0  0  0
 18 19  2  0  0  0  0
M  END
> <s_m_source_file>
AV-unprocessed.smi

> <i_m_source_file_index>
1486

> <i_lp_mmshare_version>
43012

> <i_f3d_flags>
0

> <s_epik_input>
W0NIM11PW0NIMl1bQ0BIXShbQ0gzXSlbTkhdQyg9TylbQ0gyXWMxW2NIXXNjKG4xKU4yW0NIMl1bQ0gyXVtDSDJdQzI9Tw==

> <s_epik_cmdline>
J2VwaWtfcHl0aG9uJywgJy1waCcsICc3LjAnLCAnLXRuJywgJzgnLCAnLW1hJywgJzIwMCcsICctbWV0YWxfYmluZGluZycsICctaW1hZScsICc8aW5maWxlLm1hZT4nLCAnLW9tYWUnLCAnPG91dGZpbGUubWFlPic=

> <r_lp_tautomer_probability>
1

> <r_epik_Ionization_Penalty>
3.00988e-05

> <r_epik_Ionization_Penalty_Charging>
0

> <r_epik_Ionization_Penalty_Neutral>
3.00988e-05

> <r_epik_State_Penalty>
-0

> <r_epik_Charging_Adjusted_Penalty>
0

> <i_epik_Tot_Q>
0

> <i_epik_Tot_abs_Q>
0

> <r_epik_Metal_State_Penalty>
-0

> <b_epik_Metal_Only>
0

> <s_lp_Force_Field>
OPLS_2005

> <r_lp_Energy>
17.9426

> <b_lp_Chiralities_Consistent>
1

> <s_lp_Variant>
AV-unprocessed.smi:1486-2

> <Gold.Version>
5.8.1

> <Gold.Id.Protein>
6NUR|6NUR_protein|mol2

> <Gold.PLP.Fitness>
38.8229

> <Gold.PLP.PLP>
-37.2894

> <Gold.PLP.part.hbond>
-1.0000

> <Gold.PLP.part.metal>
0.0000

> <Gold.PLP.part.buried>
-3.5965

> <Gold.PLP.part.nonpolar>
-32.1552

> <Gold.PLP.part.repulsive>
0.1361

> <Gold.PLP.ligand.clash>
0.0000

> <Gold.PLP.ligand.torsion>
0.6595

> <Gold.PLP.Chemscore.Hbond>
0.8960

> <Gold.PLP.Chemscore.CHOScore>
0.0000

> <Gold.PLP.Chemscore.Metal>
0.0000

> <Gold.Chemscore.Hbonds>
donor molecule, donor type, donor heavy atom, donor atom, acceptor molecule, acceptor atom, score
      P1  H  7997  8008       L1    19  0.77

> <Gold.PLP.Chemscore.Internal.Correction>
0.1646

> <Gold.Rescore>
     Score         DG    S(hbond)    S(metal)    S(lipo)     H(rot)  DE(clash)    DE(int)     intcor
     12.55     -13.25       0.94        0.00      81.90       1.94       0.02       0.68       ----

> <Gold.Chemscore.Fitness>
12.5528

> <Gold.Chemscore.DG>
-13.2493

> <Gold.Chemscore.ZeroCoef>
-5.4800

> <Gold.Chemscore.Hbond>
0.9420

> <Gold.Chemscore.Metal>
0.0000

> <Gold.Chemscore.Lipo>
81.9022

> <Gold.Chemscore.Internal_Hbond>
0.0000

> <Gold.Chemscore.DEClash>
0.0215

> <Gold.Chemscore.DEInternal>
0.6751

> <Gold.Chemscore.Rot>
1.9373

> <Gold.Chemscore.Internal.Correction>
   9.000000E+99

> <Gold.Chemscore.Hbonds>
donor molecule, donor type, donor heavy atom, donor atom, acceptor molecule, acceptor atom, score
      P1  H  7997  8008       L1    19  0.73

> <Gold.Chemscore.Hbond.Weighted>
-3.1462

> <Gold.Chemscore.Metal.Weighted>
-0.0000

> <Gold.Chemscore.Lipo.Weighted>
-9.5826

> <Gold.Chemscore.Internal_Hbond.Weighted>
0.0000

> <Gold.Chemscore.DEClash.Weighted>
0.0215

> <Gold.Chemscore.DEInternal.Weighted>
0.6751

> <Gold.Chemscore.Rot.Weighted>
4.9594

> <Gold.Chemscore.Internal.Correction.Weighted>
   9.000000E+99

> <Gold.Protein.RotatedTorsions>
[ 6907 6896 6895 6894 ] final -166.63 input  -60.11 | X-H torsion
[ 7974 7965 7964 7962 ] final  169.06 input  175.53 | X-H torsion
[ 8008 7997 7996 7995 ] final -112.31 input   59.86 | X-H torsion
[ 10167 10162 10161 10158 ] final -131.52 input  -65.29 | X-H torsion
[ 10718 10713 10712 10709 ] final  156.73 input   66.30 | X-H torsion
[ 10763 10752 10751 10750 ] final   12.67 input  -60.55 | X-H torsion
[ 11005 11000 10999 10996 ] final -171.98 input  -57.11 | X-H torsion

> <Gold.Protein.ActiveResidues>
 VAL166  LYS551  ARG553  GLY616  TRP617  ASP618  TYR619  PRO620  LYS621  CYS622 
 ASP623  PHE694  ASN695  SER759  ASP760  ASP761  ALA762  ILE779  LEU786  VAL792 
 PHE793  MET794  SER795  GLU796  ALA797  LYS798  CYS799  TRP800  GLU811  SER814 

> <Gold.Protein.RotatedAtoms>
  151.4466  133.3629  159.2789 H   0  0  0  0  0  0  0  0  0  0  0  0  # atno 6907 bound_to 6896
  150.9120  134.8538  159.7442 H   0  0  0  0  0  0  0  0  0  0  0  0  # atno 6908 bound_to 6896
  152.4937  134.4397  159.9591 H   0  0  0  0  0  0  0  0  0  0  0  0  # atno 6909 bound_to 6896
  144.7367  139.8998  143.6408 H   0  0  0  0  0  0  0  0  0  0  0  0  # atno 7974 bound_to 7965
  155.0032  140.0394  157.2368 H   0  0  0  0  0  0  0  0  0  0  0  0  # atno 8008 bound_to 7997
  154.7525  140.2769  155.6257 H   0  0  0  0  0  0  0  0  0  0  0  0  # atno 8009 bound_to 7997
  156.2888  140.2644  156.2283 H   0  0  0  0  0  0  0  0  0  0  0  0  # atno 8010 bound_to 7997
  139.9181  143.6415  152.2560 H   0  0  0  0  0  0  0  0  0  0  0  0  # atno 10167 bound_to 10162
  157.2010  131.0676  151.2025 H   0  0  0  0  0  0  0  0  0  0  0  0  # atno 10718 bound_to 10713
  153.1799  135.6826  153.8492 H   0  0  0  0  0  0  0  0  0  0  0  0  # atno 10763 bound_to 10752
  153.7827  135.3180  155.3369 H   0  0  0  0  0  0  0  0  0  0  0  0  # atno 10764 bound_to 10752
  154.8053  135.4752  154.0471 H   0  0  0  0  0  0  0  0  0  0  0  0  # atno 10765 bound_to 10752
  140.5021  134.5883  157.4991 H   0  0  0  0  0  0  0  0  0  0  0  0  # atno 11005 bound_to 11000
  146.1080  139.4082  143.0305 LP  0  0  0  0  0  0  0  0  0  0  0  0  # atno 17320 bound_to 7965
  145.7484  140.9982  143.1263 LP  0  0  0  0  0  0  0  0  0  0  0  0  # atno 17321 bound_to 7965
  139.6885  144.7649  151.1481 LP  0  0  0  0  0  0  0  0  0  0  0  0  # atno 17342 bound_to 10162
  140.7669  143.5623  150.9086 LP  0  0  0  0  0  0  0  0  0  0  0  0  # atno 17343 bound_to 10162
  157.3767  130.7209  149.6602 LP  0  0  0  0  0  0  0  0  0  0  0  0  # atno 17370 bound_to 10713
  155.9700  130.4184  150.4324 LP  0  0  0  0  0  0  0  0  0  0  0  0  # atno 17371 bound_to 10713
  139.9707  134.7297  156.0047 LP  0  0  0  0  0  0  0  0  0  0  0  0  # atno 17394 bound_to 11000
  141.1430  133.6561  156.3785 LP  0  0  0  0  0  0  0  0  0  0  0  0  # atno 17395 bound_to 11000

$$$$
