AV-unprocessed.smi:2762|AV-procd|sdf|10636|dock4
  -GOLD-   2272015 83D 1   1.00000     0.00000
 Structure written by MMmdl.
 39 40  0  0  0  0  0  0  0  0  1 V2000
  148.8468  133.3794  155.3488 O   0  0  0  0  0  0  0  0  0  0  0  0
  148.9579  134.1970  154.4347 C   0  0  0  0  0  0  0  0  0  0  0  0
  149.7253  135.2943  154.5107 N   0  0  0  0  0  0  0  0  0  0  0  0
  150.5701  135.6570  155.6445 C   0  0  0  0  0  0  0  0  0  0  0  0
  151.3948  136.9265  155.3531 C   0  0  0  0  0  0  0  0  0  0  0  0
  150.6640  138.1902  155.4488 N   0  0  0  0  0  0  0  0  0  0  0  0
  149.8934  138.4884  154.2434 C   0  0  0  0  0  0  0  0  0  0  0  0
  149.1397  139.8239  154.3645 C   0  0  0  0  0  0  0  0  0  0  0  0
  150.0631  140.8704  154.6476 O   0  0  0  0  0  0  0  0  0  0  0  0
  150.8074  140.6373  155.8389 C   0  0  0  0  0  0  0  0  0  0  0  0
  151.5654  139.3038  155.7204 C   0  0  0  0  0  0  0  0  0  0  0  0
  148.3411  134.1174  153.2426 N   0  0  0  0  0  0  0  0  0  0  0  0
  147.5038  133.0784  152.7557 C   0  0  0  0  0  0  0  0  0  0  0  0
  146.4607  133.5019  151.9018 C   0  0  0  0  0  0  0  0  0  0  0  0
  145.5745  132.5483  151.3545 C   0  0  0  0  0  0  0  0  0  0  0  0
  144.4342  132.9601  150.4365 C   0  0  0  0  0  0  0  0  0  0  0  0
  144.5513  132.3484  149.2576 F   0  0  0  0  0  0  0  0  0  0  0  0
  143.2750  132.6067  150.9905 F   0  0  0  0  0  0  0  0  0  0  0  0
  144.4244  134.2770  150.2265 F   0  0  0  0  0  0  0  0  0  0  0  0
  145.7611  131.1929  151.6915 C   0  0  0  0  0  0  0  0  0  0  0  0
  146.8241  130.8567  152.5487 C   0  0  0  0  0  0  0  0  0  0  0  0
  147.6721  131.7692  153.0657 N   0  0  0  0  0  0  0  0  0  0  0  0
  149.7518  135.9110  153.7122 H   0  0  0  0  0  0  0  0  0  0  0  0
  149.9081  135.8545  156.4877 H   0  0  0  0  0  0  0  0  0  0  0  0
  151.2003  134.8233  155.9560 H   0  0  0  0  0  0  0  0  0  0  0  0
  152.2317  136.9447  156.0526 H   0  0  0  0  0  0  0  0  0  0  0  0
  151.8416  136.8423  154.3614 H   0  0  0  0  0  0  0  0  0  0  0  0
  150.5575  138.5256  153.3787 H   0  0  0  0  0  0  0  0  0  0  0  0
  149.1707  137.6980  154.0466 H   0  0  0  0  0  0  0  0  0  0  0  0
  148.6170  140.0504  153.4352 H   0  0  0  0  0  0  0  0  0  0  0  0
  148.3859  139.7707  155.1516 H   0  0  0  0  0  0  0  0  0  0  0  0
  151.5069  141.4596  155.9894 H   0  0  0  0  0  0  0  0  0  0  0  0
  150.1361  140.6249  156.6990 H   0  0  0  0  0  0  0  0  0  0  0  0
  152.1138  139.1193  156.6447 H   0  0  0  0  0  0  0  0  0  0  0  0
  152.3094  139.3806  154.9260 H   0  0  0  0  0  0  0  0  0  0  0  0
  148.5116  134.8754  152.5986 H   0  0  0  0  0  0  0  0  0  0  0  0
  146.3429  134.5506  151.6706 H   0  0  0  0  0  0  0  0  0  0  0  0
  145.1053  130.4277  151.3033 H   0  0  0  0  0  0  0  0  0  0  0  0
  146.9984  129.8280  152.8274 H   0  0  0  0  0  0  0  0  0  0  0  0
  1  2  2  0  0  0  0
  2  3  1  0  0  0  0
  2 12  1  0  0  0  0
  3  4  1  0  0  0  0
  3 23  1  0  0  0  0
  4  5  1  0  0  0  0
  4 24  1  0  0  0  0
  4 25  1  0  0  0  0
  5  6  1  0  0  0  0
  5 26  1  0  0  0  0
  5 27  1  0  0  0  0
  6 11  1  0  0  0  0
  6  7  1  0  0  0  0
  7  8  1  0  0  0  0
  7 28  1  0  0  0  0
  7 29  1  0  0  0  0
  8  9  1  0  0  0  0
  8 30  1  0  0  0  0
  8 31  1  0  0  0  0
  9 10  1  0  0  0  0
 10 11  1  0  0  0  0
 10 32  1  0  0  0  0
 10 33  1  0  0  0  0
 11 34  1  0  0  0  0
 11 35  1  0  0  0  0
 12 13  1  0  0  0  0
 12 36  1  0  0  0  0
 13 22  1  0  0  0  0
 13 14  2  0  0  0  0
 14 15  1  0  0  0  0
 14 37  1  0  0  0  0
 15 16  1  0  0  0  0
 15 20  2  0  0  0  0
 16 17  1  0  0  0  0
 16 18  1  0  0  0  0
 16 19  1  0  0  0  0
 20 21  1  0  0  0  0
 20 38  1  0  0  0  0
 21 22  2  0  0  0  0
 21 39  1  0  0  0  0
M  END
> <s_m_source_file>
AV-unprocessed.smi

> <i_m_source_file_index>
2762

> <i_lp_mmshare_version>
43012

> <i_f3d_flags>
0

> <s_epik_input>
bjFbY0hdW2NIXWMoQyhGKShGKUYpW2NIXWMxW05IXUMoPU8pW05IXVtDSDJdW0NIMl1OMltDSDJdW0NIMl1PW0NIMl1bQ0gyXTI=

> <s_epik_cmdline>
J2VwaWtfcHl0aG9uJywgJy1waCcsICc3LjAnLCAnLXRuJywgJzgnLCAnLW1hJywgJzIwMCcsICctbWV0YWxfYmluZGluZycsICctaW1hZScsICc8aW5maWxlLm1hZT4nLCAnLW9tYWUnLCAnPG91dGZpbGUubWFlPic=

> <r_epik_Ionization_Penalty>
0.266026

> <r_epik_Ionization_Penalty_Charging>
0

> <r_epik_Ionization_Penalty_Neutral>
0.266026

> <r_epik_State_Penalty>
0.257924

> <r_epik_Charging_Adjusted_Penalty>
0.257924

> <i_epik_Tot_Q>
0

> <i_epik_Tot_abs_Q>
0

> <r_epik_Metal_State_Penalty>
0.257924

> <b_epik_Metal_Only>
0

> <s_lp_Force_Field>
OPLS_2005

> <r_lp_Energy>
26.9092

> <b_lp_Chiralities_Consistent>
1

> <s_lp_Variant>
AV-unprocessed.smi:2762-1

> <Gold.Version>
5.8.1

> <Gold.Id.Protein>
6NUR|6NUR_protein|mol2

> <Gold.PLP.Fitness>
47.0854

> <Gold.PLP.PLP>
-40.7935

> <Gold.PLP.part.hbond>
-3.0000

> <Gold.PLP.part.metal>
0.0000

> <Gold.PLP.part.buried>
-2.2114

> <Gold.PLP.part.nonpolar>
-34.8543

> <Gold.PLP.part.repulsive>
0.3426

> <Gold.PLP.ligand.clash>
0.0567

> <Gold.PLP.ligand.torsion>
0.5482

> <Gold.PLP.Chemscore.Hbond>
2.4543

> <Gold.PLP.Chemscore.CHOScore>
0.0000

> <Gold.PLP.Chemscore.Metal>
0.0000

> <Gold.Chemscore.Hbonds>
donor molecule, donor type, donor heavy atom, donor atom, acceptor molecule, acceptor atom, score
      L1  H     3    23       P1  7948  0.79
      L1  H    12    36       P1  7948  1.00
      P1  H  7989  7998       L1     9  0.54

> <Gold.PLP.Chemscore.Internal.Correction>
0.0822

> <Gold.Rescore>
     Score         DG    S(hbond)    S(metal)    S(lipo)     H(rot)  DE(clash)    DE(int)     intcor
     15.38     -17.39       2.38        0.00      69.34       1.63       0.72       1.29       ----

> <Gold.Chemscore.Fitness>
15.3807

> <Gold.Chemscore.DG>
-17.3916

> <Gold.Chemscore.ZeroCoef>
-5.4800

> <Gold.Chemscore.Hbond>
2.3841

> <Gold.Chemscore.Metal>
0.0000

> <Gold.Chemscore.Lipo>
69.3368

> <Gold.Chemscore.Internal_Hbond>
0.0000

> <Gold.Chemscore.DEClash>
0.7164

> <Gold.Chemscore.DEInternal>
1.2946

> <Gold.Chemscore.Rot>
1.6265

> <Gold.Chemscore.Internal.Correction>
   9.000000E+99

> <Gold.Chemscore.Hbonds>
donor molecule, donor type, donor heavy atom, donor atom, acceptor molecule, acceptor atom, score
      L1  H     3    23       P1  7948  0.15
      L1  H    12    36       P1  7948  0.25
      P1  H  7989  7998       L1     9  0.06

> <Gold.Chemscore.Hbond.Weighted>
-7.9630

> <Gold.Chemscore.Metal.Weighted>
-0.0000

> <Gold.Chemscore.Lipo.Weighted>
-8.1124

> <Gold.Chemscore.Internal_Hbond.Weighted>
0.0000

> <Gold.Chemscore.DEClash.Weighted>
0.7164

> <Gold.Chemscore.DEInternal.Weighted>
1.2946

> <Gold.Chemscore.Rot.Weighted>
4.1638

> <Gold.Chemscore.Internal.Correction.Weighted>
   9.000000E+99

> <Gold.Protein.RotatedTorsions>
[ 6907 6896 6895 6894 ] final  -23.19 input  -60.11 | X-H torsion
[ 7974 7965 7964 7962 ] final   82.75 input  175.53 | X-H torsion
[ 8008 7997 7996 7995 ] final  -59.87 input   59.86 | X-H torsion
[ 10167 10162 10161 10158 ] final   47.44 input  -65.29 | X-H torsion
[ 10718 10713 10712 10709 ] final    0.40 input   66.30 | X-H torsion
[ 10763 10752 10751 10750 ] final  112.37 input  -60.55 | X-H torsion
[ 11005 11000 10999 10996 ] final  -62.51 input  -57.11 | X-H torsion

> <Gold.Protein.ActiveResidues>
 VAL166  LYS551  ARG553  GLY616  TRP617  ASP618  TYR619  PRO620  LYS621  CYS622 
 ASP623  PHE694  ASN695  SER759  ASP760  ASP761  ALA762  ILE779  LEU786  VAL792 
 PHE793  MET794  SER795  GLU796  ALA797  LYS798  CYS799  TRP800  GLU811  SER814 

> <Gold.Protein.RotatedAtoms>
  151.2077  135.0468  159.8897 H   0  0  0  0  0  0  0  0  0  0  0  0  # atno 6907 bound_to 6896
  152.5427  134.0780  159.8233 H   0  0  0  0  0  0  0  0  0  0  0  0  # atno 6908 bound_to 6896
  151.0929  133.5254  159.2646 H   0  0  0  0  0  0  0  0  0  0  0  0  # atno 6909 bound_to 6896
  145.6209  139.2386  143.2139 H   0  0  0  0  0  0  0  0  0  0  0  0  # atno 7974 bound_to 7965
  154.4372  140.1052  156.6184 H   0  0  0  0  0  0  0  0  0  0  0  0  # atno 8008 bound_to 7997
  155.5734  140.3489  155.4502 H   0  0  0  0  0  0  0  0  0  0  0  0  # atno 8009 bound_to 7997
  156.0373  140.1274  157.0183 H   0  0  0  0  0  0  0  0  0  0  0  0  # atno 8010 bound_to 7997
  140.3036  144.2904  150.6214 H   0  0  0  0  0  0  0  0  0  0  0  0  # atno 10167 bound_to 10162
  156.8328  130.5494  149.5685 H   0  0  0  0  0  0  0  0  0  0  0  0  # atno 10718 bound_to 10713
  153.4769  135.3688  155.2421 H   0  0  0  0  0  0  0  0  0  0  0  0  # atno 10763 bound_to 10752
  154.8756  135.3945  154.3746 H   0  0  0  0  0  0  0  0  0  0  0  0  # atno 10764 bound_to 10752
  153.4343  135.7083  153.6275 H   0  0  0  0  0  0  0  0  0  0  0  0  # atno 10765 bound_to 10752
  141.1362  133.6641  156.5538 H   0  0  0  0  0  0  0  0  0  0  0  0  # atno 11005 bound_to 11000
  146.1432  140.7029  142.9357 LP  0  0  0  0  0  0  0  0  0  0  0  0  # atno 17320 bound_to 7965
  144.7231  140.4439  143.6993 LP  0  0  0  0  0  0  0  0  0  0  0  0  # atno 17321 bound_to 7965
  140.5629  143.2190  151.7733 LP  0  0  0  0  0  0  0  0  0  0  0  0  # atno 17342 bound_to 10162
  139.4909  144.4323  151.9858 LP  0  0  0  0  0  0  0  0  0  0  0  0  # atno 17343 bound_to 10162
  156.0924  130.5906  150.9756 LP  0  0  0  0  0  0  0  0  0  0  0  0  # atno 17370 bound_to 10713
  157.6397  131.0912  150.8276 LP  0  0  0  0  0  0  0  0  0  0  0  0  # atno 17371 bound_to 10713
  140.4042  134.7329  157.4798 LP  0  0  0  0  0  0  0  0  0  0  0  0  # atno 17394 bound_to 11000
  140.0474  134.6180  155.8904 LP  0  0  0  0  0  0  0  0  0  0  0  0  # atno 17395 bound_to 11000

$$$$
