AV-unprocessed.smi:1588|AV-procd|sdf|6389|dock1
  -GOLD-   22720 7 23D 1   1.00000     0.00000
 Structure written by MMmdl.
 37 38  0  0  0  0  0  0  0  0  2 V2000
  145.8770  128.7219  152.1480 C   0  0  0  0  0  0  0  0  0  0  0  0
  147.0723  129.1690  153.0008 C   0  0  0  0  0  0  0  0  0  0  0  0
  147.5781  130.5013  152.5960 N   0  3  1  0  0  0  0  0  0  0  0  0
  146.5612  131.5808  152.5608 C   0  0  0  0  0  0  0  0  0  0  0  0
  147.1886  132.8059  153.2389 C   0  0  0  0  0  0  0  0  0  0  0  0
  148.6865  132.5096  153.2508 C   0  0  1  0  0  0  0  0  0  0  0  0
  149.4691  133.2848  154.3288 C   0  0  0  0  0  0  0  0  0  0  0  0
  149.5578  134.7102  154.0291 N   0  0  0  0  0  0  0  0  0  0  0  0
  150.3636  135.5785  154.6569 C   0  0  0  0  0  0  0  0  0  0  0  0
  151.1229  135.2602  155.5722 O   0  0  0  0  0  0  0  0  0  0  0  0
  150.2228  136.8204  154.1653 N   0  0  0  0  0  0  0  0  0  0  0  0
  150.9016  137.9929  154.5840 C   0  0  0  0  0  0  0  0  0  0  0  0
  150.5135  139.3174  154.2446 C   0  0  0  0  0  0  0  0  0  0  0  0
  151.3341  140.2127  154.7752 N   0  0  0  0  0  0  0  0  0  0  0  0
  152.2442  139.4723  155.4475 N   0  0  0  0  0  0  0  0  0  0  0  0
  152.0212  138.1159  155.3584 C   0  0  0  0  0  0  0  0  0  0  0  0
  148.7119  130.9887  153.4078 C   0  0  0  0  0  0  0  0  0  0  0  0
  153.0039  139.9021  155.9558 H   0  0  0  0  0  0  0  0  0  0  0  0
  145.5520  127.7216  152.4352 H   0  0  0  0  0  0  0  0  0  0  0  0
  146.1367  128.6938  151.0893 H   0  0  0  0  0  0  0  0  0  0  0  0
  145.0234  129.3895  152.2664 H   0  0  0  0  0  0  0  0  0  0  0  0
  146.8060  129.1764  154.0587 H   0  0  0  0  0  0  0  0  0  0  0  0
  147.8758  128.4403  152.8845 H   0  0  0  0  0  0  0  0  0  0  0  0
  146.3157  131.7932  151.5198 H   0  0  0  0  0  0  0  0  0  0  0  0
  145.6374  131.2973  153.0669 H   0  0  0  0  0  0  0  0  0  0  0  0
  146.9500  133.7380  152.7256 H   0  0  0  0  0  0  0  0  0  0  0  0
  146.8148  132.8857  154.2607 H   0  0  0  0  0  0  0  0  0  0  0  0
  149.0842  132.7590  152.2656 H   0  0  0  0  0  0  0  0  0  0  0  0
  149.0057  133.1429  155.3067 H   0  0  0  0  0  0  0  0  0  0  0  0
  150.4839  132.8944  154.4102 H   0  0  0  0  0  0  0  0  0  0  0  0
  148.9724  135.0574  153.2835 H   0  0  0  0  0  0  0  0  0  0  0  0
  149.5552  136.9434  153.4181 H   0  0  0  0  0  0  0  0  0  0  0  0
  149.6800  139.6520  153.6447 H   0  0  0  0  0  0  0  0  0  0  0  0
  152.6623  137.3916  155.8389 H   0  0  0  0  0  0  0  0  0  0  0  0
  148.5577  130.7195  154.4543 H   0  0  0  0  0  0  0  0  0  0  0  0
  149.6544  130.5483  153.0809 H   0  0  0  0  0  0  0  0  0  0  0  0
  147.9310  130.4145  151.6534 H   0  0  0  0  0  0  0  0  0  0  0  0
  1  2  1  0  0  0  0
  1 19  1  0  0  0  0
  1 20  1  0  0  0  0
  1 21  1  0  0  0  0
  2  3  1  0  0  0  0
  2 22  1  0  0  0  0
  2 23  1  0  0  0  0
  3 17  1  0  0  0  0
  3  4  1  0  0  0  0
  3 37  1  0  0  0  0
  4  5  1  0  0  0  0
  4 24  1  0  0  0  0
  4 25  1  0  0  0  0
  5  6  1  0  0  0  0
  5 26  1  0  0  0  0
  5 27  1  0  0  0  0
  6  7  1  0  0  0  0
  6 17  1  0  0  0  0
  6 28  1  0  0  0  0
  7  8  1  0  0  0  0
  7 29  1  0  0  0  0
  7 30  1  0  0  0  0
  8  9  1  0  0  0  0
  8 31  1  0  0  0  0
  9 10  2  0  0  0  0
  9 11  1  0  0  0  0
 11 12  1  0  0  0  0
 11 32  1  0  0  0  0
 12 16  2  0  0  0  0
 12 13  1  0  0  0  0
 13 14  2  0  0  0  0
 13 33  1  0  0  0  0
 14 15  1  0  0  0  0
 15 18  1  0  0  0  0
 15 16  1  0  0  0  0
 16 34  1  0  0  0  0
 17 35  1  0  0  0  0
 17 36  1  0  0  0  0
M  CHG  1   3   1
M  END
> <s_m_source_file>
AV-unprocessed.smi

> <i_m_source_file_index>
1588

> <i_lp_mmshare_version>
43012

> <i_f3d_flags>
0

> <s_epik_input>
W0NIM11bQ0gyXU4xW0NIMl1bQ0gyXVtDQEhdKFtDSDJdMSlbQ0gyXVtOSF1DKD1PKVtOSF1jMltjSF1uW25IXVtjSF0y

> <s_epik_cmdline>
J2VwaWtfcHl0aG9uJywgJy1waCcsICc3LjAnLCAnLXRuJywgJzgnLCAnLW1hJywgJzIwMCcsICctbWV0YWxfYmluZGluZycsICctaW1hZScsICc8aW5maWxlLm1hZT4nLCAnLW9tYWUnLCAnPG91dGZpbGUubWFlPic=

> <r_lp_tautomer_probability>
0.5

> <r_epik_Ionization_Penalty>
0.000628417

> <r_epik_Ionization_Penalty_Charging>
0.000582718

> <r_epik_Ionization_Penalty_Neutral>
4.56984e-05

> <r_epik_State_Penalty>
0.000366292

> <r_epik_Charging_Adjusted_Penalty>
0.00094901

> <i_epik_Tot_Q>
1

> <i_epik_Tot_abs_Q>
1

> <r_epik_Metal_State_Penalty>
-0

> <b_epik_Metal_Only>
0

> <s_lp_Force_Field>
OPLS_2005

> <r_lp_Energy>
30.3182

> <b_lp_Chiralities_Consistent>
1

> <s_lp_Variant>
AV-unprocessed.smi:1588-1

> <Gold.Version>
5.8.1

> <Gold.Id.Protein>
6NUR|6NUR_protein|mol2

> <Gold.PLP.Fitness>
47.1638

> <Gold.PLP.PLP>
-31.4192

> <Gold.PLP.part.hbond>
-6.0633

> <Gold.PLP.part.metal>
0.0000

> <Gold.PLP.part.buried>
-0.6545

> <Gold.PLP.part.nonpolar>
-24.0633

> <Gold.PLP.part.repulsive>
0.4281

> <Gold.PLP.ligand.clash>
0.0000

> <Gold.PLP.ligand.torsion>
0.1660

> <Gold.PLP.Chemscore.Hbond>
4.4580

> <Gold.PLP.Chemscore.CHOScore>
0.8776

> <Gold.PLP.Chemscore.Metal>
0.0000

> <Gold.Chemscore.Hbonds>
donor molecule, donor type, donor heavy atom, donor atom, acceptor molecule, acceptor atom, score
      L1  H     3    37       P1 10747  1.00
      L1  H     8    31       P1  7948  0.83
      L1  H    11    32       P1  7948  0.85
      P1  H  7989  7998       L1    14  0.62
      P1  H 10752 10763       L1    10  0.99
      L1  C    13    33       P1  7957  0.96

> <Gold.PLP.Chemscore.Internal.Correction>
0.0698

> <Gold.Rescore>
     Score         DG    S(hbond)    S(metal)    S(lipo)     H(rot)  DE(clash)    DE(int)     intcor
     18.01     -19.27       3.02        0.00      66.04       1.58       0.06       1.19       ----

> <Gold.Chemscore.Fitness>
18.0129

> <Gold.Chemscore.DG>
-19.2661

> <Gold.Chemscore.ZeroCoef>
-5.4800

> <Gold.Chemscore.Hbond>
3.0216

> <Gold.Chemscore.Metal>
0.0000

> <Gold.Chemscore.Lipo>
66.0392

> <Gold.Chemscore.Internal_Hbond>
0.0000

> <Gold.Chemscore.DEClash>
0.0586

> <Gold.Chemscore.DEInternal>
1.1946

> <Gold.Chemscore.Rot>
1.5753

> <Gold.Chemscore.Internal.Correction>
   9.000000E+99

> <Gold.Chemscore.Hbonds>
donor molecule, donor type, donor heavy atom, donor atom, acceptor molecule, acceptor atom, score
      L1  H     3    37       P1 10747  0.98
      L1  H     8    31       P1  7948  0.25
      L1  H    11    32       P1  7948  0.67
      P1  H  7989  7998       L1    14  0.08
      P1  H 10752 10763       L1    10  0.58

> <Gold.Chemscore.Hbond.Weighted>
-10.0923

> <Gold.Chemscore.Metal.Weighted>
-0.0000

> <Gold.Chemscore.Lipo.Weighted>
-7.7266

> <Gold.Chemscore.Internal_Hbond.Weighted>
0.0000

> <Gold.Chemscore.DEClash.Weighted>
0.0586

> <Gold.Chemscore.DEInternal.Weighted>
1.1946

> <Gold.Chemscore.Rot.Weighted>
4.0328

> <Gold.Chemscore.Internal.Correction.Weighted>
   9.000000E+99

> <Gold.Protein.RotatedTorsions>
[ 6907 6896 6895 6894 ] final  106.88 input  -60.11 | X-H torsion
[ 7974 7965 7964 7962 ] final  -83.39 input  175.53 | X-H torsion
[ 8008 7997 7996 7995 ] final   61.43 input   59.86 | X-H torsion
[ 10167 10162 10161 10158 ] final  -92.08 input  -65.29 | X-H torsion
[ 10718 10713 10712 10709 ] final   19.14 input   66.30 | X-H torsion
[ 10763 10752 10751 10750 ] final   80.71 input  -60.55 | X-H torsion
[ 11005 11000 10999 10996 ] final  -31.71 input  -57.11 | X-H torsion

> <Gold.Protein.ActiveResidues>
 VAL166  LYS551  ARG553  GLY616  TRP617  ASP618  TYR619  PRO620  LYS621  CYS622 
 ASP623  PHE694  ASN695  SER759  ASP760  ASP761  ALA762  ILE779  LEU786  VAL792 
 PHE793  MET794  SER795  GLU796  ALA797  LYS798  CYS799  TRP800  GLU811  SER814 

> <Gold.Protein.RotatedAtoms>
  152.5176  133.9316  159.7582 H   0  0  0  0  0  0  0  0  0  0  0  0  # atno 6907 bound_to 6896
  150.9665  133.6381  159.2752 H   0  0  0  0  0  0  0  0  0  0  0  0  # atno 6908 bound_to 6896
  151.3607  135.0909  159.9486 H   0  0  0  0  0  0  0  0  0  0  0  0  # atno 6909 bound_to 6896
  145.5206  140.9531  143.1657 H   0  0  0  0  0  0  0  0  0  0  0  0  # atno 7974 bound_to 7965
  155.5983  140.3493  155.4586 H   0  0  0  0  0  0  0  0  0  0  0  0  # atno 8008 bound_to 7997
  156.0248  140.1261  157.0344 H   0  0  0  0  0  0  0  0  0  0  0  0  # atno 8009 bound_to 7997
  154.4329  140.1055  156.6001 H   0  0  0  0  0  0  0  0  0  0  0  0  # atno 8010 bound_to 7997
  140.3384  143.2956  151.9863 H   0  0  0  0  0  0  0  0  0  0  0  0  # atno 10167 bound_to 10162
  157.1063  130.6489  149.5885 H   0  0  0  0  0  0  0  0  0  0  0  0  # atno 10718 bound_to 10713
  153.1056  135.4792  154.8945 H   0  0  0  0  0  0  0  0  0  0  0  0  # atno 10763 bound_to 10752
  154.7426  135.3086  154.8703 H   0  0  0  0  0  0  0  0  0  0  0  0  # atno 10764 bound_to 10752
  153.9307  135.6845  153.4799 H   0  0  0  0  0  0  0  0  0  0  0  0  # atno 10765 bound_to 10752
  140.9491  133.7232  156.1192 H   0  0  0  0  0  0  0  0  0  0  0  0  # atno 11005 bound_to 11000
  144.7678  139.6804  143.7207 LP  0  0  0  0  0  0  0  0  0  0  0  0  # atno 17320 bound_to 7965
  146.2108  139.5464  142.9682 LP  0  0  0  0  0  0  0  0  0  0  0  0  # atno 17321 bound_to 7965
  139.4844  144.6177  151.7314 LP  0  0  0  0  0  0  0  0  0  0  0  0  # atno 17342 bound_to 10162
  140.5332  144.0697  150.6061 LP  0  0  0  0  0  0  0  0  0  0  0  0  # atno 17343 bound_to 10162
  155.9861  130.4894  150.7064 LP  0  0  0  0  0  0  0  0  0  0  0  0  # atno 17370 bound_to 10713
  157.4598  131.0882  151.0758 LP  0  0  0  0  0  0  0  0  0  0  0  0  # atno 17371 bound_to 10713
  140.7627  134.3920  157.5522 LP  0  0  0  0  0  0  0  0  0  0  0  0  # atno 17394 bound_to 11000
  139.8842  134.8972  156.2718 LP  0  0  0  0  0  0  0  0  0  0  0  0  # atno 17395 bound_to 11000

$$$$
