AV-unprocessed.smi:2143|AV-procd|sdf|8728|dock7
  -GOLD-   2272011493D 1   1.00000     0.00000
 Structure written by MMmdl.
 44 45  0  0  0  0  0  0  0  0  1 V2000
  152.0122  144.9591  159.4849 C   0  0  0  0  0  0  0  0  0  0  0  0
  151.8485  143.4313  159.4208 C   0  0  2  0  0  0  0  0  0  0  0  0
  153.2115  142.7099  159.4041 C   0  0  0  0  0  0  0  0  0  0  0  0
  153.0413  141.1830  159.4415 C   0  0  0  0  0  0  0  0  0  0  0  0
  152.1270  140.6879  158.3106 C   0  0  0  0  0  0  0  0  0  0  0  0
  150.7657  141.4094  158.3377 C   0  0  2  0  0  0  0  0  0  0  0  0
  149.9075  140.8894  157.2753 N   0  0  0  0  0  0  0  0  0  0  0  0
  150.2830  140.6845  156.0038 C   0  0  0  0  0  0  0  0  0  0  0  0
  151.4222  140.9072  155.5915 O   0  0  0  0  0  0  0  0  0  0  0  0
  149.2045  140.1192  155.0696 C   0  0  0  0  0  0  0  0  0  0  0  0
  148.0178  140.9788  154.9696 N   0  0  0  0  0  0  0  0  0  0  0  0
  147.7344  141.6191  153.7769 C   0  0  0  0  0  0  0  0  0  0  0  0
  146.6761  142.4410  153.6059 C   0  0  0  0  0  0  0  0  0  0  0  0
  145.7475  142.7031  154.6987 C   0  0  0  0  0  0  0  0  0  0  0  0
  144.7835  143.4620  154.5927 O   0  0  0  0  0  0  0  0  0  0  0  0
  146.0512  142.0230  155.9026 N   0  0  0  0  0  0  0  0  0  0  0  0
  145.1950  142.2396  157.0508 C   0  0  0  0  0  0  0  0  0  0  0  0
  147.1699  141.1782  156.0800 C   0  0  0  0  0  0  0  0  0  0  0  0
  147.4133  140.6355  157.1607 O   0  0  0  0  0  0  0  0  0  0  0  0
  150.9333  142.9525  158.2621 C   0  0  2  0  0  0  0  0  0  0  0  0
  151.3879  143.4482  156.8694 C   0  0  0  0  0  0  0  0  0  0  0  0
  152.5934  145.3409  158.6457 H   0  0  0  0  0  0  0  0  0  0  0  0
  152.5295  145.2554  160.3979 H   0  0  0  0  0  0  0  0  0  0  0  0
  151.0437  145.4599  159.4799 H   0  0  0  0  0  0  0  0  0  0  0  0
  151.3508  143.1453  160.3487 H   0  0  0  0  0  0  0  0  0  0  0  0
  153.7783  142.9954  158.5175 H   0  0  0  0  0  0  0  0  0  0  0  0
  153.8085  143.0262  160.2603 H   0  0  0  0  0  0  0  0  0  0  0  0
  154.0155  140.6983  159.3715 H   0  0  0  0  0  0  0  0  0  0  0  0
  152.6194  140.8886  160.4034 H   0  0  0  0  0  0  0  0  0  0  0  0
  152.6179  140.8395  157.3487 H   0  0  0  0  0  0  0  0  0  0  0  0
  151.9795  139.6118  158.4110 H   0  0  0  0  0  0  0  0  0  0  0  0
  150.2952  141.1655  159.2925 H   0  0  0  0  0  0  0  0  0  0  0  0
  148.9545  140.6712  157.5275 H   0  0  0  0  0  0  0  0  0  0  0  0
  149.6483  139.9829  154.0825 H   0  0  0  0  0  0  0  0  0  0  0  0
  148.9156  139.1205  155.4025 H   0  0  0  0  0  0  0  0  0  0  0  0
  148.3965  141.4610  152.9377 H   0  0  0  0  0  0  0  0  0  0  0  0
  146.5165  142.9143  152.6481 H   0  0  0  0  0  0  0  0  0  0  0  0
  145.0849  141.2973  157.5900 H   0  0  0  0  0  0  0  0  0  0  0  0
  144.2044  142.5620  156.7291 H   0  0  0  0  0  0  0  0  0  0  0  0
  145.6783  142.9995  157.6666 H   0  0  0  0  0  0  0  0  0  0  0  0
  149.9498  143.3918  158.4347 H   0  0  0  0  0  0  0  0  0  0  0  0
  152.3813  143.0851  156.6085 H   0  0  0  0  0  0  0  0  0  0  0  0
  151.4117  144.5362  156.8212 H   0  0  0  0  0  0  0  0  0  0  0  0
  150.7042  143.1232  156.0854 H   0  0  0  0  0  0  0  0  0  0  0  0
  1  2  1  0  0  0  0
  1 22  1  0  0  0  0
  1 23  1  0  0  0  0
  1 24  1  0  0  0  0
  2 20  1  0  0  0  0
  2  3  1  0  0  0  0
  2 25  1  0  0  0  0
  3  4  1  0  0  0  0
  3 26  1  0  0  0  0
  3 27  1  0  0  0  0
  4  5  1  0  0  0  0
  4 28  1  0  0  0  0
  4 29  1  0  0  0  0
  5  6  1  0  0  0  0
  5 30  1  0  0  0  0
  5 31  1  0  0  0  0
  6  7  1  0  0  0  0
  6 20  1  0  0  0  0
  6 32  1  0  0  0  0
  7  8  1  0  0  0  0
  7 33  1  0  0  0  0
  8  9  2  0  0  0  0
  8 10  1  0  0  0  0
 10 11  1  0  0  0  0
 10 34  1  0  0  0  0
 10 35  1  0  0  0  0
 11 18  1  0  0  0  0
 11 12  1  0  0  0  0
 12 13  2  0  0  0  0
 12 36  1  0  0  0  0
 13 14  1  0  0  0  0
 13 37  1  0  0  0  0
 14 15  2  0  0  0  0
 14 16  1  0  0  0  0
 16 17  1  0  0  0  0
 16 18  1  0  0  0  0
 17 38  1  0  0  0  0
 17 39  1  0  0  0  0
 17 40  1  0  0  0  0
 18 19  2  0  0  0  0
 20 21  1  0  0  0  0
 20 41  1  0  0  0  0
 21 42  1  0  0  0  0
 21 43  1  0  0  0  0
 21 44  1  0  0  0  0
M  END
> <s_m_source_file>
AV-unprocessed.smi

> <i_m_source_file_index>
2143

> <i_lp_mmshare_version>
43012

> <i_f3d_flags>
0

> <s_epik_input>
W0NIM11bQ0BASF0xW0NIMl1bQ0gyXVtDSDJdW0NASF0oW0NASF0xW0NIM10pW05IXUMoPU8pW0NIMl1uMltjSF1bY0hdYyg9TyluKFtDSDNdKWMyPU8=

> <s_epik_cmdline>
J2VwaWtfcHl0aG9uJywgJy1waCcsICc3LjAnLCAnLXRuJywgJzgnLCAnLW1hJywgJzIwMCcsICctbWV0YWxfYmluZGluZycsICctaW1hZScsICc8aW5maWxlLm1hZT4nLCAnLW9tYWUnLCAnPG91dGZpbGUubWFlPic=

> <r_lp_tautomer_probability>
1

> <r_epik_Ionization_Penalty>
3.18445e-08

> <r_epik_Ionization_Penalty_Charging>
1.27977e-08

> <r_epik_Ionization_Penalty_Neutral>
1.90469e-08

> <r_epik_State_Penalty>
-0

> <r_epik_Charging_Adjusted_Penalty>
1.27977e-08

> <i_epik_Tot_Q>
0

> <i_epik_Tot_abs_Q>
0

> <r_epik_Metal_State_Penalty>
-0

> <b_epik_Metal_Only>
0

> <s_lp_Force_Field>
OPLS_2005

> <r_lp_Energy>
21.2837

> <b_lp_Chiralities_Consistent>
1

> <s_lp_Variant>
AV-unprocessed.smi:2143-7

> <Gold.Version>
5.8.1

> <Gold.Id.Protein>
6NUR|6NUR_protein|mol2

> <Gold.PLP.Fitness>
42.2817

> <Gold.PLP.PLP>
-38.0530

> <Gold.PLP.part.hbond>
-1.0000

> <Gold.PLP.part.metal>
0.0000

> <Gold.PLP.part.buried>
-5.6594

> <Gold.PLP.part.nonpolar>
-31.2151

> <Gold.PLP.part.repulsive>
0.2868

> <Gold.PLP.ligand.clash>
0.0000

> <Gold.PLP.ligand.torsion>
0.2683

> <Gold.PLP.Chemscore.Hbond>
0.5834

> <Gold.PLP.Chemscore.CHOScore>
1.0000

> <Gold.PLP.Chemscore.Metal>
0.0000

> <Gold.Chemscore.Hbonds>
donor molecule, donor type, donor heavy atom, donor atom, acceptor molecule, acceptor atom, score
      P1  H  7989  7998       L1     9  0.55
      L1  C    12    36       P1  7957  0.92

> <Gold.PLP.Chemscore.Internal.Correction>
0.0150

> <Gold.Rescore>
     Score         DG    S(hbond)    S(metal)    S(lipo)     H(rot)  DE(clash)    DE(int)     intcor
     10.63     -15.26       0.71        0.00      96.39       1.51       1.07       3.57       ----

> <Gold.Chemscore.Fitness>
10.6253

> <Gold.Chemscore.DG>
-15.2578

> <Gold.Chemscore.ZeroCoef>
-5.4800

> <Gold.Chemscore.Hbond>
0.7108

> <Gold.Chemscore.Metal>
0.0000

> <Gold.Chemscore.Lipo>
96.3875

> <Gold.Chemscore.Internal_Hbond>
0.0000

> <Gold.Chemscore.DEClash>
1.0658

> <Gold.Chemscore.DEInternal>
3.5668

> <Gold.Chemscore.Rot>
1.5131

> <Gold.Chemscore.Internal.Correction>
   9.000000E+99

> <Gold.Chemscore.Hbonds>
donor molecule, donor type, donor heavy atom, donor atom, acceptor molecule, acceptor atom, score
      P1  H  7989  7998       L1     9  0.50

> <Gold.Chemscore.Hbond.Weighted>
-2.3739

> <Gold.Chemscore.Metal.Weighted>
-0.0000

> <Gold.Chemscore.Lipo.Weighted>
-11.2773

> <Gold.Chemscore.Internal_Hbond.Weighted>
0.0000

> <Gold.Chemscore.DEClash.Weighted>
1.0658

> <Gold.Chemscore.DEInternal.Weighted>
3.5668

> <Gold.Chemscore.Rot.Weighted>
3.8734

> <Gold.Chemscore.Internal.Correction.Weighted>
   9.000000E+99

> <Gold.Protein.RotatedTorsions>
[ 6907 6896 6895 6894 ] final -142.35 input  -60.11 | X-H torsion
[ 7974 7965 7964 7962 ] final  177.78 input  175.53 | X-H torsion
[ 8008 7997 7996 7995 ] final -141.15 input   59.86 | X-H torsion
[ 10167 10162 10161 10158 ] final   15.51 input  -65.29 | X-H torsion
[ 10718 10713 10712 10709 ] final -151.19 input   66.30 | X-H torsion
[ 10763 10752 10751 10750 ] final  -14.96 input  -60.55 | X-H torsion
[ 11005 11000 10999 10996 ] final  142.28 input  -57.11 | X-H torsion

> <Gold.Protein.ActiveResidues>
 VAL166  LYS551  ARG553  GLY616  TRP617  ASP618  TYR619  PRO620  LYS621  CYS622 
 ASP623  PHE694  ASN695  SER759  ASP760  ASP761  ALA762  ILE779  LEU786  VAL792 
 PHE793  MET794  SER795  GLU796  ALA797  LYS798  CYS799  TRP800  GLU811  SER814 

> <Gold.Protein.RotatedAtoms>
  151.0859  133.5353  159.2617 H   0  0  0  0  0  0  0  0  0  0  0  0  # atno 6907 bound_to 6896
  151.2239  135.0528  159.8970 H   0  0  0  0  0  0  0  0  0  0  0  0  # atno 6908 bound_to 6896
  152.5429  134.0658  159.8226 H   0  0  0  0  0  0  0  0  0  0  0  0  # atno 6909 bound_to 6896
  144.7164  140.0298  143.6439 H   0  0  0  0  0  0  0  0  0  0  0  0  # atno 7974 bound_to 7965
  155.4730  140.0554  157.2977 H   0  0  0  0  0  0  0  0  0  0  0  0  # atno 8008 bound_to 7997
  154.4691  140.2032  155.9995 H   0  0  0  0  0  0  0  0  0  0  0  0  # atno 8009 bound_to 7997
  156.1025  140.3217  155.7965 H   0  0  0  0  0  0  0  0  0  0  0  0  # atno 8010 bound_to 7997
  140.5862  143.8885  150.6832 H   0  0  0  0  0  0  0  0  0  0  0  0  # atno 10167 bound_to 10162
  156.4560  130.8191  151.2421 H   0  0  0  0  0  0  0  0  0  0  0  0  # atno 10718 bound_to 10713
  153.5362  135.7014  153.5659 H   0  0  0  0  0  0  0  0  0  0  0  0  # atno 10763 bound_to 10752
  153.3645  135.3961  155.1743 H   0  0  0  0  0  0  0  0  0  0  0  0  # atno 10764 bound_to 10752
  154.8679  135.3797  154.4862 H   0  0  0  0  0  0  0  0  0  0  0  0  # atno 10765 bound_to 10752
  140.0465  134.9278  157.0939 H   0  0  0  0  0  0  0  0  0  0  0  0  # atno 11005 bound_to 11000
  146.0112  139.3171  143.0869 LP  0  0  0  0  0  0  0  0  0  0  0  0  # atno 17320 bound_to 7965
  145.8679  140.9437  143.0666 LP  0  0  0  0  0  0  0  0  0  0  0  0  # atno 17321 bound_to 7965
  140.2396  143.3673  152.1497 LP  0  0  0  0  0  0  0  0  0  0  0  0  # atno 17342 bound_to 10162
  139.5199  144.7026  151.5449 LP  0  0  0  0  0  0  0  0  0  0  0  0  # atno 17343 bound_to 10162
  157.7500  131.0122  150.3377 LP  0  0  0  0  0  0  0  0  0  0  0  0  # atno 17370 bound_to 10713
  156.3766  130.3873  149.7134 LP  0  0  0  0  0  0  0  0  0  0  0  0  # atno 17371 bound_to 10713
  140.3985  134.2107  155.7164 LP  0  0  0  0  0  0  0  0  0  0  0  0  # atno 17394 bound_to 11000
  141.1909  133.8206  157.0899 LP  0  0  0  0  0  0  0  0  0  0  0  0  # atno 17395 bound_to 11000

$$$$
