AV-unprocessed.smi:1686|AV-procd|sdf|6764|dock10
  -GOLD-   22720 7523D 1   1.00000     0.00000
 Structure written by MMmdl.
 41 43  0  0  0  0  0  0  0  0  1 V2000
  146.8540  139.4110  152.8228 C   0  0  0  0  0  0  0  0  0  0  0  0
  146.7681  139.9845  154.2081 C   0  0  0  0  0  0  0  0  0  0  0  0
  145.7355  139.6699  154.9797 N   0  0  0  0  0  0  0  0  0  0  0  0
  145.9276  140.3455  156.1904 O   0  0  0  0  0  0  0  0  0  0  0  0
  147.0844  141.0374  156.0783 C   0  0  0  0  0  0  0  0  0  0  0  0
  147.6977  142.0142  157.3525 Cl  0  0  0  0  0  0  0  0  0  0  0  0
  147.6798  140.8642  154.8621 C   0  0  0  0  0  0  0  0  0  0  0  0
  148.9636  141.4481  154.3303 C   0  0  0  0  0  0  0  0  0  0  0  0
  150.1233  141.0332  155.2351 C   0  0  0  0  0  0  0  0  0  0  0  0
  150.9731  140.2440  154.8224 O   0  0  0  0  0  0  0  0  0  0  0  0
  150.1543  141.5830  156.4588 N   0  0  0  0  0  0  0  0  0  0  0  0
  151.2067  141.3788  157.4512 C   0  0  2  0  0  0  0  0  0  0  0  0
  151.2237  139.9065  157.8988 C   0  0  0  0  0  0  0  0  0  0  0  0
  150.9999  142.3406  158.6453 C   0  0  1  0  0  0  0  0  0  0  0  0
  152.1875  142.4058  159.6320 C   0  0  0  0  0  0  0  0  0  0  0  0
  152.4351  143.9190  159.7780 C   0  0  1  0  0  0  0  0  0  0  0  0
  153.0964  144.4492  158.4921 C   0  0  0  0  0  0  0  0  0  0  0  0
  151.9388  144.4160  157.4778 C   0  0  0  0  0  0  0  0  0  0  0  0
  150.7754  143.8364  158.3084 C   0  0  2  0  0  0  0  0  0  0  0  0
  151.0259  144.4877  159.6646 C   0  0  0  0  0  0  0  0  0  0  0  0
  147.3532  140.0995  152.1410 H   0  0  0  0  0  0  0  0  0  0  0  0
  145.8648  139.2046  152.4125 H   0  0  0  0  0  0  0  0  0  0  0  0
  147.4162  138.4773  152.8224 H   0  0  0  0  0  0  0  0  0  0  0  0
  149.1552  141.1230  153.3066 H   0  0  0  0  0  0  0  0  0  0  0  0
  148.9214  142.5372  154.2964 H   0  0  0  0  0  0  0  0  0  0  0  0
  149.4126  142.2208  156.7087 H   0  0  0  0  0  0  0  0  0  0  0  0
  152.1707  141.6003  156.9903 H   0  0  0  0  0  0  0  0  0  0  0  0
  152.0059  139.7251  158.6361 H   0  0  0  0  0  0  0  0  0  0  0  0
  151.4118  139.2390  157.0573 H   0  0  0  0  0  0  0  0  0  0  0  0
  150.2727  139.6160  158.3464 H   0  0  0  0  0  0  0  0  0  0  0  0
  150.1200  142.0016  159.1954 H   0  0  0  0  0  0  0  0  0  0  0  0
  151.9138  141.9591  160.5887 H   0  0  0  0  0  0  0  0  0  0  0  0
  153.0754  141.8871  159.2683 H   0  0  0  0  0  0  0  0  0  0  0  0
  152.9712  144.1887  160.6882 H   0  0  0  0  0  0  0  0  0  0  0  0
  153.4549  145.4699  158.6305 H   0  0  0  0  0  0  0  0  0  0  0  0
  153.9428  143.8371  158.1785 H   0  0  0  0  0  0  0  0  0  0  0  0
  151.6995  145.4267  157.1446 H   0  0  0  0  0  0  0  0  0  0  0  0
  152.1707  143.8307  156.5886 H   0  0  0  0  0  0  0  0  0  0  0  0
  149.7920  144.0455  157.8880 H   0  0  0  0  0  0  0  0  0  0  0  0
  150.3525  144.1362  160.4483 H   0  0  0  0  0  0  0  0  0  0  0  0
  151.0004  145.5786  159.6341 H   0  0  0  0  0  0  0  0  0  0  0  0
  1  2  1  0  0  0  0
  1 21  1  0  0  0  0
  1 22  1  0  0  0  0
  1 23  1  0  0  0  0
  2  7  1  0  0  0  0
  2  3  2  0  0  0  0
  3  4  1  0  0  0  0
  4  5  1  0  0  0  0
  5  6  1  0  0  0  0
  5  7  2  0  0  0  0
  7  8  1  0  0  0  0
  8  9  1  0  0  0  0
  8 24  1  0  0  0  0
  8 25  1  0  0  0  0
  9 10  2  0  0  0  0
  9 11  1  0  0  0  0
 11 12  1  0  0  0  0
 11 26  1  0  0  0  0
 12 13  1  0  0  0  0
 12 14  1  0  0  0  0
 12 27  1  0  0  0  0
 13 28  1  0  0  0  0
 13 29  1  0  0  0  0
 13 30  1  0  0  0  0
 14 19  1  0  0  0  0
 14 15  1  0  0  0  0
 14 31  1  0  0  0  0
 15 16  1  0  0  0  0
 15 32  1  0  0  0  0
 15 33  1  0  0  0  0
 16 20  1  0  0  0  0
 16 17  1  0  0  0  0
 16 34  1  0  0  0  0
 17 18  1  0  0  0  0
 17 35  1  0  0  0  0
 17 36  1  0  0  0  0
 18 19  1  0  0  0  0
 18 37  1  0  0  0  0
 18 38  1  0  0  0  0
 19 20  1  0  0  0  0
 19 39  1  0  0  0  0
 20 40  1  0  0  0  0
 20 41  1  0  0  0  0
M  END
> <s_m_source_file>
AV-unprocessed.smi

> <i_m_source_file_index>
1686

> <i_lp_mmshare_version>
43012

> <i_f3d_flags>
0

> <s_epik_input>
W0NIM11jMW5vYyhDbCljMVtDSDJdQyg9TylbTkhdW0NASF0oW0NIM10pW0NASF0oW0NIMl1bQ0BIXTIzKVtDQEhdKFtDSDJdMylbQ0gyXVtDSDJdMg==

> <s_epik_cmdline>
J2VwaWtfcHl0aG9uJywgJy1waCcsICc3LjAnLCAnLXRuJywgJzgnLCAnLW1hJywgJzIwMCcsICctbWV0YWxfYmluZGluZycsICctaW1hZScsICc8aW5maWxlLm1hZT4nLCAnLW9tYWUnLCAnPG91dGZpbGUubWFlPic=

> <r_lp_tautomer_probability>
1

> <r_epik_Ionization_Penalty>
2.01576e-08

> <r_epik_Ionization_Penalty_Charging>
0

> <r_epik_Ionization_Penalty_Neutral>
2.01576e-08

> <r_epik_State_Penalty>
-0

> <r_epik_Charging_Adjusted_Penalty>
0

> <i_epik_Tot_Q>
0

> <i_epik_Tot_abs_Q>
0

> <r_epik_Metal_State_Penalty>
-0

> <b_epik_Metal_Only>
0

> <s_lp_Force_Field>
OPLS_2005

> <r_lp_Energy>
45.5839

> <b_lp_Chiralities_Consistent>
1

> <s_lp_Variant>
AV-unprocessed.smi:1686-7

> <Gold.Version>
5.8.1

> <Gold.Id.Protein>
6NUR|6NUR_protein|mol2

> <Gold.PLP.Fitness>
42.4564

> <Gold.PLP.PLP>
-39.8817

> <Gold.PLP.part.hbond>
-1.0000

> <Gold.PLP.part.metal>
0.0000

> <Gold.PLP.part.buried>
-5.5274

> <Gold.PLP.part.nonpolar>
-33.1171

> <Gold.PLP.part.repulsive>
0.2325

> <Gold.PLP.ligand.clash>
0.0000

> <Gold.PLP.ligand.torsion>
0.2214

> <Gold.PLP.Chemscore.Hbond>
1.0000

> <Gold.PLP.Chemscore.CHOScore>
0.0000

> <Gold.PLP.Chemscore.Metal>
0.0000

> <Gold.Chemscore.Hbonds>
donor molecule, donor type, donor heavy atom, donor atom, acceptor molecule, acceptor atom, score
      P1  H  7989  7998       L1    10  1.00

> <Gold.PLP.Chemscore.Internal.Correction>
0.0174

> <Gold.Rescore>
     Score         DG    S(hbond)    S(metal)    S(lipo)     H(rot)  DE(clash)    DE(int)     intcor
     17.37     -17.88       0.96        0.00     110.60       1.46       0.04       0.48       ----

> <Gold.Chemscore.Fitness>
17.3692

> <Gold.Chemscore.DG>
-17.8829

> <Gold.Chemscore.ZeroCoef>
-5.4800

> <Gold.Chemscore.Hbond>
0.9620

> <Gold.Chemscore.Metal>
0.0000

> <Gold.Chemscore.Lipo>
110.5969

> <Gold.Chemscore.Internal_Hbond>
0.0000

> <Gold.Chemscore.DEClash>
0.0382

> <Gold.Chemscore.DEInternal>
0.4754

> <Gold.Chemscore.Rot>
1.4648

> <Gold.Chemscore.Internal.Correction>
   9.000000E+99

> <Gold.Chemscore.Hbonds>
donor molecule, donor type, donor heavy atom, donor atom, acceptor molecule, acceptor atom, score
      P1  H  7989  7998       L1    10  0.64

> <Gold.Chemscore.Hbond.Weighted>
-3.2130

> <Gold.Chemscore.Metal.Weighted>
-0.0000

> <Gold.Chemscore.Lipo.Weighted>
-12.9398

> <Gold.Chemscore.Internal_Hbond.Weighted>
0.0000

> <Gold.Chemscore.DEClash.Weighted>
0.0382

> <Gold.Chemscore.DEInternal.Weighted>
0.4754

> <Gold.Chemscore.Rot.Weighted>
3.7500

> <Gold.Chemscore.Internal.Correction.Weighted>
   9.000000E+99

> <Gold.Protein.RotatedTorsions>
[ 6907 6896 6895 6894 ] final   -1.86 input  -60.11 | X-H torsion
[ 7974 7965 7964 7962 ] final -173.84 input  175.53 | X-H torsion
[ 8008 7997 7996 7995 ] final   59.98 input   59.86 | X-H torsion
[ 10167 10162 10161 10158 ] final   86.48 input  -65.29 | X-H torsion
[ 10718 10713 10712 10709 ] final  -15.64 input   66.30 | X-H torsion
[ 10763 10752 10751 10750 ] final  107.51 input  -60.55 | X-H torsion
[ 11005 11000 10999 10996 ] final  -74.80 input  -57.11 | X-H torsion

> <Gold.Protein.ActiveResidues>
 VAL166  LYS551  ARG553  GLY616  TRP617  ASP618  TYR619  PRO620  LYS621  CYS622 
 ASP623  PHE694  ASN695  SER759  ASP760  ASP761  ALA762  ILE779  LEU786  VAL792 
 PHE793  MET794  SER795  GLU796  ALA797  LYS798  CYS799  TRP800  GLU811  SER814 

> <Gold.Protein.RotatedAtoms>
  151.5392  135.1068  159.9921 H   0  0  0  0  0  0  0  0  0  0  0  0  # atno 6907 bound_to 6896
  152.4543  133.7687  159.6797 H   0  0  0  0  0  0  0  0  0  0  0  0  # atno 6908 bound_to 6896
  150.8481  133.7763  159.3060 H   0  0  0  0  0  0  0  0  0  0  0  0  # atno 6909 bound_to 6896
  144.7135  140.1562  143.6380 H   0  0  0  0  0  0  0  0  0  0  0  0  # atno 7974 bound_to 7965
  155.5749  140.3490  155.4525 H   0  0  0  0  0  0  0  0  0  0  0  0  # atno 8008 bound_to 7997
  156.0417  140.1297  157.0174 H   0  0  0  0  0  0  0  0  0  0  0  0  # atno 8009 bound_to 7997
  154.4394  140.1023  156.6231 H   0  0  0  0  0  0  0  0  0  0  0  0  # atno 8010 bound_to 7997
  139.8871  144.6407  150.8779 H   0  0  0  0  0  0  0  0  0  0  0  0  # atno 10167 bound_to 10162
  156.5989  130.4819  149.6248 H   0  0  0  0  0  0  0  0  0  0  0  0  # atno 10718 bound_to 10713
  153.4077  135.3842  155.2029 H   0  0  0  0  0  0  0  0  0  0  0  0  # atno 10763 bound_to 10752
  154.8735  135.3786  154.4540 H   0  0  0  0  0  0  0  0  0  0  0  0  # atno 10764 bound_to 10752
  153.5044  135.7088  153.5876 H   0  0  0  0  0  0  0  0  0  0  0  0  # atno 10765 bound_to 10752
  141.1639  133.6924  156.7420 H   0  0  0  0  0  0  0  0  0  0  0  0  # atno 11005 bound_to 11000
  145.9072  139.2465  143.1459 LP  0  0  0  0  0  0  0  0  0  0  0  0  # atno 17320 bound_to 7965
  145.9752  140.8728  143.0142 LP  0  0  0  0  0  0  0  0  0  0  0  0  # atno 17321 bound_to 7965
  140.7734  143.3539  151.1959 LP  0  0  0  0  0  0  0  0  0  0  0  0  # atno 17342 bound_to 10162
  139.7143  143.9325  152.2960 LP  0  0  0  0  0  0  0  0  0  0  0  0  # atno 17343 bound_to 10162
  156.2486  130.6893  151.1623 LP  0  0  0  0  0  0  0  0  0  0  0  0  # atno 17370 bound_to 10713
  157.7284  131.0631  150.5819 LP  0  0  0  0  0  0  0  0  0  0  0  0  # atno 17371 bound_to 10713
  140.2667  134.8424  157.3809 LP  0  0  0  0  0  0  0  0  0  0  0  0  # atno 17394 bound_to 11000
  140.1560  134.4789  155.7928 LP  0  0  0  0  0  0  0  0  0  0  0  0  # atno 17395 bound_to 11000

$$$$
