AV-unprocessed.smi:290|AV-procd|sdf|2244|dock2
  -GOLD-   2262022123D 1   1.00000     0.00000
 Structure written by MMmdl.
 59 62  0  0  0  0  0  0  0  0  2 V2000
  146.4817  136.7860  159.2771 C   0  0  0  0  0  0  0  0  0  0  0  0
  147.4408  136.1684  160.3101 C   0  0  1  0  0  0  0  0  0  0  0  0
  147.7150  137.1068  161.3496 O   0  0  0  0  0  0  0  0  0  0  0  0
  147.3315  136.5684  162.6064 C   0  0  0  0  0  0  0  0  0  0  0  0
  147.4691  135.0629  162.4239 C   0  0  0  0  0  0  0  0  0  0  0  0
  146.9812  134.8578  160.9980 C   0  0  1  0  0  0  0  0  0  0  0  0
  145.5653  134.7702  161.0267 O   0  0  0  0  0  0  0  0  0  0  0  0
  147.5423  133.5631  160.3613 C   0  0  0  0  0  0  0  0  0  0  0  0
  147.2458  133.4412  158.9428 N   0  0  0  0  0  0  0  0  0  0  0  0
  145.9989  133.4181  158.3633 C   0  0  0  0  0  0  0  0  0  0  0  0
  145.9947  133.3211  157.0629 N   0  0  0  0  0  0  0  0  0  0  0  0
  147.3398  133.2621  156.7127 C   0  0  0  0  0  0  0  0  0  0  0  0
  148.0529  133.1627  155.4795 C   0  0  0  0  0  0  0  0  0  0  0  0
  147.4733  133.1196  154.2484 N   0  0  0  0  0  0  0  0  0  0  0  0
  148.2598  132.8939  153.0398 C   0  0  0  0  0  0  0  0  0  0  0  0
  147.3324  133.2346  151.8656 C   0  0  0  0  0  0  0  0  0  0  0  0
  145.9301  133.2955  152.4965 C   0  0  2  0  0  0  0  0  0  0  0  0
  144.9108  134.0926  151.7508 N   0  3  2  0  0  0  0  0  0  0  0  0
  143.7122  134.3758  152.5818 C   0  0  0  0  0  0  0  0  0  0  0  0
  144.5359  133.5232  150.4263 C   0  0  0  0  0  0  0  0  0  0  0  0
  143.7849  132.1868  150.5578 C   0  0  0  0  0  0  0  0  0  0  0  0
  142.8120  132.0808  149.5397 O   0  0  0  0  0  0  0  0  0  0  0  0
  146.2408  133.8206  153.9142 C   0  0  2  0  0  0  0  0  0  0  0  0
  146.4367  135.3547  153.9813 C   0  0  0  0  0  0  0  0  0  0  0  0
  149.4090  133.0998  155.5545 N   0  0  0  0  0  0  0  0  0  0  0  0
  150.0311  133.1536  156.7349 C   0  0  0  0  0  0  0  0  0  0  0  0
  149.4989  133.2670  157.9515 N   0  0  0  0  0  0  0  0  0  0  0  0
  148.1382  133.3164  157.8924 C   0  0  0  0  0  0  0  0  0  0  0  0
  145.5616  132.2709  152.5808 H   0  0  0  0  0  0  0  0  0  0  0  0
  145.4391  133.5152  154.5843 H   0  0  0  0  0  0  0  0  0  0  0  0
  146.2516  136.0841  158.4760 H   0  0  0  0  0  0  0  0  0  0  0  0
  146.9272  137.6700  158.8207 H   0  0  0  0  0  0  0  0  0  0  0  0
  145.5421  137.0951  159.7360 H   0  0  0  0  0  0  0  0  0  0  0  0
  148.4011  135.9934  159.8249 H   0  0  0  0  0  0  0  0  0  0  0  0
  147.9522  136.9550  163.4148 H   0  0  0  0  0  0  0  0  0  0  0  0
  146.2949  136.8397  162.8111 H   0  0  0  0  0  0  0  0  0  0  0  0
  148.5214  134.7878  162.5080 H   0  0  0  0  0  0  0  0  0  0  0  0
  146.9135  134.4877  163.1659 H   0  0  0  0  0  0  0  0  0  0  0  0
  145.3038  134.4590  161.8797 H   0  0  0  0  0  0  0  0  0  0  0  0
  148.6244  133.5173  160.4896 H   0  0  0  0  0  0  0  0  0  0  0  0
  147.1394  132.6867  160.8708 H   0  0  0  0  0  0  0  0  0  0  0  0
  145.0870  133.4863  158.9388 H   0  0  0  0  0  0  0  0  0  0  0  0
  149.1585  133.5117  153.0172 H   0  0  0  0  0  0  0  0  0  0  0  0
  148.5625  131.8467  153.0016 H   0  0  0  0  0  0  0  0  0  0  0  0
  147.6076  134.2044  151.4486 H   0  0  0  0  0  0  0  0  0  0  0  0
  147.4100  132.4932  151.0698 H   0  0  0  0  0  0  0  0  0  0  0  0
  143.1951  133.4521  152.8448 H   0  0  0  0  0  0  0  0  0  0  0  0
  143.0052  135.0199  152.0613 H   0  0  0  0  0  0  0  0  0  0  0  0
  143.9730  134.8871  153.5075 H   0  0  0  0  0  0  0  0  0  0  0  0
  143.8916  134.1956  149.8633 H   0  0  0  0  0  0  0  0  0  0  0  0
  145.4332  133.3962  149.8189 H   0  0  0  0  0  0  0  0  0  0  0  0
  144.4852  131.3584  150.4467 H   0  0  0  0  0  0  0  0  0  0  0  0
  143.3114  132.0685  151.5317 H   0  0  0  0  0  0  0  0  0  0  0  0
  142.4052  132.9262  149.4209 H   0  0  0  0  0  0  0  0  0  0  0  0
  145.5249  135.8909  153.7209 H   0  0  0  0  0  0  0  0  0  0  0  0
  147.2226  135.6952  153.3071 H   0  0  0  0  0  0  0  0  0  0  0  0
  146.7123  135.6764  154.9854 H   0  0  0  0  0  0  0  0  0  0  0  0
  151.1093  133.1018  156.6985 H   0  0  0  0  0  0  0  0  0  0  0  0
  145.3515  134.9798  151.5520 H   0  0  0  0  0  0  0  0  0  0  0  0
  1  2  1  0  0  0  0
  1 31  1  0  0  0  0
  1 32  1  0  0  0  0
  1 33  1  0  0  0  0
  2  6  1  0  0  0  0
  2  3  1  0  0  0  0
  2 34  1  0  0  0  0
  3  4  1  0  0  0  0
  4  5  1  0  0  0  0
  4 35  1  0  0  0  0
  4 36  1  0  0  0  0
  5  6  1  0  0  0  0
  5 37  1  0  0  0  0
  5 38  1  0  0  0  0
  6  7  1  0  0  0  0
  6  8  1  0  0  0  0
  7 39  1  0  0  0  0
  8  9  1  0  0  0  0
  8 40  1  0  0  0  0
  8 41  1  0  0  0  0
  9 28  1  0  0  0  0
  9 10  1  0  0  0  0
 10 11  2  0  0  0  0
 10 42  1  0  0  0  0
 11 12  1  0  0  0  0
 12 28  2  0  0  0  0
 12 13  1  0  0  0  0
 13 14  1  0  0  0  0
 13 25  2  0  0  0  0
 14 23  1  0  0  0  0
 14 15  1  0  0  0  0
 15 16  1  0  0  0  0
 15 43  1  0  0  0  0
 15 44  1  0  0  0  0
 16 17  1  0  0  0  0
 16 45  1  0  0  0  0
 16 46  1  0  0  0  0
 17 29  1  0  0  0  0
 17 18  1  0  0  0  0
 17 23  1  0  0  0  0
 18 19  1  0  0  0  0
 18 20  1  0  0  0  0
 18 59  1  0  0  0  0
 19 47  1  0  0  0  0
 19 48  1  0  0  0  0
 19 49  1  0  0  0  0
 20 21  1  0  0  0  0
 20 50  1  0  0  0  0
 20 51  1  0  0  0  0
 21 22  1  0  0  0  0
 21 52  1  0  0  0  0
 21 53  1  0  0  0  0
 22 54  1  0  0  0  0
 23 30  1  0  0  0  0
 23 24  1  0  0  0  0
 24 55  1  0  0  0  0
 24 56  1  0  0  0  0
 24 57  1  0  0  0  0
 25 26  1  0  0  0  0
 26 27  2  0  0  0  0
 26 58  1  0  0  0  0
 27 28  1  0  0  0  0
M  CHG  1  18   1
M  END
> <s_m_source_file>
AV-unprocessed.smi

> <i_m_source_file_index>
290

> <i_lp_mmshare_version>
43012

> <i_f3d_flags>
0

> <s_epik_input>
W0NIMl0xW0NIMl1PW0NAQEhdKFtDSDNdKVtDQEBdMShbT0hdKVtDSDJdbihbY0hdbjIpYyhjMjMpbltjSF1uYzNONFtDSDJdW0NIMl1bQ0BIXShbQ0BIXTRbQ0gzXSlOKFtDSDNdKVtDSDJdW0NIMl1bT0hd

> <s_epik_cmdline>
J2VwaWtfcHl0aG9uJywgJy1waCcsICc3LjAnLCAnLXRuJywgJzgnLCAnLW1hJywgJzIwMCcsICctbWV0YWxfYmluZGluZycsICctaW1hZScsICc8aW5maWxlLm1hZT4nLCAnLW9tYWUnLCAnPG91dGZpbGUubWFlPic=

> <r_lp_tautomer_probability>
1

> <r_epik_Ionization_Penalty>
0.0036983

> <r_epik_Ionization_Penalty_Charging>
0.0032725

> <r_epik_Ionization_Penalty_Neutral>
0.000425798

> <r_epik_State_Penalty>
-0

> <r_epik_Charging_Adjusted_Penalty>
0.0032725

> <i_epik_Tot_Q>
1

> <i_epik_Tot_abs_Q>
1

> <r_epik_Metal_State_Penalty>
-0

> <b_epik_Metal_Only>
0

> <s_lp_Force_Field>
OPLS_2005

> <r_lp_Energy>
62.044

> <b_lp_Chiralities_Consistent>
1

> <s_lp_Variant>
AV-unprocessed.smi:290-30

> <Gold.Version>
5.8.1

> <Gold.Id.Protein>
6NUR|6NUR_protein|mol2

> <Gold.PLP.Fitness>
53.2095

> <Gold.PLP.PLP>
-40.5318

> <Gold.PLP.part.hbond>
-5.7511

> <Gold.PLP.part.metal>
0.0000

> <Gold.PLP.part.buried>
-6.6083

> <Gold.PLP.part.nonpolar>
-28.4473

> <Gold.PLP.part.repulsive>
0.0450

> <Gold.PLP.ligand.clash>
0.0000

> <Gold.PLP.ligand.torsion>
0.6215

> <Gold.PLP.Chemscore.Hbond>
4.5218

> <Gold.PLP.Chemscore.CHOScore>
0.0000

> <Gold.PLP.Chemscore.Metal>
0.0000

> <Gold.Chemscore.Hbonds>
donor molecule, donor type, donor heavy atom, donor atom, acceptor molecule, acceptor atom, score
      L1  H    22    54       P1 10186  0.96
      P1  H  6896  6909       L1    27  1.00
      P1  H  6931  6943       L1     3  0.95
      P1  H  6934  6947       L1     3  0.82
      P1  H 10785 10796       L1    22  0.75

> <Gold.PLP.Chemscore.Internal.Correction>
0.3555

> <Gold.Rescore>
     Score         DG    S(hbond)    S(metal)    S(lipo)     H(rot)  DE(clash)    DE(int)     intcor
     16.30     -18.04       3.55        0.00      79.26       3.35       0.01       1.73       ----

> <Gold.Chemscore.Fitness>
16.3023

> <Gold.Chemscore.DG>
-18.0432

> <Gold.Chemscore.ZeroCoef>
-5.4800

> <Gold.Chemscore.Hbond>
3.5539

> <Gold.Chemscore.Metal>
0.0000

> <Gold.Chemscore.Lipo>
79.2635

> <Gold.Chemscore.Internal_Hbond>
0.0000

> <Gold.Chemscore.DEClash>
0.0073

> <Gold.Chemscore.DEInternal>
1.7335

> <Gold.Chemscore.Rot>
3.3518

> <Gold.Chemscore.Internal.Correction>
   9.000000E+99

> <Gold.Chemscore.Hbonds>
donor molecule, donor type, donor heavy atom, donor atom, acceptor molecule, acceptor atom, score
      L1  H    22    54       P1 10186  0.91
      P1  H  6896  6909       L1    27  0.82
      P1  H  6931  6943       L1     3  0.21
      P1  H  6934  6947       L1     3  0.66
      P1  H 10785 10796       L1    22  0.30

> <Gold.Chemscore.Hbond.Weighted>
-11.8699

> <Gold.Chemscore.Metal.Weighted>
-0.0000

> <Gold.Chemscore.Lipo.Weighted>
-9.2738

> <Gold.Chemscore.Internal_Hbond.Weighted>
0.0000

> <Gold.Chemscore.DEClash.Weighted>
0.0073

> <Gold.Chemscore.DEInternal.Weighted>
1.7335

> <Gold.Chemscore.Rot.Weighted>
8.5806

> <Gold.Chemscore.Internal.Correction.Weighted>
   9.000000E+99

> <Gold.Protein.RotatedTorsions>
[ 6907 6896 6895 6894 ] final   -0.88 input  -60.11 | X-H torsion
[ 7974 7965 7964 7962 ] final   97.39 input  175.53 | X-H torsion
[ 8008 7997 7996 7995 ] final  139.84 input   59.86 | X-H torsion
[ 10167 10162 10161 10158 ] final  -27.85 input  -65.29 | X-H torsion
[ 10718 10713 10712 10709 ] final   12.94 input   66.30 | X-H torsion
[ 10763 10752 10751 10750 ] final -173.23 input  -60.55 | X-H torsion
[ 11005 11000 10999 10996 ] final  -84.78 input  -57.11 | X-H torsion

> <Gold.Protein.ActiveResidues>
 VAL166  LYS551  ARG553  GLY616  TRP617  ASP618  TYR619  PRO620  LYS621  CYS622 
 ASP623  PHE694  ASN695  SER759  ASP760  ASP761  ALA762  ILE779  LEU786  VAL792 
 PHE793  MET794  SER795  GLU796  ALA797  LYS798  CYS799  TRP800  GLU811  SER814 

> <Gold.Protein.RotatedAtoms>
  151.5550  135.1067  159.9958 H   0  0  0  0  0  0  0  0  0  0  0  0  # atno 6907 bound_to 6896
  152.4473  133.7557  159.6729 H   0  0  0  0  0  0  0  0  0  0  0  0  # atno 6908 bound_to 6896
  150.8392  133.7895  159.3091 H   0  0  0  0  0  0  0  0  0  0  0  0  # atno 6909 bound_to 6896
  145.4262  139.2315  143.3169 H   0  0  0  0  0  0  0  0  0  0  0  0  # atno 7974 bound_to 7965
  156.2986  140.2357  156.4303 H   0  0  0  0  0  0  0  0  0  0  0  0  # atno 8008 bound_to 7997
  154.8276  140.0434  157.1475 H   0  0  0  0  0  0  0  0  0  0  0  0  # atno 8009 bound_to 7997
  154.9244  140.3008  155.5203 H   0  0  0  0  0  0  0  0  0  0  0  0  # atno 8010 bound_to 7997
  140.7274  143.4059  151.1187 H   0  0  0  0  0  0  0  0  0  0  0  0  # atno 10167 bound_to 10162
  157.0174  130.6141  149.5716 H   0  0  0  0  0  0  0  0  0  0  0  0  # atno 10718 bound_to 10713
  154.6102  135.2864  155.0440 H   0  0  0  0  0  0  0  0  0  0  0  0  # atno 10763 bound_to 10752
  154.1672  135.6478  153.5004 H   0  0  0  0  0  0  0  0  0  0  0  0  # atno 10764 bound_to 10752
  153.0192  135.5392  154.6853 H   0  0  0  0  0  0  0  0  0  0  0  0  # atno 10765 bound_to 10752
  141.1647  133.7364  156.8919 H   0  0  0  0  0  0  0  0  0  0  0  0  # atno 11005 bound_to 11000
  146.2631  140.4993  142.8845 LP  0  0  0  0  0  0  0  0  0  0  0  0  # atno 17320 bound_to 7965
  144.8213  140.6554  143.6351 LP  0  0  0  0  0  0  0  0  0  0  0  0  # atno 17321 bound_to 7965
  139.7685  143.8529  152.3115 LP  0  0  0  0  0  0  0  0  0  0  0  0  # atno 17342 bound_to 10162
  139.8440  144.7196  150.9296 LP  0  0  0  0  0  0  0  0  0  0  0  0  # atno 17343 bound_to 10162
  156.0114  130.5206  150.8001 LP  0  0  0  0  0  0  0  0  0  0  0  0  # atno 17370 bound_to 10713
  157.5275  131.0935  150.9998 LP  0  0  0  0  0  0  0  0  0  0  0  0  # atno 17371 bound_to 10713
  140.1643  134.9144  157.2754 LP  0  0  0  0  0  0  0  0  0  0  0  0  # atno 17394 bound_to 11000
  140.2575  134.3610  155.7419 LP  0  0  0  0  0  0  0  0  0  0  0  0  # atno 17395 bound_to 11000

$$$$
