AV-unprocessed.smi:527|AV-procd|sdf|2827|dock10
  -GOLD-   2262023313D 1   1.00000     0.00000
 Structure written by MMmdl.
 43 44  0  0  0  0  0  0  0  0  2 V2000
  149.3944  141.3393  156.1175 C   0  0  0  0  0  0  0  0  0  0  0  0
  149.2041  141.2066  154.5924 C   0  0  2  0  0  0  0  0  0  0  0  0
  147.9708  141.9929  154.1024 C   0  0  0  0  0  0  0  0  0  0  0  0
  146.6515  141.3120  154.4989 C   0  0  0  0  0  0  0  0  0  0  0  0
  146.6026  139.8615  153.9992 C   0  0  0  0  0  0  0  0  0  0  0  0
  147.8203  139.0453  154.4806 C   0  0  1  0  0  0  0  0  0  0  0  0
  147.7617  137.6979  153.9168 N   0  0  0  0  0  0  0  0  0  0  0  0
  146.7587  136.8248  154.0922 C   0  0  0  0  0  0  0  0  0  0  0  0
  145.8211  137.0162  154.8695 O   0  0  0  0  0  0  0  0  0  0  0  0
  146.9242  135.7375  153.3142 N   0  0  0  0  0  0  0  0  0  0  0  0
  146.1389  134.6429  153.2536 C   0  0  0  0  0  0  0  0  0  0  0  0
  145.1164  134.4686  153.9218 O   0  0  0  0  0  0  0  0  0  0  0  0
  146.6086  133.5698  152.2630 C   0  0  0  0  0  0  0  0  0  0  0  0
  145.6234  133.2842  151.2122 N   0  0  0  0  0  0  0  0  0  0  0  0
  145.7401  132.3817  150.1856 C   0  0  0  0  0  0  0  0  0  0  0  0
  144.5822  132.4677  149.4562 C   0  0  0  0  0  0  0  0  0  0  0  0
  143.8089  133.4189  150.0665 N   0  3  0  0  0  0  0  0  0  0  0  0
  144.4436  133.9146  151.1337 C   0  0  0  0  0  0  0  0  0  0  0  0
  149.1485  139.7410  154.0842 C   0  0  2  0  0  0  0  0  0  0  0  0
  150.3972  138.9314  154.4872 C   0  0  0  0  0  0  0  0  0  0  0  0
  148.5976  140.8506  156.6771 H   0  0  0  0  0  0  0  0  0  0  0  0
  149.4084  142.3874  156.4167 H   0  0  0  0  0  0  0  0  0  0  0  0
  150.3399  140.9057  156.4422 H   0  0  0  0  0  0  0  0  0  0  0  0
  150.0762  141.6764  154.1358 H   0  0  0  0  0  0  0  0  0  0  0  0
  147.9937  143.0130  154.4876 H   0  0  0  0  0  0  0  0  0  0  0  0
  148.0111  142.0813  153.0159 H   0  0  0  0  0  0  0  0  0  0  0  0
  146.5298  141.3323  155.5822 H   0  0  0  0  0  0  0  0  0  0  0  0
  145.8109  141.8712  154.0875 H   0  0  0  0  0  0  0  0  0  0  0  0
  145.6770  139.3933  154.3366 H   0  0  0  0  0  0  0  0  0  0  0  0
  146.5671  139.8597  152.9088 H   0  0  0  0  0  0  0  0  0  0  0  0
  147.7840  138.9691  155.5687 H   0  0  0  0  0  0  0  0  0  0  0  0
  148.5522  137.4095  153.3592 H   0  0  0  0  0  0  0  0  0  0  0  0
  147.7306  135.7427  152.7073 H   0  0  0  0  0  0  0  0  0  0  0  0
  147.5316  133.8923  151.7789 H   0  0  0  0  0  0  0  0  0  0  0  0
  146.8237  132.6424  152.7956 H   0  0  0  0  0  0  0  0  0  0  0  0
  146.6161  131.7634  150.0522 H   0  0  0  0  0  0  0  0  0  0  0  0
  144.2598  131.9383  148.5715 H   0  0  0  0  0  0  0  0  0  0  0  0
  144.0771  134.6773  151.7978 H   0  0  0  0  0  0  0  0  0  0  0  0
  149.1653  139.7958  152.9942 H   0  0  0  0  0  0  0  0  0  0  0  0
  150.4052  138.7090  155.5543 H   0  0  0  0  0  0  0  0  0  0  0  0
  151.3114  139.4766  154.2510 H   0  0  0  0  0  0  0  0  0  0  0  0
  150.4459  137.9806  153.9561 H   0  0  0  0  0  0  0  0  0  0  0  0
  142.8905  133.7096  149.7550 H   0  0  0  0  0  0  0  0  0  0  0  0
  1  2  1  0  0  0  0
  1 21  1  0  0  0  0
  1 22  1  0  0  0  0
  1 23  1  0  0  0  0
  2 19  1  0  0  0  0
  2  3  1  0  0  0  0
  2 24  1  0  0  0  0
  3  4  1  0  0  0  0
  3 25  1  0  0  0  0
  3 26  1  0  0  0  0
  4  5  1  0  0  0  0
  4 27  1  0  0  0  0
  4 28  1  0  0  0  0
  5  6  1  0  0  0  0
  5 29  1  0  0  0  0
  5 30  1  0  0  0  0
  6  7  1  0  0  0  0
  6 19  1  0  0  0  0
  6 31  1  0  0  0  0
  7  8  1  0  0  0  0
  7 32  1  0  0  0  0
  8  9  2  0  0  0  0
  8 10  1  0  0  0  0
 10 11  1  0  0  0  0
 10 33  1  0  0  0  0
 11 12  2  0  0  0  0
 11 13  1  0  0  0  0
 13 14  1  0  0  0  0
 13 34  1  0  0  0  0
 13 35  1  0  0  0  0
 14 18  1  0  0  0  0
 14 15  1  0  0  0  0
 15 16  2  0  0  0  0
 15 36  1  0  0  0  0
 16 17  1  0  0  0  0
 16 37  1  0  0  0  0
 17 18  2  0  0  0  0
 17 43  1  0  0  0  0
 18 38  1  0  0  0  0
 19 20  1  0  0  0  0
 19 39  1  0  0  0  0
 20 40  1  0  0  0  0
 20 41  1  0  0  0  0
 20 42  1  0  0  0  0
M  CHG  1  17   1
M  END
> <s_m_source_file>
AV-unprocessed.smi

> <i_m_source_file_index>
527

> <i_lp_mmshare_version>
43012

> <i_f3d_flags>
0

> <s_epik_input>
W0NIM11bQ0BASF0xW0NIMl1bQ0gyXVtDSDJdW0NASF0oW0NASF0xW0NIM10pW05IXUMoPU8pW05IXUMoPU8pW0NIMl1uMltjSF1bY0hdbltjSF0y

> <s_epik_cmdline>
J2VwaWtfcHl0aG9uJywgJy1waCcsICc3LjAnLCAnLXRuJywgJzgnLCAnLW1hJywgJzIwMCcsICctbWV0YWxfYmluZGluZycsICctaW1hZScsICc8aW5maWxlLm1hZT4nLCAnLW9tYWUnLCAnPG91dGZpbGUubWFlPic=

> <r_lp_tautomer_probability>
1

> <r_epik_Ionization_Penalty>
0.816441

> <r_epik_Ionization_Penalty_Charging>
0

> <r_epik_Ionization_Penalty_Neutral>
0.816441

> <r_epik_State_Penalty>
0.849034

> <r_epik_Charging_Adjusted_Penalty>
0.849034

> <i_epik_Tot_Q>
1

> <i_epik_Tot_abs_Q>
1

> <r_epik_Metal_State_Penalty>
0.984327

> <b_epik_Metal_Only>
0

> <s_lp_Force_Field>
OPLS_2005

> <r_lp_Energy>
18.5197

> <b_lp_Chiralities_Consistent>
1

> <s_lp_Variant>
AV-unprocessed.smi:527-13

> <Gold.Version>
5.8.1

> <Gold.Id.Protein>
6NUR|6NUR_protein|mol2

> <Gold.PLP.Fitness>
48.0953

> <Gold.PLP.PLP>
-33.6378

> <Gold.PLP.part.hbond>
-2.9922

> <Gold.PLP.part.metal>
0.0000

> <Gold.PLP.part.buried>
-2.4776

> <Gold.PLP.part.nonpolar>
-27.9870

> <Gold.PLP.part.repulsive>
0.1466

> <Gold.PLP.ligand.clash>
0.0000

> <Gold.PLP.ligand.torsion>
0.0162

> <Gold.PLP.Chemscore.Hbond>
3.8320

> <Gold.PLP.Chemscore.CHOScore>
0.9961

> <Gold.PLP.Chemscore.Metal>
0.0000

> <Gold.Chemscore.Hbonds>
donor molecule, donor type, donor heavy atom, donor atom, acceptor molecule, acceptor atom, score
      L1  H     7    32       P1  7948  0.80
      L1  H    10    33       P1  7948  1.00
      L1  H    17    43       P1 10186  2.00
      L1  C    15    36       P1 10747  1.00

> <Gold.PLP.Chemscore.Internal.Correction>
0.0057

> <Gold.Rescore>
     Score         DG    S(hbond)    S(metal)    S(lipo)     H(rot)  DE(clash)    DE(int)     intcor
     16.91     -19.44       2.85        0.00      75.30       1.71       0.18       2.35       ----

> <Gold.Chemscore.Fitness>
16.9110

> <Gold.Chemscore.DG>
-19.4359

> <Gold.Chemscore.ZeroCoef>
-5.4800

> <Gold.Chemscore.Hbond>
2.8478

> <Gold.Chemscore.Metal>
0.0000

> <Gold.Chemscore.Lipo>
75.2964

> <Gold.Chemscore.Internal_Hbond>
0.0000

> <Gold.Chemscore.DEClash>
0.1750

> <Gold.Chemscore.DEInternal>
2.3499

> <Gold.Chemscore.Rot>
1.7052

> <Gold.Chemscore.Internal.Correction>
   9.000000E+99

> <Gold.Chemscore.Hbonds>
donor molecule, donor type, donor heavy atom, donor atom, acceptor molecule, acceptor atom, score
      L1  H     7    32       P1  7948  0.79
      L1  H    10    33       P1  7948  0.95
      L1  H    17    43       P1 10186  0.93

> <Gold.Chemscore.Hbond.Weighted>
-9.5115

> <Gold.Chemscore.Metal.Weighted>
-0.0000

> <Gold.Chemscore.Lipo.Weighted>
-8.8097

> <Gold.Chemscore.Internal_Hbond.Weighted>
0.0000

> <Gold.Chemscore.DEClash.Weighted>
0.1750

> <Gold.Chemscore.DEInternal.Weighted>
2.3499

> <Gold.Chemscore.Rot.Weighted>
4.3653

> <Gold.Chemscore.Internal.Correction.Weighted>
   9.000000E+99

> <Gold.Protein.RotatedTorsions>
[ 6907 6896 6895 6894 ] final  144.44 input  -60.11 | X-H torsion
[ 7974 7965 7964 7962 ] final  160.31 input  175.53 | X-H torsion
[ 8008 7997 7996 7995 ] final  -62.84 input   59.86 | X-H torsion
[ 10167 10162 10161 10158 ] final  169.34 input  -65.29 | X-H torsion
[ 10718 10713 10712 10709 ] final  -92.95 input   66.30 | X-H torsion
[ 10763 10752 10751 10750 ] final -166.85 input  -60.55 | X-H torsion
[ 11005 11000 10999 10996 ] final   41.08 input  -57.11 | X-H torsion

> <Gold.Protein.ActiveResidues>
 VAL166  LYS551  ARG553  GLY616  TRP617  ASP618  TYR619  PRO620  LYS621  CYS622 
 ASP623  PHE694  ASN695  SER759  ASP760  ASP761  ALA762  ILE779  LEU786  VAL792 
 PHE793  MET794  SER795  GLU796  ALA797  LYS798  CYS799  TRP800  GLU811  SER814 

> <Gold.Protein.RotatedAtoms>
  152.1936  133.4790  159.5020 H   0  0  0  0  0  0  0  0  0  0  0  0  # atno 6907 bound_to 6896
  150.6956  134.1681  159.4211 H   0  0  0  0  0  0  0  0  0  0  0  0  # atno 6908 bound_to 6896
  151.9596  135.0129  160.0597 H   0  0  0  0  0  0  0  0  0  0  0  0  # atno 6909 bound_to 6896
  144.7744  139.7739  143.6284 H   0  0  0  0  0  0  0  0  0  0  0  0  # atno 7974 bound_to 7965
  154.4521  140.0987  156.6649 H   0  0  0  0  0  0  0  0  0  0  0  0  # atno 8008 bound_to 7997
  155.5252  140.3480  155.4396 H   0  0  0  0  0  0  0  0  0  0  0  0  # atno 8009 bound_to 7997
  156.0703  140.1348  156.9826 H   0  0  0  0  0  0  0  0  0  0  0  0  # atno 8010 bound_to 7997
  139.4990  144.3716  151.9718 H   0  0  0  0  0  0  0  0  0  0  0  0  # atno 10167 bound_to 10162
  156.0008  130.5007  150.5702 H   0  0  0  0  0  0  0  0  0  0  0  0  # atno 10718 bound_to 10713
  154.6792  135.2952  154.9637 H   0  0  0  0  0  0  0  0  0  0  0  0  # atno 10763 bound_to 10752
  154.0637  135.6628  153.4819 H   0  0  0  0  0  0  0  0  0  0  0  0  # atno 10764 bound_to 10752
  153.0536  135.5158  154.7826 H   0  0  0  0  0  0  0  0  0  0  0  0  # atno 10765 bound_to 10752
  140.1869  134.4035  155.8168 H   0  0  0  0  0  0  0  0  0  0  0  0  # atno 11005 bound_to 11000
  146.1913  139.5154  142.9803 LP  0  0  0  0  0  0  0  0  0  0  0  0  # atno 17320 bound_to 7965
  145.6230  141.0319  143.1904 LP  0  0  0  0  0  0  0  0  0  0  0  0  # atno 17321 bound_to 7965
  140.3152  144.3492  150.6023 LP  0  0  0  0  0  0  0  0  0  0  0  0  # atno 17342 bound_to 10162
  140.5767  143.2176  151.7503 LP  0  0  0  0  0  0  0  0  0  0  0  0  # atno 17343 bound_to 10162
  157.3598  131.0748  151.1645 LP  0  0  0  0  0  0  0  0  0  0  0  0  # atno 17370 bound_to 10713
  157.2434  130.6580  149.5899 LP  0  0  0  0  0  0  0  0  0  0  0  0  # atno 17371 bound_to 10713
  141.2225  133.7027  156.8027 LP  0  0  0  0  0  0  0  0  0  0  0  0  # atno 17394 bound_to 11000
  140.2204  134.8761  157.3371 LP  0  0  0  0  0  0  0  0  0  0  0  0  # atno 17395 bound_to 11000

$$$$
