#       Name:                AV-unprocessed.smi:2525
#       Creating user name   scv26
#       Creation time:       Fri Mar 27 13:57:07 2020


#       File generated by GOLD software.
#

@<TRIPOS>MOLECULE
AV-unprocessed.smi:2525
    50    51     1
SMALL
NO_CHARGES


@<TRIPOS>ATOM
      1 ****        -2.5399   1.7472  -2.2189 C.3            1 S1                 0.0000
      2 ****        -2.5322   0.4041  -1.4695 C.3            1 S1                 0.0000
      3 ****        -1.1371  -0.0735  -0.9946 C.3            1 S1                 0.0000
      4 ****        -0.2222  -0.2736  -2.2272 C.3            1 S1                 0.0000
      5 ****        -0.7218  -1.3097  -3.2465 C.3            1 S1                 0.0000
      6 ****        -0.5797   0.7573   0.1999 C.3            1 S1                 0.0000
      7 ****         0.8806   0.8134   0.2632 N.am           1 S1                 0.0000
      8 ****         1.6304   1.8395  -0.1661 C.2            1 S1                 0.0000
      9 ****         1.1624   2.8395  -0.7092 O.2            1 S1                 0.0000
     10 ****         3.1423   1.7137   0.0376 C.3            1 S1                 0.0000
     11 ****         3.4773   1.4840   1.4329 N.pl3          1 S1                 0.0000
     12 ****         3.7168   0.2854   2.0744 C.2            1 S1                 0.0000
     13 ****         3.9602   0.6591   3.3649 C.2            1 S1                 0.0000
     14 ****         3.8627   2.0464   3.4543 N.2            1 S1                 0.0000
     15 ****         3.5727   2.5309   2.2877 N.2            1 S1                 0.0000
     16 ****        -1.1489  -0.2859   1.1786 C.3            1 S1                 0.0000
     17 ****        -0.3987  -0.6348   2.4626 C.3            1 S1                 0.0000
     18 ****        -1.1475  -1.2654  -0.0041 C.3            1 S1                 0.0000
     19 ****        -2.3118  -2.0702  -0.1214 O.3            1 S1                 0.0000
     20 ****        -2.3219  -3.1697   0.7718 C.3            1 S1                 0.0000
     21 ****        -3.5628   2.0681  -2.4157 H              1 S1                 0.0000
     22 ****        -2.0359   1.6773  -3.1823 H              1 S1                 0.0000
     23 ****        -2.0548   2.5339  -1.6412 H              1 S1                 0.0000
     24 ****        -3.1956   0.5117  -0.6112 H              1 S1                 0.0000
     25 ****        -3.0141  -0.3528  -2.0877 H              1 S1                 0.0000
     26 ****        -0.0353   0.6744  -2.7313 H              1 S1                 0.0000
     27 ****         0.7619  -0.6141  -1.9053 H              1 S1                 0.0000
     28 ****         0.0357  -1.4903  -4.0094 H              1 S1                 0.0000
     29 ****        -1.6202  -0.9731  -3.7629 H              1 S1                 0.0000
     30 ****        -0.9422  -2.2640  -2.7678 H              1 S1                 0.0000
     31 ****        -1.0563   1.7305   0.3270 H              1 S1                 0.0000
     32 ****         1.3498   0.0298   0.6935 H              1 S1                 0.0000
     33 ****         3.5220   0.8839  -0.5596 H              1 S1                 0.0000
     34 ****         3.6471   2.6175  -0.3078 H              1 S1                 0.0000
     35 ****         3.6902  -0.6759   1.5829 H              1 S1                 0.0000
     36 ****         4.1937   0.0526   4.2276 H              1 S1                 0.0000
     37 ****        -2.1777  -0.0079   1.4133 H              1 S1                 0.0000
     38 ****         0.5712  -1.0875   2.2548 H              1 S1                 0.0000
     39 ****        -0.9630  -1.3398   3.0722 H              1 S1                 0.0000
     40 ****        -0.2250   0.2541   3.0695 H              1 S1                 0.0000
     41 ****        -0.2251  -1.8479  -0.0610 H              1 S1                 0.0000
     42 ****        -3.2198  -3.7651   0.6062 H              1 S1                 0.0000
     43 ****        -2.3291  -2.8393   1.8102 H              1 S1                 0.0000
     44 ****        -1.4571  -3.8152   0.6139 H              1 S1                 0.0000
     45 ****         0.1753   2.9164  -0.8499 LP             1 S1                 0.0000
     46 ****         1.7691   3.5754  -1.0099 LP             1 S1                 0.0000
     47 ****         3.9955   2.5835   4.2874 LP             1 S1                 0.0000
     48 ****         3.4436   3.4963   2.0611 LP             1 S1                 0.0000
     49 ****        -2.3636  -2.4200  -1.0568 LP             1 S1                 0.0000
     50 ****        -3.1122  -1.5007   0.0663 LP             1 S1                 0.0000
@<TRIPOS>BOND
    1    1    2 1     
    2    1   21 1     
    3    1   22 1     
    4    1   23 1     
    5    2    3 1     
    6    2   24 1     
    7    2   25 1     
    8    3   18 1     
    9    3    4 1     
   10    3    6 1     
   11    4    5 1     
   12    4   26 1     
   13    4   27 1     
   14    5   28 1     
   15    5   29 1     
   16    5   30 1     
   17    6    7 1     
   18    6   16 1     
   19    6   31 1     
   20    7    8 am    
   21    7   32 1     
   22    8    9 2     
   23    8   10 1     
   24   10   11 1     
   25   10   33 1     
   26   10   34 1     
   27   11   15 1     
   28   11   12 1     
   29   12   13 2     
   30   12   35 1     
   31   13   14 1     
   32   13   36 1     
   33   14   15 2     
   34   16   17 1     
   35   16   18 1     
   36   16   37 1     
   37   17   38 1     
   38   17   39 1     
   39   17   40 1     
   40   18   19 1     
   41   18   41 1     
   42   19   20 1     
   43   20   42 1     
   44   20   43 1     
   45   20   44 1     
   46    9   45 1     
   47    9   46 1     
   48   14   47 1     
   49   15   48 1     
   50   19   49 1     
   51   19   50 1     
@<TRIPOS>SUBSTRUCTURE
      1 S1             1
@<TRIPOS>SET
LONE_PAIRS      STATIC     ATOMS    <user>   **** ""
6 45 46 47 48 49 50
DONOR_HYDROGENS      STATIC     ATOMS    <user>   **** ""
1 32
ATOM$BLUE        STATIC     ATOMS    COLORGROUP SYSTEM
6 45 46 47 48 49 50
ATOM$RED        STATIC     ATOMS    COLORGROUP SYSTEM
1 32
