AV-unprocessed.smi:3029|AV-procd|sdf|11530|dock4
  -GOLD-   2272016473D 1   1.00000     0.00000
 Structure written by MMmdl.
 41 42  0  0  0  0  0  0  0  0  3 V2000
  147.8214  141.6654  155.5321 O   0  0  0  0  0  0  0  0  0  0  0  0
  148.8295  140.9640  155.4469 C   0  0  0  0  0  0  0  0  0  0  0  0
  149.0241  140.0196  154.3420 C   0  0  0  0  0  0  0  0  0  0  0  0
  150.1226  139.2440  154.2579 C   0  0  0  0  0  0  0  0  0  0  0  0
  151.1572  139.3225  155.2706 C   0  0  0  0  0  0  0  0  0  0  0  0
  152.3327  138.4828  155.1992 N   0  3  0  0  0  0  0  0  0  0  0  0
  152.3546  137.5561  154.3946 O   0  0  0  0  0  0  0  0  0  0  0  0
  153.2744  138.7243  155.9474 O   0  5  0  0  0  0  0  0  0  0  0  0
  150.9797  140.1961  156.2809 C   0  0  0  0  0  0  0  0  0  0  0  0
  149.8339  141.0095  156.3748 N   0  0  0  0  0  0  0  0  0  0  0  0
  149.7491  141.8943  157.5470 C   0  0  0  0  0  0  0  0  0  0  0  0
  151.0687  142.6484  157.7927 C   0  0  0  0  0  0  0  0  0  0  0  0
  151.8029  142.0418  158.8936 N   0  0  0  0  0  0  0  0  0  0  0  0
  153.0356  142.7591  159.2030 C   0  0  1  0  0  0  0  0  0  0  0  0
  152.7060  144.2626  159.3200 C   0  0  0  0  0  0  0  0  0  0  0  0
  151.9361  144.6055  160.6077 C   0  0  0  0  0  0  0  0  0  0  0  0
  152.6648  144.0880  161.8547 C   0  0  0  0  0  0  0  0  0  0  0  0
  152.9272  142.5780  161.7561 C   0  0  0  0  0  0  0  0  0  0  0  0
  153.7316  142.2236  160.4868 C   0  0  1  0  0  0  0  0  0  0  0  0
  154.1395  140.7330  160.4393 C   0  0  0  0  0  0  0  0  0  0  0  0
  154.3848  140.2477  161.6562 F   0  0  0  0  0  0  0  0  0  0  0  0
  153.1764  140.0118  159.8658 F   0  0  0  0  0  0  0  0  0  0  0  0
  155.2441  140.5980  159.7054 F   0  0  0  0  0  0  0  0  0  0  0  0
  148.2652  139.9446  153.5771 H   0  0  0  0  0  0  0  0  0  0  0  0
  150.2198  138.5625  153.4254 H   0  0  0  0  0  0  0  0  0  0  0  0
  151.6854  140.3264  157.0888 H   0  0  0  0  0  0  0  0  0  0  0  0
  148.9538  142.6213  157.3764 H   0  0  0  0  0  0  0  0  0  0  0  0
  149.4445  141.3590  158.4480 H   0  0  0  0  0  0  0  0  0  0  0  0
  151.6717  142.6589  156.8853 H   0  0  0  0  0  0  0  0  0  0  0  0
  150.8549  143.6871  158.0468 H   0  0  0  0  0  0  0  0  0  0  0  0
  151.2109  142.0112  159.7115 H   0  0  0  0  0  0  0  0  0  0  0  0
  153.7258  142.6498  158.3648 H   0  0  0  0  0  0  0  0  0  0  0  0
  153.6394  144.8267  159.3121 H   0  0  0  0  0  0  0  0  0  0  0  0
  152.1461  144.6009  158.4469 H   0  0  0  0  0  0  0  0  0  0  0  0
  151.7983  145.6847  160.6804 H   0  0  0  0  0  0  0  0  0  0  0  0
  150.9358  144.1722  160.5656 H   0  0  0  0  0  0  0  0  0  0  0  0
  153.6107  144.6178  161.9729 H   0  0  0  0  0  0  0  0  0  0  0  0
  152.0757  144.3053  162.7460 H   0  0  0  0  0  0  0  0  0  0  0  0
  153.4656  142.2498  162.6453 H   0  0  0  0  0  0  0  0  0  0  0  0
  151.9787  142.0392  161.7569 H   0  0  0  0  0  0  0  0  0  0  0  0
  154.6700  142.7762  160.5602 H   0  0  0  0  0  0  0  0  0  0  0  0
  1  2  2  0  0  0  0
  2 10  1  0  0  0  0
  2  3  1  0  0  0  0
  3  4  2  0  0  0  0
  3 24  1  0  0  0  0
  4  5  1  0  0  0  0
  4 25  1  0  0  0  0
  5  6  1  0  0  0  0
  5  9  2  0  0  0  0
  6  7  2  0  0  0  0
  6  8  1  0  0  0  0
  9 10  1  0  0  0  0
  9 26  1  0  0  0  0
 10 11  1  0  0  0  0
 11 12  1  0  0  0  0
 11 27  1  0  0  0  0
 11 28  1  0  0  0  0
 12 13  1  0  0  0  0
 12 29  1  0  0  0  0
 12 30  1  0  0  0  0
 13 14  1  0  0  0  0
 13 31  1  0  0  0  0
 14 19  1  0  0  0  0
 14 15  1  0  0  0  0
 14 32  1  0  0  0  0
 15 16  1  0  0  0  0
 15 33  1  0  0  0  0
 15 34  1  0  0  0  0
 16 17  1  0  0  0  0
 16 35  1  0  0  0  0
 16 36  1  0  0  0  0
 17 18  1  0  0  0  0
 17 37  1  0  0  0  0
 17 38  1  0  0  0  0
 18 19  1  0  0  0  0
 18 39  1  0  0  0  0
 18 40  1  0  0  0  0
 19 20  1  0  0  0  0
 19 41  1  0  0  0  0
 20 21  1  0  0  0  0
 20 22  1  0  0  0  0
 20 23  1  0  0  0  0
M  CHG  1   6   1
M  CHG  1   8  -1
M  END
> <s_m_source_file>
AV-unprocessed.smi

> <i_m_source_file_index>
3029

> <i_lp_mmshare_version>
43012

> <i_f3d_flags>
0

> <s_epik_input>
Tz1jMVtjSF1bY0hdYyhbTitdKD1PKVtPLV0pW2NIXW4xW0NIMl1bQ0gyXVtOSF1bQ0BASF0yW0NIMl1bQ0gyXVtDSDJdW0NIMl1bQ0BIXTJDKEYpKEYpRg==

> <s_epik_cmdline>
J2VwaWtfcHl0aG9uJywgJy1waCcsICc3LjAnLCAnLXRuJywgJzgnLCAnLW1hJywgJzIwMCcsICctbWV0YWxfYmluZGluZycsICctaW1hZScsICc8aW5maWxlLm1hZT4nLCAnLW9tYWUnLCAnPG91dGZpbGUubWFlPic=

> <r_lp_tautomer_probability>
1

> <r_epik_Ionization_Penalty>
1.65565

> <r_epik_Ionization_Penalty_Charging>
3.32684e-10

> <r_epik_Ionization_Penalty_Neutral>
1.65565

> <r_epik_State_Penalty>
1.75811

> <r_epik_Charging_Adjusted_Penalty>
1.75811

> <i_epik_Tot_Q>
0

> <i_epik_Tot_abs_Q>
2

> <r_epik_Metal_State_Penalty>
1.75811

> <b_epik_Metal_Only>
0

> <s_lp_Force_Field>
OPLS_2005

> <r_lp_Energy>
39.0204

> <b_lp_Chiralities_Consistent>
1

> <s_lp_Variant>
AV-unprocessed.smi:3029-6

> <Gold.Version>
5.8.1

> <Gold.Id.Protein>
6NUR|6NUR_protein|mol2

> <Gold.PLP.Fitness>
58.1181

> <Gold.PLP.PLP>
-55.8178

> <Gold.PLP.part.hbond>
-1.9078

> <Gold.PLP.part.metal>
0.0000

> <Gold.PLP.part.buried>
-5.1491

> <Gold.PLP.part.nonpolar>
-48.7568

> <Gold.PLP.part.repulsive>
0.2022

> <Gold.PLP.ligand.clash>
0.0000

> <Gold.PLP.ligand.torsion>
1.2738

> <Gold.PLP.Chemscore.Hbond>
1.5680

> <Gold.PLP.Chemscore.CHOScore>
0.0000

> <Gold.PLP.Chemscore.Metal>
0.0000

> <Gold.Chemscore.Hbonds>
donor molecule, donor type, donor heavy atom, donor atom, acceptor molecule, acceptor atom, score
      P1  H  7997  8010       L1     8  1.00
      P1  H 10752 10765       L1     7  0.69

> <Gold.PLP.Chemscore.Internal.Correction>
0.1440

> <Gold.Rescore>
     Score         DG    S(hbond)    S(metal)    S(lipo)     H(rot)  DE(clash)    DE(int)     intcor
     18.45     -20.89       1.75        0.00     122.37       1.86       0.11       2.32       ----

> <Gold.Chemscore.Fitness>
18.4516

> <Gold.Chemscore.DG>
-20.8902

> <Gold.Chemscore.ZeroCoef>
-5.4800

> <Gold.Chemscore.Hbond>
1.7518

> <Gold.Chemscore.Metal>
0.0000

> <Gold.Chemscore.Lipo>
122.3652

> <Gold.Chemscore.Internal_Hbond>
0.0000

> <Gold.Chemscore.DEClash>
0.1140

> <Gold.Chemscore.DEInternal>
2.3246

> <Gold.Chemscore.Rot>
1.8584

> <Gold.Chemscore.Internal.Correction>
   9.000000E+99

> <Gold.Chemscore.Hbonds>
donor molecule, donor type, donor heavy atom, donor atom, acceptor molecule, acceptor atom, score
      P1  H  7997  8010       L1     8  0.94
      P1  H 10752 10765       L1     7  0.69

> <Gold.Chemscore.Hbond.Weighted>
-5.8510

> <Gold.Chemscore.Metal.Weighted>
-0.0000

> <Gold.Chemscore.Lipo.Weighted>
-14.3167

> <Gold.Chemscore.Internal_Hbond.Weighted>
0.0000

> <Gold.Chemscore.DEClash.Weighted>
0.1140

> <Gold.Chemscore.DEInternal.Weighted>
2.3246

> <Gold.Chemscore.Rot.Weighted>
4.7576

> <Gold.Chemscore.Internal.Correction.Weighted>
   9.000000E+99

> <Gold.Protein.RotatedTorsions>
[ 6907 6896 6895 6894 ] final  129.65 input  -60.11 | X-H torsion
[ 7974 7965 7964 7962 ] final  121.82 input  175.53 | X-H torsion
[ 8008 7997 7996 7995 ] final   81.03 input   59.86 | X-H torsion
[ 10167 10162 10161 10158 ] final   61.94 input  -65.29 | X-H torsion
[ 10718 10713 10712 10709 ] final  144.40 input   66.30 | X-H torsion
[ 10763 10752 10751 10750 ] final  151.73 input  -60.55 | X-H torsion
[ 11005 11000 10999 10996 ] final -165.44 input  -57.11 | X-H torsion

> <Gold.Protein.ActiveResidues>
 VAL166  LYS551  ARG553  GLY616  TRP617  ASP618  TYR619  PRO620  LYS621  CYS622 
 ASP623  PHE694  ASN695  SER759  ASP760  ASP761  ALA762  ILE779  LEU786  VAL792 
 PHE793  MET794  SER795  GLU796  ALA797  LYS798  CYS799  TRP800  GLU811  SER814 

> <Gold.Protein.RotatedAtoms>
  152.3604  133.6289  159.6010 H   0  0  0  0  0  0  0  0  0  0  0  0  # atno 6907 bound_to 6896
  150.7597  133.9433  159.3472 H   0  0  0  0  0  0  0  0  0  0  0  0  # atno 6908 bound_to 6896
  151.7272  135.0883  160.0345 H   0  0  0  0  0  0  0  0  0  0  0  0  # atno 6909 bound_to 6896
  145.1148  139.3428  143.4744 H   0  0  0  0  0  0  0  0  0  0  0  0  # atno 7974 bound_to 7965
  155.8916  140.3438  155.5960 H   0  0  0  0  0  0  0  0  0  0  0  0  # atno 8008 bound_to 7997
  155.7604  140.0832  157.2177 H   0  0  0  0  0  0  0  0  0  0  0  0  # atno 8009 bound_to 7997
  154.4034  140.1537  156.2813 H   0  0  0  0  0  0  0  0  0  0  0  0  # atno 8010 bound_to 7997
  140.1494  144.4477  150.6767 H   0  0  0  0  0  0  0  0  0  0  0  0  # atno 10167 bound_to 10162
  157.3576  131.0960  151.0944 H   0  0  0  0  0  0  0  0  0  0  0  0  # atno 10718 bound_to 10713
  154.1085  135.2840  155.3236 H   0  0  0  0  0  0  0  0  0  0  0  0  # atno 10763 bound_to 10752
  154.6506  135.5370  153.7900 H   0  0  0  0  0  0  0  0  0  0  0  0  # atno 10764 bound_to 10752
  153.0353  135.6509  154.1245 H   0  0  0  0  0  0  0  0  0  0  0  0  # atno 10765 bound_to 10752
  140.5756  134.5193  157.5169 H   0  0  0  0  0  0  0  0  0  0  0  0  # atno 11005 bound_to 11000
  146.3524  140.1082  142.8605 LP  0  0  0  0  0  0  0  0  0  0  0  0  # atno 17320 bound_to 7965
  145.0806  140.9218  143.4827 LP  0  0  0  0  0  0  0  0  0  0  0  0  # atno 17321 bound_to 7965
  140.6712  143.2286  151.5621 LP  0  0  0  0  0  0  0  0  0  0  0  0  # atno 17342 bound_to 10162
  139.5433  144.2588  152.1394 LP  0  0  0  0  0  0  0  0  0  0  0  0  # atno 17343 bound_to 10162
  157.2096  130.6432  149.5769 LP  0  0  0  0  0  0  0  0  0  0  0  0  # atno 17370 bound_to 10713
  155.9732  130.4664  150.6288 LP  0  0  0  0  0  0  0  0  0  0  0  0  # atno 17371 bound_to 10713
  139.9341  134.7908  156.0850 LP  0  0  0  0  0  0  0  0  0  0  0  0  # atno 17394 bound_to 11000
  141.1028  133.6671  156.2795 LP  0  0  0  0  0  0  0  0  0  0  0  0  # atno 17395 bound_to 11000

$$$$
