AV-unprocessed.smi:15|AV-procd|sdf|82|dock6
  -GOLD-   2262015213D 1   1.00000     0.00000
 Structure written by MMmdl.
 53 56  0  0  0  0  0  0  0  0  1 V2000
  149.0679  140.9526  155.4526 C   0  0  0  0  0  0  0  0  0  0  0  0
  148.9088  140.5419  156.9222 C   0  0  0  0  0  0  0  0  0  0  0  0
  150.1869  140.4693  157.6297 N   0  0  0  0  0  0  0  0  0  0  0  0
  151.3730  141.1214  157.0712 C   0  0  0  0  0  0  0  0  0  0  0  0
  151.9586  142.2116  157.9899 C   0  0  1  0  0  0  0  0  0  0  0  0
  151.4474  143.6153  157.6736 C   0  0  0  0  0  0  0  0  0  0  0  0
  151.6062  144.3601  158.9907 C   0  0  0  0  0  0  0  0  0  0  0  0
  151.8065  143.2493  160.0251 C   0  0  0  0  0  0  0  0  0  0  0  0
  151.5202  142.0451  159.3299 O   0  0  0  0  0  0  0  0  0  0  0  0
  150.4533  139.3259  158.3056 C   0  0  0  0  0  0  0  0  0  0  0  0
  151.7447  139.0900  158.6511 N   0  0  0  0  0  0  0  0  0  0  0  0
  152.0747  137.9627  159.2875 C   0  0  0  0  0  0  0  0  0  0  0  0
  151.2873  136.9501  159.6543 N   0  0  0  0  0  0  0  0  0  0  0  0
  149.9907  137.1753  159.2964 C   0  0  0  0  0  0  0  0  0  0  0  0
  149.4873  138.3306  158.6341 C   0  0  0  0  0  0  0  0  0  0  0  0
  148.1189  138.1960  158.4282 N   0  0  0  0  0  0  0  0  0  0  0  0
  147.8311  137.0304  158.9380 C   0  0  0  0  0  0  0  0  0  0  0  0
  148.8990  136.3411  159.4658 N   0  0  0  0  0  0  0  0  0  0  0  0
  148.8688  135.0149  160.0629 C   0  0  0  0  0  0  0  0  0  0  0  0
  147.7997  134.8667  161.1740 C   0  0  2  0  0  0  0  0  0  0  0  0
  146.5475  134.6169  160.5565 O   0  0  0  0  0  0  0  0  0  0  0  0
  147.6672  136.1360  162.0221 C   0  0  0  0  0  0  0  0  0  0  0  0
  148.1934  135.7243  163.3923 C   0  0  0  0  0  0  0  0  0  0  0  0
  147.8304  134.3576  163.4737 O   0  0  0  0  0  0  0  0  0  0  0  0
  148.1434  133.7722  162.2186 C   0  0  1  0  0  0  0  0  0  0  0  0
  147.4483  132.4092  162.0639 C   0  0  0  0  0  0  0  0  0  0  0  0
  148.0922  141.0679  154.9802 H   0  0  0  0  0  0  0  0  0  0  0  0
  149.6191  140.2072  154.8798 H   0  0  0  0  0  0  0  0  0  0  0  0
  149.5927  141.9042  155.3644 H   0  0  0  0  0  0  0  0  0  0  0  0
  148.2631  141.2718  157.4129 H   0  0  0  0  0  0  0  0  0  0  0  0
  148.3968  139.5817  156.9826 H   0  0  0  0  0  0  0  0  0  0  0  0
  152.1313  140.3598  156.8945 H   0  0  0  0  0  0  0  0  0  0  0  0
  151.1482  141.5408  156.0897 H   0  0  0  0  0  0  0  0  0  0  0  0
  153.0493  142.2089  157.9613 H   0  0  0  0  0  0  0  0  0  0  0  0
  151.9897  144.0842  156.8520 H   0  0  0  0  0  0  0  0  0  0  0  0
  150.3916  143.5784  157.4017 H   0  0  0  0  0  0  0  0  0  0  0  0
  152.4687  145.0269  158.9723 H   0  0  0  0  0  0  0  0  0  0  0  0
  150.7217  144.9597  159.2076 H   0  0  0  0  0  0  0  0  0  0  0  0
  152.8412  143.2260  160.3706 H   0  0  0  0  0  0  0  0  0  0  0  0
  151.1594  143.3633  160.8950 H   0  0  0  0  0  0  0  0  0  0  0  0
  153.1211  137.8534  159.5316 H   0  0  0  0  0  0  0  0  0  0  0  0
  146.8277  136.6306  158.9275 H   0  0  0  0  0  0  0  0  0  0  0  0
  148.6882  134.2869  159.2709 H   0  0  0  0  0  0  0  0  0  0  0  0
  149.8617  134.7949  160.4577 H   0  0  0  0  0  0  0  0  0  0  0  0
  146.1410  135.4476  160.3614 H   0  0  0  0  0  0  0  0  0  0  0  0
  148.2111  136.9893  161.6154 H   0  0  0  0  0  0  0  0  0  0  0  0
  146.6229  136.4370  162.1212 H   0  0  0  0  0  0  0  0  0  0  0  0
  149.2794  135.8212  163.4403 H   0  0  0  0  0  0  0  0  0  0  0  0
  147.7581  136.3074  164.2038 H   0  0  0  0  0  0  0  0  0  0  0  0
  149.2218  133.6098  162.2269 H   0  0  0  0  0  0  0  0  0  0  0  0
  147.6545  131.9693  161.0882 H   0  0  0  0  0  0  0  0  0  0  0  0
  146.3671  132.4936  162.1747 H   0  0  0  0  0  0  0  0  0  0  0  0
  147.8015  131.7084  162.8204 H   0  0  0  0  0  0  0  0  0  0  0  0
  1  2  1  0  0  0  0
  1 27  1  0  0  0  0
  1 28  1  0  0  0  0
  1 29  1  0  0  0  0
  2  3  1  0  0  0  0
  2 30  1  0  0  0  0
  2 31  1  0  0  0  0
  3  4  1  0  0  0  0
  3 10  1  0  0  0  0
  4  5  1  0  0  0  0
  4 32  1  0  0  0  0
  4 33  1  0  0  0  0
  5  9  1  0  0  0  0
  5  6  1  0  0  0  0
  5 34  1  0  0  0  0
  6  7  1  0  0  0  0
  6 35  1  0  0  0  0
  6 36  1  0  0  0  0
  7  8  1  0  0  0  0
  7 37  1  0  0  0  0
  7 38  1  0  0  0  0
  8  9  1  0  0  0  0
  8 39  1  0  0  0  0
  8 40  1  0  0  0  0
 10 15  1  0  0  0  0
 10 11  2  0  0  0  0
 11 12  1  0  0  0  0
 12 13  2  0  0  0  0
 12 41  1  0  0  0  0
 13 14  1  0  0  0  0
 14 18  1  0  0  0  0
 14 15  2  0  0  0  0
 15 16  1  0  0  0  0
 16 17  2  0  0  0  0
 17 18  1  0  0  0  0
 17 42  1  0  0  0  0
 18 19  1  0  0  0  0
 19 20  1  0  0  0  0
 19 43  1  0  0  0  0
 19 44  1  0  0  0  0
 20 25  1  0  0  0  0
 20 21  1  0  0  0  0
 20 22  1  0  0  0  0
 21 45  1  0  0  0  0
 22 23  1  0  0  0  0
 22 46  1  0  0  0  0
 22 47  1  0  0  0  0
 23 24  1  0  0  0  0
 23 48  1  0  0  0  0
 23 49  1  0  0  0  0
 24 25  1  0  0  0  0
 25 26  1  0  0  0  0
 25 50  1  0  0  0  0
 26 51  1  0  0  0  0
 26 52  1  0  0  0  0
 26 53  1  0  0  0  0
M  END
> <s_m_source_file>
AV-unprocessed.smi

> <i_m_source_file_index>
15

> <i_lp_mmshare_version>
43012

> <i_f3d_flags>
0

> <s_epik_input>
TzFbQ0gyXVtDSDJdW0NIMl1bQ0BIXTFbQ0gyXU4oW0NIMl1bQ0gzXSljKG5bY0hdbjIpYyhjMjMpbltjSF1uM1tDSDJdW0NAQF00KFtPSF0pW0NIMl1bQ0gyXU9bQ0BIXTRbQ0gzXQ==

> <s_epik_cmdline>
J2VwaWtfcHl0aG9uJywgJy1waCcsICc3LjAnLCAnLXRuJywgJzgnLCAnLW1hJywgJzIwMCcsICctbWV0YWxfYmluZGluZycsICctaW1hZScsICc8aW5maWxlLm1hZT4nLCAnLW9tYWUnLCAnPG91dGZpbGUubWFlPic=

> <r_lp_tautomer_probability>
1

> <r_epik_Ionization_Penalty>
0.00360814

> <r_epik_Ionization_Penalty_Charging>
0

> <r_epik_Ionization_Penalty_Neutral>
0.00360814

> <r_epik_State_Penalty>
0.00237482

> <r_epik_Charging_Adjusted_Penalty>
0.00237482

> <i_epik_Tot_Q>
0

> <i_epik_Tot_abs_Q>
0

> <r_epik_Metal_State_Penalty>
-0

> <b_epik_Metal_Only>
0

> <s_lp_Force_Field>
OPLS_2005

> <r_lp_Energy>
44.887

> <b_lp_Chiralities_Consistent>
1

> <s_lp_Variant>
AV-unprocessed.smi:15-4

> <Gold.Version>
5.8.1

> <Gold.Id.Protein>
6NUR|6NUR_protein|mol2

> <Gold.PLP.Fitness>
47.2423

> <Gold.PLP.PLP>
-46.0740

> <Gold.PLP.part.hbond>
-2.4183

> <Gold.PLP.part.metal>
0.0000

> <Gold.PLP.part.buried>
-8.5949

> <Gold.PLP.part.nonpolar>
-36.3253

> <Gold.PLP.part.repulsive>
0.0062

> <Gold.PLP.ligand.clash>
0.0000

> <Gold.PLP.ligand.torsion>
1.3881

> <Gold.PLP.Chemscore.Hbond>
1.0000

> <Gold.PLP.Chemscore.CHOScore>
0.0000

> <Gold.PLP.Chemscore.Metal>
0.0000

> <Gold.Chemscore.Hbonds>
donor molecule, donor type, donor heavy atom, donor atom, acceptor molecule, acceptor atom, score
      P1  H  6896  6907       L1    13  1.00

> <Gold.PLP.Chemscore.Internal.Correction>
0.9446

> <Gold.Rescore>
     Score         DG    S(hbond)    S(metal)    S(lipo)     H(rot)  DE(clash)    DE(int)     intcor
     12.95     -15.39       0.96        0.00     110.86       2.44       0.02       2.42       ----

> <Gold.Chemscore.Fitness>
12.9507

> <Gold.Chemscore.DG>
-15.3908

> <Gold.Chemscore.ZeroCoef>
-5.4800

> <Gold.Chemscore.Hbond>
0.9563

> <Gold.Chemscore.Metal>
0.0000

> <Gold.Chemscore.Lipo>
110.8647

> <Gold.Chemscore.Internal_Hbond>
0.0000

> <Gold.Chemscore.DEClash>
0.0207

> <Gold.Chemscore.DEInternal>
2.4194

> <Gold.Chemscore.Rot>
2.4431

> <Gold.Chemscore.Internal.Correction>
   9.000000E+99

> <Gold.Chemscore.Hbonds>
donor molecule, donor type, donor heavy atom, donor atom, acceptor molecule, acceptor atom, score
      P1  H  6896  6907       L1    13  0.60

> <Gold.Chemscore.Hbond.Weighted>
-3.1941

> <Gold.Chemscore.Metal.Weighted>
-0.0000

> <Gold.Chemscore.Lipo.Weighted>
-12.9712

> <Gold.Chemscore.Internal_Hbond.Weighted>
0.0000

> <Gold.Chemscore.DEClash.Weighted>
0.0207

> <Gold.Chemscore.DEInternal.Weighted>
2.4194

> <Gold.Chemscore.Rot.Weighted>
6.2544

> <Gold.Chemscore.Internal.Correction.Weighted>
   9.000000E+99

> <Gold.Protein.RotatedTorsions>
[ 6907 6896 6895 6894 ] final   -6.28 input  -60.11 | X-H torsion
[ 7974 7965 7964 7962 ] final  -58.33 input  175.53 | X-H torsion
[ 8008 7997 7996 7995 ] final   10.41 input   59.86 | X-H torsion
[ 10167 10162 10161 10158 ] final -103.35 input  -65.29 | X-H torsion
[ 10718 10713 10712 10709 ] final   65.48 input   66.30 | X-H torsion
[ 10763 10752 10751 10750 ] final  105.94 input  -60.55 | X-H torsion
[ 11005 11000 10999 10996 ] final -128.09 input  -57.11 | X-H torsion

> <Gold.Protein.ActiveResidues>
 VAL166  LYS551  ARG553  GLY616  TRP617  ASP618  TYR619  PRO620  LYS621  CYS622 
 ASP623  PHE694  ASN695  SER759  ASP760  ASP761  ALA762  ILE779  LEU786  VAL792 
 PHE793  MET794  SER795  GLU796  ALA797  LYS798  CYS799  TRP800  GLU811  SER814 

> <Gold.Protein.RotatedAtoms>
  151.4681  135.1043  159.9743 H   0  0  0  0  0  0  0  0  0  0  0  0  # atno 6907 bound_to 6896
  152.4827  133.8290  159.7104 H   0  0  0  0  0  0  0  0  0  0  0  0  # atno 6908 bound_to 6896
  150.8911  133.7181  159.2931 H   0  0  0  0  0  0  0  0  0  0  0  0  # atno 6909 bound_to 6896
  145.8406  140.8419  143.0036 H   0  0  0  0  0  0  0  0  0  0  0  0  # atno 7974 bound_to 7965
  154.7931  140.2839  155.5977 H   0  0  0  0  0  0  0  0  0  0  0  0  # atno 8008 bound_to 7997
  156.2967  140.2601  156.2711 H   0  0  0  0  0  0  0  0  0  0  0  0  # atno 8009 bound_to 7997
  154.9647  140.0377  157.2196 H   0  0  0  0  0  0  0  0  0  0  0  0  # atno 8010 bound_to 7997
  140.2209  143.3676  152.0970 H   0  0  0  0  0  0  0  0  0  0  0  0  # atno 10167 bound_to 10162
  157.6108  130.9216  149.9982 H   0  0  0  0  0  0  0  0  0  0  0  0  # atno 10718 bound_to 10713
  153.3862  135.3893  155.1891 H   0  0  0  0  0  0  0  0  0  0  0  0  # atno 10763 bound_to 10752
  154.8714  135.3737  154.4795 H   0  0  0  0  0  0  0  0  0  0  0  0  # atno 10764 bound_to 10752
  153.5277  135.7086  153.5760 H   0  0  0  0  0  0  0  0  0  0  0  0  # atno 10765 bound_to 10752
  140.9545  134.1020  157.4030 H   0  0  0  0  0  0  0  0  0  0  0  0  # atno 11005 bound_to 11000
  144.6734  140.0807  143.7469 LP  0  0  0  0  0  0  0  0  0  0  0  0  # atno 17320 bound_to 7965
  145.9469  139.2707  143.1235 LP  0  0  0  0  0  0  0  0  0  0  0  0  # atno 17321 bound_to 7965
  139.5144  144.6948  151.5661 LP  0  0  0  0  0  0  0  0  0  0  0  0  # atno 17342 bound_to 10162
  140.6255  143.9176  150.6561 LP  0  0  0  0  0  0  0  0  0  0  0  0  # atno 17343 bound_to 10162
  156.1210  130.3646  149.9887 LP  0  0  0  0  0  0  0  0  0  0  0  0  # atno 17370 bound_to 10713
  156.7967  130.9276  151.3646 LP  0  0  0  0  0  0  0  0  0  0  0  0  # atno 17371 bound_to 10713
  139.8858  135.0075  156.6456 LP  0  0  0  0  0  0  0  0  0  0  0  0  # atno 17394 bound_to 11000
  140.7556  133.8861  155.8379 LP  0  0  0  0  0  0  0  0  0  0  0  0  # atno 17395 bound_to 11000

$$$$
