AV-unprocessed.smi:2632|AV-procd|sdf|10250|dock5
  -GOLD-   2272014263D 1   1.00000     0.00000
 Structure written by MMmdl.
 38 39  0  0  0  0  0  0  0  0  1 V2000
  143.9557  144.2818  154.8410 C   0  0  0  0  0  0  0  0  0  0  0  0
  144.3183  143.0036  155.3313 O   0  0  0  0  0  0  0  0  0  0  0  0
  145.7233  142.8146  155.3747 C   0  0  0  0  0  0  0  0  0  0  0  0
  146.0371  141.4376  155.9835 C   0  0  0  0  0  0  0  0  0  0  0  0
  147.3993  141.0085  155.7359 N   0  0  0  0  0  0  0  0  0  0  0  0
  148.3247  140.7390  156.7478 C   0  0  0  0  0  0  0  0  0  0  0  0
  147.9345  140.8645  158.0704 N   0  0  0  0  0  0  0  0  0  0  0  0
  149.5994  140.3756  156.4503 C   0  0  0  0  0  0  0  0  0  0  0  0
  150.8759  140.0349  157.6384 S   0  0  0  0  0  0  0  0  0  0  0  0
  151.1626  141.6468  158.2930 C   0  0  0  0  0  0  0  0  0  0  0  0
  150.3770  142.7328  157.8586 C   0  0  0  0  0  0  0  0  0  0  0  0
  150.6134  144.0213  158.3754 C   0  0  0  0  0  0  0  0  0  0  0  0
  151.6331  144.2263  159.3282 C   0  0  0  0  0  0  0  0  0  0  0  0
  151.8851  145.6146  159.8795 C   0  0  0  0  0  0  0  0  0  0  0  0
  152.4176  143.1361  159.7602 C   0  0  0  0  0  0  0  0  0  0  0  0
  152.1819  141.8468  159.2443 C   0  0  0  0  0  0  0  0  0  0  0  0
  150.0746  140.2419  155.0714 C   0  0  0  0  0  0  0  0  0  0  0  0
  151.2033  139.9082  154.7111 O   0  0  0  0  0  0  0  0  0  0  0  0
  149.1062  140.5393  154.1132 N   0  0  0  0  0  0  0  0  0  0  0  0
  147.7929  140.9256  154.3763 C   0  0  0  0  0  0  0  0  0  0  0  0
  147.0393  141.1802  153.4361 O   0  0  0  0  0  0  0  0  0  0  0  0
  149.3819  140.4741  153.1441 H   0  0  0  0  0  0  0  0  0  0  0  0
  142.8699  144.3755  154.8332 H   0  0  0  0  0  0  0  0  0  0  0  0
  144.3154  144.4297  153.8220 H   0  0  0  0  0  0  0  0  0  0  0  0
  144.3566  145.0750  155.4735 H   0  0  0  0  0  0  0  0  0  0  0  0
  146.1289  142.8673  154.3634 H   0  0  0  0  0  0  0  0  0  0  0  0
  146.1971  143.6082  155.9543 H   0  0  0  0  0  0  0  0  0  0  0  0
  145.8814  141.4317  157.0617 H   0  0  0  0  0  0  0  0  0  0  0  0
  145.3730  140.6632  155.5955 H   0  0  0  0  0  0  0  0  0  0  0  0
  146.9977  141.1461  158.3212 H   0  0  0  0  0  0  0  0  0  0  0  0
  148.5251  140.5526  158.8281 H   0  0  0  0  0  0  0  0  0  0  0  0
  149.5962  142.5826  157.1276 H   0  0  0  0  0  0  0  0  0  0  0  0
  150.0104  144.8515  158.0380 H   0  0  0  0  0  0  0  0  0  0  0  0
  152.4344  145.5711  160.8204 H   0  0  0  0  0  0  0  0  0  0  0  0
  150.9428  146.1318  160.0627 H   0  0  0  0  0  0  0  0  0  0  0  0
  152.4674  146.2018  159.1691 H   0  0  0  0  0  0  0  0  0  0  0  0
  153.2027  143.2843  160.4872 H   0  0  0  0  0  0  0  0  0  0  0  0
  152.7869  141.0154  159.5753 H   0  0  0  0  0  0  0  0  0  0  0  0
  1  2  1  0  0  0  0
  1 23  1  0  0  0  0
  1 24  1  0  0  0  0
  1 25  1  0  0  0  0
  2  3  1  0  0  0  0
  3  4  1  0  0  0  0
  3 26  1  0  0  0  0
  3 27  1  0  0  0  0
  4  5  1  0  0  0  0
  4 28  1  0  0  0  0
  4 29  1  0  0  0  0
  5 20  1  0  0  0  0
  5  6  1  0  0  0  0
  6  7  1  0  0  0  0
  6  8  2  0  0  0  0
  7 30  1  0  0  0  0
  7 31  1  0  0  0  0
  8  9  1  0  0  0  0
  8 17  1  0  0  0  0
  9 10  1  0  0  0  0
 10 16  1  0  0  0  0
 10 11  2  0  0  0  0
 11 12  1  0  0  0  0
 11 32  1  0  0  0  0
 12 13  2  0  0  0  0
 12 33  1  0  0  0  0
 13 14  1  0  0  0  0
 13 15  1  0  0  0  0
 14 34  1  0  0  0  0
 14 35  1  0  0  0  0
 14 36  1  0  0  0  0
 15 16  2  0  0  0  0
 15 37  1  0  0  0  0
 16 38  1  0  0  0  0
 17 18  2  0  0  0  0
 17 19  1  0  0  0  0
 19 22  1  0  0  0  0
 19 20  1  0  0  0  0
 20 21  2  0  0  0  0
M  END
> <s_m_source_file>
AV-unprocessed.smi

> <i_m_source_file_index>
2632

> <i_lp_mmshare_version>
43012

> <i_f3d_flags>
0

> <s_epik_input>
W0NIM11PW0NIMl1bQ0gyXW4xYyhbTkgyXSljKGMoPU8pW25IXWMxPU8pU2MyW2NIXVtjSF1jKFtDSDNdKVtjSF1bY0hdMg==

> <s_epik_cmdline>
J2VwaWtfcHl0aG9uJywgJy1waCcsICc3LjAnLCAnLXRuJywgJzgnLCAnLW1hJywgJzIwMCcsICctbWV0YWxfYmluZGluZycsICctaW1hZScsICc8aW5maWxlLm1hZT4nLCAnLW9tYWUnLCAnPG91dGZpbGUubWFlPic=

> <r_lp_tautomer_probability>
1

> <r_epik_Ionization_Penalty>
1.3786e-05

> <r_epik_Ionization_Penalty_Charging>
1.17844e-05

> <r_epik_Ionization_Penalty_Neutral>
2.00164e-06

> <r_epik_State_Penalty>
-0

> <r_epik_Charging_Adjusted_Penalty>
1.17844e-05

> <i_epik_Tot_Q>
0

> <i_epik_Tot_abs_Q>
0

> <r_epik_Metal_State_Penalty>
0.0115847

> <b_epik_Metal_Only>
0

> <s_epik_Chemistry_Notes>
This compound has an imine and may undergo hydrolysis.

> <s_lp_Force_Field>
OPLS_2005

> <r_lp_Energy>
18.7052

> <b_lp_Chiralities_Consistent>
1

> <s_lp_Variant>
AV-unprocessed.smi:2632-1

> <Gold.Version>
5.8.1

> <Gold.Id.Protein>
6NUR|6NUR_protein|mol2

> <Gold.PLP.Fitness>
42.0226

> <Gold.PLP.PLP>
-36.3305

> <Gold.PLP.part.hbond>
-2.0000

> <Gold.PLP.part.metal>
0.0000

> <Gold.PLP.part.buried>
-4.5996

> <Gold.PLP.part.nonpolar>
-31.3726

> <Gold.PLP.part.repulsive>
0.7650

> <Gold.PLP.ligand.clash>
0.0000

> <Gold.PLP.ligand.torsion>
0.1659

> <Gold.PLP.Chemscore.Hbond>
2.0000

> <Gold.PLP.Chemscore.CHOScore>
0.0000

> <Gold.PLP.Chemscore.Metal>
0.0000

> <Gold.Chemscore.Hbonds>
donor molecule, donor type, donor heavy atom, donor atom, acceptor molecule, acceptor atom, score
      L1  H    19    22       P1  7957  0.98
      P1  H  7989  7998       L1    18  1.00

> <Gold.PLP.Chemscore.Internal.Correction>
0.0240

> <Gold.Rescore>
     Score         DG    S(hbond)    S(metal)    S(lipo)     H(rot)  DE(clash)    DE(int)     intcor
     15.78     -16.79       1.72        0.00      91.86       2.02       0.01       0.99       ----

> <Gold.Chemscore.Fitness>
15.7844

> <Gold.Chemscore.DG>
-16.7904

> <Gold.Chemscore.ZeroCoef>
-5.4800

> <Gold.Chemscore.Hbond>
1.7152

> <Gold.Chemscore.Metal>
0.0000

> <Gold.Chemscore.Lipo>
91.8618

> <Gold.Chemscore.Internal_Hbond>
0.0000

> <Gold.Chemscore.DEClash>
0.0146

> <Gold.Chemscore.DEInternal>
0.9914

> <Gold.Chemscore.Rot>
2.0180

> <Gold.Chemscore.Internal.Correction>
   9.000000E+99

> <Gold.Chemscore.Hbonds>
donor molecule, donor type, donor heavy atom, donor atom, acceptor molecule, acceptor atom, score
      L1  H    19    22       P1  7957  0.91
      P1  H  7989  7998       L1    18  0.64

> <Gold.Chemscore.Hbond.Weighted>
-5.7287

> <Gold.Chemscore.Metal.Weighted>
-0.0000

> <Gold.Chemscore.Lipo.Weighted>
-10.7478

> <Gold.Chemscore.Internal_Hbond.Weighted>
0.0000

> <Gold.Chemscore.DEClash.Weighted>
0.0146

> <Gold.Chemscore.DEInternal.Weighted>
0.9914

> <Gold.Chemscore.Rot.Weighted>
5.1661

> <Gold.Chemscore.Internal.Correction.Weighted>
   9.000000E+99

> <Gold.Protein.RotatedTorsions>
[ 6907 6896 6895 6894 ] final   54.53 input  -60.11 | X-H torsion
[ 7974 7965 7964 7962 ] final -128.25 input  175.53 | X-H torsion
[ 8008 7997 7996 7995 ] final  -25.27 input   59.86 | X-H torsion
[ 10167 10162 10161 10158 ] final   95.75 input  -65.29 | X-H torsion
[ 10718 10713 10712 10709 ] final  136.61 input   66.30 | X-H torsion
[ 10763 10752 10751 10750 ] final -137.18 input  -60.55 | X-H torsion
[ 11005 11000 10999 10996 ] final   45.21 input  -57.11 | X-H torsion

> <Gold.Protein.ActiveResidues>
 VAL166  LYS551  ARG553  GLY616  TRP617  ASP618  TYR619  PRO620  LYS621  CYS622 
 ASP623  PHE694  ASN695  SER759  ASP760  ASP761  ALA762  ILE779  LEU786  VAL792 
 PHE793  MET794  SER795  GLU796  ALA797  LYS798  CYS799  TRP800  GLU811  SER814 

> <Gold.Protein.RotatedAtoms>
  152.3448  134.7086  160.0253 H   0  0  0  0  0  0  0  0  0  0  0  0  # atno 6907 bound_to 6896
  151.7460  133.3319  159.3386 H   0  0  0  0  0  0  0  0  0  0  0  0  # atno 6908 bound_to 6896
  150.7502  134.6168  159.6160 H   0  0  0  0  0  0  0  0  0  0  0  0  # atno 6909 bound_to 6896
  144.9689  140.7524  143.4683 H   0  0  0  0  0  0  0  0  0  0  0  0  # atno 7974 bound_to 7965
  154.4485  140.1931  156.0593 H   0  0  0  0  0  0  0  0  0  0  0  0  # atno 8008 bound_to 7997
  156.0595  140.3298  155.7418 H   0  0  0  0  0  0  0  0  0  0  0  0  # atno 8009 bound_to 7997
  155.5433  140.0588  157.2856 H   0  0  0  0  0  0  0  0  0  0  0  0  # atno 8010 bound_to 7997
  139.7959  144.6833  150.9829 H   0  0  0  0  0  0  0  0  0  0  0  0  # atno 10167 bound_to 10162
  157.4448  131.1061  151.0102 H   0  0  0  0  0  0  0  0  0  0  0  0  # atno 10718 bound_to 10713
  154.8667  135.3650  154.5181 H   0  0  0  0  0  0  0  0  0  0  0  0  # atno 10763 bound_to 10752
  153.5813  135.7018  153.5467 H   0  0  0  0  0  0  0  0  0  0  0  0  # atno 10764 bound_to 10752
  153.3455  135.4086  155.1567 H   0  0  0  0  0  0  0  0  0  0  0  0  # atno 10765 bound_to 10752
  140.1480  134.4498  155.8402 H   0  0  0  0  0  0  0  0  0  0  0  0  # atno 11005 bound_to 11000
  145.2589  139.2001  143.4903 LP  0  0  0  0  0  0  0  0  0  0  0  0  # atno 17320 bound_to 7965
  146.3376  140.2515  142.8598 LP  0  0  0  0  0  0  0  0  0  0  0  0  # atno 17321 bound_to 7965
  140.7820  143.4332  151.0663 LP  0  0  0  0  0  0  0  0  0  0  0  0  # atno 17342 bound_to 10162
  139.8006  143.8089  152.3162 LP  0  0  0  0  0  0  0  0  0  0  0  0  # atno 17343 bound_to 10162
  157.0952  130.5959  149.5448 LP  0  0  0  0  0  0  0  0  0  0  0  0  # atno 17370 bound_to 10713
  155.9963  130.5032  150.7491 LP  0  0  0  0  0  0  0  0  0  0  0  0  # atno 17371 bound_to 10713
  141.2195  133.6860  156.7370 LP  0  0  0  0  0  0  0  0  0  0  0  0  # atno 17394 bound_to 11000
  140.2639  134.8445  157.3785 LP  0  0  0  0  0  0  0  0  0  0  0  0  # atno 17395 bound_to 11000

$$$$
