#       Name:                AV-unprocessed.smi:951
#       Creating user name   scv26
#       Creation time:       Fri Mar 27 02:16:15 2020


#       File generated by GOLD software.
#

@<TRIPOS>MOLECULE
AV-unprocessed.smi:951
    56    58     1
SMALL
NO_CHARGES


@<TRIPOS>ATOM
      1 ****         1.3893   0.5062   0.7561 O.2            1 S1                 0.0000
      2 ****         1.0171  -0.6361   0.4843 C.2            1 S1                 0.0000
      3 ****         1.8630  -1.6530   0.2553 N.am           1 S1                 0.0000
      4 ****         3.3208  -1.5687   0.2976 C.3            1 S1                 0.0000
      5 ****         3.9061  -2.0764   1.6303 C.3            1 S1                 0.0000
      6 ****         3.3758  -1.3499   2.8552 C.ar           1 S1                 0.0000
      7 ****         3.9662  -0.1604   3.3335 C.ar           1 S1                 0.0000
      8 ****         3.4073   0.4828   4.4576 C.ar           1 S1                 0.0000
      9 ****         2.2714  -0.0760   5.0792 C.ar           1 S1                 0.0000
     10 ****         1.7218  -1.2656   4.5602 C.ar           1 S1                 0.0000
     11 ****         2.2859  -1.8517   3.4817 N.pl3          1 S1                 1.0000
     12 ****        -0.4847  -0.9776   0.4439 C.3            1 S1                 0.0000
     13 ****        -1.0270  -1.0607   1.8803 C.3            1 S1                 0.0000
     14 ****        -2.4802  -0.6468   1.7684 C.3            1 S1                 0.0000
     15 ****        -2.5180   0.3170   0.5842 C.3            1 S1                 0.0000
     16 ****        -1.3377   0.0201  -0.2343 N.am           1 S1                 0.0000
     17 ****        -1.1210   0.5219  -1.4785 C.2            1 S1                 0.0000
     18 ****        -0.1787   0.1399  -2.1731 O.2            1 S1                 0.0000
     19 ****        -2.0862   1.5909  -2.0497 C.3            1 S1                 0.0000
     20 ****        -3.2141   0.9562  -2.8969 C.3            1 S1                 0.0000
     21 ****        -2.7456   0.5137  -4.2940 C.3            1 S1                 0.0000
     22 ****        -2.1207   1.6877  -5.0603 C.3            1 S1                 0.0000
     23 ****        -0.9496   2.3000  -4.2781 C.3            1 S1                 0.0000
     24 ****        -1.3677   2.7083  -2.8502 C.3            1 S1                 0.0000
     25 ****         1.4660  -2.5549   0.0341 H              1 S1                 0.0000
     26 ****         3.7174  -2.1656  -0.5240 H              1 S1                 0.0000
     27 ****         3.6527  -0.5457   0.1123 H              1 S1                 0.0000
     28 ****         3.6989  -3.1423   1.7369 H              1 S1                 0.0000
     29 ****         4.9923  -1.9825   1.6100 H              1 S1                 0.0000
     30 ****         4.8312   0.2600   2.8410 H              1 S1                 0.0000
     31 ****         3.8435   1.3951   4.8373 H              1 S1                 0.0000
     32 ****         1.8274   0.4023   5.9400 H              1 S1                 0.0000
     33 ****         0.8531  -1.7606   4.9692 H              1 S1                 0.0000
     34 ****        -0.6364  -1.9335  -0.0613 H              1 S1                 0.0000
     35 ****        -0.9112  -2.0548   2.3135 H              1 S1                 0.0000
     36 ****        -0.5163  -0.3555   2.5392 H              1 S1                 0.0000
     37 ****        -3.0854  -1.5246   1.5379 H              1 S1                 0.0000
     38 ****        -2.8706  -0.2066   2.6864 H              1 S1                 0.0000
     39 ****        -3.4500   0.2110   0.0280 H              1 S1                 0.0000
     40 ****        -2.4495   1.3440   0.9457 H              1 S1                 0.0000
     41 ****        -2.5542   2.1048  -1.2120 H              1 S1                 0.0000
     42 ****        -3.6502   0.1039  -2.3745 H              1 S1                 0.0000
     43 ****        -4.0224   1.6801  -3.0077 H              1 S1                 0.0000
     44 ****        -2.0236  -0.2991  -4.2093 H              1 S1                 0.0000
     45 ****        -3.5906   0.1147  -4.8558 H              1 S1                 0.0000
     46 ****        -1.7785   1.3533  -6.0400 H              1 S1                 0.0000
     47 ****        -2.8788   2.4508  -5.2411 H              1 S1                 0.0000
     48 ****        -0.1229   1.5912  -4.2473 H              1 S1                 0.0000
     49 ****        -0.5709   3.1728  -4.8106 H              1 S1                 0.0000
     50 ****        -2.0371   3.5666  -2.9204 H              1 S1                 0.0000
     51 ****        -0.4941   3.0625  -2.3012 H              1 S1                 0.0000
     52 ****         1.8675  -2.7084   3.1190 H              1 S1                 0.0000
     53 ****         2.3659   0.7131   0.8154 LP             1 S1                 0.0000
     54 ****         0.7149   1.2267   0.9176 LP             1 S1                 0.0000
     55 ****         0.4494  -0.5559  -1.8247 LP             1 S1                 0.0000
     56 ****        -0.0416   0.5255  -3.0855 LP             1 S1                 0.0000
@<TRIPOS>BOND
    1    1    2 2     
    2    2    3 am    
    3    2   12 1     
    4    3    4 1     
    5    3   25 1     
    6    4    5 1     
    7    4   26 1     
    8    4   27 1     
    9    5    6 1     
   10    5   28 1     
   11    5   29 1     
   12    6   11 ar    
   13    6    7 ar    
   14    7    8 ar    
   15    7   30 1     
   16    8    9 ar    
   17    8   31 1     
   18    9   10 ar    
   19    9   32 1     
   20   10   11 ar    
   21   10   33 1     
   22   11   52 1     
   23   12   16 1     
   24   12   13 1     
   25   12   34 1     
   26   13   14 1     
   27   13   35 1     
   28   13   36 1     
   29   14   15 1     
   30   14   37 1     
   31   14   38 1     
   32   15   16 1     
   33   15   39 1     
   34   15   40 1     
   35   16   17 am    
   36   17   18 2     
   37   17   19 1     
   38   19   24 1     
   39   19   20 1     
   40   19   41 1     
   41   20   21 1     
   42   20   42 1     
   43   20   43 1     
   44   21   22 1     
   45   21   44 1     
   46   21   45 1     
   47   22   23 1     
   48   22   46 1     
   49   22   47 1     
   50   23   24 1     
   51   23   48 1     
   52   23   49 1     
   53   24   50 1     
   54   24   51 1     
   55    1   53 1     
   56    1   54 1     
   57   18   55 1     
   58   18   56 1     
@<TRIPOS>SUBSTRUCTURE
      1 S1             1
@<TRIPOS>SET
LONE_PAIRS      STATIC     ATOMS    <user>   **** ""
4 53 54 55 56
DONOR_HYDROGENS      STATIC     ATOMS    <user>   **** ""
2 25 52
ATOM$BLUE        STATIC     ATOMS    COLORGROUP SYSTEM
4 53 54 55 56
ATOM$RED        STATIC     ATOMS    COLORGROUP SYSTEM
2 25 52
