#       Name:                AV-unprocessed.smi:1154
#       Creating user name   scv26
#       Creation time:       Fri Mar 27 03:47:32 2020


#       File generated by GOLD software.
#

@<TRIPOS>MOLECULE
AV-unprocessed.smi:1154
    47    48     1
SMALL
NO_CHARGES


@<TRIPOS>ATOM
      1 ****         0.1042   3.2794  -2.1182 C.3            1 S1                 0.0000
      2 ****        -0.6463   2.0599  -2.6819 C.3            1 S1                 0.0000
      3 ****        -2.1745   2.1721  -2.5295 C.3            1 S1                 0.0000
      4 ****        -2.6203   1.9453  -1.0735 C.3            1 S1                 0.0000
      5 ****        -4.1495   1.9924  -0.9434 C.3            1 S1                 0.0000
      6 ****        -2.0507   0.6164  -0.5406 C.3            1 S1                 0.0000
      7 ****        -0.5710   0.5704  -0.6669 N.4            1 S1                 1.0000
      8 ****         0.0130  -0.6270  -0.0111 C.3            1 S1                 0.0000
      9 ****         1.4870  -0.4209   0.3743 C.3            1 S1                 0.0000
     10 ****         2.0045  -1.5957   1.0613 N.am           1 S1                 0.0000
     11 ****         3.1935  -1.6462   1.6817 C.2            1 S1                 0.0000
     12 ****         3.9806  -0.7007   1.7047 O.2            1 S1                 0.0000
     13 ****         3.5589  -2.9614   2.3754 C.3            1 S1                 0.0000
     14 ****         2.5798  -3.3281   3.3830 N.pl3          1 S1                 0.0000
     15 ****         1.5883  -4.2210   3.3573 C.2            1 S1                 0.0000
     16 ****         0.9111  -4.2329   4.4949 N.2            1 S1                 0.0000
     17 ****         1.5583  -3.2741   5.2565 N.2            1 S1                 0.0000
     18 ****         2.5501  -2.7346   4.6026 N.2            1 S1                 0.0000
     19 ****        -0.1389   0.7340  -2.0811 C.3            1 S1                 0.0000
     20 ****        -0.0216   3.3750  -1.0398 H              1 S1                 0.0000
     21 ****        -0.2496   4.2034  -2.5766 H              1 S1                 0.0000
     22 ****         1.1736   3.2057  -2.3179 H              1 S1                 0.0000
     23 ****        -0.4299   2.0367  -3.7509 H              1 S1                 0.0000
     24 ****        -2.5186   3.1438  -2.8863 H              1 S1                 0.0000
     25 ****        -2.6500   1.4281  -3.1704 H              1 S1                 0.0000
     26 ****        -2.2206   2.7545  -0.4612 H              1 S1                 0.0000
     27 ****        -4.6233   1.2040  -1.5293 H              1 S1                 0.0000
     28 ****        -4.5436   2.9477  -1.2913 H              1 S1                 0.0000
     29 ****        -4.4599   1.8675   0.0943 H              1 S1                 0.0000
     30 ****        -2.3300   0.5056   0.5082 H              1 S1                 0.0000
     31 ****        -2.4874  -0.2287  -1.0757 H              1 S1                 0.0000
     32 ****        -0.5438  -0.8443   0.9019 H              1 S1                 0.0000
     33 ****        -0.1040  -1.4981  -0.6578 H              1 S1                 0.0000
     34 ****         2.1052  -0.2385  -0.5047 H              1 S1                 0.0000
     35 ****         1.5803   0.4526   1.0221 H              1 S1                 0.0000
     36 ****         1.4179  -2.4175   1.0812 H              1 S1                 0.0000
     37 ****         3.6234  -3.7599   1.6353 H              1 S1                 0.0000
     38 ****         4.5386  -2.8793   2.8487 H              1 S1                 0.0000
     39 ****         1.3599  -4.8510   2.5102 H              1 S1                 0.0000
     40 ****        -0.5184  -0.1047  -2.6672 H              1 S1                 0.0000
     41 ****         0.9470   0.6978  -2.1603 H              1 S1                 0.0000
     42 ****        -0.2231   1.3708  -0.1581 H              1 S1                 0.0000
     43 ****         3.7458   0.1567   1.2466 LP             1 S1                 0.0000
     44 ****         4.8551  -0.7896   2.1815 LP             1 S1                 0.0000
     45 ****         0.1238  -4.7970   4.7437 LP             1 S1                 0.0000
     46 ****         1.2982  -3.0265   6.1898 LP             1 S1                 0.0000
     47 ****         3.1680  -2.0223   4.9356 LP             1 S1                 0.0000
@<TRIPOS>BOND
    1    1    2 1     
    2    1   20 1     
    3    1   21 1     
    4    1   22 1     
    5    2   19 1     
    6    2    3 1     
    7    2   23 1     
    8    3    4 1     
    9    3   24 1     
   10    3   25 1     
   11    4    5 1     
   12    4    6 1     
   13    4   26 1     
   14    5   27 1     
   15    5   28 1     
   16    5   29 1     
   17    6    7 1     
   18    6   30 1     
   19    6   31 1     
   20    7    8 1     
   21    7   19 1     
   22    7   42 1     
   23    8    9 1     
   24    8   32 1     
   25    8   33 1     
   26    9   10 1     
   27    9   34 1     
   28    9   35 1     
   29   10   11 am    
   30   10   36 1     
   31   11   12 2     
   32   11   13 1     
   33   13   14 1     
   34   13   37 1     
   35   13   38 1     
   36   14   18 1     
   37   14   15 1     
   38   15   16 2     
   39   15   39 1     
   40   16   17 1     
   41   17   18 2     
   42   19   40 1     
   43   19   41 1     
   44   12   43 1     
   45   12   44 1     
   46   16   45 1     
   47   17   46 1     
   48   18   47 1     
@<TRIPOS>SUBSTRUCTURE
      1 S1             1
@<TRIPOS>SET
LONE_PAIRS      STATIC     ATOMS    <user>   **** ""
5 43 44 45 46 47
DONOR_HYDROGENS      STATIC     ATOMS    <user>   **** ""
2 42 36
ATOM$BLUE        STATIC     ATOMS    COLORGROUP SYSTEM
5 43 44 45 46 47
ATOM$RED        STATIC     ATOMS    COLORGROUP SYSTEM
2 42 36
