AV-unprocessed.smi:2962|AV-procd|sdf|11318|dock7
  -GOLD-   2272016223D 1   1.00000     0.00000
 Structure written by MMmdl.
 37 38  0  0  0  0  0  0  0  0  2 V2000
  150.3317  138.3491  154.4295 C   0  0  0  0  0  0  0  0  0  0  0  0
  151.2816  139.3997  154.4117 O   0  0  0  0  0  0  0  0  0  0  0  0
  152.2135  139.3087  155.4773 C   0  0  0  0  0  0  0  0  0  0  0  0
  151.5083  139.6218  156.8043 C   0  0  0  0  0  0  0  0  0  0  0  0
  151.2394  141.0573  156.9659 N   0  0  0  0  0  0  0  0  0  0  0  0
  150.4540  141.8980  156.2374 C   0  0  0  0  0  0  0  0  0  0  0  0
  149.4823  141.4723  154.8310 S   0  0  0  0  0  0  0  0  0  0  0  0
  147.8117  141.2024  155.4883 C   0  0  1  0  0  0  0  0  0  0  0  0
  147.6358  141.9409  156.8242 C   0  0  0  0  0  0  0  0  0  0  0  0
  146.7371  141.6182  154.4756 C   0  0  0  0  0  0  0  0  0  0  0  0
  145.9395  140.6568  154.0023 N   0  0  0  0  0  0  0  0  0  0  0  0
  146.6372  142.7874  154.1092 O   0  0  0  0  0  0  0  0  0  0  0  0
  150.5348  143.1344  156.8000 N   0  3  0  0  0  0  0  0  0  0  0  0
  151.3919  143.0880  157.9010 C   0  0  0  0  0  0  0  0  0  0  0  0
  151.7927  144.0835  158.7867 C   0  0  0  0  0  0  0  0  0  0  0  0
  152.6860  143.6992  159.8084 C   0  0  0  0  0  0  0  0  0  0  0  0
  153.1460  142.3710  159.9214 C   0  0  0  0  0  0  0  0  0  0  0  0
  152.7322  141.3694  159.0187 C   0  0  0  0  0  0  0  0  0  0  0  0
  151.8489  141.7573  158.0120 C   0  0  0  0  0  0  0  0  0  0  0  0
  149.6341  138.4714  153.6012 H   0  0  0  0  0  0  0  0  0  0  0  0
  149.7568  138.3515  155.3566 H   0  0  0  0  0  0  0  0  0  0  0  0
  150.8169  137.3782  154.3203 H   0  0  0  0  0  0  0  0  0  0  0  0
  152.6431  138.3066  155.5154 H   0  0  0  0  0  0  0  0  0  0  0  0
  153.0340  140.0090  155.3146 H   0  0  0  0  0  0  0  0  0  0  0  0
  150.5543  139.0961  156.8534 H   0  0  0  0  0  0  0  0  0  0  0  0
  152.0958  139.2738  157.6543 H   0  0  0  0  0  0  0  0  0  0  0  0
  147.7132  140.1328  155.6800 H   0  0  0  0  0  0  0  0  0  0  0  0
  146.6347  141.7924  157.2309 H   0  0  0  0  0  0  0  0  0  0  0  0
  147.7966  143.0142  156.7147 H   0  0  0  0  0  0  0  0  0  0  0  0
  148.3469  141.5758  157.5660 H   0  0  0  0  0  0  0  0  0  0  0  0
  145.2265  140.8772  153.3227 H   0  0  0  0  0  0  0  0  0  0  0  0
  146.0644  139.7055  154.3179 H   0  0  0  0  0  0  0  0  0  0  0  0
  151.4432  145.1020  158.7020 H   0  0  0  0  0  0  0  0  0  0  0  0
  153.0261  144.4383  160.5193 H   0  0  0  0  0  0  0  0  0  0  0  0
  153.8308  142.1151  160.7169 H   0  0  0  0  0  0  0  0  0  0  0  0
  153.0911  140.3550  159.1123 H   0  0  0  0  0  0  0  0  0  0  0  0
  150.0452  143.9479  156.4501 H   0  0  0  0  0  0  0  0  0  0  0  0
  1  2  1  0  0  0  0
  1 20  1  0  0  0  0
  1 21  1  0  0  0  0
  1 22  1  0  0  0  0
  2  3  1  0  0  0  0
  3  4  1  0  0  0  0
  3 23  1  0  0  0  0
  3 24  1  0  0  0  0
  4  5  1  0  0  0  0
  4 25  1  0  0  0  0
  4 26  1  0  0  0  0
  5 19  1  0  0  0  0
  5  6  1  0  0  0  0
  6  7  1  0  0  0  0
  6 13  2  0  0  0  0
  7  8  1  0  0  0  0
  8  9  1  0  0  0  0
  8 10  1  0  0  0  0
  8 27  1  0  0  0  0
  9 28  1  0  0  0  0
  9 29  1  0  0  0  0
  9 30  1  0  0  0  0
 10 11  1  0  0  0  0
 10 12  2  0  0  0  0
 11 31  1  0  0  0  0
 11 32  1  0  0  0  0
 13 14  1  0  0  0  0
 13 37  1  0  0  0  0
 14 19  2  0  0  0  0
 14 15  1  0  0  0  0
 15 16  2  0  0  0  0
 15 33  1  0  0  0  0
 16 17  1  0  0  0  0
 16 34  1  0  0  0  0
 17 18  2  0  0  0  0
 17 35  1  0  0  0  0
 18 19  1  0  0  0  0
 18 36  1  0  0  0  0
M  CHG  1  13   1
M  END
> <s_m_source_file>
AV-unprocessed.smi

> <i_m_source_file_index>
2962

> <i_lp_mmshare_version>
43012

> <i_f3d_flags>
0

> <s_epik_input>
W2NIXTFbY0hdW2NIXVtjSF1jKGMxMiluKFtDSDJdW0NIMl1PW0NIM10pYyhuMilTW0NASF0oW0NIM10pQyg9TylbTkgyXQ==

> <s_epik_cmdline>
J2VwaWtfcHl0aG9uJywgJy1waCcsICc3LjAnLCAnLXRuJywgJzgnLCAnLW1hJywgJzIwMCcsICctbWV0YWxfYmluZGluZycsICctaW1hZScsICc8aW5maWxlLm1hZT4nLCAnLW9tYWUnLCAnPG91dGZpbGUubWFlPic=

> <r_epik_Ionization_Penalty>
2.01771

> <r_epik_Ionization_Penalty_Charging>
2.01771

> <r_epik_Ionization_Penalty_Neutral>
3.318e-07

> <r_epik_State_Penalty>
2.14773

> <r_epik_Charging_Adjusted_Penalty>
4.16544

> <i_epik_Tot_Q>
1

> <i_epik_Tot_abs_Q>
1

> <r_epik_Metal_State_Penalty>
2.1675

> <b_epik_Metal_Only>
0

> <s_lp_Force_Field>
OPLS_2005

> <r_lp_Energy>
8.26224

> <b_lp_Chiralities_Consistent>
1

> <s_lp_Variant>
AV-unprocessed.smi:2962-4

> <Gold.Version>
5.8.1

> <Gold.Id.Protein>
6NUR|6NUR_protein|mol2

> <Gold.PLP.Fitness>
52.6991

> <Gold.PLP.PLP>
-42.4466

> <Gold.PLP.part.hbond>
-3.0000

> <Gold.PLP.part.metal>
0.0000

> <Gold.PLP.part.buried>
-4.5948

> <Gold.PLP.part.nonpolar>
-35.2774

> <Gold.PLP.part.repulsive>
0.3519

> <Gold.PLP.ligand.clash>
0.0000

> <Gold.PLP.ligand.torsion>
0.9005

> <Gold.PLP.Chemscore.Hbond>
3.9920

> <Gold.PLP.Chemscore.CHOScore>
0.0000

> <Gold.PLP.Chemscore.Metal>
0.0000

> <Gold.Chemscore.Hbonds>
donor molecule, donor type, donor heavy atom, donor atom, acceptor molecule, acceptor atom, score
      L1  H    11    31       P1 10175  1.00
      L1  H    13    37       P1  8028  2.00
      P1  H  7989  7998       L1     2  1.00

> <Gold.PLP.Chemscore.Internal.Correction>
0.0774

> <Gold.Rescore>
     Score         DG    S(hbond)    S(metal)    S(lipo)     H(rot)  DE(clash)    DE(int)     intcor
     19.46     -20.53       2.93        0.00     101.35       2.57       0.02       1.05       ----

> <Gold.Chemscore.Fitness>
19.4559

> <Gold.Chemscore.DG>
-20.5260

> <Gold.Chemscore.ZeroCoef>
-5.4800

> <Gold.Chemscore.Hbond>
2.9262

> <Gold.Chemscore.Metal>
0.0000

> <Gold.Chemscore.Lipo>
101.3474

> <Gold.Chemscore.Internal_Hbond>
0.0000

> <Gold.Chemscore.DEClash>
0.0228

> <Gold.Chemscore.DEInternal>
1.0473

> <Gold.Chemscore.Rot>
2.5723

> <Gold.Chemscore.Internal.Correction>
   9.000000E+99

> <Gold.Chemscore.Hbonds>
donor molecule, donor type, donor heavy atom, donor atom, acceptor molecule, acceptor atom, score
      L1  H    11    31       P1 10175  0.67
      L1  H    13    37       P1  8028  0.97
      P1  H  7989  7998       L1     2  0.65

> <Gold.Chemscore.Hbond.Weighted>
-9.7733

> <Gold.Chemscore.Metal.Weighted>
-0.0000

> <Gold.Chemscore.Lipo.Weighted>
-11.8576

> <Gold.Chemscore.Internal_Hbond.Weighted>
0.0000

> <Gold.Chemscore.DEClash.Weighted>
0.0228

> <Gold.Chemscore.DEInternal.Weighted>
1.0473

> <Gold.Chemscore.Rot.Weighted>
6.5850

> <Gold.Chemscore.Internal.Correction.Weighted>
   9.000000E+99

> <Gold.Protein.RotatedTorsions>
[ 6907 6896 6895 6894 ] final  -19.10 input  -60.11 | X-H torsion
[ 7974 7965 7964 7962 ] final   17.18 input  175.53 | X-H torsion
[ 8008 7997 7996 7995 ] final -135.62 input   59.86 | X-H torsion
[ 10167 10162 10161 10158 ] final -167.13 input  -65.29 | X-H torsion
[ 10718 10713 10712 10709 ] final -132.37 input   66.30 | X-H torsion
[ 10763 10752 10751 10750 ] final -178.09 input  -60.55 | X-H torsion
[ 11005 11000 10999 10996 ] final  -48.90 input  -57.11 | X-H torsion

> <Gold.Protein.ActiveResidues>
 VAL166  LYS551  ARG553  GLY616  TRP617  ASP618  TYR619  PRO620  LYS621  CYS622 
 ASP623  PHE694  ASN695  SER759  ASP760  ASP761  ALA762  ILE779  LEU786  VAL792 
 PHE793  MET794  SER795  GLU796  ALA797  LYS798  CYS799  TRP800  GLU811  SER814 

> <Gold.Protein.RotatedAtoms>
  151.2682  135.0676  159.9123 H   0  0  0  0  0  0  0  0  0  0  0  0  # atno 6907 bound_to 6896
  152.5355  134.0158  159.7969 H   0  0  0  0  0  0  0  0  0  0  0  0  # atno 6908 bound_to 6896
  151.0392  133.5671  159.2684 H   0  0  0  0  0  0  0  0  0  0  0  0  # atno 6909 bound_to 6896
  146.2226  139.8639  142.8599 H   0  0  0  0  0  0  0  0  0  0  0  0  # atno 7974 bound_to 7965
  155.3817  140.0494  157.3043 H   0  0  0  0  0  0  0  0  0  0  0  0  # atno 8008 bound_to 7997
  154.5079  140.2181  155.9176 H   0  0  0  0  0  0  0  0  0  0  0  0  # atno 8009 bound_to 7997
  156.1548  140.3128  155.8713 H   0  0  0  0  0  0  0  0  0  0  0  0  # atno 8010 bound_to 7997
  139.6069  144.0894  152.1802 H   0  0  0  0  0  0  0  0  0  0  0  0  # atno 10167 bound_to 10162
  156.2339  130.7055  151.0887 H   0  0  0  0  0  0  0  0  0  0  0  0  # atno 10718 bound_to 10713
  154.5520  135.2813  155.0999 H   0  0  0  0  0  0  0  0  0  0  0  0  # atno 10763 bound_to 10752
  154.2441  135.6351  153.5221 H   0  0  0  0  0  0  0  0  0  0  0  0  # atno 10764 bound_to 10752
  153.0005  135.5567  154.6089 H   0  0  0  0  0  0  0  0  0  0  0  0  # atno 10765 bound_to 10752
  141.0728  133.6674  156.3508 H   0  0  0  0  0  0  0  0  0  0  0  0  # atno 11005 bound_to 11000
  145.2676  141.0098  143.3790 LP  0  0  0  0  0  0  0  0  0  0  0  0  # atno 17320 bound_to 7965
  144.9249  139.4367  143.6523 LP  0  0  0  0  0  0  0  0  0  0  0  0  # atno 17321 bound_to 7965
  140.0504  144.5937  150.7341 LP  0  0  0  0  0  0  0  0  0  0  0  0  # atno 17342 bound_to 10162
  140.7291  143.2669  151.4015 LP  0  0  0  0  0  0  0  0  0  0  0  0  # atno 17343 bound_to 10162
  157.7146  131.0717  150.6376 LP  0  0  0  0  0  0  0  0  0  0  0  0  # atno 17370 bound_to 10713
  156.6445  130.4468  149.5740 LP  0  0  0  0  0  0  0  0  0  0  0  0  # atno 17371 bound_to 10713
  140.5638  134.5908  157.5440 LP  0  0  0  0  0  0  0  0  0  0  0  0  # atno 17394 bound_to 11000
  139.9540  134.7566  156.0382 LP  0  0  0  0  0  0  0  0  0  0  0  0  # atno 17395 bound_to 11000

$$$$
