AV-unprocessed.smi:2997|AV-procd|sdf|11414|dock5
  -GOLD-   2272016333D 1   1.00000     0.00000
 Structure written by MMmdl.
 39 41  0  0  0  0  0  0  0  0  2 V2000
  152.0070  145.2140  160.3737 C   0  0  0  0  0  0  0  0  0  0  0  0
  151.7725  143.9495  159.5648 C   0  0  0  0  0  0  0  0  0  0  0  0
  151.0208  144.0419  158.3715 C   0  0  0  0  0  0  0  0  0  0  0  0
  150.8210  142.8676  157.6552 C   0  0  0  0  0  0  0  0  0  0  0  0
  150.1365  142.6282  156.4616 N   0  3  0  0  0  0  0  0  0  0  0  0
  150.2167  141.3048  156.1495 C   0  0  0  0  0  0  0  0  0  0  0  0
  150.9410  140.6967  157.1276 N   0  0  0  0  0  0  0  0  0  0  0  0
  151.3295  139.2881  157.2767 C   0  0  0  0  0  0  0  0  0  0  0  0
  152.8418  139.0634  157.0871 C   0  0  2  0  0  0  0  0  0  0  0  0
  153.1566  139.1192  155.7080 O   0  0  0  0  0  0  0  0  0  0  0  0
  153.3010  137.7167  157.6768 C   0  0  0  0  0  0  0  0  0  0  0  0
  153.4860  137.7753  159.1162 N   0  0  0  0  0  0  0  0  0  0  0  0
  154.2693  138.6475  159.8424 C   0  0  0  0  0  0  0  0  0  0  0  0
  154.1327  138.3161  161.1599 C   0  0  0  0  0  0  0  0  0  0  0  0
  153.2314  137.2152  161.1397 C   0  0  0  0  0  0  0  0  0  0  0  0
  152.8470  136.8933  159.9150 N   0  0  0  0  0  0  0  0  0  0  0  0
  151.3404  141.6320  158.0871 C   0  0  0  0  0  0  0  0  0  0  0  0
  152.0858  141.5230  159.2582 C   0  0  0  0  0  0  0  0  0  0  0  0
  152.2988  142.7061  160.0019 C   0  0  0  0  0  0  0  0  0  0  0  0
  153.1050  142.6185  161.2867 C   0  0  0  0  0  0  0  0  0  0  0  0
  151.5219  146.0767  159.9161 H   0  0  0  0  0  0  0  0  0  0  0  0
  153.0732  145.4305  160.4453 H   0  0  0  0  0  0  0  0  0  0  0  0
  151.6068  145.1038  161.3817 H   0  0  0  0  0  0  0  0  0  0  0  0
  150.6186  144.9851  158.0318 H   0  0  0  0  0  0  0  0  0  0  0  0
  149.7886  140.8248  155.2813 H   0  0  0  0  0  0  0  0  0  0  0  0
  151.0005  138.9395  158.2565 H   0  0  0  0  0  0  0  0  0  0  0  0
  150.7665  138.7136  156.5397 H   0  0  0  0  0  0  0  0  0  0  0  0
  153.3870  139.8681  157.5820 H   0  0  0  0  0  0  0  0  0  0  0  0
  153.5395  138.2924  155.4548 H   0  0  0  0  0  0  0  0  0  0  0  0
  152.5610  136.9441  157.4649 H   0  0  0  0  0  0  0  0  0  0  0  0
  154.2324  137.3912  157.2101 H   0  0  0  0  0  0  0  0  0  0  0  0
  154.8532  139.4212  159.3661 H   0  0  0  0  0  0  0  0  0  0  0  0
  154.6039  138.7882  162.0093 H   0  0  0  0  0  0  0  0  0  0  0  0
  152.8483  136.6439  161.9724 H   0  0  0  0  0  0  0  0  0  0  0  0
  152.4859  140.5764  159.5896 H   0  0  0  0  0  0  0  0  0  0  0  0
  153.4610  141.6037  161.4662 H   0  0  0  0  0  0  0  0  0  0  0  0
  152.4951  142.9140  162.1406 H   0  0  0  0  0  0  0  0  0  0  0  0
  153.9758  143.2726  161.2388 H   0  0  0  0  0  0  0  0  0  0  0  0
  149.6517  143.3150  155.8982 H   0  0  0  0  0  0  0  0  0  0  0  0
  1  2  1  0  0  0  0
  1 21  1  0  0  0  0
  1 22  1  0  0  0  0
  1 23  1  0  0  0  0
  2 19  1  0  0  0  0
  2  3  2  0  0  0  0
  3  4  1  0  0  0  0
  3 24  1  0  0  0  0
  4 17  2  0  0  0  0
  4  5  1  0  0  0  0
  5  6  2  0  0  0  0
  5 39  1  0  0  0  0
  6  7  1  0  0  0  0
  6 25  1  0  0  0  0
  7  8  1  0  0  0  0
  7 17  1  0  0  0  0
  8  9  1  0  0  0  0
  8 26  1  0  0  0  0
  8 27  1  0  0  0  0
  9 10  1  0  0  0  0
  9 11  1  0  0  0  0
  9 28  1  0  0  0  0
 10 29  1  0  0  0  0
 11 12  1  0  0  0  0
 11 30  1  0  0  0  0
 11 31  1  0  0  0  0
 12 16  1  0  0  0  0
 12 13  1  0  0  0  0
 13 14  2  0  0  0  0
 13 32  1  0  0  0  0
 14 15  1  0  0  0  0
 14 33  1  0  0  0  0
 15 16  2  0  0  0  0
 15 34  1  0  0  0  0
 17 18  1  0  0  0  0
 18 19  2  0  0  0  0
 18 35  1  0  0  0  0
 19 20  1  0  0  0  0
 20 36  1  0  0  0  0
 20 37  1  0  0  0  0
 20 38  1  0  0  0  0
M  CHG  1   5   1
M  END
> <s_m_source_file>
AV-unprocessed.smi

> <i_m_source_file_index>
2997

> <i_lp_mmshare_version>
43012

> <i_f3d_flags>
0

> <s_epik_input>
W0NIM11jKFtjSF0xKWMoW0NIM10pW2NIXWMoYzEyKW4oW2NIXW4yKVtDSDJdW0NASF0oW09IXSlbQ0gyXW4zW2NIXVtjSF1bY0hdbjM=

> <s_epik_cmdline>
J2VwaWtfcHl0aG9uJywgJy1waCcsICc3LjAnLCAnLXRuJywgJzgnLCAnLW1hJywgJzIwMCcsICctbWV0YWxfYmluZGluZycsICctaW1hZScsICc8aW5maWxlLm1hZT4nLCAnLW9tYWUnLCAnPG91dGZpbGUubWFlPic=

> <r_lp_tautomer_probability>
1

> <r_epik_Ionization_Penalty>
1.09215

> <r_epik_Ionization_Penalty_Charging>
1.09214

> <r_epik_Ionization_Penalty_Neutral>
1.42327e-05

> <r_epik_State_Penalty>
1.14852

> <r_epik_Charging_Adjusted_Penalty>
2.24066

> <i_epik_Tot_Q>
1

> <i_epik_Tot_abs_Q>
1

> <r_epik_Metal_State_Penalty>
1.23686

> <b_epik_Metal_Only>
0

> <s_lp_Force_Field>
OPLS_2005

> <r_lp_Energy>
13.1956

> <b_lp_Chiralities_Consistent>
1

> <s_lp_Variant>
AV-unprocessed.smi:2997-3

> <Gold.Version>
5.8.1

> <Gold.Id.Protein>
6NUR|6NUR_protein|mol2

> <Gold.PLP.Fitness>
49.6096

> <Gold.PLP.PLP>
-39.1111

> <Gold.PLP.part.hbond>
-3.0000

> <Gold.PLP.part.metal>
0.0000

> <Gold.PLP.part.buried>
-4.3114

> <Gold.PLP.part.nonpolar>
-32.9440

> <Gold.PLP.part.repulsive>
0.0749

> <Gold.PLP.ligand.clash>
0.0000

> <Gold.PLP.ligand.torsion>
0.4599

> <Gold.PLP.Chemscore.Hbond>
3.8024

> <Gold.PLP.Chemscore.CHOScore>
0.0000

> <Gold.PLP.Chemscore.Metal>
0.0000

> <Gold.Chemscore.Hbonds>
donor molecule, donor type, donor heavy atom, donor atom, acceptor molecule, acceptor atom, score
      L1  H     5    39       P1  8028  2.00
      P1  H  6896  6909       L1    16  1.00
      P1  H  7997  8008       L1    10  0.80

> <Gold.PLP.Chemscore.Internal.Correction>
0.0112

> <Gold.Rescore>
     Score         DG    S(hbond)    S(metal)    S(lipo)     H(rot)  DE(clash)    DE(int)     intcor
     20.31     -20.82       2.38        0.00     111.60       2.21       0.08       0.43       ----

> <Gold.Chemscore.Fitness>
20.3095

> <Gold.Chemscore.DG>
-20.8209

> <Gold.Chemscore.ZeroCoef>
-5.4800

> <Gold.Chemscore.Hbond>
2.3797

> <Gold.Chemscore.Metal>
0.0000

> <Gold.Chemscore.Lipo>
111.6037

> <Gold.Chemscore.Internal_Hbond>
0.0000

> <Gold.Chemscore.DEClash>
0.0783

> <Gold.Chemscore.DEInternal>
0.4330

> <Gold.Chemscore.Rot>
2.2129

> <Gold.Chemscore.Internal.Correction>
   9.000000E+99

> <Gold.Chemscore.Hbonds>
donor molecule, donor type, donor heavy atom, donor atom, acceptor molecule, acceptor atom, score
      L1  H     5    39       P1  8028  0.97
      P1  H  6896  6909       L1    16  0.52
      P1  H  7997  8008       L1    10  0.07

> <Gold.Chemscore.Hbond.Weighted>
-7.9481

> <Gold.Chemscore.Metal.Weighted>
-0.0000

> <Gold.Chemscore.Lipo.Weighted>
-13.0576

> <Gold.Chemscore.Internal_Hbond.Weighted>
0.0000

> <Gold.Chemscore.DEClash.Weighted>
0.0783

> <Gold.Chemscore.DEInternal.Weighted>
0.4330

> <Gold.Chemscore.Rot.Weighted>
5.6649

> <Gold.Chemscore.Internal.Correction.Weighted>
   9.000000E+99

> <Gold.Protein.RotatedTorsions>
[ 6907 6896 6895 6894 ] final  151.04 input  -60.11 | X-H torsion
[ 7974 7965 7964 7962 ] final  -78.57 input  175.53 | X-H torsion
[ 8008 7997 7996 7995 ] final  -11.91 input   59.86 | X-H torsion
[ 10167 10162 10161 10158 ] final  -26.51 input  -65.29 | X-H torsion
[ 10718 10713 10712 10709 ] final  -91.87 input   66.30 | X-H torsion
[ 10763 10752 10751 10750 ] final   25.90 input  -60.55 | X-H torsion
[ 11005 11000 10999 10996 ] final  -42.96 input  -57.11 | X-H torsion

> <Gold.Protein.ActiveResidues>
 VAL166  LYS551  ARG553  GLY616  TRP617  ASP618  TYR619  PRO620  LYS621  CYS622 
 ASP623  PHE694  ASN695  SER759  ASP760  ASP761  ALA762  ILE779  LEU786  VAL792 
 PHE793  MET794  SER795  GLU796  ALA797  LYS798  CYS799  TRP800  GLU811  SER814 

> <Gold.Protein.RotatedAtoms>
  152.1062  133.4276  159.4609 H   0  0  0  0  0  0  0  0  0  0  0  0  # atno 6907 bound_to 6896
  150.6865  134.2703  159.4594 H   0  0  0  0  0  0  0  0  0  0  0  0  # atno 6908 bound_to 6896
  152.0567  134.9619  160.0625 H   0  0  0  0  0  0  0  0  0  0  0  0  # atno 6909 bound_to 6896
  145.5847  140.9441  143.1325 H   0  0  0  0  0  0  0  0  0  0  0  0  # atno 7974 bound_to 7965
  154.5423  140.2290  155.8620 H   0  0  0  0  0  0  0  0  0  0  0  0  # atno 8008 bound_to 7997
  156.1870  140.3086  155.9220 H   0  0  0  0  0  0  0  0  0  0  0  0  # atno 8009 bound_to 7997
  155.3233  140.0441  157.3030 H   0  0  0  0  0  0  0  0  0  0  0  0  # atno 8010 bound_to 7997
  140.7282  143.4172  151.1009 H   0  0  0  0  0  0  0  0  0  0  0  0  # atno 10167 bound_to 10162
  155.9997  130.4965  150.5540 H   0  0  0  0  0  0  0  0  0  0  0  0  # atno 10718 bound_to 10713
  153.0659  135.6572  154.0355 H   0  0  0  0  0  0  0  0  0  0  0  0  # atno 10763 bound_to 10752
  154.0012  135.2937  155.3404 H   0  0  0  0  0  0  0  0  0  0  0  0  # atno 10764 bound_to 10752
  154.7017  135.5242  153.8605 H   0  0  0  0  0  0  0  0  0  0  0  0  # atno 10765 bound_to 10752
  141.0351  133.6803  156.2667 H   0  0  0  0  0  0  0  0  0  0  0  0  # atno 11005 bound_to 11000
  144.7378  139.7536  143.7322 LP  0  0  0  0  0  0  0  0  0  0  0  0  # atno 17320 bound_to 7965
  146.1690  139.4833  142.9939 LP  0  0  0  0  0  0  0  0  0  0  0  0  # atno 17321 bound_to 7965
  139.7813  143.8351  152.3138 LP  0  0  0  0  0  0  0  0  0  0  0  0  # atno 17342 bound_to 10162
  139.8303  144.7256  150.9459 LP  0  0  0  0  0  0  0  0  0  0  0  0  # atno 17343 bound_to 10162
  157.3459  131.0725  151.1751 LP  0  0  0  0  0  0  0  0  0  0  0  0  # atno 17370 bound_to 10713
  157.2584  130.6647  149.5963 LP  0  0  0  0  0  0  0  0  0  0  0  0  # atno 17371 bound_to 10713
  140.6336  134.5239  157.5562 LP  0  0  0  0  0  0  0  0  0  0  0  0  # atno 17394 bound_to 11000
  139.9235  134.8101  156.1138 LP  0  0  0  0  0  0  0  0  0  0  0  0  # atno 17395 bound_to 11000

$$$$
