AV-unprocessed.smi:115|AV-procd|sdf|1123|dock1
  -GOLD-   2262018243D 1   1.00000     0.00000
 Structure written by MMmdl.
 55 57  0  0  0  0  0  0  0  0  1 V2000
  144.6420  135.3041  150.5499 C   0  0  0  0  0  0  0  0  0  0  0  0
  144.5378  135.9810  151.7931 O   0  0  0  0  0  0  0  0  0  0  0  0
  145.7267  136.6478  152.1975 C   0  0  0  0  0  0  0  0  0  0  0  0
  145.7691  136.8899  153.7224 C   0  0  2  0  0  0  0  0  0  0  0  0
  144.5445  137.6513  154.2655 C   0  0  0  0  0  0  0  0  0  0  0  0
  147.0581  137.4631  154.1450 N   0  0  0  0  0  0  0  0  0  0  0  0
  147.9711  136.7934  154.9589 C   0  0  0  0  0  0  0  0  0  0  0  0
  147.7471  135.4132  155.4925 C   0  0  0  0  0  0  0  0  0  0  0  0
  149.0390  137.6149  155.1579 C   0  0  0  0  0  0  0  0  0  0  0  0
  148.8212  138.8225  154.4434 C   0  0  0  0  0  0  0  0  0  0  0  0
  149.6998  140.0199  154.3931 C   0  0  0  0  0  0  0  0  0  0  0  0
  149.3141  141.1274  154.0163 O   0  0  0  0  0  0  0  0  0  0  0  0
  151.1506  139.8046  154.8637 C   0  0  0  0  0  0  0  0  0  0  0  0
  151.3348  140.0720  156.2855 N   0  0  0  0  0  0  0  0  0  0  0  0
  151.8792  139.0375  157.0860 C   0  0  0  0  0  0  0  0  0  0  0  0
  152.2110  137.9486  156.6139 O   0  0  0  0  0  0  0  0  0  0  0  0
  152.0102  139.3730  158.4988 C   0  0  0  0  0  0  0  0  0  0  0  0
  152.4558  138.4456  159.3633 F   0  0  0  0  0  0  0  0  0  0  0  0
  151.6741  140.5972  158.9593 C   0  0  0  0  0  0  0  0  0  0  0  0
  151.2145  141.6181  158.1424 N   0  0  0  0  0  0  0  0  0  0  0  0
  150.7645  142.9492  158.7097 C   0  0  2  0  0  0  0  0  0  0  0  0
  151.4180  144.1724  158.0431 C   0  0  0  0  0  0  0  0  0  0  0  0
  152.4178  144.6187  159.0922 C   0  0  0  0  0  0  0  0  0  0  0  0
  151.7164  144.2071  160.3806 C   0  0  0  0  0  0  0  0  0  0  0  0
  151.1044  142.9634  160.0642 O   0  0  0  0  0  0  0  0  0  0  0  0
  150.9822  141.3545  156.7726 C   0  0  0  0  0  0  0  0  0  0  0  0
  150.5031  142.2172  156.0327 O   0  0  0  0  0  0  0  0  0  0  0  0
  147.6144  138.7024  153.7898 C   0  0  0  0  0  0  0  0  0  0  0  0
  146.9304  139.6611  152.8543 C   0  0  0  0  0  0  0  0  0  0  0  0
  143.6781  134.8617  150.2985 H   0  0  0  0  0  0  0  0  0  0  0  0
  145.3754  134.4991  150.5810 H   0  0  0  0  0  0  0  0  0  0  0  0
  144.9111  135.9916  149.7473 H   0  0  0  0  0  0  0  0  0  0  0  0
  146.6030  136.0862  151.8690 H   0  0  0  0  0  0  0  0  0  0  0  0
  145.7606  137.5931  151.6604 H   0  0  0  0  0  0  0  0  0  0  0  0
  145.6933  135.9172  154.2007 H   0  0  0  0  0  0  0  0  0  0  0  0
  143.6471  137.0390  154.1728 H   0  0  0  0  0  0  0  0  0  0  0  0
  144.3416  138.5767  153.7312 H   0  0  0  0  0  0  0  0  0  0  0  0
  144.6657  137.8890  155.3228 H   0  0  0  0  0  0  0  0  0  0  0  0
  148.6364  135.0479  156.0067 H   0  0  0  0  0  0  0  0  0  0  0  0
  147.5206  134.7121  154.6887 H   0  0  0  0  0  0  0  0  0  0  0  0
  146.9232  135.3991  156.2066 H   0  0  0  0  0  0  0  0  0  0  0  0
  149.8960  137.3683  155.7672 H   0  0  0  0  0  0  0  0  0  0  0  0
  151.4797  138.7841  154.6631 H   0  0  0  0  0  0  0  0  0  0  0  0
  151.8399  140.4431  154.3088 H   0  0  0  0  0  0  0  0  0  0  0  0
  151.7721  140.7651  160.0197 H   0  0  0  0  0  0  0  0  0  0  0  0
  149.6819  142.9858  158.5800 H   0  0  0  0  0  0  0  0  0  0  0  0
  151.8425  143.9594  157.0622 H   0  0  0  0  0  0  0  0  0  0  0  0
  150.6512  144.9378  157.9165 H   0  0  0  0  0  0  0  0  0  0  0  0
  153.3578  144.0766  158.9874 H   0  0  0  0  0  0  0  0  0  0  0  0
  152.6340  145.6863  159.0482 H   0  0  0  0  0  0  0  0  0  0  0  0
  152.4009  144.1146  161.2238 H   0  0  0  0  0  0  0  0  0  0  0  0
  150.9425  144.9295  160.6442 H   0  0  0  0  0  0  0  0  0  0  0  0
  147.6488  140.2651  152.3027 H   0  0  0  0  0  0  0  0  0  0  0  0
  146.2745  140.3369  153.4031 H   0  0  0  0  0  0  0  0  0  0  0  0
  146.3450  139.1539  152.0934 H   0  0  0  0  0  0  0  0  0  0  0  0
  1  2  1  0  0  0  0
  1 30  1  0  0  0  0
  1 31  1  0  0  0  0
  1 32  1  0  0  0  0
  2  3  1  0  0  0  0
  3  4  1  0  0  0  0
  3 33  1  0  0  0  0
  3 34  1  0  0  0  0
  4  5  1  0  0  0  0
  4  6  1  0  0  0  0
  4 35  1  0  0  0  0
  5 36  1  0  0  0  0
  5 37  1  0  0  0  0
  5 38  1  0  0  0  0
  6 28  1  0  0  0  0
  6  7  1  0  0  0  0
  7  8  1  0  0  0  0
  7  9  2  0  0  0  0
  8 39  1  0  0  0  0
  8 40  1  0  0  0  0
  8 41  1  0  0  0  0
  9 10  1  0  0  0  0
  9 42  1  0  0  0  0
 10 11  1  0  0  0  0
 10 28  2  0  0  0  0
 11 12  2  0  0  0  0
 11 13  1  0  0  0  0
 13 14  1  0  0  0  0
 13 43  1  0  0  0  0
 13 44  1  0  0  0  0
 14 26  1  0  0  0  0
 14 15  1  0  0  0  0
 15 16  2  0  0  0  0
 15 17  1  0  0  0  0
 17 18  1  0  0  0  0
 17 19  2  0  0  0  0
 19 20  1  0  0  0  0
 19 45  1  0  0  0  0
 20 21  1  0  0  0  0
 20 26  1  0  0  0  0
 21 25  1  0  0  0  0
 21 22  1  0  0  0  0
 21 46  1  0  0  0  0
 22 23  1  0  0  0  0
 22 47  1  0  0  0  0
 22 48  1  0  0  0  0
 23 24  1  0  0  0  0
 23 49  1  0  0  0  0
 23 50  1  0  0  0  0
 24 25  1  0  0  0  0
 24 51  1  0  0  0  0
 24 52  1  0  0  0  0
 26 27  2  0  0  0  0
 28 29  1  0  0  0  0
 29 53  1  0  0  0  0
 29 54  1  0  0  0  0
 29 55  1  0  0  0  0
M  END
> <s_m_source_file>
AV-unprocessed.smi

> <i_m_source_file_index>
115

> <i_lp_mmshare_version>
43012

> <i_f3d_flags>
0

> <s_epik_input>
W0NIM11PW0NIMl1bQ0BIXShbQ0gzXSluMWMoW0NIM10pW2NIXWMoYzFbQ0gzXSlDKD1PKVtDSDJdbjJjKD1PKWMoRilbY0hdbihjMj1PKVtDQEBIXTNbQ0gyXVtDSDJdW0NIMl1PMw==

> <s_epik_cmdline>
J2VwaWtfcHl0aG9uJywgJy1waCcsICc3LjAnLCAnLXRuJywgJzgnLCAnLW1hJywgJzIwMCcsICctbWV0YWxfYmluZGluZycsICctaW1hZScsICc8aW5maWxlLm1hZT4nLCAnLW9tYWUnLCAnPG91dGZpbGUubWFlPic=

> <r_lp_tautomer_probability>
1

> <r_epik_Ionization_Penalty>
5.02611e-09

> <r_epik_Ionization_Penalty_Charging>
5.01743e-09

> <r_epik_Ionization_Penalty_Neutral>
8.68114e-12

> <r_epik_State_Penalty>
-0

> <r_epik_Charging_Adjusted_Penalty>
5.01743e-09

> <i_epik_Tot_Q>
0

> <i_epik_Tot_abs_Q>
0

> <r_epik_Metal_State_Penalty>
-0

> <b_epik_Metal_Only>
0

> <s_epik_Chemistry_Notes>
This compound contains an acetal/aminal-like group ( X-CH(R)-Y where X, Y are N, S, or O) that may be acid/base labile, releasing an aldehyde.

> <s_lp_Force_Field>
OPLS_2005

> <r_lp_Energy>
47.9533

> <b_lp_Chiralities_Consistent>
1

> <s_lp_Variant>
AV-unprocessed.smi:115-1

> <Gold.Version>
5.8.1

> <Gold.Id.Protein>
6NUR|6NUR_protein|mol2

> <Gold.PLP.Fitness>
45.8622

> <Gold.PLP.PLP>
-44.3225

> <Gold.PLP.part.hbond>
-2.5782

> <Gold.PLP.part.metal>
0.0000

> <Gold.PLP.part.buried>
-0.0783

> <Gold.PLP.part.nonpolar>
-43.5032

> <Gold.PLP.part.repulsive>
2.5589

> <Gold.PLP.ligand.clash>
0.0000

> <Gold.PLP.ligand.torsion>
0.7670

> <Gold.PLP.Chemscore.Hbond>
0.7992

> <Gold.PLP.Chemscore.CHOScore>
0.0000

> <Gold.PLP.Chemscore.Metal>
0.0000

> <Gold.Chemscore.Hbonds>
donor molecule, donor type, donor heavy atom, donor atom, acceptor molecule, acceptor atom, score
      P1  H  8011  8017       L1    12  0.55

> <Gold.PLP.Chemscore.Internal.Correction>
0.6760

> <Gold.Rescore>
     Score         DG    S(hbond)    S(metal)    S(lipo)     H(rot)  DE(clash)    DE(int)     intcor
      5.96     -13.64       0.76        0.00      95.92       2.19       1.93       5.75       ----

> <Gold.Chemscore.Fitness>
5.9578

> <Gold.Chemscore.DG>
-13.6355

> <Gold.Chemscore.ZeroCoef>
-5.4800

> <Gold.Chemscore.Hbond>
0.7633

> <Gold.Chemscore.Metal>
0.0000

> <Gold.Chemscore.Lipo>
95.9164

> <Gold.Chemscore.Internal_Hbond>
0.0000

> <Gold.Chemscore.DEClash>
1.9299

> <Gold.Chemscore.DEInternal>
5.7479

> <Gold.Chemscore.Rot>
2.1938

> <Gold.Chemscore.Internal.Correction>
   9.000000E+99

> <Gold.Chemscore.Hbonds>
donor molecule, donor type, donor heavy atom, donor atom, acceptor molecule, acceptor atom, score
      P1  H  8011  8017       L1    12  0.54

> <Gold.Chemscore.Hbond.Weighted>
-2.5493

> <Gold.Chemscore.Metal.Weighted>
-0.0000

> <Gold.Chemscore.Lipo.Weighted>
-11.2222

> <Gold.Chemscore.Internal_Hbond.Weighted>
0.0000

> <Gold.Chemscore.DEClash.Weighted>
1.9299

> <Gold.Chemscore.DEInternal.Weighted>
5.7479

> <Gold.Chemscore.Rot.Weighted>
5.6160

> <Gold.Chemscore.Internal.Correction.Weighted>
   9.000000E+99

> <Gold.Protein.RotatedTorsions>
[ 6907 6896 6895 6894 ] final  -90.55 input  -60.11 | X-H torsion
[ 7974 7965 7964 7962 ] final  163.97 input  175.53 | X-H torsion
[ 8008 7997 7996 7995 ] final   60.13 input   59.86 | X-H torsion
[ 10167 10162 10161 10158 ] final  -59.09 input  -65.29 | X-H torsion
[ 10718 10713 10712 10709 ] final   81.65 input   66.30 | X-H torsion
[ 10763 10752 10751 10750 ] final    3.32 input  -60.55 | X-H torsion
[ 11005 11000 10999 10996 ] final   20.21 input  -57.11 | X-H torsion

> <Gold.Protein.ActiveResidues>
 VAL166  LYS551  ARG553  GLY616  TRP617  ASP618  TYR619  PRO620  LYS621  CYS622 
 ASP623  PHE694  ASN695  SER759  ASP760  ASP761  ALA762  ILE779  LEU786  VAL792 
 PHE793  MET794  SER795  GLU796  ALA797  LYS798  CYS799  TRP800  GLU811  SER814 

> <Gold.Protein.RotatedAtoms>
  150.6883  134.2415  159.4474 H   0  0  0  0  0  0  0  0  0  0  0  0  # atno 6907 bound_to 6896
  152.0359  134.9738  160.0582 H   0  0  0  0  0  0  0  0  0  0  0  0  # atno 6908 bound_to 6896
  152.1259  133.4345  159.4734 H   0  0  0  0  0  0  0  0  0  0  0  0  # atno 6909 bound_to 6896
  144.7566  139.8258  143.6347 H   0  0  0  0  0  0  0  0  0  0  0  0  # atno 7974 bound_to 7965
  155.5774  140.3491  155.4531 H   0  0  0  0  0  0  0  0  0  0  0  0  # atno 8008 bound_to 7997
  156.0399  140.1293  157.0192 H   0  0  0  0  0  0  0  0  0  0  0  0  # atno 8009 bound_to 7997
  154.4387  140.1026  156.6207 H   0  0  0  0  0  0  0  0  0  0  0  0  # atno 8010 bound_to 7997
  140.6157  143.2401  151.5604 H   0  0  0  0  0  0  0  0  0  0  0  0  # atno 10167 bound_to 10162
  157.6838  131.0013  150.2258 H   0  0  0  0  0  0  0  0  0  0  0  0  # atno 10718 bound_to 10713
  153.2848  135.6943  153.7350 H   0  0  0  0  0  0  0  0  0  0  0  0  # atno 10763 bound_to 10752
  153.6323  135.3408  155.3046 H   0  0  0  0  0  0  0  0  0  0  0  0  # atno 10764 bound_to 10752
  154.8506  135.4412  154.1913 H   0  0  0  0  0  0  0  0  0  0  0  0  # atno 10765 bound_to 10752
  140.4051  134.1677  155.7665 H   0  0  0  0  0  0  0  0  0  0  0  0  # atno 11005 bound_to 11000
  146.1583  139.4688  143.0005 LP  0  0  0  0  0  0  0  0  0  0  0  0  # atno 17320 bound_to 7965
  145.6759  141.0204  143.1632 LP  0  0  0  0  0  0  0  0  0  0  0  0  # atno 17321 bound_to 7965
  139.5396  144.2684  152.1324 LP  0  0  0  0  0  0  0  0  0  0  0  0  # atno 17342 bound_to 10162
  140.1892  144.4768  150.6487 LP  0  0  0  0  0  0  0  0  0  0  0  0  # atno 17343 bound_to 10162
  156.2900  130.3744  149.7851 LP  0  0  0  0  0  0  0  0  0  0  0  0  # atno 17370 bound_to 10713
  156.5513  130.8343  151.3300 LP  0  0  0  0  0  0  0  0  0  0  0  0  # atno 17371 bound_to 10713
  141.1842  133.8348  157.1147 LP  0  0  0  0  0  0  0  0  0  0  0  0  # atno 17394 bound_to 11000
  140.0308  134.9902  157.0776 LP  0  0  0  0  0  0  0  0  0  0  0  0  # atno 17395 bound_to 11000

$$$$
