AV-unprocessed.smi:1809|AV-procd|sdf|7330|dock4
  -GOLD-   22720 8583D 1   1.00000     0.00000
 Structure written by MMmdl.
 38 40  0  0  0  0  0  0  0  0  2 V2000
  149.2911  133.9742  153.9651 C   0  0  0  0  0  0  0  0  0  0  0  0
  149.5627  134.3867  155.3711 C   0  0  0  0  0  0  0  0  0  0  0  0
  149.8001  133.5090  156.3488 N   0  0  0  0  0  0  0  0  0  0  0  0
  150.0226  134.1326  157.5681 N   0  0  0  0  0  0  0  0  0  0  0  0
  149.9375  135.4688  157.4989 C   0  0  0  0  0  0  0  0  0  0  0  0
  150.1232  136.2586  158.5695 N   0  5  0  0  0  0  0  0  0  0  0  0
  149.6909  137.5400  158.5477 C   0  0  0  0  0  0  0  0  0  0  0  0
  148.7316  137.9991  159.1721 O   0  0  0  0  0  0  0  0  0  0  0  0
  150.4124  138.3405  157.7525 N   0  0  0  0  0  0  0  0  0  0  0  0
  150.1663  139.7621  157.5487 C   0  0  0  0  0  0  0  0  0  0  0  0
  151.4154  140.4566  156.9728 C   0  0  1  0  0  0  0  0  0  0  0  0
  151.2734  141.9964  156.9183 C   0  0  0  0  0  0  0  0  0  0  0  0
  151.4119  142.5723  158.2431 N   0  0  0  0  0  0  0  0  0  0  0  0
  151.3954  144.0136  158.3314 C   0  0  0  0  0  0  0  0  0  0  0  0
  151.9614  144.3155  159.7297 C   0  0  0  0  0  0  0  0  0  0  0  0
  152.7333  143.0348  160.1171 C   0  0  0  0  0  0  0  0  0  0  0  0
  152.6651  142.1968  158.8389 C   0  0  1  0  0  0  0  0  0  0  0  0
  152.7621  140.6725  158.9867 C   0  0  0  0  0  0  0  0  0  0  0  0
  152.6038  140.0858  157.6911 O   0  0  0  0  0  0  0  0  0  0  0  0
  149.5899  136.0675  155.8770 S   0  0  0  0  0  0  0  0  0  0  0  0
  148.2402  133.7080  153.8524 H   0  0  0  0  0  0  0  0  0  0  0  0
  149.9034  133.1126  153.6977 H   0  0  0  0  0  0  0  0  0  0  0  0
  149.5216  134.7907  153.2807 H   0  0  0  0  0  0  0  0  0  0  0  0
  151.1944  137.9339  157.2603 H   0  0  0  0  0  0  0  0  0  0  0  0
  149.3307  139.8801  156.8572 H   0  0  0  0  0  0  0  0  0  0  0  0
  149.8604  140.2185  158.4907 H   0  0  0  0  0  0  0  0  0  0  0  0
  151.5434  140.0993  155.9503 H   0  0  0  0  0  0  0  0  0  0  0  0
  152.0436  142.4032  156.2615 H   0  0  0  0  0  0  0  0  0  0  0  0
  150.3132  142.2767  156.4840 H   0  0  0  0  0  0  0  0  0  0  0  0
  152.0449  144.4450  157.5681 H   0  0  0  0  0  0  0  0  0  0  0  0
  150.3916  144.4142  158.1880 H   0  0  0  0  0  0  0  0  0  0  0  0
  152.6075  145.1935  159.7110 H   0  0  0  0  0  0  0  0  0  0  0  0
  151.1586  144.5045  160.4433 H   0  0  0  0  0  0  0  0  0  0  0  0
  153.7602  143.2377  160.4218 H   0  0  0  0  0  0  0  0  0  0  0  0
  152.2284  142.5264  160.9398 H   0  0  0  0  0  0  0  0  0  0  0  0
  153.4769  142.5237  158.1854 H   0  0  0  0  0  0  0  0  0  0  0  0
  153.7329  140.3874  159.3921 H   0  0  0  0  0  0  0  0  0  0  0  0
  152.0048  140.2917  159.6727 H   0  0  0  0  0  0  0  0  0  0  0  0
  1  2  1  0  0  0  0
  1 21  1  0  0  0  0
  1 22  1  0  0  0  0
  1 23  1  0  0  0  0
  2 20  1  0  0  0  0
  2  3  2  0  0  0  0
  3  4  1  0  0  0  0
  4  5  2  0  0  0  0
  5  6  1  0  0  0  0
  5 20  1  0  0  0  0
  6  7  1  0  0  0  0
  7  8  2  0  0  0  0
  7  9  1  0  0  0  0
  9 10  1  0  0  0  0
  9 24  1  0  0  0  0
 10 11  1  0  0  0  0
 10 25  1  0  0  0  0
 10 26  1  0  0  0  0
 11 19  1  0  0  0  0
 11 12  1  0  0  0  0
 11 27  1  0  0  0  0
 12 13  1  0  0  0  0
 12 28  1  0  0  0  0
 12 29  1  0  0  0  0
 13 17  1  0  0  0  0
 13 14  1  0  0  0  0
 14 15  1  0  0  0  0
 14 30  1  0  0  0  0
 14 31  1  0  0  0  0
 15 16  1  0  0  0  0
 15 32  1  0  0  0  0
 15 33  1  0  0  0  0
 16 17  1  0  0  0  0
 16 34  1  0  0  0  0
 16 35  1  0  0  0  0
 17 18  1  0  0  0  0
 17 36  1  0  0  0  0
 18 19  1  0  0  0  0
 18 37  1  0  0  0  0
 18 38  1  0  0  0  0
M  CHG  1   6  -1
M  END
> <s_m_source_file>
AV-unprocessed.smi

> <i_m_source_file_index>
1809

> <i_lp_mmshare_version>
43012

> <i_f3d_flags>
0

> <s_epik_input>
W0NIM11jMW5uYyhzMSlbTkhdQyg9TylbTkhdW0NIMl1bQ0BIXShbQ0gyXTIpT1tDSDJdW0NAQEhdKE4yMylbQ0gyXVtDSDJdW0NIMl0z

> <s_epik_cmdline>
J2VwaWtfcHl0aG9uJywgJy1waCcsICc3LjAnLCAnLXRuJywgJzgnLCAnLW1hJywgJzIwMCcsICctbWV0YWxfYmluZGluZycsICctaW1hZScsICc8aW5maWxlLm1hZT4nLCAnLW9tYWUnLCAnPG91dGZpbGUubWFlPic=

> <r_lp_tautomer_probability>
1

> <r_epik_Ionization_Penalty>
4.48809

> <r_epik_Ionization_Penalty_Charging>
3.27284

> <r_epik_Ionization_Penalty_Neutral>
1.21525

> <r_epik_State_Penalty>
4.69427

> <r_epik_Charging_Adjusted_Penalty>
7.96711

> <i_epik_Tot_Q>
-1

> <i_epik_Tot_abs_Q>
1

> <r_epik_Metal_State_Penalty>
1.91976

> <b_epik_Metal_Only>
1

> <s_lp_Force_Field>
OPLS_2005

> <r_lp_Energy>
48.8238

> <b_lp_Chiralities_Consistent>
1

> <s_lp_Variant>
AV-unprocessed.smi:1809-22

> <Gold.Version>
5.8.1

> <Gold.Id.Protein>
6NUR|6NUR_protein|mol2

> <Gold.PLP.Fitness>
39.9273

> <Gold.PLP.PLP>
-31.7237

> <Gold.PLP.part.hbond>
-4.7804

> <Gold.PLP.part.metal>
0.0000

> <Gold.PLP.part.buried>
-2.8601

> <Gold.PLP.part.nonpolar>
-24.3169

> <Gold.PLP.part.repulsive>
0.0923

> <Gold.PLP.ligand.clash>
0.0000

> <Gold.PLP.ligand.torsion>
0.9353

> <Gold.PLP.Chemscore.Hbond>
3.3520

> <Gold.PLP.Chemscore.CHOScore>
0.0000

> <Gold.PLP.Chemscore.Metal>
0.0000

> <Gold.Chemscore.Hbonds>
donor molecule, donor type, donor heavy atom, donor atom, acceptor molecule, acceptor atom, score
      P1  H  6896  6907       L1     4  0.34
      P1  H  6896  6908       L1     6  1.89
      P1  H  7997  8009       L1    19  0.92

> <Gold.PLP.Chemscore.Internal.Correction>
0.0182

> <Gold.Rescore>
     Score         DG    S(hbond)    S(metal)    S(lipo)     H(rot)  DE(clash)    DE(int)     intcor
     16.10     -17.29       1.60        0.00      83.65       1.31       0.20       0.98       ----

> <Gold.Chemscore.Fitness>
16.0993

> <Gold.Chemscore.DG>
-17.2858

> <Gold.Chemscore.ZeroCoef>
-5.4800

> <Gold.Chemscore.Hbond>
1.6047

> <Gold.Chemscore.Metal>
0.0000

> <Gold.Chemscore.Lipo>
83.6506

> <Gold.Chemscore.Internal_Hbond>
0.0000

> <Gold.Chemscore.DEClash>
0.2038

> <Gold.Chemscore.DEInternal>
0.9827

> <Gold.Chemscore.Rot>
1.3051

> <Gold.Chemscore.Internal.Correction>
   9.000000E+99

> <Gold.Chemscore.Hbonds>
donor molecule, donor type, donor heavy atom, donor atom, acceptor molecule, acceptor atom, score
      P1  H  6896  6907       L1     4  0.28
      P1  H  6896  6908       L1     6  0.27
      P1  H  7997  8009       L1    19  0.33

> <Gold.Chemscore.Hbond.Weighted>
-5.3598

> <Gold.Chemscore.Metal.Weighted>
-0.0000

> <Gold.Chemscore.Lipo.Weighted>
-9.7871

> <Gold.Chemscore.Internal_Hbond.Weighted>
0.0000

> <Gold.Chemscore.DEClash.Weighted>
0.2038

> <Gold.Chemscore.DEInternal.Weighted>
0.9827

> <Gold.Chemscore.Rot.Weighted>
3.3412

> <Gold.Chemscore.Internal.Correction.Weighted>
   9.000000E+99

> <Gold.Protein.RotatedTorsions>
[ 6907 6896 6895 6894 ] final -151.69 input  -60.11 | X-H torsion
[ 7974 7965 7964 7962 ] final  140.13 input  175.53 | X-H torsion
[ 8008 7997 7996 7995 ] final  159.94 input   59.86 | X-H torsion
[ 10167 10162 10161 10158 ] final  -91.73 input  -65.29 | X-H torsion
[ 10718 10713 10712 10709 ] final  -42.25 input   66.30 | X-H torsion
[ 10763 10752 10751 10750 ] final -163.90 input  -60.55 | X-H torsion
[ 11005 11000 10999 10996 ] final   -2.73 input  -57.11 | X-H torsion

> <Gold.Protein.ActiveResidues>
 VAL166  LYS551  ARG553  GLY616  TRP617  ASP618  TYR619  PRO620  LYS621  CYS622 
 ASP623  PHE694  ASN695  SER759  ASP760  ASP761  ALA762  ILE779  LEU786  VAL792 
 PHE793  MET794  SER795  GLU796  ALA797  LYS798  CYS799  TRP800  GLU811  SER814 

> <Gold.Protein.RotatedAtoms>
  151.2168  133.4525  159.2599 H   0  0  0  0  0  0  0  0  0  0  0  0  # atno 6907 bound_to 6896
  151.0924  134.9924  159.8419 H   0  0  0  0  0  0  0  0  0  0  0  0  # atno 6908 bound_to 6896
  152.5436  134.2100  159.8799 H   0  0  0  0  0  0  0  0  0  0  0  0  # atno 6909 bound_to 6896
  144.9214  139.5163  143.5661 H   0  0  0  0  0  0  0  0  0  0  0  0  # atno 7974 bound_to 7965
  156.2205  140.1817  156.7487 H   0  0  0  0  0  0  0  0  0  0  0  0  # atno 8008 bound_to 7997
  154.5858  140.0658  156.9198 H   0  0  0  0  0  0  0  0  0  0  0  0  # atno 8009 bound_to 7997
  155.2421  140.3323  155.4293 H   0  0  0  0  0  0  0  0  0  0  0  0  # atno 8010 bound_to 7997
  140.3419  143.2937  151.9825 H   0  0  0  0  0  0  0  0  0  0  0  0  # atno 10167 bound_to 10162
  156.2616  130.4197  149.8536 H   0  0  0  0  0  0  0  0  0  0  0  0  # atno 10718 bound_to 10713
  154.7079  135.3000  154.9242 H   0  0  0  0  0  0  0  0  0  0  0  0  # atno 10763 bound_to 10752
  154.0153  135.6689  153.4772 H   0  0  0  0  0  0  0  0  0  0  0  0  # atno 10764 bound_to 10752
  153.0732  135.5049  154.8260 H   0  0  0  0  0  0  0  0  0  0  0  0  # atno 10765 bound_to 10752
  140.6616  133.9315  155.8440 H   0  0  0  0  0  0  0  0  0  0  0  0  # atno 11005 bound_to 11000
  146.3206  139.8097  142.8948 LP  0  0  0  0  0  0  0  0  0  0  0  0  # atno 17320 bound_to 7965
  145.3289  141.0262  143.3457 LP  0  0  0  0  0  0  0  0  0  0  0  0  # atno 17321 bound_to 7965
  139.4839  144.6149  151.7365 LP  0  0  0  0  0  0  0  0  0  0  0  0  # atno 17342 bound_to 10162
  140.5300  144.0745  150.6050 LP  0  0  0  0  0  0  0  0  0  0  0  0  # atno 17343 bound_to 10162
  156.6049  130.8562  151.3440 LP  0  0  0  0  0  0  0  0  0  0  0  0  # atno 17370 bound_to 10713
  157.7252  130.9613  150.1607 LP  0  0  0  0  0  0  0  0  0  0  0  0  # atno 17371 bound_to 10713
  141.0461  134.0552  157.3843 LP  0  0  0  0  0  0  0  0  0  0  0  0  # atno 17394 bound_to 11000
  139.9011  135.0165  156.7272 LP  0  0  0  0  0  0  0  0  0  0  0  0  # atno 17395 bound_to 11000

$$$$
