AV-unprocessed.smi:85|AV-procd|sdf|810|dock9
  -GOLD-   2262017203D 1   1.00000     0.00000
 Structure written by MMmdl.
 62 65  0  0  0  0  0  0  0  0  1 V2000
  148.4324  135.7190  159.1151 C   0  0  0  0  0  0  0  0  0  0  0  0
  149.5059  136.4626  158.3028 C   0  0  0  0  0  0  0  0  0  0  0  0
  149.0946  136.7702  156.9314 N   0  0  0  0  0  0  0  0  0  0  0  0
  148.9431  135.6980  156.1146 C   0  0  0  0  0  0  0  0  0  0  0  0
  150.0737  135.1113  155.6478 N   0  0  0  0  0  0  0  0  0  0  0  0
  149.9945  134.0518  154.8382 C   0  0  0  0  0  0  0  0  0  0  0  0
  148.9058  133.4300  154.3819 N   0  0  0  0  0  0  0  0  0  0  0  0
  147.7660  134.0180  154.8460 C   0  0  0  0  0  0  0  0  0  0  0  0
  147.6928  135.1551  155.6991 C   0  0  0  0  0  0  0  0  0  0  0  0
  146.3628  135.4769  155.9424 N   0  0  0  0  0  0  0  0  0  0  0  0
  145.6900  134.5760  155.2814 C   0  0  0  0  0  0  0  0  0  0  0  0
  146.4531  133.6462  154.6117 N   0  0  0  0  0  0  0  0  0  0  0  0
  145.9609  132.5326  153.8131 C   0  0  0  0  0  0  0  0  0  0  0  0
  145.8441  132.8229  152.2864 C   0  0  0  0  0  0  0  0  0  0  0  0
  147.2110  133.2783  151.6990 C   0  0  0  0  0  0  0  0  0  0  0  0
  148.2617  132.3978  152.0441 O   0  0  0  0  0  0  0  0  0  0  0  0
  145.3288  131.5407  151.5857 C   0  0  0  0  0  0  0  0  0  0  0  0
  144.8963  131.7842  150.1291 C   0  0  0  0  0  0  0  0  0  0  0  0
  143.8997  132.7967  150.0840 O   0  0  0  0  0  0  0  0  0  0  0  0
  144.3658  134.0501  150.5660 C   0  0  0  0  0  0  0  0  0  0  0  0
  144.7851  133.9280  152.0426 C   0  0  0  0  0  0  0  0  0  0  0  0
  149.6787  137.9765  156.3245 C   0  0  2  0  0  0  0  0  0  0  0  0
  148.9245  138.4852  155.0831 C   0  0  0  0  0  0  0  0  0  0  0  0
  149.5636  139.7832  154.5724 C   0  0  0  0  0  0  0  0  0  0  0  0
  150.9446  139.5752  154.2794 O   0  0  0  0  0  0  0  0  0  0  0  0
  151.7646  139.1270  155.3642 C   0  0  0  0  0  0  0  0  0  0  0  0
  153.1342  138.8244  154.7338 C   0  0  0  0  0  0  0  0  0  0  0  0
  151.9349  140.2407  156.4198 C   0  0  0  0  0  0  0  0  0  0  0  0
  151.1710  137.8295  155.9630 C   0  0  0  0  0  0  0  0  0  0  0  0
  148.7600  135.5793  160.1453 H   0  0  0  0  0  0  0  0  0  0  0  0
  148.2209  134.7312  158.7050 H   0  0  0  0  0  0  0  0  0  0  0  0
  147.4990  136.2819  159.1377 H   0  0  0  0  0  0  0  0  0  0  0  0
  149.7361  137.4001  158.8098 H   0  0  0  0  0  0  0  0  0  0  0  0
  150.4314  135.8881  158.2996 H   0  0  0  0  0  0  0  0  0  0  0  0
  150.9387  133.6414  154.5120 H   0  0  0  0  0  0  0  0  0  0  0  0
  144.6099  134.5583  155.2735 H   0  0  0  0  0  0  0  0  0  0  0  0
  146.6241  131.6836  153.9838 H   0  0  0  0  0  0  0  0  0  0  0  0
  144.9931  132.2326  154.2170 H   0  0  0  0  0  0  0  0  0  0  0  0
  147.1820  133.3419  150.6128 H   0  0  0  0  0  0  0  0  0  0  0  0
  147.4705  134.2784  152.0463 H   0  0  0  0  0  0  0  0  0  0  0  0
  148.3769  131.7783  151.3398 H   0  0  0  0  0  0  0  0  0  0  0  0
  146.0801  130.7512  151.6214 H   0  0  0  0  0  0  0  0  0  0  0  0
  144.4668  131.1532  152.1305 H   0  0  0  0  0  0  0  0  0  0  0  0
  145.7424  132.0560  149.4975 H   0  0  0  0  0  0  0  0  0  0  0  0
  144.4786  130.8685  149.7102 H   0  0  0  0  0  0  0  0  0  0  0  0
  145.1837  134.4136  149.9434 H   0  0  0  0  0  0  0  0  0  0  0  0
  143.5595  134.7779  150.4717 H   0  0  0  0  0  0  0  0  0  0  0  0
  143.8908  133.7080  152.6270 H   0  0  0  0  0  0  0  0  0  0  0  0
  145.1486  134.8937  152.3948 H   0  0  0  0  0  0  0  0  0  0  0  0
  149.5922  138.7520  157.0857 H   0  0  0  0  0  0  0  0  0  0  0  0
  148.9536  137.7453  154.2823 H   0  0  0  0  0  0  0  0  0  0  0  0
  147.8738  138.6567  155.3198 H   0  0  0  0  0  0  0  0  0  0  0  0
  149.0639  140.1058  153.6589 H   0  0  0  0  0  0  0  0  0  0  0  0
  149.4355  140.5913  155.2924 H   0  0  0  0  0  0  0  0  0  0  0  0
  153.8405  138.4535  155.4774 H   0  0  0  0  0  0  0  0  0  0  0  0
  153.5673  139.7173  154.2820 H   0  0  0  0  0  0  0  0  0  0  0  0
  153.0523  138.0698  153.9504 H   0  0  0  0  0  0  0  0  0  0  0  0
  152.6334  139.9342  157.1991 H   0  0  0  0  0  0  0  0  0  0  0  0
  151.0008  140.5011  156.9149 H   0  0  0  0  0  0  0  0  0  0  0  0
  152.3281  141.1515  155.9676 H   0  0  0  0  0  0  0  0  0  0  0  0
  151.7520  137.5253  156.8342 H   0  0  0  0  0  0  0  0  0  0  0  0
  151.2793  137.0322  155.2278 H   0  0  0  0  0  0  0  0  0  0  0  0
  1  2  1  0  0  0  0
  1 30  1  0  0  0  0
  1 31  1  0  0  0  0
  1 32  1  0  0  0  0
  2  3  1  0  0  0  0
  2 33  1  0  0  0  0
  2 34  1  0  0  0  0
  3  4  1  0  0  0  0
  3 22  1  0  0  0  0
  4  9  1  0  0  0  0
  4  5  2  0  0  0  0
  5  6  1  0  0  0  0
  6  7  2  0  0  0  0
  6 35  1  0  0  0  0
  7  8  1  0  0  0  0
  8 12  1  0  0  0  0
  8  9  2  0  0  0  0
  9 10  1  0  0  0  0
 10 11  2  0  0  0  0
 11 12  1  0  0  0  0
 11 36  1  0  0  0  0
 12 13  1  0  0  0  0
 13 14  1  0  0  0  0
 13 37  1  0  0  0  0
 13 38  1  0  0  0  0
 14 21  1  0  0  0  0
 14 15  1  0  0  0  0
 14 17  1  0  0  0  0
 15 16  1  0  0  0  0
 15 39  1  0  0  0  0
 15 40  1  0  0  0  0
 16 41  1  0  0  0  0
 17 18  1  0  0  0  0
 17 42  1  0  0  0  0
 17 43  1  0  0  0  0
 18 19  1  0  0  0  0
 18 44  1  0  0  0  0
 18 45  1  0  0  0  0
 19 20  1  0  0  0  0
 20 21  1  0  0  0  0
 20 46  1  0  0  0  0
 20 47  1  0  0  0  0
 21 48  1  0  0  0  0
 21 49  1  0  0  0  0
 22 29  1  0  0  0  0
 22 23  1  0  0  0  0
 22 50  1  0  0  0  0
 23 24  1  0  0  0  0
 23 51  1  0  0  0  0
 23 52  1  0  0  0  0
 24 25  1  0  0  0  0
 24 53  1  0  0  0  0
 24 54  1  0  0  0  0
 25 26  1  0  0  0  0
 26 27  1  0  0  0  0
 26 28  1  0  0  0  0
 26 29  1  0  0  0  0
 27 55  1  0  0  0  0
 27 56  1  0  0  0  0
 27 57  1  0  0  0  0
 28 58  1  0  0  0  0
 28 59  1  0  0  0  0
 28 60  1  0  0  0  0
 29 61  1  0  0  0  0
 29 62  1  0  0  0  0
M  END
> <s_m_source_file>
AV-unprocessed.smi

> <i_m_source_file_index>
85

> <i_lp_mmshare_version>
43012

> <i_f3d_flags>
0

> <s_epik_input>
W0NIM11DMShbQ0gzXSlPW0NIMl1bQ0gyXVtDQEhdKFtDSDJdMSlOKFtDSDJdW0NIM10pYyhuW2NIXW4yKWMoYzIzKW5bY0hdbjNbQ0gyXUM0KFtDSDJdW09IXSlbQ0gyXVtDSDJdT1tDSDJdW0NIMl00

> <s_epik_cmdline>
J2VwaWtfcHl0aG9uJywgJy1waCcsICc3LjAnLCAnLXRuJywgJzgnLCAnLW1hJywgJzIwMCcsICctbWV0YWxfYmluZGluZycsICctaW1hZScsICc8aW5maWxlLm1hZT4nLCAnLW9tYWUnLCAnPG91dGZpbGUubWFlPic=

> <r_lp_tautomer_probability>
1

> <r_epik_Ionization_Penalty>
0.00336056

> <r_epik_Ionization_Penalty_Charging>
0

> <r_epik_Ionization_Penalty_Neutral>
0.00336056

> <r_epik_State_Penalty>
0.00222191

> <r_epik_Charging_Adjusted_Penalty>
0.00222191

> <i_epik_Tot_Q>
0

> <i_epik_Tot_abs_Q>
0

> <r_epik_Metal_State_Penalty>
-0

> <b_epik_Metal_Only>
0

> <s_lp_Force_Field>
OPLS_2005

> <r_lp_Energy>
35.7443

> <b_lp_Chiralities_Consistent>
1

> <s_lp_Variant>
AV-unprocessed.smi:85-1

> <Gold.Version>
5.8.1

> <Gold.Id.Protein>
6NUR|6NUR_protein|mol2

> <Gold.PLP.Fitness>
41.1953

> <Gold.PLP.PLP>
-36.3365

> <Gold.PLP.part.hbond>
-1.8251

> <Gold.PLP.part.metal>
0.0000

> <Gold.PLP.part.buried>
-7.5563

> <Gold.PLP.part.nonpolar>
-27.8667

> <Gold.PLP.part.repulsive>
0.5379

> <Gold.PLP.ligand.clash>
0.0000

> <Gold.PLP.ligand.torsion>
0.9872

> <Gold.PLP.Chemscore.Hbond>
2.0000

> <Gold.PLP.Chemscore.CHOScore>
0.0000

> <Gold.PLP.Chemscore.Metal>
0.0000

> <Gold.Chemscore.Hbonds>
donor molecule, donor type, donor heavy atom, donor atom, acceptor molecule, acceptor atom, score
      L1  H    16    41       P1 10747  0.98
      P1  H  7989  7998       L1    25  1.00

> <Gold.PLP.Chemscore.Internal.Correction>
0.8332

> <Gold.Rescore>
     Score         DG    S(hbond)    S(metal)    S(lipo)     H(rot)  DE(clash)    DE(int)     intcor
     13.09     -15.35       1.83        0.00      90.12       2.65       0.04       2.22       ----

> <Gold.Chemscore.Fitness>
13.0876

> <Gold.Chemscore.DG>
-15.3462

> <Gold.Chemscore.ZeroCoef>
-5.4800

> <Gold.Chemscore.Hbond>
1.8257

> <Gold.Chemscore.Metal>
0.0000

> <Gold.Chemscore.Lipo>
90.1239

> <Gold.Chemscore.Internal_Hbond>
0.0000

> <Gold.Chemscore.DEClash>
0.0358

> <Gold.Chemscore.DEInternal>
2.2229

> <Gold.Chemscore.Rot>
2.6469

> <Gold.Chemscore.Internal.Correction>
   9.000000E+99

> <Gold.Chemscore.Hbonds>
donor molecule, donor type, donor heavy atom, donor atom, acceptor molecule, acceptor atom, score
      L1  H    16    41       P1 10747  0.92
      P1  H  7989  7998       L1    25  0.70

> <Gold.Chemscore.Hbond.Weighted>
-6.0978

> <Gold.Chemscore.Metal.Weighted>
-0.0000

> <Gold.Chemscore.Lipo.Weighted>
-10.5445

> <Gold.Chemscore.Internal_Hbond.Weighted>
0.0000

> <Gold.Chemscore.DEClash.Weighted>
0.0358

> <Gold.Chemscore.DEInternal.Weighted>
2.2229

> <Gold.Chemscore.Rot.Weighted>
6.7761

> <Gold.Chemscore.Internal.Correction.Weighted>
   9.000000E+99

> <Gold.Protein.RotatedTorsions>
[ 6907 6896 6895 6894 ] final  138.73 input  -60.11 | X-H torsion
[ 7974 7965 7964 7962 ] final  140.39 input  175.53 | X-H torsion
[ 8008 7997 7996 7995 ] final  -25.35 input   59.86 | X-H torsion
[ 10167 10162 10161 10158 ] final   99.60 input  -65.29 | X-H torsion
[ 10718 10713 10712 10709 ] final  -52.70 input   66.30 | X-H torsion
[ 10763 10752 10751 10750 ] final -116.24 input  -60.55 | X-H torsion
[ 11005 11000 10999 10996 ] final  158.36 input  -57.11 | X-H torsion

> <Gold.Protein.ActiveResidues>
 VAL166  LYS551  ARG553  GLY616  TRP617  ASP618  TYR619  PRO620  LYS621  CYS622 
 ASP623  PHE694  ASN695  SER759  ASP760  ASP761  ALA762  ILE779  LEU786  VAL792 
 PHE793  MET794  SER795  GLU796  ALA797  LYS798  CYS799  TRP800  GLU811  SER814 

> <Gold.Protein.RotatedAtoms>
  152.2632  133.5316  159.5393 H   0  0  0  0  0  0  0  0  0  0  0  0  # atno 6907 bound_to 6896
  150.7132  134.0801  159.3904 H   0  0  0  0  0  0  0  0  0  0  0  0  # atno 6908 bound_to 6896
  151.8718  135.0487  160.0531 H   0  0  0  0  0  0  0  0  0  0  0  0  # atno 6909 bound_to 6896
  144.9191  139.5191  143.5672 H   0  0  0  0  0  0  0  0  0  0  0  0  # atno 7974 bound_to 7965
  154.4480  140.1929  156.0606 H   0  0  0  0  0  0  0  0  0  0  0  0  # atno 8008 bound_to 7997
  156.0586  140.3299  155.7407 H   0  0  0  0  0  0  0  0  0  0  0  0  # atno 8009 bound_to 7997
  155.5447  140.0589  157.2853 H   0  0  0  0  0  0  0  0  0  0  0  0  # atno 8010 bound_to 7997
  139.7602  144.6956  151.0303 H   0  0  0  0  0  0  0  0  0  0  0  0  # atno 10167 bound_to 10162
  156.1598  130.4150  149.9811 H   0  0  0  0  0  0  0  0  0  0  0  0  # atno 10718 bound_to 10713
  154.8512  135.4353  154.1789 H   0  0  0  0  0  0  0  0  0  0  0  0  # atno 10763 bound_to 10752
  153.2884  135.6959  153.7322 H   0  0  0  0  0  0  0  0  0  0  0  0  # atno 10764 bound_to 10752
  153.6499  135.3453  155.3071 H   0  0  0  0  0  0  0  0  0  0  0  0  # atno 10765 bound_to 10752
  140.1858  134.8443  157.2855 H   0  0  0  0  0  0  0  0  0  0  0  0  # atno 11005 bound_to 11000
  146.3196  139.8057  142.8956 LP  0  0  0  0  0  0  0  0  0  0  0  0  # atno 17320 bound_to 7965
  145.3326  141.0270  143.3438 LP  0  0  0  0  0  0  0  0  0  0  0  0  # atno 17321 bound_to 7965
  140.7806  143.4706  151.0152 LP  0  0  0  0  0  0  0  0  0  0  0  0  # atno 17342 bound_to 10162
  139.8392  143.7587  152.3180 LP  0  0  0  0  0  0  0  0  0  0  0  0  # atno 17343 bound_to 10162
  156.7643  130.9162  151.3642 LP  0  0  0  0  0  0  0  0  0  0  0  0  # atno 17370 bound_to 10713
  157.6724  130.9063  150.0070 LP  0  0  0  0  0  0  0  0  0  0  0  0  # atno 17371 bound_to 10713
  140.2215  134.4017  155.7563 LP  0  0  0  0  0  0  0  0  0  0  0  0  # atno 17394 bound_to 11000
  141.2225  133.7168  156.8498 LP  0  0  0  0  0  0  0  0  0  0  0  0  # atno 17395 bound_to 11000

$$$$
