AV-unprocessed.smi:1965|AV-procd|sdf|7942|dock1
  -GOLD-   2272010113D 1   1.00000     0.00000
 Structure written by MMmdl.
 36 38  0  0  0  0  0  0  0  0  3 V2000
  147.4624  134.9358  157.9618 O   0  0  0  0  0  0  0  0  0  0  0  0
  148.4877  135.5746  158.1946 C   0  0  0  0  0  0  0  0  0  0  0  0
  149.0390  135.6823  159.4314 N   0  5  0  0  0  0  0  0  0  0  0  0
  148.3116  135.5842  160.5596 C   0  0  0  0  0  0  0  0  0  0  0  0
  148.2670  136.5452  161.4897 N   0  0  0  0  0  0  0  0  0  0  0  0
  147.4452  136.2310  162.5735 C   0  0  0  0  0  0  0  0  0  0  0  0
  146.8524  135.0010  162.4673 C   0  0  0  0  0  0  0  0  0  0  0  0
  147.3138  134.1944  160.9957 S   0  0  0  0  0  0  0  0  0  0  0  0
  149.1057  136.2038  157.1778 N   0  0  0  0  0  0  0  0  0  0  0  0
  148.6578  136.2377  155.7917 C   0  0  2  0  0  0  0  0  0  0  0  0
  147.2297  136.7832  155.5981 C   0  0  0  0  0  0  0  0  0  0  0  0
  146.6135  135.9210  154.4782 C   0  0  0  0  0  0  0  0  0  0  0  0
  147.6959  135.0190  154.0392 N   0  3  2  0  0  0  0  0  0  0  0  0
  147.2980  133.7419  153.4079 C   0  0  0  0  0  0  0  0  0  0  0  0
  148.5617  132.9801  152.9582 C   0  0  0  0  0  0  0  0  0  0  0  0
  149.5708  132.8094  154.1128 C   0  0  0  0  0  0  0  0  0  0  0  0
  149.8773  134.1609  154.7866 C   0  0  0  0  0  0  0  0  0  0  0  0
  148.5605  134.8291  155.2128 C   0  0  1  0  0  0  0  0  0  0  0  0
  147.3410  136.9429  163.3789 H   0  0  0  0  0  0  0  0  0  0  0  0
  146.1792  134.5206  163.1613 H   0  0  0  0  0  0  0  0  0  0  0  0
  149.9507  136.7111  157.3968 H   0  0  0  0  0  0  0  0  0  0  0  0
  149.3561  136.8258  155.1925 H   0  0  0  0  0  0  0  0  0  0  0  0
  146.6387  136.6810  156.5098 H   0  0  0  0  0  0  0  0  0  0  0  0
  147.2464  137.8417  155.3358 H   0  0  0  0  0  0  0  0  0  0  0  0
  145.7763  135.3418  154.8709 H   0  0  0  0  0  0  0  0  0  0  0  0
  146.2492  136.5210  153.6438 H   0  0  0  0  0  0  0  0  0  0  0  0
  146.7210  133.1426  154.1139 H   0  0  0  0  0  0  0  0  0  0  0  0
  146.6537  133.9422  152.5512 H   0  0  0  0  0  0  0  0  0  0  0  0
  148.2868  132.0052  152.5548 H   0  0  0  0  0  0  0  0  0  0  0  0
  149.0397  133.5258  152.1435 H   0  0  0  0  0  0  0  0  0  0  0  0
  149.1618  132.1200  154.8528 H   0  0  0  0  0  0  0  0  0  0  0  0
  150.4914  132.3557  153.7443 H   0  0  0  0  0  0  0  0  0  0  0  0
  150.5232  134.0121  155.6526 H   0  0  0  0  0  0  0  0  0  0  0  0
  150.4214  134.8063  154.0956 H   0  0  0  0  0  0  0  0  0  0  0  0
  148.0406  134.1843  155.9258 H   0  0  0  0  0  0  0  0  0  0  0  0
  148.2432  135.5341  153.3646 H   0  0  0  0  0  0  0  0  0  0  0  0
  1  2  2  0  0  0  0
  2  3  1  0  0  0  0
  2  9  1  0  0  0  0
  3  4  1  0  0  0  0
  4  8  1  0  0  0  0
  4  5  2  0  0  0  0
  5  6  1  0  0  0  0
  6  7  2  0  0  0  0
  6 19  1  0  0  0  0
  7  8  1  0  0  0  0
  7 20  1  0  0  0  0
  9 10  1  0  0  0  0
  9 21  1  0  0  0  0
 10 18  1  0  0  0  0
 10 11  1  0  0  0  0
 10 22  1  0  0  0  0
 11 12  1  0  0  0  0
 11 23  1  0  0  0  0
 11 24  1  0  0  0  0
 12 13  1  0  0  0  0
 12 25  1  0  0  0  0
 12 26  1  0  0  0  0
 13 18  1  0  0  0  0
 13 14  1  0  0  0  0
 13 36  1  0  0  0  0
 14 15  1  0  0  0  0
 14 27  1  0  0  0  0
 14 28  1  0  0  0  0
 15 16  1  0  0  0  0
 15 29  1  0  0  0  0
 15 30  1  0  0  0  0
 16 17  1  0  0  0  0
 16 31  1  0  0  0  0
 16 32  1  0  0  0  0
 17 18  1  0  0  0  0
 17 33  1  0  0  0  0
 17 34  1  0  0  0  0
 18 35  1  0  0  0  0
M  CHG  1   3  -1
M  CHG  1  13   1
M  END
> <s_m_source_file>
AV-unprocessed.smi

> <i_m_source_file_index>
1965

> <i_lp_mmshare_version>
43012

> <i_f3d_flags>
0

> <s_epik_input>
czFbY0hdW2NIXW5jMVtOSF1DKD1PKVtOSF1bQ0BIXShbQ0gyXVtDSDJdMilbQ0BASF0oTjIzKVtDSDJdW0NIMl1bQ0gyXVtDSDJdMw==

> <s_epik_cmdline>
J2VwaWtfcHl0aG9uJywgJy1waCcsICc3LjAnLCAnLXRuJywgJzgnLCAnLW1hJywgJzIwMCcsICctbWV0YWxfYmluZGluZycsICctaW1hZScsICc8aW5maWxlLm1hZT4nLCAnLW9tYWUnLCAnPG91dGZpbGUubWFlPic=

> <r_lp_tautomer_probability>
1

> <r_epik_Ionization_Penalty>
7.4116

> <r_epik_Ionization_Penalty_Charging>
6.13869

> <r_epik_Ionization_Penalty_Neutral>
1.27291

> <r_epik_State_Penalty>
6.13761

> <r_epik_Charging_Adjusted_Penalty>
12.2763

> <i_epik_Tot_Q>
0

> <i_epik_Tot_abs_Q>
2

> <r_epik_Metal_State_Penalty>
2.08142

> <b_epik_Metal_Only>
1

> <s_lp_Force_Field>
OPLS_2005

> <r_lp_Energy>
26.2692

> <b_lp_Chiralities_Consistent>
1

> <s_lp_Variant>
AV-unprocessed.smi:1965-11

> <Gold.Version>
5.8.1

> <Gold.Id.Protein>
6NUR|6NUR_protein|mol2

> <Gold.PLP.Fitness>
42.2347

> <Gold.PLP.PLP>
-28.5962

> <Gold.PLP.part.hbond>
-3.0000

> <Gold.PLP.part.metal>
0.0000

> <Gold.PLP.part.buried>
-4.2905

> <Gold.PLP.part.nonpolar>
-21.8292

> <Gold.PLP.part.repulsive>
0.0405

> <Gold.PLP.ligand.clash>
0.0000

> <Gold.PLP.ligand.torsion>
0.6925

> <Gold.PLP.Chemscore.Hbond>
5.0000

> <Gold.PLP.Chemscore.CHOScore>
0.0000

> <Gold.PLP.Chemscore.Metal>
0.0000

> <Gold.Chemscore.Hbonds>
donor molecule, donor type, donor heavy atom, donor atom, acceptor molecule, acceptor atom, score
      L1  H    13    36       P1  7948  2.00
      P1  H  6896  6909       L1     3  2.00
      P1  H  6931  6943       L1     5  1.00

> <Gold.PLP.Chemscore.Internal.Correction>
0.0236

> <Gold.Rescore>
     Score         DG    S(hbond)    S(metal)    S(lipo)     H(rot)  DE(clash)    DE(int)     intcor
     14.48     -17.24       2.42        0.00      53.31       1.00       0.01       2.76       ----

> <Gold.Chemscore.Fitness>
14.4781

> <Gold.Chemscore.DG>
-17.2432

> <Gold.Chemscore.ZeroCoef>
-5.4800

> <Gold.Chemscore.Hbond>
2.4209

> <Gold.Chemscore.Metal>
0.0000

> <Gold.Chemscore.Lipo>
53.3102

> <Gold.Chemscore.Internal_Hbond>
0.0000

> <Gold.Chemscore.DEClash>
0.0064

> <Gold.Chemscore.DEInternal>
2.7588

> <Gold.Chemscore.Rot>
1.0000

> <Gold.Chemscore.Internal.Correction>
   9.000000E+99

> <Gold.Chemscore.Hbonds>
donor molecule, donor type, donor heavy atom, donor atom, acceptor molecule, acceptor atom, score
      L1  H    13    36       P1  7948  1.00
      P1  H  6896  6909       L1     3  0.50
      P1  H  6931  6943       L1     5  0.55

> <Gold.Chemscore.Hbond.Weighted>
-8.0859

> <Gold.Chemscore.Metal.Weighted>
-0.0000

> <Gold.Chemscore.Lipo.Weighted>
-6.2373

> <Gold.Chemscore.Internal_Hbond.Weighted>
0.0000

> <Gold.Chemscore.DEClash.Weighted>
0.0064

> <Gold.Chemscore.DEInternal.Weighted>
2.7588

> <Gold.Chemscore.Rot.Weighted>
2.5600

> <Gold.Chemscore.Internal.Correction.Weighted>
   9.000000E+99

> <Gold.Protein.RotatedTorsions>
[ 6907 6896 6895 6894 ] final   44.37 input  -60.11 | X-H torsion
[ 7974 7965 7964 7962 ] final   68.69 input  175.53 | X-H torsion
[ 8008 7997 7996 7995 ] final  -95.48 input   59.86 | X-H torsion
[ 10167 10162 10161 10158 ] final   16.09 input  -65.29 | X-H torsion
[ 10718 10713 10712 10709 ] final  -99.03 input   66.30 | X-H torsion
[ 10763 10752 10751 10750 ] final  116.34 input  -60.55 | X-H torsion
[ 11005 11000 10999 10996 ] final -109.67 input  -57.11 | X-H torsion

> <Gold.Protein.ActiveResidues>
 VAL166  LYS551  ARG553  GLY616  TRP617  ASP618  TYR619  PRO620  LYS621  CYS622 
 ASP623  PHE694  ASN695  SER759  ASP760  ASP761  ALA762  ILE779  LEU786  VAL792 
 PHE793  MET794  SER795  GLU796  ALA797  LYS798  CYS799  TRP800  GLU811  SER814 

> <Gold.Protein.RotatedAtoms>
  152.2317  134.8315  160.0472 H   0  0  0  0  0  0  0  0  0  0  0  0  # atno 6907 bound_to 6896
  151.9062  133.3545  159.3856 H   0  0  0  0  0  0  0  0  0  0  0  0  # atno 6908 bound_to 6896
  150.7027  134.4704  159.5467 H   0  0  0  0  0  0  0  0  0  0  0  0  # atno 6909 bound_to 6896
  145.7995  139.2975  143.1163 H   0  0  0  0  0  0  0  0  0  0  0  0  # atno 7974 bound_to 7965
  154.7619  140.0480  157.0980 H   0  0  0  0  0  0  0  0  0  0  0  0  # atno 8008 bound_to 7997
  154.9927  140.3115  155.4880 H   0  0  0  0  0  0  0  0  0  0  0  0  # atno 8009 bound_to 7997
  156.2905  140.2216  156.5033 H   0  0  0  0  0  0  0  0  0  0  0  0  # atno 8010 bound_to 7997
  140.5822  143.8959  150.6799 H   0  0  0  0  0  0  0  0  0  0  0  0  # atno 10167 bound_to 10162
  156.0123  130.5264  150.6610 H   0  0  0  0  0  0  0  0  0  0  0  0  # atno 10718 bound_to 10713
  153.5357  135.3569  155.2696 H   0  0  0  0  0  0  0  0  0  0  0  0  # atno 10763 bound_to 10752
  154.8722  135.4079  154.3100 H   0  0  0  0  0  0  0  0  0  0  0  0  # atno 10764 bound_to 10752
  153.3798  135.7067  153.6642 H   0  0  0  0  0  0  0  0  0  0  0  0  # atno 10765 bound_to 10752
  141.0834  133.9180  157.2238 H   0  0  0  0  0  0  0  0  0  0  0  0  # atno 11005 bound_to 11000
  145.9892  140.8617  143.0075 LP  0  0  0  0  0  0  0  0  0  0  0  0  # atno 17320 bound_to 7965
  144.6770  140.2192  143.7368 LP  0  0  0  0  0  0  0  0  0  0  0  0  # atno 17321 bound_to 7965
  140.2461  143.3627  152.1445 LP  0  0  0  0  0  0  0  0  0  0  0  0  # atno 17342 bound_to 10162
  139.5176  144.6994  151.5536 LP  0  0  0  0  0  0  0  0  0  0  0  0  # atno 17343 bound_to 10162
  157.4352  131.0854  151.0998 LP  0  0  0  0  0  0  0  0  0  0  0  0  # atno 17370 bound_to 10713
  157.1559  130.6204  149.5596 LP  0  0  0  0  0  0  0  0  0  0  0  0  # atno 17371 bound_to 10713
  139.9650  135.0144  156.9363 LP  0  0  0  0  0  0  0  0  0  0  0  0  # atno 17394 bound_to 11000
  140.5417  134.0714  155.7343 LP  0  0  0  0  0  0  0  0  0  0  0  0  # atno 17395 bound_to 11000

$$$$
