AV-unprocessed.smi:316|AV-procd|sdf|2324|dock3
  -GOLD-   2262022223D 1   1.00000     0.00000
 Structure written by MMmdl.
 42 43  0  0  0  0  0  0  0  0  1 V2000
  144.0968  140.7240  154.9246 C   0  0  0  0  0  0  0  0  0  0  0  0
  145.1072  141.3403  154.0785 N   0  0  0  0  0  0  0  0  0  0  0  0
  146.2124  141.9432  154.5396 C   0  0  0  0  0  0  0  0  0  0  0  0
  146.4851  142.0271  155.7373 O   0  0  0  0  0  0  0  0  0  0  0  0
  147.1550  142.5368  153.4902 C   0  0  0  0  0  0  0  0  0  0  0  0
  148.5505  141.8842  153.5233 C   0  0  0  0  0  0  0  0  0  0  0  0
  149.2480  142.1640  154.7733 N   0  0  0  0  0  0  0  0  0  0  0  0
  150.0590  141.3066  155.4088 C   0  0  0  0  0  0  0  0  0  0  0  0
  150.2985  140.1694  155.0022 O   0  0  0  0  0  0  0  0  0  0  0  0
  150.5468  141.8460  156.5383 N   0  0  0  0  0  0  0  0  0  0  0  0
  151.3722  141.2308  157.5219 C   0  0  0  0  0  0  0  0  0  0  0  0
  151.8238  139.8953  157.3836 C   0  0  0  0  0  0  0  0  0  0  0  0
  152.6887  139.3557  158.3509 C   0  0  0  0  0  0  0  0  0  0  0  0
  153.0882  140.1776  159.4175 C   0  0  0  0  0  0  0  0  0  0  0  0
  152.6808  141.4550  159.5555 N   0  0  0  0  0  0  0  0  0  0  0  0
  151.8342  141.9852  158.6386 C   0  0  0  0  0  0  0  0  0  0  0  0
  151.4271  143.3236  158.8436 N   0  0  0  0  0  0  0  0  0  0  0  0
  152.2044  144.2119  159.7016 C   0  0  0  0  0  0  0  0  0  0  0  0
  151.2761  145.3859  159.9992 C   0  0  0  0  0  0  0  0  0  0  0  0
  149.9114  144.7089  160.0803 C   0  0  0  0  0  0  0  0  0  0  0  0
  150.0044  143.5827  159.0450 C   0  0  0  0  0  0  0  0  0  0  0  0
  143.2890  140.3269  154.3099 H   0  0  0  0  0  0  0  0  0  0  0  0
  143.6720  141.4527  155.6163 H   0  0  0  0  0  0  0  0  0  0  0  0
  144.5228  139.9023  155.5015 H   0  0  0  0  0  0  0  0  0  0  0  0
  144.9544  141.3137  153.0806 H   0  0  0  0  0  0  0  0  0  0  0  0
  146.7034  142.4042  152.5065 H   0  0  0  0  0  0  0  0  0  0  0  0
  147.2406  143.6129  153.6505 H   0  0  0  0  0  0  0  0  0  0  0  0
  148.4754  140.8048  153.3774 H   0  0  0  0  0  0  0  0  0  0  0  0
  149.1650  142.2657  152.7072 H   0  0  0  0  0  0  0  0  0  0  0  0
  149.1052  143.0769  155.1803 H   0  0  0  0  0  0  0  0  0  0  0  0
  150.1946  142.7601  156.7824 H   0  0  0  0  0  0  0  0  0  0  0  0
  151.5405  139.2828  156.5415 H   0  0  0  0  0  0  0  0  0  0  0  0
  153.0474  138.3404  158.2692 H   0  0  0  0  0  0  0  0  0  0  0  0
  153.7578  139.8025  160.1772 H   0  0  0  0  0  0  0  0  0  0  0  0
  152.4709  143.7159  160.6360 H   0  0  0  0  0  0  0  0  0  0  0  0
  153.1227  144.5349  159.2106 H   0  0  0  0  0  0  0  0  0  0  0  0
  151.5449  145.9202  160.9107 H   0  0  0  0  0  0  0  0  0  0  0  0
  151.2918  146.0950  159.1702 H   0  0  0  0  0  0  0  0  0  0  0  0
  149.7737  144.2829  161.0750 H   0  0  0  0  0  0  0  0  0  0  0  0
  149.0836  145.3925  159.8900 H   0  0  0  0  0  0  0  0  0  0  0  0
  149.5708  143.9114  158.1004 H   0  0  0  0  0  0  0  0  0  0  0  0
  149.4650  142.6932  159.3738 H   0  0  0  0  0  0  0  0  0  0  0  0
  1  2  1  0  0  0  0
  1 22  1  0  0  0  0
  1 23  1  0  0  0  0
  1 24  1  0  0  0  0
  2  3  1  0  0  0  0
  2 25  1  0  0  0  0
  3  4  2  0  0  0  0
  3  5  1  0  0  0  0
  5  6  1  0  0  0  0
  5 26  1  0  0  0  0
  5 27  1  0  0  0  0
  6  7  1  0  0  0  0
  6 28  1  0  0  0  0
  6 29  1  0  0  0  0
  7  8  1  0  0  0  0
  7 30  1  0  0  0  0
  8  9  2  0  0  0  0
  8 10  1  0  0  0  0
 10 11  1  0  0  0  0
 10 31  1  0  0  0  0
 11 16  1  0  0  0  0
 11 12  2  0  0  0  0
 12 13  1  0  0  0  0
 12 32  1  0  0  0  0
 13 14  2  0  0  0  0
 13 33  1  0  0  0  0
 14 15  1  0  0  0  0
 14 34  1  0  0  0  0
 15 16  2  0  0  0  0
 16 17  1  0  0  0  0
 17 21  1  0  0  0  0
 17 18  1  0  0  0  0
 18 19  1  0  0  0  0
 18 35  1  0  0  0  0
 18 36  1  0  0  0  0
 19 20  1  0  0  0  0
 19 37  1  0  0  0  0
 19 38  1  0  0  0  0
 20 21  1  0  0  0  0
 20 39  1  0  0  0  0
 20 40  1  0  0  0  0
 21 41  1  0  0  0  0
 21 42  1  0  0  0  0
M  END
> <s_m_source_file>
AV-unprocessed.smi

> <i_m_source_file_index>
316

> <i_lp_mmshare_version>
43012

> <i_f3d_flags>
0

> <s_epik_input>
W0NIM11bTkhdQyg9TylbQ0gyXVtDSDJdW05IXUMoPU8pW05IXWMxW2NIXVtjSF1bY0hdbmMxTjJbQ0gyXVtDSDJdW0NIMl1bQ0gyXTI=

> <s_epik_cmdline>
J2VwaWtfcHl0aG9uJywgJy1waCcsICc3LjAnLCAnLXRuJywgJzgnLCAnLW1hJywgJzIwMCcsICctbWV0YWxfYmluZGluZycsICctaW1hZScsICc8aW5maWxlLm1hZT4nLCAnLW9tYWUnLCAnPG91dGZpbGUubWFlPic=

> <r_lp_tautomer_probability>
1

> <r_epik_Ionization_Penalty>
0.0916714

> <r_epik_Ionization_Penalty_Charging>
0

> <r_epik_Ionization_Penalty_Neutral>
0.0916714

> <r_epik_State_Penalty>
0.0814442

> <r_epik_Charging_Adjusted_Penalty>
0.0814442

> <i_epik_Tot_Q>
0

> <i_epik_Tot_abs_Q>
0

> <r_epik_Metal_State_Penalty>
0.0705089

> <b_epik_Metal_Only>
0

> <s_lp_Force_Field>
OPLS_2005

> <r_lp_Energy>
29.6087

> <b_lp_Chiralities_Consistent>
1

> <s_lp_Variant>
AV-unprocessed.smi:316-1

> <Gold.Version>
5.8.1

> <Gold.Id.Protein>
6NUR|6NUR_protein|mol2

> <Gold.PLP.Fitness>
44.0773

> <Gold.PLP.PLP>
-38.6481

> <Gold.PLP.part.hbond>
-2.0000

> <Gold.PLP.part.metal>
0.0000

> <Gold.PLP.part.buried>
-7.5275

> <Gold.PLP.part.nonpolar>
-29.2663

> <Gold.PLP.part.repulsive>
0.4630

> <Gold.PLP.ligand.clash>
0.0000

> <Gold.PLP.ligand.torsion>
0.4628

> <Gold.PLP.Chemscore.Hbond>
2.0000

> <Gold.PLP.Chemscore.CHOScore>
0.0000

> <Gold.PLP.Chemscore.Metal>
0.0000

> <Gold.Chemscore.Hbonds>
donor molecule, donor type, donor heavy atom, donor atom, acceptor molecule, acceptor atom, score
      L1  H     2    25       P1 10175  0.25
      L1  H     7    30       P1  8028  1.00
      P1  H  7989  7998       L1     9  0.50

> <Gold.PLP.Chemscore.Internal.Correction>
0.3548

> <Gold.Rescore>
     Score         DG    S(hbond)    S(metal)    S(lipo)     H(rot)  DE(clash)    DE(int)     intcor
     14.63     -16.39       2.02        0.00      78.18       1.94       0.02       1.73       ----

> <Gold.Chemscore.Fitness>
14.6348

> <Gold.Chemscore.DG>
-16.3908

> <Gold.Chemscore.ZeroCoef>
-5.4800

> <Gold.Chemscore.Hbond>
2.0179

> <Gold.Chemscore.Metal>
0.0000

> <Gold.Chemscore.Lipo>
78.1768

> <Gold.Chemscore.Internal_Hbond>
0.0000

> <Gold.Chemscore.DEClash>
0.0217

> <Gold.Chemscore.DEInternal>
1.7343

> <Gold.Chemscore.Rot>
1.9437

> <Gold.Chemscore.Internal.Correction>
   9.000000E+99

> <Gold.Chemscore.Hbonds>
donor molecule, donor type, donor heavy atom, donor atom, acceptor molecule, acceptor atom, score
      L1  H     2    25       P1 10175  0.02
      L1  H     7    30       P1  8028  1.00
      P1  H  7989  7998       L1     9  0.04

> <Gold.Chemscore.Hbond.Weighted>
-6.7399

> <Gold.Chemscore.Metal.Weighted>
-0.0000

> <Gold.Chemscore.Lipo.Weighted>
-9.1467

> <Gold.Chemscore.Internal_Hbond.Weighted>
0.0000

> <Gold.Chemscore.DEClash.Weighted>
0.0217

> <Gold.Chemscore.DEInternal.Weighted>
1.7343

> <Gold.Chemscore.Rot.Weighted>
4.9759

> <Gold.Chemscore.Internal.Correction.Weighted>
   9.000000E+99

> <Gold.Protein.RotatedTorsions>
[ 6907 6896 6895 6894 ] final   98.36 input  -60.11 | X-H torsion
[ 7974 7965 7964 7962 ] final  111.02 input  175.53 | X-H torsion
[ 8008 7997 7996 7995 ] final  108.35 input   59.86 | X-H torsion
[ 10167 10162 10161 10158 ] final  -34.96 input  -65.29 | X-H torsion
[ 10718 10713 10712 10709 ] final -170.70 input   66.30 | X-H torsion
[ 10763 10752 10751 10750 ] final  -14.01 input  -60.55 | X-H torsion
[ 11005 11000 10999 10996 ] final  -34.79 input  -57.11 | X-H torsion

> <Gold.Protein.ActiveResidues>
 VAL166  LYS551  ARG553  GLY616  TRP617  ASP618  TYR619  PRO620  LYS621  CYS622 
 ASP623  PHE694  ASN695  SER759  ASP760  ASP761  ALA762  ILE779  LEU786  VAL792 
 PHE793  MET794  SER795  GLU796  ALA797  LYS798  CYS799  TRP800  GLU811  SER814 

> <Gold.Protein.RotatedAtoms>
  152.5410  134.0592  159.8144 H   0  0  0  0  0  0  0  0  0  0  0  0  # atno 6907 bound_to 6896
  151.0723  133.5449  159.2633 H   0  0  0  0  0  0  0  0  0  0  0  0  # atno 6908 bound_to 6896
  151.2307  135.0561  159.9040 H   0  0  0  0  0  0  0  0  0  0  0  0  # atno 6909 bound_to 6896
  145.2475  139.2753  143.4085 H   0  0  0  0  0  0  0  0  0  0  0  0  # atno 7974 bound_to 7965
  156.1896  140.3078  155.9306 H   0  0  0  0  0  0  0  0  0  0  0  0  # atno 8008 bound_to 7997
  155.3203  140.0455  157.3056 H   0  0  0  0  0  0  0  0  0  0  0  0  # atno 8009 bound_to 7997
  154.5436  140.2269  155.8609 H   0  0  0  0  0  0  0  0  0  0  0  0  # atno 8010 bound_to 7997
  140.7175  143.3511  151.2155 H   0  0  0  0  0  0  0  0  0  0  0  0  # atno 10167 bound_to 10162
  156.7300  130.9302  151.3104 H   0  0  0  0  0  0  0  0  0  0  0  0  # atno 10718 bound_to 10713
  153.5219  135.7015  153.5727 H   0  0  0  0  0  0  0  0  0  0  0  0  # atno 10763 bound_to 10752
  153.3772  135.3929  155.1831 H   0  0  0  0  0  0  0  0  0  0  0  0  # atno 10764 bound_to 10752
  154.8693  135.3826  154.4709 H   0  0  0  0  0  0  0  0  0  0  0  0  # atno 10765 bound_to 10752
  140.9744  133.7091  156.1578 H   0  0  0  0  0  0  0  0  0  0  0  0  # atno 11005 bound_to 11000
  146.3312  140.2856  142.8612 LP  0  0  0  0  0  0  0  0  0  0  0  0  # atno 17320 bound_to 7965
  144.9533  140.8201  143.5558 LP  0  0  0  0  0  0  0  0  0  0  0  0  # atno 17321 bound_to 7965
  139.7041  143.9484  152.2919 LP  0  0  0  0  0  0  0  0  0  0  0  0  # atno 17342 bound_to 10162
  139.9187  144.6813  150.8485 LP  0  0  0  0  0  0  0  0  0  0  0  0  # atno 17343 bound_to 10162
  157.6863  130.9188  150.0394 LP  0  0  0  0  0  0  0  0  0  0  0  0  # atno 17370 bound_to 10713
  156.1535  130.3643  149.9402 LP  0  0  0  0  0  0  0  0  0  0  0  0  # atno 17371 bound_to 10713
  140.7280  134.4285  157.5568 LP  0  0  0  0  0  0  0  0  0  0  0  0  # atno 17394 bound_to 11000
  139.8925  134.8754  156.2269 LP  0  0  0  0  0  0  0  0  0  0  0  0  # atno 17395 bound_to 11000

$$$$
