AV-unprocessed.smi:3183|AV-procd|sdf|12154|dock2
  -GOLD-   2272017593D 1   1.00000     0.00000
 Structure written by MMmdl.
 43 44  0  0  0  0  0  0  0  0  2 V2000
  152.2404  143.4978  161.5533 C   0  0  0  0  0  0  0  0  0  0  0  0
  152.6016  144.0113  160.1448 C   0  0  1  0  0  0  0  0  0  0  0  0
  152.8691  142.8483  159.1663 C   0  0  0  0  0  0  0  0  0  0  0  0
  151.5771  142.1241  158.7507 C   0  0  0  0  0  0  0  0  0  0  0  0
  150.5568  143.1050  158.1482 C   0  0  1  0  0  0  0  0  0  0  0  0
  149.3059  142.3970  157.8009 N   0  3  0  0  0  0  0  0  0  0  0  0
  149.4891  141.2033  156.9510 C   0  0  0  0  0  0  0  0  0  0  0  0
  149.5980  141.5893  155.4688 C   0  0  0  0  0  0  0  0  0  0  0  0
  148.6766  140.8277  154.5641 C   0  0  0  0  0  0  0  0  0  0  0  0
  147.4524  141.1572  154.0486 C   0  0  0  0  0  0  0  0  0  0  0  0
  147.0864  140.0282  153.2659 C   0  0  0  0  0  0  0  0  0  0  0  0
  148.0025  139.0770  153.2914 N   0  0  0  0  0  0  0  0  0  0  0  0
  148.9786  139.5632  154.0862 N   0  0  0  0  0  0  0  0  0  0  0  0
  150.1502  138.7402  154.3210 C   0  0  0  0  0  0  0  0  0  0  0  0
  150.2664  144.2598  159.1243 C   0  0  0  0  0  0  0  0  0  0  0  0
  151.5610  144.9892  159.5394 C   0  0  1  0  0  0  0  0  0  0  0  0
  151.2712  146.2021  160.4388 C   0  0  0  0  0  0  0  0  0  0  0  0
  151.2752  142.9929  161.5738 H   0  0  0  0  0  0  0  0  0  0  0  0
  152.2039  144.3115  162.2777 H   0  0  0  0  0  0  0  0  0  0  0  0
  152.9878  142.7899  161.9120 H   0  0  0  0  0  0  0  0  0  0  0  0
  153.5404  144.5570  160.2509 H   0  0  0  0  0  0  0  0  0  0  0  0
  153.3587  143.2387  158.2729 H   0  0  0  0  0  0  0  0  0  0  0  0
  153.5701  142.1375  159.6054 H   0  0  0  0  0  0  0  0  0  0  0  0
  151.8153  141.3446  158.0260 H   0  0  0  0  0  0  0  0  0  0  0  0
  151.1437  141.6163  159.6132 H   0  0  0  0  0  0  0  0  0  0  0  0
  150.9930  143.5312  157.2427 H   0  0  0  0  0  0  0  0  0  0  0  0
  148.8531  142.1138  158.6582 H   0  0  0  0  0  0  0  0  0  0  0  0
  150.3910  140.6772  157.2675 H   0  0  0  0  0  0  0  0  0  0  0  0
  148.6453  140.5279  157.1011 H   0  0  0  0  0  0  0  0  0  0  0  0
  149.3957  142.6561  155.3628 H   0  0  0  0  0  0  0  0  0  0  0  0
  150.6257  141.4373  155.1358 H   0  0  0  0  0  0  0  0  0  0  0  0
  146.8955  142.0693  154.2041 H   0  0  0  0  0  0  0  0  0  0  0  0
  146.1895  139.8725  152.6845 H   0  0  0  0  0  0  0  0  0  0  0  0
  150.8579  139.2449  154.9777 H   0  0  0  0  0  0  0  0  0  0  0  0
  150.6443  138.5262  153.3728 H   0  0  0  0  0  0  0  0  0  0  0  0
  149.8511  137.8002  154.7855 H   0  0  0  0  0  0  0  0  0  0  0  0
  149.5838  144.9688  158.6536 H   0  0  0  0  0  0  0  0  0  0  0  0
  149.7502  143.8823  160.0079 H   0  0  0  0  0  0  0  0  0  0  0  0
  152.0042  145.3896  158.6260 H   0  0  0  0  0  0  0  0  0  0  0  0
  150.7418  145.9155  161.3476 H   0  0  0  0  0  0  0  0  0  0  0  0
  150.6516  146.9330  159.9187 H   0  0  0  0  0  0  0  0  0  0  0  0
  152.1938  146.7041  160.7313 H   0  0  0  0  0  0  0  0  0  0  0  0
  148.6990  143.0440  157.3178 H   0  0  0  0  0  0  0  0  0  0  0  0
  1  2  1  0  0  0  0
  1 18  1  0  0  0  0
  1 19  1  0  0  0  0
  1 20  1  0  0  0  0
  2 16  1  0  0  0  0
  2  3  1  0  0  0  0
  2 21  1  0  0  0  0
  3  4  1  0  0  0  0
  3 22  1  0  0  0  0
  3 23  1  0  0  0  0
  4  5  1  0  0  0  0
  4 24  1  0  0  0  0
  4 25  1  0  0  0  0
  5  6  1  0  0  0  0
  5 15  1  0  0  0  0
  5 26  1  0  0  0  0
  6  7  1  0  0  0  0
  6 27  1  0  0  0  0
  6 43  1  0  0  0  0
  7  8  1  0  0  0  0
  7 28  1  0  0  0  0
  7 29  1  0  0  0  0
  8  9  1  0  0  0  0
  8 30  1  0  0  0  0
  8 31  1  0  0  0  0
  9 13  1  0  0  0  0
  9 10  2  0  0  0  0
 10 11  1  0  0  0  0
 10 32  1  0  0  0  0
 11 12  2  0  0  0  0
 11 33  1  0  0  0  0
 12 13  1  0  0  0  0
 13 14  1  0  0  0  0
 14 34  1  0  0  0  0
 14 35  1  0  0  0  0
 14 36  1  0  0  0  0
 15 16  1  0  0  0  0
 15 37  1  0  0  0  0
 15 38  1  0  0  0  0
 16 17  1  0  0  0  0
 16 39  1  0  0  0  0
 17 40  1  0  0  0  0
 17 41  1  0  0  0  0
 17 42  1  0  0  0  0
M  CHG  1   6   1
M  END
> <s_m_source_file>
AV-unprocessed.smi

> <i_m_source_file_index>
3183

> <i_lp_mmshare_version>
43012

> <i_f3d_flags>
0

> <s_epik_input>
W0NIM11bQ0BASF0xW0NIMl1bQ0gyXVtDQEhdKFtDSDJdW0NASF0xW0NIM10pW05IXVtDSDJdW0NIMl1jMltjSF1bY0hdbm4yW0NIM10=

> <s_epik_cmdline>
J2VwaWtfcHl0aG9uJywgJy1waCcsICc3LjAnLCAnLXRuJywgJzgnLCAnLW1hJywgJzIwMCcsICctbWV0YWxfYmluZGluZycsICctaW1hZScsICc8aW5maWxlLm1hZT4nLCAnLW9tYWUnLCAnPG91dGZpbGUubWFlPic=

> <r_lp_tautomer_probability>
1

> <r_epik_Ionization_Penalty>
0.000327718

> <r_epik_Ionization_Penalty_Charging>
0.000294043

> <r_epik_Ionization_Penalty_Neutral>
3.36755e-05

> <r_epik_State_Penalty>
-0

> <r_epik_Charging_Adjusted_Penalty>
0.000294043

> <i_epik_Tot_Q>
1

> <i_epik_Tot_abs_Q>
1

> <r_epik_Metal_State_Penalty>
-0

> <b_epik_Metal_Only>
0

> <s_lp_Force_Field>
OPLS_2005

> <r_lp_Energy>
15.8905

> <b_lp_Chiralities_Consistent>
1

> <s_lp_Variant>
AV-unprocessed.smi:3183-2

> <Gold.Version>
5.8.1

> <Gold.Id.Protein>
6NUR|6NUR_protein|mol2

> <Gold.PLP.Fitness>
49.7054

> <Gold.PLP.PLP>
-42.3181

> <Gold.PLP.part.hbond>
-1.0000

> <Gold.PLP.part.metal>
0.0000

> <Gold.PLP.part.buried>
-3.8427

> <Gold.PLP.part.nonpolar>
-38.8184

> <Gold.PLP.part.repulsive>
1.4273

> <Gold.PLP.ligand.clash>
0.0000

> <Gold.PLP.ligand.torsion>
0.8137

> <Gold.PLP.Chemscore.Hbond>
2.0000

> <Gold.PLP.Chemscore.CHOScore>
1.0000

> <Gold.PLP.Chemscore.Metal>
0.0000

> <Gold.Chemscore.Hbonds>
donor molecule, donor type, donor heavy atom, donor atom, acceptor molecule, acceptor atom, score
      L1  H     6    43       P1  8028  0.30
      L1  C    11    33       P1 10175  0.87

> <Gold.PLP.Chemscore.Internal.Correction>
0.0147

> <Gold.Rescore>
     Score         DG    S(hbond)    S(metal)    S(lipo)     H(rot)  DE(clash)    DE(int)     intcor
     18.38     -19.57       0.88        0.00     125.40       1.38       0.31       0.88       ----

> <Gold.Chemscore.Fitness>
18.3786

> <Gold.Chemscore.DG>
-19.5696

> <Gold.Chemscore.ZeroCoef>
-5.4800

> <Gold.Chemscore.Hbond>
0.8810

> <Gold.Chemscore.Metal>
0.0000

> <Gold.Chemscore.Lipo>
125.3981

> <Gold.Chemscore.Internal_Hbond>
0.0000

> <Gold.Chemscore.DEClash>
0.3065

> <Gold.Chemscore.DEInternal>
0.8844

> <Gold.Chemscore.Rot>
1.3768

> <Gold.Chemscore.Internal.Correction>
   9.000000E+99

> <Gold.Chemscore.Hbonds>
donor molecule, donor type, donor heavy atom, donor atom, acceptor molecule, acceptor atom, score
      L1  H     6    43       P1  8028  0.07

> <Gold.Chemscore.Hbond.Weighted>
-2.9427

> <Gold.Chemscore.Metal.Weighted>
-0.0000

> <Gold.Chemscore.Lipo.Weighted>
-14.6716

> <Gold.Chemscore.Internal_Hbond.Weighted>
0.0000

> <Gold.Chemscore.DEClash.Weighted>
0.3065

> <Gold.Chemscore.DEInternal.Weighted>
0.8844

> <Gold.Chemscore.Rot.Weighted>
3.5247

> <Gold.Chemscore.Internal.Correction.Weighted>
   9.000000E+99

> <Gold.Protein.RotatedTorsions>
[ 6907 6896 6895 6894 ] final  158.96 input  -60.11 | X-H torsion
[ 7974 7965 7964 7962 ] final  147.82 input  175.53 | X-H torsion
[ 8008 7997 7996 7995 ] final -148.74 input   59.86 | X-H torsion
[ 10167 10162 10161 10158 ] final  -67.50 input  -65.29 | X-H torsion
[ 10718 10713 10712 10709 ] final  -26.37 input   66.30 | X-H torsion
[ 10763 10752 10751 10750 ] final -138.97 input  -60.55 | X-H torsion
[ 11005 11000 10999 10996 ] final  -84.68 input  -57.11 | X-H torsion

> <Gold.Protein.ActiveResidues>
 VAL166  LYS551  ARG553  GLY616  TRP617  ASP618  TYR619  PRO620  LYS621  CYS622 
 ASP623  PHE694  ASN695  SER759  ASP760  ASP761  ALA762  ILE779  LEU786  VAL792 
 PHE793  MET794  SER795  GLU796  ALA797  LYS798  CYS799  TRP800  GLU811  SER814 

> <Gold.Protein.RotatedAtoms>
  151.9927  133.3796  159.4150 H   0  0  0  0  0  0  0  0  0  0  0  0  # atno 6907 bound_to 6896
  150.6920  134.3919  159.5089 H   0  0  0  0  0  0  0  0  0  0  0  0  # atno 6908 bound_to 6896
  152.1655  134.8877  160.0589 H   0  0  0  0  0  0  0  0  0  0  0  0  # atno 6909 bound_to 6896
  144.8562  139.6076  143.5951 H   0  0  0  0  0  0  0  0  0  0  0  0  # atno 7974 bound_to 7965
  155.5965  140.0658  157.2744 H   0  0  0  0  0  0  0  0  0  0  0  0  # atno 8008 bound_to 7997
  154.4290  140.1826  156.1176 H   0  0  0  0  0  0  0  0  0  0  0  0  # atno 8009 bound_to 7997
  156.0192  140.3318  155.7025 H   0  0  0  0  0  0  0  0  0  0  0  0  # atno 8010 bound_to 7997
  140.5578  143.2312  151.6786 H   0  0  0  0  0  0  0  0  0  0  0  0  # atno 10167 bound_to 10162
  156.4521  130.4486  149.6983 H   0  0  0  0  0  0  0  0  0  0  0  0  # atno 10718 bound_to 10713
  154.8622  135.3596  154.5471 H   0  0  0  0  0  0  0  0  0  0  0  0  # atno 10763 bound_to 10752
  153.6091  135.7010  153.5359 H   0  0  0  0  0  0  0  0  0  0  0  0  # atno 10764 bound_to 10752
  153.3225  135.4147  155.1389 H   0  0  0  0  0  0  0  0  0  0  0  0  # atno 10765 bound_to 10752
  141.1648  133.7358  156.8903 H   0  0  0  0  0  0  0  0  0  0  0  0  # atno 11005 bound_to 11000
  146.2825  139.6914  142.9219 LP  0  0  0  0  0  0  0  0  0  0  0  0  # atno 17320 bound_to 7965
  145.4402  141.0422  143.2862 LP  0  0  0  0  0  0  0  0  0  0  0  0  # atno 17321 bound_to 7965
  139.5056  144.3712  152.0468 LP  0  0  0  0  0  0  0  0  0  0  0  0  # atno 17342 bound_to 10162
  140.2835  144.3833  150.6111 LP  0  0  0  0  0  0  0  0  0  0  0  0  # atno 17343 bound_to 10162
  156.3805  130.7576  151.2569 LP  0  0  0  0  0  0  0  0  0  0  0  0  # atno 17370 bound_to 10713
  157.7502  131.0297  150.4104 LP  0  0  0  0  0  0  0  0  0  0  0  0  # atno 17371 bound_to 10713
  140.1653  134.9137  157.2766 LP  0  0  0  0  0  0  0  0  0  0  0  0  # atno 17394 bound_to 11000
  140.2564  134.3623  155.7423 LP  0  0  0  0  0  0  0  0  0  0  0  0  # atno 17395 bound_to 11000

$$$$
