#       Name:                AV-unprocessed.smi:1047
#       Creating user name   scv26
#       Creation time:       Fri Mar 27 03:08:26 2020


#       File generated by GOLD software.
#

@<TRIPOS>MOLECULE
AV-unprocessed.smi:1047
    62    64     1
SMALL
NO_CHARGES


@<TRIPOS>ATOM
      1 ****        -5.4199   3.3766   3.6263 C.3            1 S1                 0.0000
      2 ****        -5.1896   3.6264   2.1291 C.3            1 S1                 0.0000
      3 ****        -3.7542   3.5329   1.7521 N.4            1 S1                 1.0000
      4 ****        -3.4261   4.2352   0.4868 C.3            1 S1                 0.0000
      5 ****        -3.8637   3.4124  -0.7388 C.3            1 S1                 0.0000
      6 ****        -3.2469   2.1312  -0.6993 O.3            1 S1                 0.0000
      7 ****        -3.6097   1.3868   0.4594 C.3            1 S1                 0.0000
      8 ****        -3.0048  -0.0248   0.3588 C.3            1 S1                 0.0000
      9 ****        -1.5447  -0.0076   0.4075 N.3            1 S1                 0.0000
     10 ****        -0.9462  -1.3397   0.3651 C.3            1 S1                 0.0000
     11 ****         0.5902  -1.2893   0.4468 C.3            1 S1                 0.0000
     12 ****         0.9818  -0.8621   1.7371 O.3            1 S1                 0.0000
     13 ****         1.2504  -0.4294  -0.6514 C.3            1 S1                 0.0000
     14 ****         2.7174  -0.4486  -0.5846 N.pl3          1 S1                 0.0000
     15 ****         3.5811   0.4612  -0.0573 C.2            1 S1                 0.0000
     16 ****         4.8434  -0.0127  -0.2497 N.pl3          1 S1                 1.0000
     17 ****         4.7845  -1.2411  -0.9116 C.ar           1 S1                 0.0000
     18 ****         5.7935  -2.1026  -1.3254 C.ar           1 S1                 0.0000
     19 ****         5.3987  -3.2909  -1.9810 C.ar           1 S1                 0.0000
     20 ****         6.4772  -4.2554  -2.4445 C.3            1 S1                 0.0000
     21 ****         4.0273  -3.5817  -2.2024 C.ar           1 S1                 0.0000
     22 ****         3.6142  -4.8628  -2.9070 C.3            1 S1                 0.0000
     23 ****         3.0160  -2.6914  -1.7754 C.ar           1 S1                 0.0000
     24 ****         3.4229  -1.5261  -1.1302 C.ar           1 S1                 0.0000
     25 ****        -3.1997   2.1548   1.7389 C.3            1 S1                 0.0000
     26 ****        -6.4648   3.5479   3.8856 H              1 S1                 0.0000
     27 ****        -4.8151   4.0488   4.2358 H              1 S1                 0.0000
     28 ****        -5.1809   2.3532   3.9139 H              1 S1                 0.0000
     29 ****        -5.7970   2.9462   1.5323 H              1 S1                 0.0000
     30 ****        -5.5487   4.6316   1.9051 H              1 S1                 0.0000
     31 ****        -3.8767   5.2282   0.4686 H              1 S1                 0.0000
     32 ****        -2.3469   4.3899   0.4488 H              1 S1                 0.0000
     33 ****        -4.9490   3.3090  -0.7805 H              1 S1                 0.0000
     34 ****        -3.5604   3.9182  -1.6556 H              1 S1                 0.0000
     35 ****        -4.6932   1.2620   0.4494 H              1 S1                 0.0000
     36 ****        -3.3911  -0.6331   1.1776 H              1 S1                 0.0000
     37 ****        -3.3416  -0.4999  -0.5634 H              1 S1                 0.0000
     38 ****        -1.2346   0.4710   1.2474 H              1 S1                 0.0000
     39 ****        -1.3328  -1.9513   1.1815 H              1 S1                 0.0000
     40 ****        -1.2379  -1.8409  -0.5586 H              1 S1                 0.0000
     41 ****         0.9512  -2.3131   0.3450 H              1 S1                 0.0000
     42 ****         1.9204  -0.9448   1.8074 H              1 S1                 0.0000
     43 ****         0.9449  -0.7622  -1.6442 H              1 S1                 0.0000
     44 ****         0.9388   0.6124  -0.5649 H              1 S1                 0.0000
     45 ****         3.3137   1.3898   0.4262 H              1 S1                 0.0000
     46 ****         6.8353  -1.8745  -1.1537 H              1 S1                 0.0000
     47 ****         6.4097  -4.4189  -3.5204 H              1 S1                 0.0000
     48 ****         6.3740  -5.2166  -1.9399 H              1 S1                 0.0000
     49 ****         7.4750  -3.8716  -2.2289 H              1 S1                 0.0000
     50 ****         2.5291  -4.9537  -2.9669 H              1 S1                 0.0000
     51 ****         3.9908  -5.7343  -2.3711 H              1 S1                 0.0000
     52 ****         4.0075  -4.8836  -3.9239 H              1 S1                 0.0000
     53 ****         1.9720  -2.9114  -1.9435 H              1 S1                 0.0000
     54 ****        -2.1138   2.2446   1.7841 H              1 S1                 0.0000
     55 ****        -3.4928   1.6021   2.6306 H              1 S1                 0.0000
     56 ****        -3.2615   4.0331   2.4785 H              1 S1                 0.0000
     57 ****         5.6815   0.4702   0.0477 H              1 S1                 0.0000
     58 ****        -2.2543   2.2528  -0.7046 LP             1 S1                 0.0000
     59 ****        -3.5240   1.6167  -1.5108 LP             1 S1                 0.0000
     60 ****        -1.2400   0.4770  -0.4124 LP             1 S1                 0.0000
     61 ****         0.5399  -1.4320   2.4299 LP             1 S1                 0.0000
     62 ****         0.7161   0.0925   1.8717 LP             1 S1                 0.0000
@<TRIPOS>BOND
    1    1    2 1     
    2    1   26 1     
    3    1   27 1     
    4    1   28 1     
    5    2    3 1     
    6    2   29 1     
    7    2   30 1     
    8    3   25 1     
    9    3    4 1     
   10    3   56 1     
   11    4    5 1     
   12    4   31 1     
   13    4   32 1     
   14    5    6 1     
   15    5   33 1     
   16    5   34 1     
   17    6    7 1     
   18    7    8 1     
   19    7   25 1     
   20    7   35 1     
   21    8    9 1     
   22    8   36 1     
   23    8   37 1     
   24    9   10 1     
   25    9   38 1     
   26   10   11 1     
   27   10   39 1     
   28   10   40 1     
   29   11   12 1     
   30   11   13 1     
   31   11   41 1     
   32   12   42 1     
   33   13   14 1     
   34   13   43 1     
   35   13   44 1     
   36   14   24 1     
   37   14   15 1     
   38   15   16 2     
   39   15   45 1     
   40   16   17 1     
   41   16   57 1     
   42   17   24 ar    
   43   17   18 ar    
   44   18   19 ar    
   45   18   46 1     
   46   19   20 1     
   47   19   21 ar    
   48   20   47 1     
   49   20   48 1     
   50   20   49 1     
   51   21   22 1     
   52   21   23 ar    
   53   22   50 1     
   54   22   51 1     
   55   22   52 1     
   56   23   24 ar    
   57   23   53 1     
   58   25   54 1     
   59   25   55 1     
   60    6   58 1     
   61    6   59 1     
   62    9   60 1     
   63   12   61 1     
   64   12   62 1     
@<TRIPOS>SUBSTRUCTURE
      1 S1             1
@<TRIPOS>SET
LONE_PAIRS      STATIC     ATOMS    <user>   **** ""
5 58 59 60 61 62
DONOR_HYDROGENS      STATIC     ATOMS    <user>   **** ""
4 56 38 42 57
ATOM$BLUE        STATIC     ATOMS    COLORGROUP SYSTEM
5 58 59 60 61 62
ATOM$RED        STATIC     ATOMS    COLORGROUP SYSTEM
4 56 38 42 57
