#       Name:                AV-unprocessed.smi:2401
#       Creating user name   scv26
#       Creation time:       Fri Mar 27 13:13:25 2020


#       File generated by GOLD software.
#

@<TRIPOS>MOLECULE
AV-unprocessed.smi:2401
    39    40     1
SMALL
NO_CHARGES


@<TRIPOS>ATOM
      1 ****        -5.2055   0.1606   0.6867 C.3            1 S1                 0.0000
      2 ****        -3.6873   0.1915   0.6723 C.2            1 S1                 0.0000
      3 ****        -3.1095   1.4637   0.6341 N.2            1 S1                 0.0000
      4 ****        -1.8226   1.5873   0.6147 C.2            1 S1                 0.0000
      5 ****        -0.9738   0.4685   0.6321 N.am           1 S1                 0.0000
      6 ****         0.4722   0.7453   0.5936 C.3            1 S1                 0.0000
      7 ****         1.0640   0.5658  -0.8222 C.3            1 S1                 0.0000
      8 ****         0.7372   1.7028  -1.5971 O.3            1 S1                 0.0000
      9 ****         2.5688   0.3518  -0.7614 C.ar           1 S1                 0.0000
     10 ****         3.4410   1.4291  -0.4886 C.ar           1 S1                 0.0000
     11 ****         4.8323   1.2187  -0.4291 C.ar           1 S1                 0.0000
     12 ****         5.3600  -0.0701  -0.6383 C.ar           1 S1                 0.0000
     13 ****         7.0644  -0.3277  -0.5664 Cl             1 S1                 0.0000
     14 ****         4.4947  -1.1488  -0.9049 C.ar           1 S1                 0.0000
     15 ****         3.1033  -0.9387  -0.9645 C.ar           1 S1                 0.0000
     16 ****        -1.4545  -0.8081   0.6659 C.2            1 S1                 0.0000
     17 ****        -0.7003  -1.7832   0.6694 O.2            1 S1                 0.0000
     18 ****        -2.9207  -0.9329   0.6906 C.2            1 S1                 0.0000
     19 ****        -3.4934  -2.3442   0.7322 C.3            1 S1                 0.0000
     20 ****        -5.5700  -0.3455   1.5811 H              1 S1                 0.0000
     21 ****        -5.5845  -0.3640  -0.1908 H              1 S1                 0.0000
     22 ****        -5.6236   1.1680   0.6794 H              1 S1                 0.0000
     23 ****        -1.3221   2.5566   0.5793 H              1 S1                 0.0000
     24 ****         0.7201   1.7320   0.9913 H              1 S1                 0.0000
     25 ****         0.9631   0.0503   1.2778 H              1 S1                 0.0000
     26 ****         0.6184  -0.3021  -1.3104 H              1 S1                 0.0000
     27 ****         1.0357   1.5571  -2.4819 H              1 S1                 0.0000
     28 ****         3.0456   2.4206  -0.3226 H              1 S1                 0.0000
     29 ****         5.4933   2.0474  -0.2218 H              1 S1                 0.0000
     30 ****         4.8963  -2.1390  -1.0629 H              1 S1                 0.0000
     31 ****         2.4479  -1.7735  -1.1662 H              1 S1                 0.0000
     32 ****        -3.1703  -2.9063  -0.1446 H              1 S1                 0.0000
     33 ****        -4.5816  -2.3663   0.7530 H              1 S1                 0.0000
     34 ****        -3.1381  -2.8676   1.6204 H              1 S1                 0.0000
     35 ****        -3.6908   2.2773   0.6220 LP             1 S1                 0.0000
     36 ****         1.1877   2.5109  -1.2175 LP             1 S1                 0.0000
     37 ****        -0.2533   1.8407  -1.5932 LP             1 S1                 0.0000
     38 ****         0.2904  -1.6491   0.6472 LP             1 S1                 0.0000
     39 ****        -1.0792  -2.7083   0.6944 LP             1 S1                 0.0000
@<TRIPOS>BOND
    1    1    2 1     
    2    1   20 1     
    3    1   21 1     
    4    1   22 1     
    5    2   18 2     
    6    2    3 1     
    7    3    4 2     
    8    4    5 1     
    9    4   23 1     
   10    5    6 1     
   11    5   16 am    
   12    6    7 1     
   13    6   24 1     
   14    6   25 1     
   15    7    8 1     
   16    7    9 1     
   17    7   26 1     
   18    8   27 1     
   19    9   15 ar    
   20    9   10 ar    
   21   10   11 ar    
   22   10   28 1     
   23   11   12 ar    
   24   11   29 1     
   25   12   13 1     
   26   12   14 ar    
   27   14   15 ar    
   28   14   30 1     
   29   15   31 1     
   30   16   17 2     
   31   16   18 1     
   32   18   19 1     
   33   19   32 1     
   34   19   33 1     
   35   19   34 1     
   36    3   35 1     
   37    8   36 1     
   38    8   37 1     
   39   17   38 1     
   40   17   39 1     
@<TRIPOS>SUBSTRUCTURE
      1 S1             1
@<TRIPOS>SET
LONE_PAIRS      STATIC     ATOMS    <user>   **** ""
5 35 36 37 38 39
DONOR_HYDROGENS      STATIC     ATOMS    <user>   **** ""
1 27
ATOM$BLUE        STATIC     ATOMS    COLORGROUP SYSTEM
5 35 36 37 38 39
ATOM$RED        STATIC     ATOMS    COLORGROUP SYSTEM
1 27
