AV-unprocessed.smi:2137|AV-procd|sdf|8709|dock7
  -GOLD-   2272011473D 1   1.00000     0.00000
 Structure written by MMmdl.
 50 51  0  0  0  0  0  0  0  0  2 V2000
  152.6899  143.3396  162.2355 C   0  0  0  0  0  0  0  0  0  0  0  0
  151.8927  143.6144  160.9527 C   0  0  1  0  0  0  0  0  0  0  0  0
  152.1944  145.0145  160.3925 C   0  0  0  0  0  0  0  0  0  0  0  0
  151.4054  145.2506  159.0987 C   0  0  0  0  0  0  0  0  0  0  0  0
  151.6841  144.1396  158.0740 C   0  0  0  0  0  0  0  0  0  0  0  0
  151.3801  142.7998  158.6403 N   0  3  1  0  0  0  0  0  0  0  0  0
  151.5117  141.7193  157.6301 C   0  0  0  0  0  0  0  0  0  0  0  0
  151.1889  140.3312  158.2100 C   0  0  0  0  0  0  0  0  0  0  0  0
  151.3610  139.2130  157.1737 C   0  0  0  0  0  0  0  0  0  0  0  0
  150.1375  139.0417  156.4008 N   0  0  0  0  0  0  0  0  0  0  0  0
  149.9689  139.4422  155.1325 C   0  0  0  0  0  0  0  0  0  0  0  0
  150.8371  140.0320  154.4886 O   0  0  0  0  0  0  0  0  0  0  0  0
  148.5994  139.1479  154.5065 C   0  0  0  0  0  0  0  0  0  0  0  0
  147.7210  140.3245  154.4933 N   0  0  0  0  0  0  0  0  0  0  0  0
  148.0658  141.4309  153.7384 C   0  0  0  0  0  0  0  0  0  0  0  0
  147.3124  142.5502  153.6706 C   0  0  0  0  0  0  0  0  0  0  0  0
  146.0585  142.6543  154.4068 C   0  0  0  0  0  0  0  0  0  0  0  0
  145.3530  143.6638  154.3935 O   0  0  0  0  0  0  0  0  0  0  0  0
  145.7197  141.5021  155.1556 N   0  0  0  0  0  0  0  0  0  0  0  0
  144.4961  141.5278  155.9305 C   0  0  0  0  0  0  0  0  0  0  0  0
  146.5210  140.3408  155.2370 C   0  0  0  0  0  0  0  0  0  0  0  0
  146.2015  139.3723  155.9311 O   0  0  0  0  0  0  0  0  0  0  0  0
  152.1631  142.5410  159.8793 C   0  0  0  0  0  0  0  0  0  0  0  0
  153.7642  143.3673  162.0492 H   0  0  0  0  0  0  0  0  0  0  0  0
  152.4485  142.3588  162.6465 H   0  0  0  0  0  0  0  0  0  0  0  0
  152.4659  144.0812  163.0029 H   0  0  0  0  0  0  0  0  0  0  0  0
  150.8330  143.5740  161.2104 H   0  0  0  0  0  0  0  0  0  0  0  0
  151.9404  145.7798  161.1270 H   0  0  0  0  0  0  0  0  0  0  0  0
  153.2625  145.1153  160.1937 H   0  0  0  0  0  0  0  0  0  0  0  0
  150.3379  145.2868  159.3210 H   0  0  0  0  0  0  0  0  0  0  0  0
  151.6661  146.2215  158.6763 H   0  0  0  0  0  0  0  0  0  0  0  0
  151.0737  144.3139  157.1869 H   0  0  0  0  0  0  0  0  0  0  0  0
  152.7268  144.1737  157.7539 H   0  0  0  0  0  0  0  0  0  0  0  0
  150.8175  141.9071  156.8098 H   0  0  0  0  0  0  0  0  0  0  0  0
  152.5123  141.7374  157.1952 H   0  0  0  0  0  0  0  0  0  0  0  0
  151.8319  140.1167  159.0635 H   0  0  0  0  0  0  0  0  0  0  0  0
  150.1643  140.3246  158.5847 H   0  0  0  0  0  0  0  0  0  0  0  0
  152.1782  139.4480  156.4906 H   0  0  0  0  0  0  0  0  0  0  0  0
  151.6249  138.2842  157.6828 H   0  0  0  0  0  0  0  0  0  0  0  0
  149.3671  138.5738  156.8561 H   0  0  0  0  0  0  0  0  0  0  0  0
  148.7233  138.7625  153.4927 H   0  0  0  0  0  0  0  0  0  0  0  0
  148.1343  138.3402  155.0730 H   0  0  0  0  0  0  0  0  0  0  0  0
  148.9853  141.4020  153.1721 H   0  0  0  0  0  0  0  0  0  0  0  0
  147.6428  143.3809  153.0644 H   0  0  0  0  0  0  0  0  0  0  0  0
  144.0605  140.5276  155.9476 H   0  0  0  0  0  0  0  0  0  0  0  0
  143.7745  142.1990  155.4632 H   0  0  0  0  0  0  0  0  0  0  0  0
  144.7631  141.8653  156.9329 H   0  0  0  0  0  0  0  0  0  0  0  0
  153.2267  142.5097  159.6365 H   0  0  0  0  0  0  0  0  0  0  0  0
  151.9066  141.5637  160.2864 H   0  0  0  0  0  0  0  0  0  0  0  0
  150.4062  142.8246  158.9066 H   0  0  0  0  0  0  0  0  0  0  0  0
  1  2  1  0  0  0  0
  1 24  1  0  0  0  0
  1 25  1  0  0  0  0
  1 26  1  0  0  0  0
  2 23  1  0  0  0  0
  2  3  1  0  0  0  0
  2 27  1  0  0  0  0
  3  4  1  0  0  0  0
  3 28  1  0  0  0  0
  3 29  1  0  0  0  0
  4  5  1  0  0  0  0
  4 30  1  0  0  0  0
  4 31  1  0  0  0  0
  5  6  1  0  0  0  0
  5 32  1  0  0  0  0
  5 33  1  0  0  0  0
  6  7  1  0  0  0  0
  6 23  1  0  0  0  0
  6 50  1  0  0  0  0
  7  8  1  0  0  0  0
  7 34  1  0  0  0  0
  7 35  1  0  0  0  0
  8  9  1  0  0  0  0
  8 36  1  0  0  0  0
  8 37  1  0  0  0  0
  9 10  1  0  0  0  0
  9 38  1  0  0  0  0
  9 39  1  0  0  0  0
 10 11  1  0  0  0  0
 10 40  1  0  0  0  0
 11 12  2  0  0  0  0
 11 13  1  0  0  0  0
 13 14  1  0  0  0  0
 13 41  1  0  0  0  0
 13 42  1  0  0  0  0
 14 21  1  0  0  0  0
 14 15  1  0  0  0  0
 15 16  2  0  0  0  0
 15 43  1  0  0  0  0
 16 17  1  0  0  0  0
 16 44  1  0  0  0  0
 17 18  2  0  0  0  0
 17 19  1  0  0  0  0
 19 20  1  0  0  0  0
 19 21  1  0  0  0  0
 20 45  1  0  0  0  0
 20 46  1  0  0  0  0
 20 47  1  0  0  0  0
 21 22  2  0  0  0  0
 23 48  1  0  0  0  0
 23 49  1  0  0  0  0
M  CHG  1   6   1
M  END
> <s_m_source_file>
AV-unprocessed.smi

> <i_m_source_file_index>
2137

> <i_lp_mmshare_version>
43012

> <i_f3d_flags>
0

> <s_epik_input>
W0NIM11bQ0BASF0xW0NIMl1bQ0gyXVtDSDJdTihbQ0gyXTEpW0NIMl1bQ0gyXVtDSDJdW05IXUMoPU8pW0NIMl1uMltjSF1bY0hdYyg9TyluKFtDSDNdKWMyPU8=

> <s_epik_cmdline>
J2VwaWtfcHl0aG9uJywgJy1waCcsICc3LjAnLCAnLXRuJywgJzgnLCAnLW1hJywgJzIwMCcsICctbWV0YWxfYmluZGluZycsICctaW1hZScsICc8aW5maWxlLm1hZT4nLCAnLW9tYWUnLCAnPG91dGZpbGUubWFlPic=

> <r_lp_tautomer_probability>
1

> <r_epik_Ionization_Penalty>
0.000384839

> <r_epik_Ionization_Penalty_Charging>
0.000384812

> <r_epik_Ionization_Penalty_Neutral>
2.6907e-08

> <r_epik_State_Penalty>
0.000235226

> <r_epik_Charging_Adjusted_Penalty>
0.000620038

> <i_epik_Tot_Q>
1

> <i_epik_Tot_abs_Q>
1

> <r_epik_Metal_State_Penalty>
-0

> <b_epik_Metal_Only>
0

> <s_lp_Force_Field>
OPLS_2005

> <r_lp_Energy>
25.3587

> <b_lp_Chiralities_Consistent>
1

> <s_lp_Variant>
AV-unprocessed.smi:2137-4

> <Gold.Version>
5.8.1

> <Gold.Id.Protein>
6NUR|6NUR_protein|mol2

> <Gold.PLP.Fitness>
49.1899

> <Gold.PLP.PLP>
-44.1934

> <Gold.PLP.part.hbond>
-0.9917

> <Gold.PLP.part.metal>
0.0000

> <Gold.PLP.part.buried>
-8.7085

> <Gold.PLP.part.nonpolar>
-35.3039

> <Gold.PLP.part.repulsive>
0.3854

> <Gold.PLP.ligand.clash>
0.0000

> <Gold.PLP.ligand.torsion>
0.5358

> <Gold.PLP.Chemscore.Hbond>
0.9913

> <Gold.PLP.Chemscore.CHOScore>
1.0000

> <Gold.PLP.Chemscore.Metal>
0.0000

> <Gold.Chemscore.Hbonds>
donor molecule, donor type, donor heavy atom, donor atom, acceptor molecule, acceptor atom, score
      P1  H  7989  7998       L1    12  0.98
      L1  C    15    43       P1  7957  1.00

> <Gold.PLP.Chemscore.Internal.Correction>
0.0943

> <Gold.Rescore>
     Score         DG    S(hbond)    S(metal)    S(lipo)     H(rot)  DE(clash)    DE(int)     intcor
     14.86     -15.57       0.99        0.00     107.67       2.27       0.03       0.69       ----

> <Gold.Chemscore.Fitness>
14.8573

> <Gold.Chemscore.DG>
-15.5728

> <Gold.Chemscore.ZeroCoef>
-5.4800

> <Gold.Chemscore.Hbond>
0.9937

> <Gold.Chemscore.Metal>
0.0000

> <Gold.Chemscore.Lipo>
107.6671

> <Gold.Chemscore.Internal_Hbond>
0.0000

> <Gold.Chemscore.DEClash>
0.0268

> <Gold.Chemscore.DEInternal>
0.6887

> <Gold.Chemscore.Rot>
2.2748

> <Gold.Chemscore.Internal.Correction>
   9.000000E+99

> <Gold.Chemscore.Hbonds>
donor molecule, donor type, donor heavy atom, donor atom, acceptor molecule, acceptor atom, score
      P1  H  7989  7998       L1    12  0.91

> <Gold.Chemscore.Hbond.Weighted>
-3.3191

> <Gold.Chemscore.Metal.Weighted>
-0.0000

> <Gold.Chemscore.Lipo.Weighted>
-12.5971

> <Gold.Chemscore.Internal_Hbond.Weighted>
0.0000

> <Gold.Chemscore.DEClash.Weighted>
0.0268

> <Gold.Chemscore.DEInternal.Weighted>
0.6887

> <Gold.Chemscore.Rot.Weighted>
5.8234

> <Gold.Chemscore.Internal.Correction.Weighted>
   9.000000E+99

> <Gold.Protein.RotatedTorsions>
[ 6907 6896 6895 6894 ] final   88.36 input  -60.11 | X-H torsion
[ 7974 7965 7964 7962 ] final  -84.25 input  175.53 | X-H torsion
[ 8008 7997 7996 7995 ] final  148.27 input   59.86 | X-H torsion
[ 10167 10162 10161 10158 ] final -128.41 input  -65.29 | X-H torsion
[ 10718 10713 10712 10709 ] final  -19.30 input   66.30 | X-H torsion
[ 10763 10752 10751 10750 ] final   67.97 input  -60.55 | X-H torsion
[ 11005 11000 10999 10996 ] final  137.87 input  -57.11 | X-H torsion

> <Gold.Protein.ActiveResidues>
 VAL166  LYS551  ARG553  GLY616  TRP617  ASP618  TYR619  PRO620  LYS621  CYS622 
 ASP623  PHE694  ASN695  SER759  ASP760  ASP761  ALA762  ILE779  LEU786  VAL792 
 PHE793  MET794  SER795  GLU796  ALA797  LYS798  CYS799  TRP800  GLU811  SER814 

> <Gold.Protein.RotatedAtoms>
  152.5424  134.2133  159.8758 H   0  0  0  0  0  0  0  0  0  0  0  0  # atno 6907 bound_to 6896
  151.2115  133.4547  159.2606 H   0  0  0  0  0  0  0  0  0  0  0  0  # atno 6908 bound_to 6896
  151.0892  134.9919  159.8450 H   0  0  0  0  0  0  0  0  0  0  0  0  # atno 6909 bound_to 6896
  145.5091  140.9541  143.1717 H   0  0  0  0  0  0  0  0  0  0  0  0  # atno 7974 bound_to 7965
  156.2797  140.2133  156.5672 H   0  0  0  0  0  0  0  0  0  0  0  0  # atno 8008 bound_to 7997
  154.7165  140.0507  157.0622 H   0  0  0  0  0  0  0  0  0  0  0  0  # atno 8009 bound_to 7997
  155.0535  140.3159  155.4687 H   0  0  0  0  0  0  0  0  0  0  0  0  # atno 8010 bound_to 7997
  139.9506  143.6060  152.2476 H   0  0  0  0  0  0  0  0  0  0  0  0  # atno 10167 bound_to 10162
  156.5476  130.4693  149.6468 H   0  0  0  0  0  0  0  0  0  0  0  0  # atno 10718 bound_to 10713
  153.0212  135.5264  154.7062 H   0  0  0  0  0  0  0  0  0  0  0  0  # atno 10763 bound_to 10752
  154.6157  135.2883  155.0385 H   0  0  0  0  0  0  0  0  0  0  0  0  # atno 10764 bound_to 10752
  154.1390  135.6581  153.4990 H   0  0  0  0  0  0  0  0  0  0  0  0  # atno 10765 bound_to 10752
  140.0144  134.9425  157.0345 H   0  0  0  0  0  0  0  0  0  0  0  0  # atno 11005 bound_to 11000
  144.7737  139.6677  143.7184 LP  0  0  0  0  0  0  0  0  0  0  0  0  # atno 17320 bound_to 7965
  146.2178  139.5580  142.9639 LP  0  0  0  0  0  0  0  0  0  0  0  0  # atno 17321 bound_to 7965
  139.6631  144.7662  151.1924 LP  0  0  0  0  0  0  0  0  0  0  0  0  # atno 17342 bound_to 10162
  140.7584  143.5979  150.8729 LP  0  0  0  0  0  0  0  0  0  0  0  0  # atno 17343 bound_to 10162
  156.2914  130.7126  151.1976 LP  0  0  0  0  0  0  0  0  0  0  0  0  # atno 17370 bound_to 10713
  157.7394  131.0530  150.5236 LP  0  0  0  0  0  0  0  0  0  0  0  0  # atno 17371 bound_to 10713
  140.4497  134.1595  155.7180 LP  0  0  0  0  0  0  0  0  0  0  0  0  # atno 17394 bound_to 11000
  141.1733  133.8565  157.1502 LP  0  0  0  0  0  0  0  0  0  0  0  0  # atno 17395 bound_to 11000

$$$$
