AV-unprocessed.smi:72|AV-procd|sdf|683|dock1
  -GOLD-   2262016593D 1   1.00000     0.00000
 Structure written by MMmdl.
 29 30  0  0  0  0  0  0  0  0  1 V2000
  149.4865  135.2320  158.3175 N   0  0  0  0  0  0  0  0  0  0  0  0
  149.4701  136.2114  157.4863 C   0  0  0  0  0  0  0  0  0  0  0  0
  148.5061  137.2286  157.4479 N   0  0  0  0  0  0  0  0  0  0  0  0
  148.5985  138.1374  156.5266 C   0  0  0  0  0  0  0  0  0  0  0  0
  149.6384  138.1122  155.5031 N   0  0  0  0  0  0  0  0  0  0  0  0
  149.7578  139.2122  154.4557 C   0  0  2  0  0  0  0  0  0  0  0  0
  150.7009  140.1621  154.8740 O   0  0  0  0  0  0  0  0  0  0  0  0
  150.0803  141.3667  155.3206 C   0  0  2  0  0  0  0  0  0  0  0  0
  149.7479  141.2904  156.8288 C   0  0  0  0  0  0  0  0  0  0  0  0
  148.9803  142.4126  157.2085 O   0  0  0  0  0  0  0  0  0  0  0  0
  148.8660  141.4409  154.3893 C   0  0  2  0  0  0  0  0  0  0  0  0
  147.8218  142.2481  154.8971 O   0  0  0  0  0  0  0  0  0  0  0  0
  148.4345  139.9875  154.2433 C   0  0  1  0  0  0  0  0  0  0  0  0
  147.9072  139.7862  152.9472 O   0  0  0  0  0  0  0  0  0  0  0  0
  150.6777  137.1501  155.6020 C   0  0  0  0  0  0  0  0  0  0  0  0
  151.6581  137.1519  154.8586 O   0  0  0  0  0  0  0  0  0  0  0  0
  150.5286  136.2218  156.5711 N   0  0  0  0  0  0  0  0  0  0  0  0
  150.1236  138.6995  153.5643 H   0  0  0  0  0  0  0  0  0  0  0  0
  150.7402  142.2161  155.1392 H   0  0  0  0  0  0  0  0  0  0  0  0
  149.1917  141.8390  153.4265 H   0  0  0  0  0  0  0  0  0  0  0  0
  147.7082  139.7221  155.0134 H   0  0  0  0  0  0  0  0  0  0  0  0
  148.6949  135.2937  158.9419 H   0  0  0  0  0  0  0  0  0  0  0  0
  147.8993  138.9718  156.4677 H   0  0  0  0  0  0  0  0  0  0  0  0
  149.1344  140.4150  157.0410 H   0  0  0  0  0  0  0  0  0  0  0  0
  150.6376  141.2051  157.4506 H   0  0  0  0  0  0  0  0  0  0  0  0
  149.1175  143.0992  156.5739 H   0  0  0  0  0  0  0  0  0  0  0  0
  148.1855  143.0870  155.1368 H   0  0  0  0  0  0  0  0  0  0  0  0
  148.6243  139.5929  152.3617 H   0  0  0  0  0  0  0  0  0  0  0  0
  151.2383  135.5080  156.6499 H   0  0  0  0  0  0  0  0  0  0  0  0
  1  2  2  0  0  0  0
  1 22  1  0  0  0  0
  2 17  1  0  0  0  0
  2  3  1  0  0  0  0
  3  4  2  0  0  0  0
  4  5  1  0  0  0  0
  4 23  1  0  0  0  0
  5  6  1  0  0  0  0
  5 15  1  0  0  0  0
  6 18  1  0  0  0  0
  6 13  1  0  0  0  0
  6  7  1  0  0  0  0
  7  8  1  0  0  0  0
  8 19  1  0  0  0  0
  8  9  1  0  0  0  0
  8 11  1  0  0  0  0
  9 10  1  0  0  0  0
  9 24  1  0  0  0  0
  9 25  1  0  0  0  0
 10 26  1  0  0  0  0
 11 20  1  0  0  0  0
 11 12  1  0  0  0  0
 11 13  1  0  0  0  0
 12 27  1  0  0  0  0
 13 21  1  0  0  0  0
 13 14  1  0  0  0  0
 14 28  1  0  0  0  0
 15 16  2  0  0  0  0
 15 17  1  0  0  0  0
 17 29  1  0  0  0  0
M  END
> <s_m_source_file>
AV-unprocessed.smi

> <i_m_source_file_index>
72

> <i_lp_mmshare_version>
43012

> <i_f3d_flags>
0

> <s_epik_input>
W05IMl1jMW5bY0hdbihjKD1PKW4xKVtDQEBIXTJPW0NASF0oW0NIMl1bT0hdKVtDQEBIXShbT0hdKVtDQEhdMltPSF0=

> <s_epik_cmdline>
J2VwaWtfcHl0aG9uJywgJy1waCcsICc3LjAnLCAnLXRuJywgJzgnLCAnLW1hJywgJzIwMCcsICctbWV0YWxfYmluZGluZycsICctaW1hZScsICc8aW5maWxlLm1hZT4nLCAnLW9tYWUnLCAnPG91dGZpbGUubWFlPic=

> <r_lp_tautomer_probability>
7.17554e-07

> <r_epik_Ionization_Penalty>
0.0066451

> <r_epik_Ionization_Penalty_Charging>
0.00663793

> <r_epik_Ionization_Penalty_Neutral>
7.17052e-06

> <r_epik_State_Penalty>
0.419231

> <r_epik_Charging_Adjusted_Penalty>
0.425868

> <i_epik_Tot_Q>
0

> <i_epik_Tot_abs_Q>
0

> <r_epik_Metal_State_Penalty>
1.44144

> <b_epik_Metal_Only>
0

> <s_epik_Chemistry_Notes>
This compound contains an acetal/aminal-like group ( X-CH(R)-Y where X, Y are N, S, or O) that may be acid/base labile, releasing an aldehyde.

> <s_lp_Force_Field>
OPLS_2005

> <r_lp_Energy>
40.5404

> <b_lp_Chiralities_Consistent>
1

> <s_lp_Variant>
AV-unprocessed.smi:72-21

> <Gold.Version>
5.8.1

> <Gold.Id.Protein>
6NUR|6NUR_protein|mol2

> <Gold.PLP.Fitness>
39.5157

> <Gold.PLP.PLP>
-22.7581

> <Gold.PLP.part.hbond>
-5.7883

> <Gold.PLP.part.metal>
0.0000

> <Gold.PLP.part.buried>
-4.2962

> <Gold.PLP.part.nonpolar>
-12.6629

> <Gold.PLP.part.repulsive>
0.2740

> <Gold.PLP.ligand.clash>
0.0000

> <Gold.PLP.ligand.torsion>
0.5088

> <Gold.PLP.Chemscore.Hbond>
5.8920

> <Gold.PLP.Chemscore.CHOScore>
0.0000

> <Gold.PLP.Chemscore.Metal>
0.0000

> <Gold.Chemscore.Hbonds>
donor molecule, donor type, donor heavy atom, donor atom, acceptor molecule, acceptor atom, score
      L1  H    10    26       P1  8028  1.00
      L1  H    12    27       P1  8028  1.00
      L1  H    14    28       P1  7957  0.99
      P1  H  6896  6909       L1     1  0.95
      P1  H  7989  7998       L1     7  0.85
      P1  H 10752 10765       L1    16  1.00

> <Gold.PLP.Chemscore.Internal.Correction>
0.0993

> <Gold.Rescore>
     Score         DG    S(hbond)    S(metal)    S(lipo)     H(rot)  DE(clash)    DE(int)     intcor
     13.15     -13.68       4.65        0.00      26.14       4.06       0.05       0.48       ----

> <Gold.Chemscore.Fitness>
13.1537

> <Gold.Chemscore.DG>
-13.6842

> <Gold.Chemscore.ZeroCoef>
-5.4800

> <Gold.Chemscore.Hbond>
4.6525

> <Gold.Chemscore.Metal>
0.0000

> <Gold.Chemscore.Lipo>
26.1415

> <Gold.Chemscore.Internal_Hbond>
0.0000

> <Gold.Chemscore.DEClash>
0.0476

> <Gold.Chemscore.DEInternal>
0.4829

> <Gold.Chemscore.Rot>
4.0600

> <Gold.Chemscore.Internal.Correction>
   9.000000E+99

> <Gold.Chemscore.Hbonds>
donor molecule, donor type, donor heavy atom, donor atom, acceptor molecule, acceptor atom, score
      L1  H    10    26       P1  8028  0.99
      L1  H    12    27       P1  8028  0.97
      L1  H    14    28       P1  7957  0.93
      P1  H  6896  6909       L1     1  0.21
      P1  H  7989  7998       L1     7  0.12
      P1  H 10752 10765       L1    16  0.93

> <Gold.Chemscore.Hbond.Weighted>
-15.5392

> <Gold.Chemscore.Metal.Weighted>
-0.0000

> <Gold.Chemscore.Lipo.Weighted>
-3.0586

> <Gold.Chemscore.Internal_Hbond.Weighted>
0.0000

> <Gold.Chemscore.DEClash.Weighted>
0.0476

> <Gold.Chemscore.DEInternal.Weighted>
0.4829

> <Gold.Chemscore.Rot.Weighted>
10.3936

> <Gold.Chemscore.Internal.Correction.Weighted>
   9.000000E+99

> <Gold.Protein.RotatedTorsions>
[ 6907 6896 6895 6894 ] final   26.20 input  -60.11 | X-H torsion
[ 7974 7965 7964 7962 ] final   34.58 input  175.53 | X-H torsion
[ 8008 7997 7996 7995 ] final  113.66 input   59.86 | X-H torsion
[ 10167 10162 10161 10158 ] final -133.49 input  -65.29 | X-H torsion
[ 10718 10713 10712 10709 ] final  135.42 input   66.30 | X-H torsion
[ 10763 10752 10751 10750 ] final  171.28 input  -60.55 | X-H torsion
[ 11005 11000 10999 10996 ] final   15.71 input  -57.11 | X-H torsion

> <Gold.Protein.ActiveResidues>
 VAL166  LYS551  ARG553  GLY616  TRP617  ASP618  TYR619  PRO620  LYS621  CYS622 
 ASP623  PHE694  ASN695  SER759  ASP760  ASP761  ALA762  ILE779  LEU786  VAL792 
 PHE793  MET794  SER795  GLU796  ALA797  LYS798  CYS799  TRP800  GLU811  SER814 

> <Gold.Protein.RotatedAtoms>
  151.9839  135.0014  160.0558 H   0  0  0  0  0  0  0  0  0  0  0  0  # atno 6907 bound_to 6896
  152.1671  133.4614  159.4898 H   0  0  0  0  0  0  0  0  0  0  0  0  # atno 6908 bound_to 6896
  150.6896  134.1917  159.4331 H   0  0  0  0  0  0  0  0  0  0  0  0  # atno 6909 bound_to 6896
  146.1343  139.6251  142.9206 H   0  0  0  0  0  0  0  0  0  0  0  0  # atno 7974 bound_to 7965
  156.2272  140.2975  156.0097 H   0  0  0  0  0  0  0  0  0  0  0  0  # atno 8008 bound_to 7997
  155.2323  140.0419  157.2981 H   0  0  0  0  0  0  0  0  0  0  0  0  # atno 8009 bound_to 7997
  154.5935  140.2408  155.7895 H   0  0  0  0  0  0  0  0  0  0  0  0  # atno 8010 bound_to 7997
  139.8977  143.6645  152.2601 H   0  0  0  0  0  0  0  0  0  0  0  0  # atno 10167 bound_to 10162
  157.4572  131.1070  150.9964 H   0  0  0  0  0  0  0  0  0  0  0  0  # atno 10718 bound_to 10713
  154.4096  135.2756  155.2045 H   0  0  0  0  0  0  0  0  0  0  0  0  # atno 10763 bound_to 10752
  154.4036  135.6039  153.5915 H   0  0  0  0  0  0  0  0  0  0  0  0  # atno 10764 bound_to 10752
  152.9831  135.5932  154.4376 H   0  0  0  0  0  0  0  0  0  0  0  0  # atno 10765 bound_to 10752
  140.4552  134.1183  155.7708 H   0  0  0  0  0  0  0  0  0  0  0  0  # atno 11005 bound_to 11000
  145.5192  141.0432  143.2445 LP  0  0  0  0  0  0  0  0  0  0  0  0  # atno 17320 bound_to 7965
  144.7723  139.6708  143.7189 LP  0  0  0  0  0  0  0  0  0  0  0  0  # atno 17321 bound_to 7965
  139.7053  144.7629  151.1203 LP  0  0  0  0  0  0  0  0  0  0  0  0  # atno 17342 bound_to 10162
  140.7713  143.5403  150.9321 LP  0  0  0  0  0  0  0  0  0  0  0  0  # atno 17343 bound_to 10162
  157.0773  130.5888  149.5414 LP  0  0  0  0  0  0  0  0  0  0  0  0  # atno 17370 bound_to 10713
  156.0012  130.5092  150.7670 LP  0  0  0  0  0  0  0  0  0  0  0  0  # atno 17371 bound_to 10713
  141.1646  133.8727  157.1751 LP  0  0  0  0  0  0  0  0  0  0  0  0  # atno 17394 bound_to 11000
  139.9981  135.0039  157.0127 LP  0  0  0  0  0  0  0  0  0  0  0  0  # atno 17395 bound_to 11000

$$$$
