AV-unprocessed.smi:2062|AV-procd|sdf|8404|dock8
  -GOLD-   2272011 93D 1   1.00000     0.00000
 Structure written by MMmdl.
 42 43  0  0  0  0  0  0  0  0  3 V2000
  152.2331  143.6282  158.6142 C   0  0  0  0  0  0  0  0  0  0  0  0
  151.8788  142.4676  159.5589 C   0  0  0  0  0  0  0  0  0  0  0  0
  153.0054  142.2454  160.5790 C   0  0  0  0  0  0  0  0  0  0  0  0
  151.5851  141.1648  158.7844 C   0  0  0  0  0  0  0  0  0  0  0  0
  150.4584  141.3040  157.8220 N   0  3  1  0  0  0  0  0  0  0  0  0
  150.8949  141.4285  156.4101 C   0  0  0  0  0  0  0  0  0  0  0  0
  151.2875  140.0596  155.8277 C   0  0  0  0  0  0  0  0  0  0  0  0
  150.1885  139.1668  155.9501 O   0  0  0  0  0  0  0  0  0  0  0  0
  149.8240  138.9309  157.3071 C   0  0  2  0  0  0  0  0  0  0  0  0
  148.6864  137.9018  157.3294 C   0  0  0  0  0  0  0  0  0  0  0  0
  148.0998  137.8185  158.6597 N   0  0  0  0  0  0  0  0  0  0  0  0
  148.4421  136.9287  159.5991 C   0  0  0  0  0  0  0  0  0  0  0  0
  149.3165  136.0922  159.3620 O   0  0  0  0  0  0  0  0  0  0  0  0
  147.7489  137.0652  160.7517 N   0  5  0  0  0  0  0  0  0  0  0  0
  147.2206  135.9851  161.3502 C   0  0  0  0  0  0  0  0  0  0  0  0
  146.2305  136.0599  162.2471 N   0  0  0  0  0  0  0  0  0  0  0  0
  145.8298  134.8155  162.7367 C   0  0  0  0  0  0  0  0  0  0  0  0
  146.5243  133.7678  162.1927 C   0  0  0  0  0  0  0  0  0  0  0  0
  147.7103  134.3163  161.0428 S   0  0  0  0  0  0  0  0  0  0  0  0
  149.3982  140.2705  157.9486 C   0  0  0  0  0  0  0  0  0  0  0  0
  153.1187  143.4002  158.0201 H   0  0  0  0  0  0  0  0  0  0  0  0
  152.4369  144.5411  159.1747 H   0  0  0  0  0  0  0  0  0  0  0  0
  151.4171  143.8476  157.9253 H   0  0  0  0  0  0  0  0  0  0  0  0
  150.9946  142.7558  160.1265 H   0  0  0  0  0  0  0  0  0  0  0  0
  153.9354  141.9567  160.0877 H   0  0  0  0  0  0  0  0  0  0  0  0
  152.7455  141.4587  161.2879 H   0  0  0  0  0  0  0  0  0  0  0  0
  153.2005  143.1513  161.1537 H   0  0  0  0  0  0  0  0  0  0  0  0
  152.4904  140.8817  158.2456 H   0  0  0  0  0  0  0  0  0  0  0  0
  151.3855  140.3475  159.4774 H   0  0  0  0  0  0  0  0  0  0  0  0
  150.0674  141.8404  155.8309 H   0  0  0  0  0  0  0  0  0  0  0  0
  151.7151  142.1413  156.3190 H   0  0  0  0  0  0  0  0  0  0  0  0
  151.5408  140.1607  154.7723 H   0  0  0  0  0  0  0  0  0  0  0  0
  152.1674  139.6511  156.3272 H   0  0  0  0  0  0  0  0  0  0  0  0
  150.6767  138.5124  157.8440 H   0  0  0  0  0  0  0  0  0  0  0  0
  147.9111  138.1902  156.6178 H   0  0  0  0  0  0  0  0  0  0  0  0
  149.0540  136.9196  157.0282 H   0  0  0  0  0  0  0  0  0  0  0  0
  147.3846  138.4915  158.8932 H   0  0  0  0  0  0  0  0  0  0  0  0
  145.0394  134.7688  163.4712 H   0  0  0  0  0  0  0  0  0  0  0  0
  146.4115  132.7136  162.3956 H   0  0  0  0  0  0  0  0  0  0  0  0
  149.1156  140.1245  158.9904 H   0  0  0  0  0  0  0  0  0  0  0  0
  148.5059  140.6433  157.4437 H   0  0  0  0  0  0  0  0  0  0  0  0
  150.0278  142.1881  158.0530 H   0  0  0  0  0  0  0  0  0  0  0  0
  1  2  1  0  0  0  0
  1 21  1  0  0  0  0
  1 22  1  0  0  0  0
  1 23  1  0  0  0  0
  2  3  1  0  0  0  0
  2  4  1  0  0  0  0
  2 24  1  0  0  0  0
  3 25  1  0  0  0  0
  3 26  1  0  0  0  0
  3 27  1  0  0  0  0
  4  5  1  0  0  0  0
  4 28  1  0  0  0  0
  4 29  1  0  0  0  0
  5 20  1  0  0  0  0
  5  6  1  0  0  0  0
  5 42  1  0  0  0  0
  6  7  1  0  0  0  0
  6 30  1  0  0  0  0
  6 31  1  0  0  0  0
  7  8  1  0  0  0  0
  7 32  1  0  0  0  0
  7 33  1  0  0  0  0
  8  9  1  0  0  0  0
  9 10  1  0  0  0  0
  9 20  1  0  0  0  0
  9 34  1  0  0  0  0
 10 11  1  0  0  0  0
 10 35  1  0  0  0  0
 10 36  1  0  0  0  0
 11 12  1  0  0  0  0
 11 37  1  0  0  0  0
 12 13  2  0  0  0  0
 12 14  1  0  0  0  0
 14 15  1  0  0  0  0
 15 19  1  0  0  0  0
 15 16  2  0  0  0  0
 16 17  1  0  0  0  0
 17 18  2  0  0  0  0
 17 38  1  0  0  0  0
 18 19  1  0  0  0  0
 18 39  1  0  0  0  0
 20 40  1  0  0  0  0
 20 41  1  0  0  0  0
M  CHG  1   5   1
M  CHG  1  14  -1
M  END
> <s_m_source_file>
AV-unprocessed.smi

> <i_m_source_file_index>
2062

> <i_lp_mmshare_version>
43012

> <i_f3d_flags>
0

> <s_epik_input>
W0NIM11bQ0hdKFtDSDNdKVtDSDJdTjFbQ0gyXVtDSDJdT1tDQEhdKFtDSDJdMSlbQ0gyXVtOSF1DKD1PKVtOSF1jMm5bY0hdW2NIXXMy

> <s_epik_cmdline>
J2VwaWtfcHl0aG9uJywgJy1waCcsICc3LjAnLCAnLXRuJywgJzgnLCAnLW1hJywgJzIwMCcsICctbWV0YWxfYmluZGluZycsICctaW1hZScsICc8aW5maWxlLm1hZT4nLCAnLW9tYWUnLCAnPG91dGZpbGUubWFlPic=

> <r_lp_tautomer_probability>
0.999

> <r_epik_Ionization_Penalty>
6.35835

> <r_epik_Ionization_Penalty_Charging>
5.49938

> <r_epik_Ionization_Penalty_Neutral>
0.858963

> <r_epik_State_Penalty>
5.49328

> <r_epik_Charging_Adjusted_Penalty>
10.9927

> <i_epik_Tot_Q>
0

> <i_epik_Tot_abs_Q>
2

> <r_epik_Metal_State_Penalty>
1.51523

> <b_epik_Metal_Only>
1

> <s_lp_Force_Field>
OPLS_2005

> <r_lp_Energy>
10.2516

> <b_lp_Chiralities_Consistent>
1

> <s_lp_Variant>
AV-unprocessed.smi:2062-9

> <Gold.Version>
5.8.1

> <Gold.Id.Protein>
6NUR|6NUR_protein|mol2

> <Gold.PLP.Fitness>
47.6037

> <Gold.PLP.PLP>
-36.9730

> <Gold.PLP.part.hbond>
-3.0000

> <Gold.PLP.part.metal>
0.0000

> <Gold.PLP.part.buried>
-5.3586

> <Gold.PLP.part.nonpolar>
-29.8965

> <Gold.PLP.part.repulsive>
0.2153

> <Gold.PLP.ligand.clash>
0.0000

> <Gold.PLP.ligand.torsion>
1.3780

> <Gold.PLP.Chemscore.Hbond>
4.4240

> <Gold.PLP.Chemscore.CHOScore>
0.0000

> <Gold.PLP.Chemscore.Metal>
0.0000

> <Gold.Chemscore.Hbonds>
donor molecule, donor type, donor heavy atom, donor atom, acceptor molecule, acceptor atom, score
      P1  H  6896  6907       L1    13  1.00
      P1  H  6931  6943       L1    14  1.49
      P1  H  6934  6947       L1    14  1.78

> <Gold.PLP.Chemscore.Internal.Correction>
0.1146

> <Gold.Rescore>
     Score         DG    S(hbond)    S(metal)    S(lipo)     H(rot)  DE(clash)    DE(int)     intcor
     15.41     -18.02       2.14        0.00      83.60       1.72       0.01       2.60       ----

> <Gold.Chemscore.Fitness>
15.4090

> <Gold.Chemscore.DG>
-18.0175

> <Gold.Chemscore.ZeroCoef>
-5.4800

> <Gold.Chemscore.Hbond>
2.1432

> <Gold.Chemscore.Metal>
0.0000

> <Gold.Chemscore.Lipo>
83.5968

> <Gold.Chemscore.Internal_Hbond>
0.0000

> <Gold.Chemscore.DEClash>
0.0110

> <Gold.Chemscore.DEInternal>
2.5975

> <Gold.Chemscore.Rot>
1.7194

> <Gold.Chemscore.Internal.Correction>
   9.000000E+99

> <Gold.Chemscore.Hbonds>
donor molecule, donor type, donor heavy atom, donor atom, acceptor molecule, acceptor atom, score
      P1  H  6896  6907       L1    13  0.95
      P1  H  6931  6943       L1    14  0.23
      P1  H  6934  6947       L1    14  0.52

> <Gold.Chemscore.Hbond.Weighted>
-7.1584

> <Gold.Chemscore.Metal.Weighted>
-0.0000

> <Gold.Chemscore.Lipo.Weighted>
-9.7808

> <Gold.Chemscore.Internal_Hbond.Weighted>
0.0000

> <Gold.Chemscore.DEClash.Weighted>
0.0110

> <Gold.Chemscore.DEInternal.Weighted>
2.5975

> <Gold.Chemscore.Rot.Weighted>
4.4017

> <Gold.Chemscore.Internal.Correction.Weighted>
   9.000000E+99

> <Gold.Protein.RotatedTorsions>
[ 6907 6896 6895 6894 ] final  -66.04 input  -60.11 | X-H torsion
[ 7974 7965 7964 7962 ] final  -33.55 input  175.53 | X-H torsion
[ 8008 7997 7996 7995 ] final  -52.03 input   59.86 | X-H torsion
[ 10167 10162 10161 10158 ] final -128.14 input  -65.29 | X-H torsion
[ 10718 10713 10712 10709 ] final  171.17 input   66.30 | X-H torsion
[ 10763 10752 10751 10750 ] final  -61.25 input  -60.55 | X-H torsion
[ 11005 11000 10999 10996 ] final  168.04 input  -57.11 | X-H torsion

> <Gold.Protein.ActiveResidues>
 VAL166  LYS551  ARG553  GLY616  TRP617  ASP618  TYR619  PRO620  LYS621  CYS622 
 ASP623  PHE694  ASN695  SER759  ASP760  ASP761  ALA762  ILE779  LEU786  VAL792 
 PHE793  MET794  SER795  GLU796  ALA797  LYS798  CYS799  TRP800  GLU811  SER814 

> <Gold.Protein.RotatedAtoms>
  150.7489  134.6077  159.6069 H   0  0  0  0  0  0  0  0  0  0  0  0  # atno 6907 bound_to 6896
  152.3420  134.7118  160.0270 H   0  0  0  0  0  0  0  0  0  0  0  0  # atno 6908 bound_to 6896
  151.7568  133.3295  159.3443 H   0  0  0  0  0  0  0  0  0  0  0  0  # atno 6909 bound_to 6896
  146.0902  140.5930  142.8868 H   0  0  0  0  0  0  0  0  0  0  0  0  # atno 7974 bound_to 7965
  154.4097  140.1233  156.4925 H   0  0  0  0  0  0  0  0  0  0  0  0  # atno 8008 bound_to 7997
  155.6976  140.3495  155.4900 H   0  0  0  0  0  0  0  0  0  0  0  0  # atno 8009 bound_to 7997
  155.9414  140.1088  157.1042 H   0  0  0  0  0  0  0  0  0  0  0  0  # atno 8010 bound_to 7997
  139.9535  143.6029  152.2468 H   0  0  0  0  0  0  0  0  0  0  0  0  # atno 10167 bound_to 10162
  156.9975  131.0166  151.2840 H   0  0  0  0  0  0  0  0  0  0  0  0  # atno 10718 bound_to 10713
  154.2816  135.6271  153.5349 H   0  0  0  0  0  0  0  0  0  0  0  0  # atno 10763 bound_to 10752
  152.9865  135.5634  154.5489 H   0  0  0  0  0  0  0  0  0  0  0  0  # atno 10764 bound_to 10752
  154.5081  135.2875  155.1341 H   0  0  0  0  0  0  0  0  0  0  0  0  # atno 10765 bound_to 10752
  140.2830  134.7735  157.3774 H   0  0  0  0  0  0  0  0  0  0  0  0  # atno 11005 bound_to 11000
  144.7354  140.4794  143.6907 LP  0  0  0  0  0  0  0  0  0  0  0  0  # atno 17320 bound_to 7965
  145.6054  139.1508  143.3105 LP  0  0  0  0  0  0  0  0  0  0  0  0  # atno 17321 bound_to 7965
  139.6610  144.7662  151.1963 LP  0  0  0  0  0  0  0  0  0  0  0  0  # atno 17342 bound_to 10162
  140.7575  143.6011  150.8699 LP  0  0  0  0  0  0  0  0  0  0  0  0  # atno 17343 bound_to 10162
  157.5414  130.8122  149.8034 LP  0  0  0  0  0  0  0  0  0  0  0  0  # atno 17370 bound_to 10713
  156.0184  130.3805  150.2039 LP  0  0  0  0  0  0  0  0  0  0  0  0  # atno 17371 bound_to 10713
  140.1265  134.5151  155.8140 LP  0  0  0  0  0  0  0  0  0  0  0  0  # atno 17394 bound_to 11000
  141.2159  133.6775  156.6962 LP  0  0  0  0  0  0  0  0  0  0  0  0  # atno 17395 bound_to 11000

$$$$
