AV-unprocessed.smi:3053|AV-procd|sdf|11637|dock1
  -GOLD-   2272017 33D 1   1.00000     0.00000
 Structure written by MMmdl.
 31 32  0  0  0  0  0  0  0  0  1 V2000
  152.6571  142.5895  161.4363 C   0  0  0  0  0  0  0  0  0  0  0  0
  151.9499  143.0367  160.2036 C   0  0  0  0  0  0  0  0  0  0  0  0
  151.0071  142.3158  159.5918 N   0  0  0  0  0  0  0  0  0  0  0  0
  150.5152  142.9397  158.4412 C   0  0  0  0  0  0  0  0  0  0  0  0
  149.4874  142.2469  157.5939 C   0  0  0  0  0  0  0  0  0  0  0  0
  150.0899  141.2404  156.5926 C   0  0  0  0  0  0  0  0  0  0  0  0
  149.2239  141.0227  155.4353 N   0  0  0  0  0  0  0  0  0  0  0  0
  149.4930  140.2052  154.4044 C   0  0  0  0  0  0  0  0  0  0  0  0
  150.4974  139.4941  154.3485 O   0  0  0  0  0  0  0  0  0  0  0  0
  148.4681  140.1927  153.2623 C   0  0  2  0  0  0  0  0  0  0  0  0
  147.2037  141.0118  153.5679 C   0  0  0  0  0  0  0  0  0  0  0  0
  146.1643  140.0007  153.5934 N   0  0  0  0  0  0  0  0  0  0  0  0
  146.6095  138.7779  153.2977 C   0  0  0  0  0  0  0  0  0  0  0  0
  145.9288  137.7574  153.2363 O   0  0  0  0  0  0  0  0  0  0  0  0
  147.9243  138.8573  153.0800 N   0  0  0  0  0  0  0  0  0  0  0  0
  151.0865  144.1654  158.2037 C   0  0  0  0  0  0  0  0  0  0  0  0
  152.2872  144.5650  159.3999 S   0  0  0  0  0  0  0  0  0  0  0  0
  152.0508  141.8677  161.9843 H   0  0  0  0  0  0  0  0  0  0  0  0
  152.8562  143.4423  162.0856 H   0  0  0  0  0  0  0  0  0  0  0  0
  153.6052  142.1219  161.1704 H   0  0  0  0  0  0  0  0  0  0  0  0
  148.7697  141.7288  158.2308 H   0  0  0  0  0  0  0  0  0  0  0  0
  148.9072  142.9880  157.0430 H   0  0  0  0  0  0  0  0  0  0  0  0
  151.0771  141.5792  156.2738 H   0  0  0  0  0  0  0  0  0  0  0  0
  150.2464  140.2822  157.0879 H   0  0  0  0  0  0  0  0  0  0  0  0
  148.3703  141.5611  155.3996 H   0  0  0  0  0  0  0  0  0  0  0  0
  148.9277  140.5202  152.3282 H   0  0  0  0  0  0  0  0  0  0  0  0
  147.2452  141.5365  154.5239 H   0  0  0  0  0  0  0  0  0  0  0  0
  146.9978  141.7407  152.7833 H   0  0  0  0  0  0  0  0  0  0  0  0
  145.2006  140.2154  153.8053 H   0  0  0  0  0  0  0  0  0  0  0  0
  148.5056  138.0633  152.8536 H   0  0  0  0  0  0  0  0  0  0  0  0
  150.8886  144.8457  157.3888 H   0  0  0  0  0  0  0  0  0  0  0  0
  1  2  1  0  0  0  0
  1 18  1  0  0  0  0
  1 19  1  0  0  0  0
  1 20  1  0  0  0  0
  2 17  1  0  0  0  0
  2  3  2  0  0  0  0
  3  4  1  0  0  0  0
  4  5  1  0  0  0  0
  4 16  2  0  0  0  0
  5  6  1  0  0  0  0
  5 21  1  0  0  0  0
  5 22  1  0  0  0  0
  6  7  1  0  0  0  0
  6 23  1  0  0  0  0
  6 24  1  0  0  0  0
  7  8  1  0  0  0  0
  7 25  1  0  0  0  0
  8  9  2  0  0  0  0
  8 10  1  0  0  0  0
 10 15  1  0  0  0  0
 10 11  1  0  0  0  0
 10 26  1  0  0  0  0
 11 12  1  0  0  0  0
 11 27  1  0  0  0  0
 11 28  1  0  0  0  0
 12 13  1  0  0  0  0
 12 29  1  0  0  0  0
 13 14  2  0  0  0  0
 13 15  1  0  0  0  0
 15 30  1  0  0  0  0
 16 17  1  0  0  0  0
 16 31  1  0  0  0  0
M  END
> <s_m_source_file>
AV-unprocessed.smi

> <i_m_source_file_index>
3053

> <i_lp_mmshare_version>
43012

> <i_f3d_flags>
0

> <s_epik_input>
W0NIM11jMW5jKFtjSF1zMSlbQ0gyXVtDSDJdW05IXUMoPU8pW0NAQEhdMltDSDJdW05IXUMoPU8pW05IXTI=

> <s_epik_cmdline>
J2VwaWtfcHl0aG9uJywgJy1waCcsICc3LjAnLCAnLXRuJywgJzgnLCAnLW1hJywgJzIwMCcsICctbWV0YWxfYmluZGluZycsICctaW1hZScsICc8aW5maWxlLm1hZT4nLCAnLW9tYWUnLCAnPG91dGZpbGUubWFlPic=

> <r_epik_Ionization_Penalty>
0.00110852

> <r_epik_Ionization_Penalty_Charging>
0

> <r_epik_Ionization_Penalty_Neutral>
0.00110852

> <r_epik_State_Penalty>
0.000695988

> <r_epik_Charging_Adjusted_Penalty>
0.000695988

> <i_epik_Tot_Q>
0

> <i_epik_Tot_abs_Q>
0

> <r_epik_Metal_State_Penalty>
-0

> <b_epik_Metal_Only>
0

> <s_lp_Force_Field>
OPLS_2005

> <r_lp_Energy>
23.9072

> <b_lp_Chiralities_Consistent>
1

> <s_lp_Variant>
AV-unprocessed.smi:3053-1

> <Gold.Version>
5.8.1

> <Gold.Id.Protein>
6NUR|6NUR_protein|mol2

> <Gold.PLP.Fitness>
40.3908

> <Gold.PLP.PLP>
-31.6378

> <Gold.PLP.part.hbond>
-4.7874

> <Gold.PLP.part.metal>
0.0000

> <Gold.PLP.part.buried>
1.9223

> <Gold.PLP.part.nonpolar>
-29.5556

> <Gold.PLP.part.repulsive>
0.5111

> <Gold.PLP.ligand.clash>
0.0000

> <Gold.PLP.ligand.torsion>
0.5213

> <Gold.PLP.Chemscore.Hbond>
2.2461

> <Gold.PLP.Chemscore.CHOScore>
1.0000

> <Gold.PLP.Chemscore.Metal>
0.0000

> <Gold.Chemscore.Hbonds>
donor molecule, donor type, donor heavy atom, donor atom, acceptor molecule, acceptor atom, score
      L1  H    12    29       P1 10175  0.54
      L1  H    15    30       P1  7948  0.81
      P1  H  7989  7998       L1     9  0.75
      L1  C    16    31       P1  8028  0.78

> <Gold.PLP.Chemscore.Internal.Correction>
0.0576

> <Gold.Rescore>
     Score         DG    S(hbond)    S(metal)    S(lipo)     H(rot)  DE(clash)    DE(int)     intcor
     12.70     -15.17       1.64        0.00      80.35       2.02       1.99       0.48       ----

> <Gold.Chemscore.Fitness>
12.6995

> <Gold.Chemscore.DG>
-15.1717

> <Gold.Chemscore.ZeroCoef>
-5.4800

> <Gold.Chemscore.Hbond>
1.6392

> <Gold.Chemscore.Metal>
0.0000

> <Gold.Chemscore.Lipo>
80.3489

> <Gold.Chemscore.Internal_Hbond>
0.0000

> <Gold.Chemscore.DEClash>
1.9885

> <Gold.Chemscore.DEInternal>
0.4837

> <Gold.Chemscore.Rot>
2.0250

> <Gold.Chemscore.Internal.Correction>
   9.000000E+99

> <Gold.Chemscore.Hbonds>
donor molecule, donor type, donor heavy atom, donor atom, acceptor molecule, acceptor atom, score
      L1  H    12    29       P1 10175  0.50
      L1  H    15    30       P1  7948  0.77
      P1  H  7989  7998       L1     9  0.09

> <Gold.Chemscore.Hbond.Weighted>
-5.4748

> <Gold.Chemscore.Metal.Weighted>
-0.0000

> <Gold.Chemscore.Lipo.Weighted>
-9.4008

> <Gold.Chemscore.Internal_Hbond.Weighted>
0.0000

> <Gold.Chemscore.DEClash.Weighted>
1.9885

> <Gold.Chemscore.DEInternal.Weighted>
0.4837

> <Gold.Chemscore.Rot.Weighted>
5.1840

> <Gold.Chemscore.Internal.Correction.Weighted>
   9.000000E+99

> <Gold.Protein.RotatedTorsions>
[ 6907 6896 6895 6894 ] final   92.05 input  -60.11 | X-H torsion
[ 7974 7965 7964 7962 ] final  -56.00 input  175.53 | X-H torsion
[ 8008 7997 7996 7995 ] final  -54.72 input   59.86 | X-H torsion
[ 10167 10162 10161 10158 ] final  -98.77 input  -65.29 | X-H torsion
[ 10718 10713 10712 10709 ] final   70.49 input   66.30 | X-H torsion
[ 10763 10752 10751 10750 ] final -106.48 input  -60.55 | X-H torsion
[ 11005 11000 10999 10996 ] final  138.66 input  -57.11 | X-H torsion

> <Gold.Protein.ActiveResidues>
 VAL166  LYS551  ARG553  GLY616  TRP617  ASP618  TYR619  PRO620  LYS621  CYS622 
 ASP623  PHE694  ASN695  SER759  ASP760  ASP761  ALA762  ILE779  LEU786  VAL792 
 PHE793  MET794  SER795  GLU796  ALA797  LYS798  CYS799  TRP800  GLU811  SER814 

> <Gold.Protein.RotatedAtoms>
  152.5452  134.1562  159.8538 H   0  0  0  0  0  0  0  0  0  0  0  0  # atno 6907 bound_to 6896
  151.1584  133.4854  159.2602 H   0  0  0  0  0  0  0  0  0  0  0  0  # atno 6908 bound_to 6896
  151.1398  135.0185  159.8675 H   0  0  0  0  0  0  0  0  0  0  0  0  # atno 6909 bound_to 6896
  145.8677  140.8239  142.9904 H   0  0  0  0  0  0  0  0  0  0  0  0  # atno 7974 bound_to 7965
  154.4171  140.1169  156.5361 H   0  0  0  0  0  0  0  0  0  0  0  0  # atno 8008 bound_to 7997
  155.6556  140.3496  155.4744 H   0  0  0  0  0  0  0  0  0  0  0  0  # atno 8009 bound_to 7997
  155.9756  140.1150  157.0762 H   0  0  0  0  0  0  0  0  0  0  0  0  # atno 8010 bound_to 7997
  140.2695  143.3354  152.0549 H   0  0  0  0  0  0  0  0  0  0  0  0  # atno 10167 bound_to 10162
  157.6402  130.9480  150.0658 H   0  0  0  0  0  0  0  0  0  0  0  0  # atno 10718 bound_to 10713
  154.8014  135.4710  154.0286 H   0  0  0  0  0  0  0  0  0  0  0  0  # atno 10763 bound_to 10752
  153.1788  135.6837  153.8513 H   0  0  0  0  0  0  0  0  0  0  0  0  # atno 10764 bound_to 10752
  153.8070  135.3222  155.3374 H   0  0  0  0  0  0  0  0  0  0  0  0  # atno 10765 bound_to 10752
  140.0200  134.9401  157.0454 H   0  0  0  0  0  0  0  0  0  0  0  0  # atno 11005 bound_to 11000
  144.6726  140.1192  143.7451 LP  0  0  0  0  0  0  0  0  0  0  0  0  # atno 17320 bound_to 7965
  145.9173  139.2524  143.1402 LP  0  0  0  0  0  0  0  0  0  0  0  0  # atno 17321 bound_to 7965
  139.4993  144.6666  151.6342 LP  0  0  0  0  0  0  0  0  0  0  0  0  # atno 17342 bound_to 10162
  140.5901  143.9794  150.6319 LP  0  0  0  0  0  0  0  0  0  0  0  0  # atno 17343 bound_to 10162
  156.1677  130.3645  149.9209 LP  0  0  0  0  0  0  0  0  0  0  0  0  # atno 17370 bound_to 10713
  156.7192  130.9000  151.3616 LP  0  0  0  0  0  0  0  0  0  0  0  0  # atno 17371 bound_to 10713
  140.4404  134.1687  155.7173 LP  0  0  0  0  0  0  0  0  0  0  0  0  # atno 17394 bound_to 11000
  141.1767  133.8498  157.1396 LP  0  0  0  0  0  0  0  0  0  0  0  0  # atno 17395 bound_to 11000

$$$$
