AV-unprocessed.smi:3348|AV-procd|sdf|12915|dock3
  -GOLD-   2272019333D 1   1.00000     0.00000
 Structure written by MMmdl.
 47 48  0  0  0  0  0  0  0  0  2 V2000
  145.9111  143.5914  157.1253 C   0  0  0  0  0  0  0  0  0  0  0  0
  147.0622  142.8269  157.7931 C   0  0  2  0  0  0  0  0  0  0  0  0
  147.6824  143.6698  158.9292 C   0  0  0  0  0  0  0  0  0  0  0  0
  146.7334  144.0319  159.9664 N   0  0  0  0  0  0  0  0  0  0  0  0
  145.5932  144.7996  159.8543 C   0  0  0  0  0  0  0  0  0  0  0  0
  145.0182  144.8561  161.0913 C   0  0  0  0  0  0  0  0  0  0  0  0
  145.8851  144.0726  161.9035 C   0  0  0  0  0  0  0  0  0  0  0  0
  146.9092  143.5784  161.2264 N   0  0  0  0  0  0  0  0  0  0  0  0
  148.0708  142.4763  156.7668 N   0  3  0  0  0  0  0  0  0  0  0  0
  148.9538  141.3405  157.1074 C   0  0  0  0  0  0  0  0  0  0  0  0
  150.2716  141.4240  156.3323 C   0  0  0  0  0  0  0  0  0  0  0  0
  151.3324  141.0648  157.2051 O   0  0  0  0  0  0  0  0  0  0  0  0
  151.4252  141.8609  158.3805 C   0  0  2  0  0  0  0  0  0  0  0  0
  151.5253  143.3501  157.9855 C   0  0  0  0  0  0  0  0  0  0  0  0
  151.7695  144.2447  159.2093 C   0  0  0  0  0  0  0  0  0  0  0  0
  153.0232  143.7998  159.9744 C   0  0  0  0  0  0  0  0  0  0  0  0
  152.9247  142.3219  160.3806 C   0  0  0  0  0  0  0  0  0  0  0  0
  152.6797  141.4080  159.1626 C   0  0  1  0  0  0  0  0  0  0  0  0
  152.5777  139.9384  159.6025 C   0  0  0  0  0  0  0  0  0  0  0  0
  145.1324  143.8383  157.8476 H   0  0  0  0  0  0  0  0  0  0  0  0
  145.4486  142.9963  156.3371 H   0  0  0  0  0  0  0  0  0  0  0  0
  146.2579  144.5242  156.6789 H   0  0  0  0  0  0  0  0  0  0  0  0
  146.6385  141.9111  158.2088 H   0  0  0  0  0  0  0  0  0  0  0  0
  148.5147  143.1350  159.3890 H   0  0  0  0  0  0  0  0  0  0  0  0
  148.0973  144.5941  158.5242 H   0  0  0  0  0  0  0  0  0  0  0  0
  145.2889  145.2384  158.9153 H   0  0  0  0  0  0  0  0  0  0  0  0
  144.1128  145.3734  161.3726 H   0  0  0  0  0  0  0  0  0  0  0  0
  145.8002  143.8489  162.9568 H   0  0  0  0  0  0  0  0  0  0  0  0
  147.5741  142.2166  155.9264 H   0  0  0  0  0  0  0  0  0  0  0  0
  149.1655  141.3478  158.1757 H   0  0  0  0  0  0  0  0  0  0  0  0
  148.4485  140.3993  156.8871 H   0  0  0  0  0  0  0  0  0  0  0  0
  150.2336  140.7754  155.4570 H   0  0  0  0  0  0  0  0  0  0  0  0
  150.4233  142.4442  155.9769 H   0  0  0  0  0  0  0  0  0  0  0  0
  150.5485  141.7053  159.0127 H   0  0  0  0  0  0  0  0  0  0  0  0
  152.3387  143.4847  157.2712 H   0  0  0  0  0  0  0  0  0  0  0  0
  150.6168  143.6777  157.4812 H   0  0  0  0  0  0  0  0  0  0  0  0
  151.8739  145.2839  158.8963 H   0  0  0  0  0  0  0  0  0  0  0  0
  150.9028  144.2055  159.8703 H   0  0  0  0  0  0  0  0  0  0  0  0
  153.9067  143.9517  159.3529 H   0  0  0  0  0  0  0  0  0  0  0  0
  153.1575  144.4205  160.8607 H   0  0  0  0  0  0  0  0  0  0  0  0
  153.8410  142.0246  160.8918 H   0  0  0  0  0  0  0  0  0  0  0  0
  152.1165  142.1988  161.1030 H   0  0  0  0  0  0  0  0  0  0  0  0
  153.5424  141.4967  158.5006 H   0  0  0  0  0  0  0  0  0  0  0  0
  151.7267  139.7815  160.2661 H   0  0  0  0  0  0  0  0  0  0  0  0
  153.4761  139.6259  160.1356 H   0  0  0  0  0  0  0  0  0  0  0  0
  152.4595  139.2728  158.7472 H   0  0  0  0  0  0  0  0  0  0  0  0
  148.6311  143.2921  156.5654 H   0  0  0  0  0  0  0  0  0  0  0  0
  1  2  1  0  0  0  0
  1 20  1  0  0  0  0
  1 21  1  0  0  0  0
  1 22  1  0  0  0  0
  2  3  1  0  0  0  0
  2  9  1  0  0  0  0
  2 23  1  0  0  0  0
  3  4  1  0  0  0  0
  3 24  1  0  0  0  0
  3 25  1  0  0  0  0
  4  8  1  0  0  0  0
  4  5  1  0  0  0  0
  5  6  2  0  0  0  0
  5 26  1  0  0  0  0
  6  7  1  0  0  0  0
  6 27  1  0  0  0  0
  7  8  2  0  0  0  0
  7 28  1  0  0  0  0
  9 10  1  0  0  0  0
  9 29  1  0  0  0  0
  9 47  1  0  0  0  0
 10 11  1  0  0  0  0
 10 30  1  0  0  0  0
 10 31  1  0  0  0  0
 11 12  1  0  0  0  0
 11 32  1  0  0  0  0
 11 33  1  0  0  0  0
 12 13  1  0  0  0  0
 13 18  1  0  0  0  0
 13 14  1  0  0  0  0
 13 34  1  0  0  0  0
 14 15  1  0  0  0  0
 14 35  1  0  0  0  0
 14 36  1  0  0  0  0
 15 16  1  0  0  0  0
 15 37  1  0  0  0  0
 15 38  1  0  0  0  0
 16 17  1  0  0  0  0
 16 39  1  0  0  0  0
 16 40  1  0  0  0  0
 17 18  1  0  0  0  0
 17 41  1  0  0  0  0
 17 42  1  0  0  0  0
 18 19  1  0  0  0  0
 18 43  1  0  0  0  0
 19 44  1  0  0  0  0
 19 45  1  0  0  0  0
 19 46  1  0  0  0  0
M  CHG  1   9   1
M  END
> <s_m_source_file>
AV-unprocessed.smi

> <i_m_source_file_index>
3348

> <i_lp_mmshare_version>
43012

> <i_f3d_flags>
0

> <s_epik_input>
bjFbY0hdW2NIXVtjSF1uMVtDSDJdW0NAQEhdKFtDSDNdKVtOSF1bQ0gyXVtDSDJdT1tDQEBIXTJbQ0gyXVtDSDJdW0NIMl1bQ0gyXVtDQEhdMltDSDNd

> <s_epik_cmdline>
J2VwaWtfcHl0aG9uJywgJy1waCcsICc3LjAnLCAnLXRuJywgJzgnLCAnLW1hJywgJzIwMCcsICctbWV0YWxfYmluZGluZycsICctaW1hZScsICc8aW5maWxlLm1hZT4nLCAnLW9tYWUnLCAnPG91dGZpbGUubWFlPic=

> <r_lp_tautomer_probability>
1

> <r_epik_Ionization_Penalty>
0.00925088

> <r_epik_Ionization_Penalty_Charging>
0.00924645

> <r_epik_Ionization_Penalty_Neutral>
4.42413e-06

> <r_epik_State_Penalty>
0.0070118

> <r_epik_Charging_Adjusted_Penalty>
0.0162583

> <i_epik_Tot_Q>
1

> <i_epik_Tot_abs_Q>
1

> <r_epik_Metal_State_Penalty>
0.00701222

> <b_epik_Metal_Only>
0

> <s_lp_Force_Field>
OPLS_2005

> <r_lp_Energy>
16.8222

> <b_lp_Chiralities_Consistent>
1

> <s_lp_Variant>
AV-unprocessed.smi:3348-1

> <Gold.Version>
5.8.1

> <Gold.Id.Protein>
6NUR|6NUR_protein|mol2

> <Gold.PLP.Fitness>
46.8262

> <Gold.PLP.PLP>
-36.9015

> <Gold.PLP.part.hbond>
-3.0000

> <Gold.PLP.part.metal>
0.0000

> <Gold.PLP.part.buried>
-5.2060

> <Gold.PLP.part.nonpolar>
-28.5296

> <Gold.PLP.part.repulsive>
0.0294

> <Gold.PLP.ligand.clash>
0.0000

> <Gold.PLP.ligand.torsion>
0.6461

> <Gold.PLP.Chemscore.Hbond>
3.6640

> <Gold.PLP.Chemscore.CHOScore>
0.0000

> <Gold.PLP.Chemscore.Metal>
0.0000

> <Gold.Chemscore.Hbonds>
donor molecule, donor type, donor heavy atom, donor atom, acceptor molecule, acceptor atom, score
      L1  H     9    47       P1  8028  1.95
      P1  H  6933  6944       L1     8  1.00

> <Gold.PLP.Chemscore.Internal.Correction>
0.2250

> <Gold.Rescore>
     Score         DG    S(hbond)    S(metal)    S(lipo)     H(rot)  DE(clash)    DE(int)     intcor
     17.18     -18.95       1.89        0.00     101.01       1.82       0.08       1.70       ----

> <Gold.Chemscore.Fitness>
17.1777

> <Gold.Chemscore.DG>
-18.9488

> <Gold.Chemscore.ZeroCoef>
-5.4800

> <Gold.Chemscore.Hbond>
1.8862

> <Gold.Chemscore.Metal>
0.0000

> <Gold.Chemscore.Lipo>
101.0143

> <Gold.Chemscore.Internal_Hbond>
0.0000

> <Gold.Chemscore.DEClash>
0.0757

> <Gold.Chemscore.DEInternal>
1.6955

> <Gold.Chemscore.Rot>
1.8163

> <Gold.Chemscore.Internal.Correction>
   9.000000E+99

> <Gold.Chemscore.Hbonds>
donor molecule, donor type, donor heavy atom, donor atom, acceptor molecule, acceptor atom, score
      L1  H     9    47       P1  8028  0.69
      P1  H  6933  6944       L1     8  0.86

> <Gold.Chemscore.Hbond.Weighted>
-6.2999

> <Gold.Chemscore.Metal.Weighted>
-0.0000

> <Gold.Chemscore.Lipo.Weighted>
-11.8187

> <Gold.Chemscore.Internal_Hbond.Weighted>
0.0000

> <Gold.Chemscore.DEClash.Weighted>
0.0757

> <Gold.Chemscore.DEInternal.Weighted>
1.6955

> <Gold.Chemscore.Rot.Weighted>
4.6497

> <Gold.Chemscore.Internal.Correction.Weighted>
   9.000000E+99

> <Gold.Protein.RotatedTorsions>
[ 6907 6896 6895 6894 ] final -128.33 input  -60.11 | X-H torsion
[ 7974 7965 7964 7962 ] final  131.53 input  175.53 | X-H torsion
[ 8008 7997 7996 7995 ] final  -15.78 input   59.86 | X-H torsion
[ 10167 10162 10161 10158 ] final  -69.64 input  -65.29 | X-H torsion
[ 10718 10713 10712 10709 ] final  113.08 input   66.30 | X-H torsion
[ 10763 10752 10751 10750 ] final  -38.04 input  -60.55 | X-H torsion
[ 11005 11000 10999 10996 ] final -161.03 input  -57.11 | X-H torsion

> <Gold.Protein.ActiveResidues>
 VAL166  LYS551  ARG553  GLY616  TRP617  ASP618  TYR619  PRO620  LYS621  CYS622 
 ASP623  PHE694  ASN695  SER759  ASP760  ASP761  ALA762  ILE779  LEU786  VAL792 
 PHE793  MET794  SER795  GLU796  ALA797  LYS798  CYS799  TRP800  GLU811  SER814 

> <Gold.Protein.RotatedAtoms>
  150.9167  133.6930  159.2841 H   0  0  0  0  0  0  0  0  0  0  0  0  # atno 6907 bound_to 6896
  151.4398  135.1017  159.9676 H   0  0  0  0  0  0  0  0  0  0  0  0  # atno 6908 bound_to 6896
  152.4958  133.8578  159.7290 H   0  0  0  0  0  0  0  0  0  0  0  0  # atno 6909 bound_to 6896
  145.0064  139.4262  143.5267 H   0  0  0  0  0  0  0  0  0  0  0  0  # atno 7974 bound_to 7965
  154.5104  140.2187  155.9168 H   0  0  0  0  0  0  0  0  0  0  0  0  # atno 8008 bound_to 7997
  156.1545  140.3155  155.8669 H   0  0  0  0  0  0  0  0  0  0  0  0  # atno 8009 bound_to 7997
  155.3874  140.0476  157.3032 H   0  0  0  0  0  0  0  0  0  0  0  0  # atno 8010 bound_to 7997
  140.5415  143.2315  151.7081 H   0  0  0  0  0  0  0  0  0  0  0  0  # atno 10167 bound_to 10162
  157.6358  131.0978  150.6989 H   0  0  0  0  0  0  0  0  0  0  0  0  # atno 10718 bound_to 10713
  153.9062  135.6797  153.4753 H   0  0  0  0  0  0  0  0  0  0  0  0  # atno 10763 bound_to 10752
  153.1103  135.4786  154.9020 H   0  0  0  0  0  0  0  0  0  0  0  0  # atno 10764 bound_to 10752
  154.7550  135.3195  154.8441 H   0  0  0  0  0  0  0  0  0  0  0  0  # atno 10765 bound_to 10752
  140.6249  134.4712  157.5226 H   0  0  0  0  0  0  0  0  0  0  0  0  # atno 11005 bound_to 11000
  146.3462  139.9482  142.8732 LP  0  0  0  0  0  0  0  0  0  0  0  0  # atno 17320 bound_to 7965
  145.2083  140.9884  143.4115 LP  0  0  0  0  0  0  0  0  0  0  0  0  # atno 17321 bound_to 7965
  139.4990  144.3962  152.0229 LP  0  0  0  0  0  0  0  0  0  0  0  0  # atno 17342 bound_to 10162
  140.3071  144.3580  150.6044 LP  0  0  0  0  0  0  0  0  0  0  0  0  # atno 17343 bound_to 10162
  156.7320  130.4712  149.5497 LP  0  0  0  0  0  0  0  0  0  0  0  0  # atno 17370 bound_to 10713
  156.1596  130.6365  151.0701 LP  0  0  0  0  0  0  0  0  0  0  0  0  # atno 17371 bound_to 10713
  139.9138  134.8288  156.1434 LP  0  0  0  0  0  0  0  0  0  0  0  0  # atno 17394 bound_to 11000
  141.0716  133.6794  156.2152 LP  0  0  0  0  0  0  0  0  0  0  0  0  # atno 17395 bound_to 11000

$$$$
