AV-unprocessed.smi:1659|AV-procd|sdf|6650|dock7
  -GOLD-   22720 7353D 1   1.00000     0.00000
 Structure written by MMmdl.
 43 44  0  0  0  0  0  0  0  0  1 V2000
  150.8527  130.2613  154.2076 C   0  0  0  0  0  0  0  0  0  0  0  0
  150.8706  131.7273  154.4747 C   0  0  0  0  0  0  0  0  0  0  0  0
  150.5166  132.8137  153.7251 C   0  0  0  0  0  0  0  0  0  0  0  0
  150.7879  133.9039  154.5940 C   0  0  0  0  0  0  0  0  0  0  0  0
  150.5486  135.2399  154.1821 N   0  0  0  0  0  0  0  0  0  0  0  0
  151.1750  136.3517  154.6039 C   0  0  0  0  0  0  0  0  0  0  0  0
  152.0804  136.3826  155.4378 O   0  0  0  0  0  0  0  0  0  0  0  0
  150.6898  137.4449  153.9975 N   0  0  0  0  0  0  0  0  0  0  0  0
  151.1568  138.8071  154.2290 C   0  0  0  0  0  0  0  0  0  0  0  0
  151.0947  139.1800  155.7186 C   0  0  0  0  0  0  0  0  0  0  0  0
  152.2388  140.1190  156.1370 C   0  0  0  0  0  0  0  0  0  0  0  0
  151.9683  140.7461  157.4398 N   0  0  0  0  0  0  0  0  0  0  0  0
  150.7234  141.5250  157.5262 C   0  0  0  0  0  0  0  0  0  0  0  0
  150.9794  143.0290  157.7426 C   0  0  0  0  0  0  0  0  0  0  0  0
  151.2639  143.4102  159.2031 C   0  0  0  0  0  0  0  0  0  0  0  0
  152.5388  142.7826  159.7851 C   0  0  0  0  0  0  0  0  0  0  0  0
  152.4959  141.2460  159.8261 C   0  0  0  0  0  0  0  0  0  0  0  0
  152.8348  140.6088  158.4723 C   0  0  0  0  0  0  0  0  0  0  0  0
  153.8879  139.9773  158.3759 O   0  0  0  0  0  0  0  0  0  0  0  0
  151.2655  133.5180  155.7673 N   0  0  0  0  0  0  0  0  0  0  0  0
  151.3199  132.1208  155.6973 O   0  0  0  0  0  0  0  0  0  0  0  0
  150.7103  130.0606  153.1457 H   0  0  0  0  0  0  0  0  0  0  0  0
  150.0426  129.7795  154.7550 H   0  0  0  0  0  0  0  0  0  0  0  0
  151.7914  129.8001  154.5150 H   0  0  0  0  0  0  0  0  0  0  0  0
  150.1261  132.8229  152.7184 H   0  0  0  0  0  0  0  0  0  0  0  0
  149.8216  135.3620  153.4930 H   0  0  0  0  0  0  0  0  0  0  0  0
  149.9451  137.3273  153.3260 H   0  0  0  0  0  0  0  0  0  0  0  0
  152.1846  138.8764  153.8722 H   0  0  0  0  0  0  0  0  0  0  0  0
  150.5730  139.5108  153.6333 H   0  0  0  0  0  0  0  0  0  0  0  0
  150.1359  139.6521  155.9363 H   0  0  0  0  0  0  0  0  0  0  0  0
  151.1336  138.2712  156.3205 H   0  0  0  0  0  0  0  0  0  0  0  0
  153.1794  139.5680  156.1586 H   0  0  0  0  0  0  0  0  0  0  0  0
  152.3855  140.8846  155.3728 H   0  0  0  0  0  0  0  0  0  0  0  0
  150.1468  141.4170  156.6072 H   0  0  0  0  0  0  0  0  0  0  0  0
  150.0813  141.1236  158.3114 H   0  0  0  0  0  0  0  0  0  0  0  0
  151.7885  143.3721  157.0965 H   0  0  0  0  0  0  0  0  0  0  0  0
  150.0922  143.5768  157.4230 H   0  0  0  0  0  0  0  0  0  0  0  0
  151.3467  144.4953  159.2714 H   0  0  0  0  0  0  0  0  0  0  0  0
  150.4088  143.1372  159.8228 H   0  0  0  0  0  0  0  0  0  0  0  0
  153.4109  143.1240  159.2250 H   0  0  0  0  0  0  0  0  0  0  0  0
  152.6754  143.1552  160.8007 H   0  0  0  0  0  0  0  0  0  0  0  0
  153.2311  140.8966  160.5523 H   0  0  0  0  0  0  0  0  0  0  0  0
  151.5319  140.8857  160.1867 H   0  0  0  0  0  0  0  0  0  0  0  0
  1  2  1  0  0  0  0
  1 22  1  0  0  0  0
  1 23  1  0  0  0  0
  1 24  1  0  0  0  0
  2 21  1  0  0  0  0
  2  3  2  0  0  0  0
  3  4  1  0  0  0  0
  3 25  1  0  0  0  0
  4  5  1  0  0  0  0
  4 20  2  0  0  0  0
  5  6  1  0  0  0  0
  5 26  1  0  0  0  0
  6  7  2  0  0  0  0
  6  8  1  0  0  0  0
  8  9  1  0  0  0  0
  8 27  1  0  0  0  0
  9 10  1  0  0  0  0
  9 28  1  0  0  0  0
  9 29  1  0  0  0  0
 10 11  1  0  0  0  0
 10 30  1  0  0  0  0
 10 31  1  0  0  0  0
 11 12  1  0  0  0  0
 11 32  1  0  0  0  0
 11 33  1  0  0  0  0
 12 18  1  0  0  0  0
 12 13  1  0  0  0  0
 13 14  1  0  0  0  0
 13 34  1  0  0  0  0
 13 35  1  0  0  0  0
 14 15  1  0  0  0  0
 14 36  1  0  0  0  0
 14 37  1  0  0  0  0
 15 16  1  0  0  0  0
 15 38  1  0  0  0  0
 15 39  1  0  0  0  0
 16 17  1  0  0  0  0
 16 40  1  0  0  0  0
 16 41  1  0  0  0  0
 17 18  1  0  0  0  0
 17 42  1  0  0  0  0
 17 43  1  0  0  0  0
 18 19  2  0  0  0  0
 20 21  1  0  0  0  0
M  END
> <s_m_source_file>
AV-unprocessed.smi

> <i_m_source_file_index>
1659

> <i_lp_mmshare_version>
43012

> <i_f3d_flags>
0

> <s_epik_input>
W0NIM11jMVtjSF1jKG5vMSlbTkhdQyg9TylbTkhdW0NIMl1bQ0gyXVtDSDJdTjJbQ0gyXVtDSDJdW0NIMl1bQ0gyXVtDSDJdQzI9Tw==

> <s_epik_cmdline>
J2VwaWtfcHl0aG9uJywgJy1waCcsICc3LjAnLCAnLXRuJywgJzgnLCAnLW1hJywgJzIwMCcsICctbWV0YWxfYmluZGluZycsICctaW1hZScsICc8aW5maWxlLm1hZT4nLCAnLW9tYWUnLCAnPG91dGZpbGUubWFlPic=

> <r_lp_tautomer_probability>
1

> <r_epik_Ionization_Penalty>
2.8543e-05

> <r_epik_Ionization_Penalty_Charging>
0

> <r_epik_Ionization_Penalty_Neutral>
2.8543e-05

> <r_epik_State_Penalty>
-0

> <r_epik_Charging_Adjusted_Penalty>
0

> <i_epik_Tot_Q>
0

> <i_epik_Tot_abs_Q>
0

> <r_epik_Metal_State_Penalty>
0.00845548

> <b_epik_Metal_Only>
0

> <s_lp_Force_Field>
OPLS_2005

> <r_lp_Energy>
16.7735

> <b_lp_Chiralities_Consistent>
1

> <s_lp_Variant>
AV-unprocessed.smi:1659-1

> <Gold.Version>
5.8.1

> <Gold.Id.Protein>
6NUR|6NUR_protein|mol2

> <Gold.PLP.Fitness>
51.3126

> <Gold.PLP.PLP>
-40.3604

> <Gold.PLP.part.hbond>
-5.3485

> <Gold.PLP.part.metal>
0.0000

> <Gold.PLP.part.buried>
-3.9979

> <Gold.PLP.part.nonpolar>
-31.3821

> <Gold.PLP.part.repulsive>
0.1826

> <Gold.PLP.ligand.clash>
0.0000

> <Gold.PLP.ligand.torsion>
0.4655

> <Gold.PLP.Chemscore.Hbond>
3.9520

> <Gold.PLP.Chemscore.CHOScore>
0.0000

> <Gold.PLP.Chemscore.Metal>
0.0000

> <Gold.Chemscore.Hbonds>
donor molecule, donor type, donor heavy atom, donor atom, acceptor molecule, acceptor atom, score
      L1  H     5    26       P1  7948  0.40
      L1  H     8    27       P1  7948  0.99
      P1  H  7997  8010       L1    19  0.88
      P1  H 10752 10763       L1     7  0.79

> <Gold.PLP.Chemscore.Internal.Correction>
0.0272

> <Gold.Rescore>
     Score         DG    S(hbond)    S(metal)    S(lipo)     H(rot)  DE(clash)    DE(int)     intcor
     17.20     -19.72       3.02        0.00      76.70       1.88       0.01       2.51       ----

> <Gold.Chemscore.Fitness>
17.2016

> <Gold.Chemscore.DG>
-19.7201

> <Gold.Chemscore.ZeroCoef>
-5.4800

> <Gold.Chemscore.Hbond>
3.0189

> <Gold.Chemscore.Metal>
0.0000

> <Gold.Chemscore.Lipo>
76.6991

> <Gold.Chemscore.Internal_Hbond>
0.0000

> <Gold.Chemscore.DEClash>
0.0121

> <Gold.Chemscore.DEInternal>
2.5064

> <Gold.Chemscore.Rot>
1.8816

> <Gold.Chemscore.Internal.Correction>
   9.000000E+99

> <Gold.Chemscore.Hbonds>
donor molecule, donor type, donor heavy atom, donor atom, acceptor molecule, acceptor atom, score
      L1  H     5    26       P1  7948  0.01
      L1  H     8    27       P1  7948  0.35
      P1  H  7997  8010       L1    19  0.83
      P1  H 10752 10763       L1     7  0.55

> <Gold.Chemscore.Hbond.Weighted>
-10.0832

> <Gold.Chemscore.Metal.Weighted>
-0.0000

> <Gold.Chemscore.Lipo.Weighted>
-8.9738

> <Gold.Chemscore.Internal_Hbond.Weighted>
0.0000

> <Gold.Chemscore.DEClash.Weighted>
0.0121

> <Gold.Chemscore.DEInternal.Weighted>
2.5064

> <Gold.Chemscore.Rot.Weighted>
4.8169

> <Gold.Chemscore.Internal.Correction.Weighted>
   9.000000E+99

> <Gold.Protein.RotatedTorsions>
[ 6907 6896 6895 6894 ] final   65.51 input  -60.11 | X-H torsion
[ 7974 7965 7964 7962 ] final   -6.58 input  175.53 | X-H torsion
[ 8008 7997 7996 7995 ] final   22.24 input   59.86 | X-H torsion
[ 10167 10162 10161 10158 ] final  148.49 input  -65.29 | X-H torsion
[ 10718 10713 10712 10709 ] final  -36.67 input   66.30 | X-H torsion
[ 10763 10752 10751 10750 ] final   90.51 input  -60.55 | X-H torsion
[ 11005 11000 10999 10996 ] final -121.07 input  -57.11 | X-H torsion

> <Gold.Protein.ActiveResidues>
 VAL166  LYS551  ARG553  GLY616  TRP617  ASP618  TYR619  PRO620  LYS621  CYS622 
 ASP623  PHE694  ASN695  SER759  ASP760  ASP761  ALA762  ILE779  LEU786  VAL792 
 PHE793  MET794  SER795  GLU796  ALA797  LYS798  CYS799  TRP800  GLU811  SER814 

> <Gold.Protein.RotatedAtoms>
  152.4413  134.5586  159.9887 H   0  0  0  0  0  0  0  0  0  0  0  0  # atno 6907 bound_to 6896
  151.5683  133.3388  159.2992 H   0  0  0  0  0  0  0  0  0  0  0  0  # atno 6908 bound_to 6896
  150.8319  134.7610  159.6925 H   0  0  0  0  0  0  0  0  0  0  0  0  # atno 6909 bound_to 6896
  146.2327  140.2192  142.8337 H   0  0  0  0  0  0  0  0  0  0  0  0  # atno 7974 bound_to 7965
  154.9627  140.3080  155.5023 H   0  0  0  0  0  0  0  0  0  0  0  0  # atno 8008 bound_to 7997
  156.2975  140.2298  156.4653 H   0  0  0  0  0  0  0  0  0  0  0  0  # atno 8009 bound_to 7997
  154.7949  140.0437  157.1218 H   0  0  0  0  0  0  0  0  0  0  0  0  # atno 8010 bound_to 7997
  139.4874  144.5675  151.7117 H   0  0  0  0  0  0  0  0  0  0  0  0  # atno 10167 bound_to 10162
  156.3241  130.4270  149.7933 H   0  0  0  0  0  0  0  0  0  0  0  0  # atno 10718 bound_to 10713
  153.1983  135.4431  155.0235 H   0  0  0  0  0  0  0  0  0  0  0  0  # atno 10763 bound_to 10752
  154.8132  135.3303  154.7251 H   0  0  0  0  0  0  0  0  0  0  0  0  # atno 10764 bound_to 10752
  153.7698  135.6985  153.4964 H   0  0  0  0  0  0  0  0  0  0  0  0  # atno 10765 bound_to 10752
  141.0097  134.0282  157.3430 H   0  0  0  0  0  0  0  0  0  0  0  0  # atno 11005 bound_to 11000
  144.9645  140.8308  143.5493 LP  0  0  0  0  0  0  0  0  0  0  0  0  # atno 17320 bound_to 7965
  145.2166  139.2179  143.5115 LP  0  0  0  0  0  0  0  0  0  0  0  0  # atno 17321 bound_to 7965
  140.5256  144.0810  150.6036 LP  0  0  0  0  0  0  0  0  0  0  0  0  # atno 17342 bound_to 10162
  140.3783  143.2816  152.0199 LP  0  0  0  0  0  0  0  0  0  0  0  0  # atno 17343 bound_to 10162
  156.5230  130.8223  151.3210 LP  0  0  0  0  0  0  0  0  0  0  0  0  # atno 17370 bound_to 10713
  157.7417  130.9876  150.2468 LP  0  0  0  0  0  0  0  0  0  0  0  0  # atno 17371 bound_to 10713
  139.9083  135.0185  156.7582 LP  0  0  0  0  0  0  0  0  0  0  0  0  # atno 17394 bound_to 11000
  140.6753  133.9522  155.7880 LP  0  0  0  0  0  0  0  0  0  0  0  0  # atno 17395 bound_to 11000

$$$$
