AV-unprocessed.smi:2335|AV-procd|sdf|9326|dock1
  -GOLD-   2272012543D 1   1.00000     0.00000
 Structure written by MMmdl.
 41 42  0  0  0  0  0  0  0  0  2 V2000
  143.7737  134.1566  162.5412 C   0  0  0  0  0  0  0  0  0  0  0  0
  144.0895  135.6466  162.7113 C   0  0  0  0  0  0  0  0  0  0  0  0
  145.3642  136.0417  162.0437 C   0  0  0  0  0  0  0  0  0  0  0  0
  145.4409  137.0414  161.1613 N   0  0  0  0  0  0  0  0  0  0  0  0
  146.7365  137.2388  160.7062 N   0  0  0  0  0  0  0  0  0  0  0  0
  147.6200  136.3911  161.2519 C   0  0  0  0  0  0  0  0  0  0  0  0
  148.9287  136.4195  160.9513 N   0  5  0  0  0  0  0  0  0  0  0  0
  149.3287  136.3201  159.6635 C   0  0  0  0  0  0  0  0  0  0  0  0
  149.0486  135.4104  158.8798 O   0  0  0  0  0  0  0  0  0  0  0  0
  150.1063  137.3355  159.2632 N   0  0  0  0  0  0  0  0  0  0  0  0
  150.7099  137.4898  157.9407 C   0  0  1  0  0  0  0  0  0  0  0  0
  150.2552  138.7720  157.2724 C   0  0  0  0  0  0  0  0  0  0  0  0
  151.3749  139.0561  156.2649 C   0  0  0  0  0  0  0  0  0  0  0  0
  151.1105  138.3858  154.9057 C   0  0  0  0  0  0  0  0  0  0  0  0
  151.6371  140.5603  156.0947 C   0  0  0  0  0  0  0  0  0  0  0  0
  152.5434  138.4520  156.8172 O   0  0  0  0  0  0  0  0  0  0  0  0
  152.2462  137.6552  157.9642 C   0  0  0  0  0  0  0  0  0  0  0  0
  152.7837  138.4304  159.1852 C   0  0  0  0  0  0  0  0  0  0  0  0
  152.9829  136.3157  157.8051 C   0  0  0  0  0  0  0  0  0  0  0  0
  146.9000  135.2748  162.4114 S   0  0  0  0  0  0  0  0  0  0  0  0
  142.8370  133.8989  163.0355 H   0  0  0  0  0  0  0  0  0  0  0  0
  144.5606  133.5361  162.9711 H   0  0  0  0  0  0  0  0  0  0  0  0
  143.6785  133.8937  161.4872 H   0  0  0  0  0  0  0  0  0  0  0  0
  143.2788  136.2472  162.2981 H   0  0  0  0  0  0  0  0  0  0  0  0
  144.1538  135.8961  163.7712 H   0  0  0  0  0  0  0  0  0  0  0  0
  150.3068  138.0562  159.9407 H   0  0  0  0  0  0  0  0  0  0  0  0
  150.4290  136.6549  157.2958 H   0  0  0  0  0  0  0  0  0  0  0  0
  149.2720  138.6830  156.8092 H   0  0  0  0  0  0  0  0  0  0  0  0
  150.1968  139.5748  158.0096 H   0  0  0  0  0  0  0  0  0  0  0  0
  150.2111  138.7860  154.4368 H   0  0  0  0  0  0  0  0  0  0  0  0
  150.9788  137.3085  155.0094 H   0  0  0  0  0  0  0  0  0  0  0  0
  151.9421  138.5481  154.2193 H   0  0  0  0  0  0  0  0  0  0  0  0
  150.7604  141.0699  155.6944 H   0  0  0  0  0  0  0  0  0  0  0  0
  152.4682  140.7403  155.4119 H   0  0  0  0  0  0  0  0  0  0  0  0
  151.8893  141.0280  157.0470 H   0  0  0  0  0  0  0  0  0  0  0  0
  152.6430  137.8698  160.1100 H   0  0  0  0  0  0  0  0  0  0  0  0
  152.2869  139.3938  159.3006 H   0  0  0  0  0  0  0  0  0  0  0  0
  153.8517  138.6249  159.0837 H   0  0  0  0  0  0  0  0  0  0  0  0
  152.8125  135.6651  158.6629 H   0  0  0  0  0  0  0  0  0  0  0  0
  154.0590  136.4668  157.7157 H   0  0  0  0  0  0  0  0  0  0  0  0
  152.6510  135.7848  156.9127 H   0  0  0  0  0  0  0  0  0  0  0  0
  1  2  1  0  0  0  0
  1 21  1  0  0  0  0
  1 22  1  0  0  0  0
  1 23  1  0  0  0  0
  2  3  1  0  0  0  0
  2 24  1  0  0  0  0
  2 25  1  0  0  0  0
  3 20  1  0  0  0  0
  3  4  2  0  0  0  0
  4  5  1  0  0  0  0
  5  6  2  0  0  0  0
  6  7  1  0  0  0  0
  6 20  1  0  0  0  0
  7  8  1  0  0  0  0
  8  9  2  0  0  0  0
  8 10  1  0  0  0  0
 10 11  1  0  0  0  0
 10 26  1  0  0  0  0
 11 17  1  0  0  0  0
 11 12  1  0  0  0  0
 11 27  1  0  0  0  0
 12 13  1  0  0  0  0
 12 28  1  0  0  0  0
 12 29  1  0  0  0  0
 13 14  1  0  0  0  0
 13 15  1  0  0  0  0
 13 16  1  0  0  0  0
 14 30  1  0  0  0  0
 14 31  1  0  0  0  0
 14 32  1  0  0  0  0
 15 33  1  0  0  0  0
 15 34  1  0  0  0  0
 15 35  1  0  0  0  0
 16 17  1  0  0  0  0
 17 18  1  0  0  0  0
 17 19  1  0  0  0  0
 18 36  1  0  0  0  0
 18 37  1  0  0  0  0
 18 38  1  0  0  0  0
 19 39  1  0  0  0  0
 19 40  1  0  0  0  0
 19 41  1  0  0  0  0
M  CHG  1   7  -1
M  END
> <s_m_source_file>
AV-unprocessed.smi

> <i_m_source_file_index>
2335

> <i_lp_mmshare_version>
43012

> <i_f3d_flags>
0

> <s_epik_input>
W0NIM11bQ0gyXWMxbm5jKHMxKVtOSF1DKD1PKVtOSF1bQ0BASF0oQyhPMikoW0NIM10pW0NIM10pW0NIMl1DMihbQ0gzXSlbQ0gzXQ==

> <s_epik_cmdline>
J2VwaWtfcHl0aG9uJywgJy1waCcsICc3LjAnLCAnLXRuJywgJzgnLCAnLW1hJywgJzIwMCcsICctbWV0YWxfYmluZGluZycsICctaW1hZScsICc8aW5maWxlLm1hZT4nLCAnLW9tYWUnLCAnPG91dGZpbGUubWFlPic=

> <r_lp_tautomer_probability>
1

> <r_epik_Ionization_Penalty>
4.33319

> <r_epik_Ionization_Penalty_Charging>
4.17028

> <r_epik_Ionization_Penalty_Neutral>
0.162913

> <r_epik_State_Penalty>
4.16976

> <r_epik_Charging_Adjusted_Penalty>
8.34004

> <i_epik_Tot_Q>
-1

> <i_epik_Tot_abs_Q>
1

> <r_epik_Metal_State_Penalty>
0.677358

> <b_epik_Metal_Only>
1

> <s_lp_Force_Field>
OPLS_2005

> <r_lp_Energy>
10.6877

> <b_lp_Chiralities_Consistent>
1

> <s_lp_Variant>
AV-unprocessed.smi:2335-4

> <Gold.Version>
5.8.1

> <Gold.Id.Protein>
6NUR|6NUR_protein|mol2

> <Gold.PLP.Fitness>
40.2182

> <Gold.PLP.PLP>
-29.0556

> <Gold.PLP.part.hbond>
-3.1801

> <Gold.PLP.part.metal>
0.0000

> <Gold.PLP.part.buried>
-5.0889

> <Gold.PLP.part.nonpolar>
-22.5855

> <Gold.PLP.part.repulsive>
0.8235

> <Gold.PLP.ligand.clash>
0.0000

> <Gold.PLP.ligand.torsion>
1.0441

> <Gold.PLP.Chemscore.Hbond>
4.4062

> <Gold.PLP.Chemscore.CHOScore>
0.0000

> <Gold.PLP.Chemscore.Metal>
0.0000

> <Gold.Chemscore.Hbonds>
donor molecule, donor type, donor heavy atom, donor atom, acceptor molecule, acceptor atom, score
      P1  H  6896  6907       L1     9  0.30
      P1  H  6931  6943       L1     7  0.85
      P1  H  6934  6947       L1     5  1.00

> <Gold.PLP.Chemscore.Internal.Correction>
0.0321

> <Gold.Rescore>
     Score         DG    S(hbond)    S(metal)    S(lipo)     H(rot)  DE(clash)    DE(int)     intcor
     17.22     -18.73       2.67        0.00      63.16       1.19       0.34       1.18       ----

> <Gold.Chemscore.Fitness>
17.2157

> <Gold.Chemscore.DG>
-18.7339

> <Gold.Chemscore.ZeroCoef>
-5.4800

> <Gold.Chemscore.Hbond>
2.6710

> <Gold.Chemscore.Metal>
0.0000

> <Gold.Chemscore.Lipo>
63.1613

> <Gold.Chemscore.Internal_Hbond>
0.0000

> <Gold.Chemscore.DEClash>
0.3398

> <Gold.Chemscore.DEInternal>
1.1785

> <Gold.Chemscore.Rot>
1.1942

> <Gold.Chemscore.Internal.Correction>
   9.000000E+99

> <Gold.Chemscore.Hbonds>
donor molecule, donor type, donor heavy atom, donor atom, acceptor molecule, acceptor atom, score
      P1  H  6931  6943       L1     7  0.01
      P1  H  6934  6947       L1     5  0.58
      P1  H  7997  8008       L1    16  0.03

> <Gold.Chemscore.Hbond.Weighted>
-8.9213

> <Gold.Chemscore.Metal.Weighted>
-0.0000

> <Gold.Chemscore.Lipo.Weighted>
-7.3899

> <Gold.Chemscore.Internal_Hbond.Weighted>
0.0000

> <Gold.Chemscore.DEClash.Weighted>
0.3398

> <Gold.Chemscore.DEInternal.Weighted>
1.1785

> <Gold.Chemscore.Rot.Weighted>
3.0573

> <Gold.Chemscore.Internal.Correction.Weighted>
   9.000000E+99

> <Gold.Protein.RotatedTorsions>
[ 6907 6896 6895 6894 ] final  -72.23 input  -60.11 | X-H torsion
[ 7974 7965 7964 7962 ] final  -60.29 input  175.53 | X-H torsion
[ 8008 7997 7996 7995 ] final  -61.30 input   59.86 | X-H torsion
[ 10167 10162 10161 10158 ] final  -69.81 input  -65.29 | X-H torsion
[ 10718 10713 10712 10709 ] final   75.92 input   66.30 | X-H torsion
[ 10763 10752 10751 10750 ] final  -17.11 input  -60.55 | X-H torsion
[ 11005 11000 10999 10996 ] final   72.27 input  -57.11 | X-H torsion

> <Gold.Protein.ActiveResidues>
 VAL166  LYS551  ARG553  GLY616  TRP617  ASP618  TYR619  PRO620  LYS621  CYS622 
 ASP623  PHE694  ASN695  SER759  ASP760  ASP761  ALA762  ILE779  LEU786  VAL792 
 PHE793  MET794  SER795  GLU796  ALA797  LYS798  CYS799  TRP800  GLU811  SER814 

> <Gold.Protein.RotatedAtoms>
  150.7178  134.5192  159.5645 H   0  0  0  0  0  0  0  0  0  0  0  0  # atno 6907 bound_to 6896
  152.2751  134.7887  160.0416 H   0  0  0  0  0  0  0  0  0  0  0  0  # atno 6908 bound_to 6896
  151.8553  133.3412  159.3723 H   0  0  0  0  0  0  0  0  0  0  0  0  # atno 6909 bound_to 6896
  145.8173  140.8562  143.0151 H   0  0  0  0  0  0  0  0  0  0  0  0  # atno 7974 bound_to 7965
  154.4441  140.1020  156.6409 H   0  0  0  0  0  0  0  0  0  0  0  0  # atno 8008 bound_to 7997
  155.5502  140.3485  155.4448 H   0  0  0  0  0  0  0  0  0  0  0  0  # atno 8009 bound_to 7997
  156.0534  140.1309  157.0013 H   0  0  0  0  0  0  0  0  0  0  0  0  # atno 8010 bound_to 7997
  140.5401  143.2315  151.7104 H   0  0  0  0  0  0  0  0  0  0  0  0  # atno 10167 bound_to 10162
  157.6653  130.9749  150.1422 H   0  0  0  0  0  0  0  0  0  0  0  0  # atno 10718 bound_to 10713
  153.5688  135.7008  153.5514 H   0  0  0  0  0  0  0  0  0  0  0  0  # atno 10763 bound_to 10752
  153.3363  135.4033  155.1536 H   0  0  0  0  0  0  0  0  0  0  0  0  # atno 10764 bound_to 10752
  154.8636  135.3731  154.5209 H   0  0  0  0  0  0  0  0  0  0  0  0  # atno 10765 bound_to 10752
  139.9499  134.7245  156.0887 H   0  0  0  0  0  0  0  0  0  0  0  0  # atno 11005 bound_to 11000
  144.6751  140.0482  143.7479 LP  0  0  0  0  0  0  0  0  0  0  0  0  # atno 17320 bound_to 7965
  145.9713  139.2872  143.1097 LP  0  0  0  0  0  0  0  0  0  0  0  0  # atno 17321 bound_to 7965
  139.4985  144.3981  152.0209 LP  0  0  0  0  0  0  0  0  0  0  0  0  # atno 17342 bound_to 10162
  140.3090  144.3560  150.6039 LP  0  0  0  0  0  0  0  0  0  0  0  0  # atno 17343 bound_to 10162
  156.2242  130.3676  149.8520 LP  0  0  0  0  0  0  0  0  0  0  0  0  # atno 17370 bound_to 10713
  156.6365  130.8687  151.3505 LP  0  0  0  0  0  0  0  0  0  0  0  0  # atno 17371 bound_to 10713
  141.1160  133.6628  156.3094 LP  0  0  0  0  0  0  0  0  0  0  0  0  # atno 17394 bound_to 11000
  140.5743  134.5809  157.5465 LP  0  0  0  0  0  0  0  0  0  0  0  0  # atno 17395 bound_to 11000

$$$$
