AV-unprocessed.smi:72|AV-procd|sdf|712|dock3
  -GOLD-   2262017 33D 1   1.00000     0.00000
 Structure written by MMmdl.
 28 29  0  0  0  0  0  0  0  0  2 V2000
  151.2719  134.2651  156.7995 N   0  0  0  0  0  0  0  0  0  0  0  0
  151.3226  135.4706  156.4351 C   0  0  0  0  0  0  0  0  0  0  0  0
  150.1982  136.0704  155.7503 N   0  0  0  0  0  0  0  0  0  0  0  0
  150.3023  137.3123  155.3887 C   0  0  0  0  0  0  0  0  0  0  0  0
  151.5061  138.0909  155.6514 N   0  0  0  0  0  0  0  0  0  0  0  0
  151.6330  139.5459  155.2337 C   0  0  1  0  0  0  0  0  0  0  0  0
  150.5567  139.9010  154.4096 O   0  0  0  0  0  0  0  0  0  0  0  0
  149.7361  140.8526  155.0763 C   0  0  2  0  0  0  0  0  0  0  0  0
  148.9009  141.6606  154.0667 C   0  0  0  0  0  0  0  0  0  0  0  0
  148.1692  140.8285  153.1898 O   0  0  0  0  0  0  0  0  0  0  0  0
  150.7157  141.6306  155.9551 C   0  0  1  0  0  0  0  0  0  0  0  0
  150.0788  142.3340  157.0057 O   0  0  0  0  0  0  0  0  0  0  0  0
  151.6514  140.5251  156.4359 C   0  0  1  0  0  0  0  0  0  0  0  0
  151.2082  139.9401  157.6519 O   0  0  0  0  0  0  0  0  0  0  0  0
  152.5882  137.4795  156.3380 C   0  0  0  0  0  0  0  0  0  0  0  0
  153.5850  138.1629  156.5733 O   0  0  0  0  0  0  0  0  0  0  0  0
  152.4727  136.1752  156.7143 N   0  5  0  0  0  0  0  0  0  0  0  0
  152.5346  139.6005  154.6214 H   0  0  0  0  0  0  0  0  0  0  0  0
  149.0542  140.2897  155.7162 H   0  0  0  0  0  0  0  0  0  0  0  0
  151.2921  142.3347  155.3545 H   0  0  0  0  0  0  0  0  0  0  0  0
  152.6658  140.8956  156.5864 H   0  0  0  0  0  0  0  0  0  0  0  0
  152.1172  133.9692  157.2657 H   0  0  0  0  0  0  0  0  0  0  0  0
  149.5009  137.8420  154.8744 H   0  0  0  0  0  0  0  0  0  0  0  0
  148.2190  142.3339  154.5867 H   0  0  0  0  0  0  0  0  0  0  0  0
  149.5611  142.2817  153.4610 H   0  0  0  0  0  0  0  0  0  0  0  0
  148.7627  140.4791  152.5429 H   0  0  0  0  0  0  0  0  0  0  0  0
  149.5855  143.0469  156.6302 H   0  0  0  0  0  0  0  0  0  0  0  0
  151.3775  140.5500  158.3543 H   0  0  0  0  0  0  0  0  0  0  0  0
  1  2  2  0  0  0  0
  1 22  1  0  0  0  0
  2 17  1  0  0  0  0
  2  3  1  0  0  0  0
  3  4  2  0  0  0  0
  4  5  1  0  0  0  0
  4 23  1  0  0  0  0
  5  6  1  0  0  0  0
  5 15  1  0  0  0  0
  6 18  1  0  0  0  0
  6 13  1  0  0  0  0
  6  7  1  0  0  0  0
  7  8  1  0  0  0  0
  8 19  1  0  0  0  0
  8  9  1  0  0  0  0
  8 11  1  0  0  0  0
  9 10  1  0  0  0  0
  9 24  1  0  0  0  0
  9 25  1  0  0  0  0
 10 26  1  0  0  0  0
 11 20  1  0  0  0  0
 11 12  1  0  0  0  0
 11 13  1  0  0  0  0
 12 27  1  0  0  0  0
 13 21  1  0  0  0  0
 13 14  1  0  0  0  0
 14 28  1  0  0  0  0
 15 16  2  0  0  0  0
 15 17  1  0  0  0  0
M  CHG  1  17  -1
M  END
> <s_m_source_file>
AV-unprocessed.smi

> <i_m_source_file_index>
72

> <i_lp_mmshare_version>
43012

> <i_f3d_flags>
0

> <s_epik_input>
W05IMl1jMW5bY0hdbihjKD1PKW4xKVtDQEBIXTJPW0NASF0oW0NIMl1bT0hdKVtDQEBIXShbT0hdKVtDQEhdMltPSF0=

> <s_epik_cmdline>
J2VwaWtfcHl0aG9uJywgJy1waCcsICc3LjAnLCAnLXRuJywgJzgnLCAnLW1hJywgJzIwMCcsICctbWV0YWxfYmluZGluZycsICctaW1hZScsICc8aW5maWxlLm1hZT4nLCAnLW9tYWUnLCAnPG91dGZpbGUubWFlPic=

> <r_lp_tautomer_probability>
7.17554e-07

> <r_epik_Ionization_Penalty>
12.8705

> <r_epik_Ionization_Penalty_Charging>
5.64144

> <r_epik_Ionization_Penalty_Neutral>
7.22905

> <r_epik_State_Penalty>
3.30104

> <r_epik_Charging_Adjusted_Penalty>
8.94249

> <i_epik_Tot_Q>
-1

> <i_epik_Tot_abs_Q>
1

> <r_epik_Metal_State_Penalty>
0.529074

> <b_epik_Metal_Only>
1

> <s_epik_Chemistry_Notes>
This compound contains an acetal/aminal-like group ( X-CH(R)-Y where X, Y are N, S, or O) that may be acid/base labile, releasing an aldehyde.

> <s_lp_Force_Field>
OPLS_2005

> <r_lp_Energy>
42.9938

> <b_lp_Chiralities_Consistent>
1

> <s_lp_Variant>
AV-unprocessed.smi:72-50

> <Gold.Version>
5.8.1

> <Gold.Id.Protein>
6NUR|6NUR_protein|mol2

> <Gold.PLP.Fitness>
39.7818

> <Gold.PLP.PLP>
-25.4685

> <Gold.PLP.part.hbond>
-6.0000

> <Gold.PLP.part.metal>
0.0000

> <Gold.PLP.part.buried>
-0.9083

> <Gold.PLP.part.nonpolar>
-17.3000

> <Gold.PLP.part.repulsive>
0.1816

> <Gold.PLP.ligand.clash>
0.0000

> <Gold.PLP.ligand.torsion>
0.1765

> <Gold.PLP.Chemscore.Hbond>
4.8765

> <Gold.PLP.Chemscore.CHOScore>
0.0000

> <Gold.PLP.Chemscore.Metal>
0.0000

> <Gold.Chemscore.Hbonds>
donor molecule, donor type, donor heavy atom, donor atom, acceptor molecule, acceptor atom, score
      L1  H    10    26       P1  7957  1.00
      L1  H    12    27       P1  8028  0.94
      P1  H  7989  7998       L1     7  0.45
      P1  H  7997  8008       L1    16  0.69
      P1  H 10752 10764       L1    17  1.65

> <Gold.PLP.Chemscore.Internal.Correction>
0.0369

> <Gold.Rescore>
     Score         DG    S(hbond)    S(metal)    S(lipo)     H(rot)  DE(clash)    DE(int)     intcor
      7.44      -7.73       2.75        0.00      29.00       4.04       0.00       0.28       ----

> <Gold.Chemscore.Fitness>
7.4444

> <Gold.Chemscore.DG>
-7.7284

> <Gold.Chemscore.ZeroCoef>
-5.4800

> <Gold.Chemscore.Hbond>
2.7539

> <Gold.Chemscore.Metal>
0.0000

> <Gold.Chemscore.Lipo>
29.0035

> <Gold.Chemscore.Internal_Hbond>
0.0000

> <Gold.Chemscore.DEClash>
0.0030

> <Gold.Chemscore.DEInternal>
0.2810

> <Gold.Chemscore.Rot>
4.0403

> <Gold.Chemscore.Internal.Correction>
   9.000000E+99

> <Gold.Chemscore.Hbonds>
donor molecule, donor type, donor heavy atom, donor atom, acceptor molecule, acceptor atom, score
      L1  H    10    26       P1  7957  1.00
      L1  H    12    27       P1  8028  0.90
      P1  H  7989  7998       L1     7  0.01
      P1  H  7997  8008       L1    16  0.66
      P1  H 10752 10764       L1    17  0.04

> <Gold.Chemscore.Hbond.Weighted>
-9.1981

> <Gold.Chemscore.Metal.Weighted>
-0.0000

> <Gold.Chemscore.Lipo.Weighted>
-3.3934

> <Gold.Chemscore.Internal_Hbond.Weighted>
0.0000

> <Gold.Chemscore.DEClash.Weighted>
0.0030

> <Gold.Chemscore.DEInternal.Weighted>
0.2810

> <Gold.Chemscore.Rot.Weighted>
10.3431

> <Gold.Chemscore.Internal.Correction.Weighted>
   9.000000E+99

> <Gold.Protein.RotatedTorsions>
[ 6907 6896 6895 6894 ] final  155.71 input  -60.11 | X-H torsion
[ 7974 7965 7964 7962 ] final   76.81 input  175.53 | X-H torsion
[ 8008 7997 7996 7995 ] final  -64.34 input   59.86 | X-H torsion
[ 10167 10162 10161 10158 ] final  -49.70 input  -65.29 | X-H torsion
[ 10718 10713 10712 10709 ] final  -17.30 input   66.30 | X-H torsion
[ 10763 10752 10751 10750 ] final    9.16 input  -60.55 | X-H torsion
[ 11005 11000 10999 10996 ] final  172.59 input  -57.11 | X-H torsion

> <Gold.Protein.ActiveResidues>
 VAL166  LYS551  ARG553  GLY616  TRP617  ASP618  TYR619  PRO620  LYS621  CYS622 
 ASP623  PHE694  ASN695  SER759  ASP760  ASP761  ALA762  ILE779  LEU786  VAL792 
 PHE793  MET794  SER795  GLU796  ALA797  LYS798  CYS799  TRP800  GLU811  SER814 

> <Gold.Protein.RotatedAtoms>
  152.0402  133.3974  159.4333 H   0  0  0  0  0  0  0  0  0  0  0  0  # atno 6907 bound_to 6896
  150.6876  134.3423  159.4882 H   0  0  0  0  0  0  0  0  0  0  0  0  # atno 6908 bound_to 6896
  152.1221  134.9197  160.0613 H   0  0  0  0  0  0  0  0  0  0  0  0  # atno 6909 bound_to 6896
  145.6980  139.2573  143.1721 H   0  0  0  0  0  0  0  0  0  0  0  0  # atno 7974 bound_to 7965
  154.4606  140.0956  156.6882 H   0  0  0  0  0  0  0  0  0  0  0  0  # atno 8008 bound_to 7997
  155.5005  140.3473  155.4352 H   0  0  0  0  0  0  0  0  0  0  0  0  # atno 8009 bound_to 7997
  156.0863  140.1386  156.9637 H   0  0  0  0  0  0  0  0  0  0  0  0  # atno 8010 bound_to 7997
  140.6673  143.2687  151.4253 H   0  0  0  0  0  0  0  0  0  0  0  0  # atno 10167 bound_to 10162
  156.5754  130.4760  149.6344 H   0  0  0  0  0  0  0  0  0  0  0  0  # atno 10718 bound_to 10713
  153.2171  135.6876  153.8045 H   0  0  0  0  0  0  0  0  0  0  0  0  # atno 10763 bound_to 10752
  153.7257  135.3260  155.3276 H   0  0  0  0  0  0  0  0  0  0  0  0  # atno 10764 bound_to 10752
  154.8251  135.4623  154.1002 H   0  0  0  0  0  0  0  0  0  0  0  0  # atno 10765 bound_to 10752
  140.3314  134.7354  157.4137 H   0  0  0  0  0  0  0  0  0  0  0  0  # atno 11005 bound_to 11000
  146.0823  140.7750  142.9635 LP  0  0  0  0  0  0  0  0  0  0  0  0  # atno 17320 bound_to 7965
  144.6977  140.3508  143.7182 LP  0  0  0  0  0  0  0  0  0  0  0  0  # atno 17321 bound_to 7965
  139.5926  144.1465  152.2107 LP  0  0  0  0  0  0  0  0  0  0  0  0  # atno 17342 bound_to 10162
  140.0825  144.5689  150.7112 LP  0  0  0  0  0  0  0  0  0  0  0  0  # atno 17343 bound_to 10162
  156.2678  130.6999  151.1787 LP  0  0  0  0  0  0  0  0  0  0  0  0  # atno 17370 bound_to 10713
  157.7339  131.0587  150.5554 LP  0  0  0  0  0  0  0  0  0  0  0  0  # atno 17371 bound_to 10713
  140.0858  134.5669  155.8494 LP  0  0  0  0  0  0  0  0  0  0  0  0  # atno 17394 bound_to 11000
  141.2062  133.6653  156.6230 LP  0  0  0  0  0  0  0  0  0  0  0  0  # atno 17395 bound_to 11000

$$$$
