AV-unprocessed.smi:1573|AV-procd|sdf|6334|dock6
  -GOLD-   22720 6543D 1   1.00000     0.00000
 Structure written by MMmdl.
 41 41  0  0  0  0  0  0  0  0  1 V2000
  146.8535  144.4405  161.6109 C   0  0  0  0  0  0  0  0  0  0  0  0
  146.1484  144.9480  160.3458 C   0  0  0  0  0  0  0  0  0  0  0  0
  146.5849  144.2186  159.1615 N   0  0  0  0  0  0  0  0  0  0  0  0
  146.4530  142.8959  158.9778 C   0  0  0  0  0  0  0  0  0  0  0  0
  145.9564  142.1438  159.8184 O   0  0  0  0  0  0  0  0  0  0  0  0
  146.9751  142.3411  157.6428 C   0  0  1  0  0  0  0  0  0  0  0  0
  146.1327  142.9495  156.5094 C   0  0  0  0  0  0  0  0  0  0  0  0
  148.3648  142.7394  157.4323 N   0  0  0  0  0  0  0  0  0  0  0  0
  149.4307  142.2032  158.0484 C   0  0  0  0  0  0  0  0  0  0  0  0
  149.3522  141.2934  158.8738 O   0  0  0  0  0  0  0  0  0  0  0  0
  150.7942  142.7835  157.6743 C   0  0  0  0  0  0  0  0  0  0  0  0
  151.8896  141.9053  158.2245 C   0  0  0  0  0  0  0  0  0  0  0  0
  152.2588  140.5980  157.7890 C   0  0  0  0  0  0  0  0  0  0  0  0
  151.6501  139.7761  156.6886 C   0  0  0  0  0  0  0  0  0  0  0  0
  153.2631  140.0978  158.4894 N   0  0  0  0  0  0  0  0  0  0  0  0
  153.5700  141.0571  159.3854 N   0  0  0  0  0  0  0  0  0  0  0  0
  154.6490  140.8321  160.3274 C   0  0  0  0  0  0  0  0  0  0  0  0
  152.7543  142.1640  159.2544 C   0  0  0  0  0  0  0  0  0  0  0  0
  152.8887  143.3619  160.1382 C   0  0  0  0  0  0  0  0  0  0  0  0
  146.4920  144.9685  162.4936 H   0  0  0  0  0  0  0  0  0  0  0  0
  147.9318  144.5921  161.5535 H   0  0  0  0  0  0  0  0  0  0  0  0
  146.6720  143.3759  161.7629 H   0  0  0  0  0  0  0  0  0  0  0  0
  145.0710  144.8167  160.4481 H   0  0  0  0  0  0  0  0  0  0  0  0
  146.3201  146.0180  160.2175 H   0  0  0  0  0  0  0  0  0  0  0  0
  147.0056  144.7605  158.4205 H   0  0  0  0  0  0  0  0  0  0  0  0
  146.8890  141.2528  157.6214 H   0  0  0  0  0  0  0  0  0  0  0  0
  145.0797  142.6837  156.6115 H   0  0  0  0  0  0  0  0  0  0  0  0
  146.4664  142.5823  155.5382 H   0  0  0  0  0  0  0  0  0  0  0  0
  146.2015  144.0386  156.4899 H   0  0  0  0  0  0  0  0  0  0  0  0
  148.5274  143.4871  156.7736 H   0  0  0  0  0  0  0  0  0  0  0  0
  150.8566  142.8712  156.5892 H   0  0  0  0  0  0  0  0  0  0  0  0
  150.8677  143.8011  158.0598 H   0  0  0  0  0  0  0  0  0  0  0  0
  150.7115  139.3268  157.0131 H   0  0  0  0  0  0  0  0  0  0  0  0
  152.3130  138.9693  156.3739 H   0  0  0  0  0  0  0  0  0  0  0  0
  151.4398  140.3883  155.8117 H   0  0  0  0  0  0  0  0  0  0  0  0
  155.3616  141.6554  160.2729 H   0  0  0  0  0  0  0  0  0  0  0  0
  155.1702  139.9008  160.1016 H   0  0  0  0  0  0  0  0  0  0  0  0
  154.2455  140.7752  161.3387 H   0  0  0  0  0  0  0  0  0  0  0  0
  152.0760  144.0690  159.9722 H   0  0  0  0  0  0  0  0  0  0  0  0
  153.8287  143.8797  159.9472 H   0  0  0  0  0  0  0  0  0  0  0  0
  152.8670  143.0740  161.1895 H   0  0  0  0  0  0  0  0  0  0  0  0
  1  2  1  0  0  0  0
  1 20  1  0  0  0  0
  1 21  1  0  0  0  0
  1 22  1  0  0  0  0
  2  3  1  0  0  0  0
  2 23  1  0  0  0  0
  2 24  1  0  0  0  0
  3  4  1  0  0  0  0
  3 25  1  0  0  0  0
  4  5  2  0  0  0  0
  4  6  1  0  0  0  0
  6  7  1  0  0  0  0
  6  8  1  0  0  0  0
  6 26  1  0  0  0  0
  7 27  1  0  0  0  0
  7 28  1  0  0  0  0
  7 29  1  0  0  0  0
  8  9  1  0  0  0  0
  8 30  1  0  0  0  0
  9 10  2  0  0  0  0
  9 11  1  0  0  0  0
 11 12  1  0  0  0  0
 11 31  1  0  0  0  0
 11 32  1  0  0  0  0
 12 18  2  0  0  0  0
 12 13  1  0  0  0  0
 13 14  1  0  0  0  0
 13 15  2  0  0  0  0
 14 33  1  0  0  0  0
 14 34  1  0  0  0  0
 14 35  1  0  0  0  0
 15 16  1  0  0  0  0
 16 17  1  0  0  0  0
 16 18  1  0  0  0  0
 17 36  1  0  0  0  0
 17 37  1  0  0  0  0
 17 38  1  0  0  0  0
 18 19  1  0  0  0  0
 19 39  1  0  0  0  0
 19 40  1  0  0  0  0
 19 41  1  0  0  0  0
M  END
> <s_m_source_file>
AV-unprocessed.smi

> <i_m_source_file_index>
1573

> <i_lp_mmshare_version>
43012

> <i_f3d_flags>
0

> <s_epik_input>
W0NIM11bQ0gyXVtOSF1DKD1PKVtDQEhdKFtDSDNdKVtOSF1DKD1PKVtDSDJdYzFjKFtDSDNdKW5uKFtDSDNdKWMxW0NIM10=

> <s_epik_cmdline>
J2VwaWtfcHl0aG9uJywgJy1waCcsICc3LjAnLCAnLXRuJywgJzgnLCAnLW1hJywgJzIwMCcsICctbWV0YWxfYmluZGluZycsICctaW1hZScsICc8aW5maWxlLm1hZT4nLCAnLW9tYWUnLCAnPG91dGZpbGUubWFlPic=

> <r_lp_tautomer_probability>
1

> <r_epik_Ionization_Penalty>
0.00278414

> <r_epik_Ionization_Penalty_Charging>
0

> <r_epik_Ionization_Penalty_Neutral>
0.00278414

> <r_epik_State_Penalty>
0.00194489

> <r_epik_Charging_Adjusted_Penalty>
0.00194489

> <i_epik_Tot_Q>
0

> <i_epik_Tot_abs_Q>
0

> <r_epik_Metal_State_Penalty>
-0

> <b_epik_Metal_Only>
0

> <s_lp_Force_Field>
OPLS_2005

> <r_lp_Energy>
-3.15373

> <b_lp_Chiralities_Consistent>
1

> <s_lp_Variant>
AV-unprocessed.smi:1573-2

> <Gold.Version>
5.8.1

> <Gold.Id.Protein>
6NUR|6NUR_protein|mol2

> <Gold.PLP.Fitness>
43.7748

> <Gold.PLP.PLP>
-32.7343

> <Gold.PLP.part.hbond>
-6.2337

> <Gold.PLP.part.metal>
0.0000

> <Gold.PLP.part.buried>
-1.7540

> <Gold.PLP.part.nonpolar>
-24.9843

> <Gold.PLP.part.repulsive>
0.0944

> <Gold.PLP.ligand.clash>
0.0000

> <Gold.PLP.ligand.torsion>
0.4560

> <Gold.PLP.Chemscore.Hbond>
3.9760

> <Gold.PLP.Chemscore.CHOScore>
0.0000

> <Gold.PLP.Chemscore.Metal>
0.0000

> <Gold.Chemscore.Hbonds>
donor molecule, donor type, donor heavy atom, donor atom, acceptor molecule, acceptor atom, score
      L1  H     3    25       P1  8029  1.00
      L1  H     8    30       P1  8028  1.00
      P1  H  6934  6946       L1     5  1.00
      P1  H  7997  8010       L1    15  0.99

> <Gold.PLP.Chemscore.Internal.Correction>
0.0245

> <Gold.Rescore>
     Score         DG    S(hbond)    S(metal)    S(lipo)     H(rot)  DE(clash)    DE(int)     intcor
     17.98     -18.92       2.80        0.00      76.71       1.91       0.50       0.44       ----

> <Gold.Chemscore.Fitness>
17.9843

> <Gold.Chemscore.DG>
-18.9178

> <Gold.Chemscore.ZeroCoef>
-5.4800

> <Gold.Chemscore.Hbond>
2.8000

> <Gold.Chemscore.Metal>
0.0000

> <Gold.Chemscore.Lipo>
76.7121

> <Gold.Chemscore.Internal_Hbond>
0.0000

> <Gold.Chemscore.DEClash>
0.4961

> <Gold.Chemscore.DEInternal>
0.4374

> <Gold.Chemscore.Rot>
1.9100

> <Gold.Chemscore.Internal.Correction>
   9.000000E+99

> <Gold.Chemscore.Hbonds>
donor molecule, donor type, donor heavy atom, donor atom, acceptor molecule, acceptor atom, score
      L1  H     3    25       P1  8029  0.98
      L1  H     8    30       P1  8028  0.30
      P1  H  6934  6946       L1     5  1.00
      P1  H  7997  8010       L1    15  0.18

> <Gold.Chemscore.Hbond.Weighted>
-9.3520

> <Gold.Chemscore.Metal.Weighted>
-0.0000

> <Gold.Chemscore.Lipo.Weighted>
-8.9753

> <Gold.Chemscore.Internal_Hbond.Weighted>
0.0000

> <Gold.Chemscore.DEClash.Weighted>
0.4961

> <Gold.Chemscore.DEInternal.Weighted>
0.4374

> <Gold.Chemscore.Rot.Weighted>
4.8896

> <Gold.Chemscore.Internal.Correction.Weighted>
   9.000000E+99

> <Gold.Protein.RotatedTorsions>
[ 6907 6896 6895 6894 ] final   36.22 input  -60.11 | X-H torsion
[ 7974 7965 7964 7962 ] final  -67.29 input  175.53 | X-H torsion
[ 8008 7997 7996 7995 ] final   25.72 input   59.86 | X-H torsion
[ 10167 10162 10161 10158 ] final   74.92 input  -65.29 | X-H torsion
[ 10718 10713 10712 10709 ] final   -7.38 input   66.30 | X-H torsion
[ 10763 10752 10751 10750 ] final  177.61 input  -60.55 | X-H torsion
[ 11005 11000 10999 10996 ] final  -59.21 input  -57.11 | X-H torsion

> <Gold.Protein.ActiveResidues>
 VAL166  LYS551  ARG553  GLY616  TRP617  ASP618  TYR619  PRO620  LYS621  CYS622 
 ASP623  PHE694  ASN695  SER759  ASP760  ASP761  ALA762  ILE779  LEU786  VAL792 
 PHE793  MET794  SER795  GLU796  ALA797  LYS798  CYS799  TRP800  GLU811  SER814 

> <Gold.Protein.RotatedAtoms>
  152.1268  134.9165  160.0560 H   0  0  0  0  0  0  0  0  0  0  0  0  # atno 6907 bound_to 6896
  152.0284  133.3922  159.4295 H   0  0  0  0  0  0  0  0  0  0  0  0  # atno 6908 bound_to 6896
  150.6853  134.3469  159.4936 H   0  0  0  0  0  0  0  0  0  0  0  0  # atno 6909 bound_to 6896
  145.7310  140.8997  143.0580 H   0  0  0  0  0  0  0  0  0  0  0  0  # atno 7974 bound_to 7965
  155.0161  140.3142  155.4811 H   0  0  0  0  0  0  0  0  0  0  0  0  # atno 8008 bound_to 7997
  156.2900  140.2206  156.5219 H   0  0  0  0  0  0  0  0  0  0  0  0  # atno 8009 bound_to 7997
  154.7492  140.0467  157.0867 H   0  0  0  0  0  0  0  0  0  0  0  0  # atno 8010 bound_to 7997
  140.0086  144.5632  150.7677 H   0  0  0  0  0  0  0  0  0  0  0  0  # atno 10167 bound_to 10162
  156.7181  130.5142  149.5875 H   0  0  0  0  0  0  0  0  0  0  0  0  # atno 10718 bound_to 10713
  154.4968  135.2781  155.1453 H   0  0  0  0  0  0  0  0  0  0  0  0  # atno 10763 bound_to 10752
  154.3102  135.6230  153.5466 H   0  0  0  0  0  0  0  0  0  0  0  0  # atno 10764 bound_to 10752
  152.9896  135.5718  154.5401 H   0  0  0  0  0  0  0  0  0  0  0  0  # atno 10765 bound_to 10752
  141.1239  133.6615  156.5037 H   0  0  0  0  0  0  0  0  0  0  0  0  # atno 11005 bound_to 11000
  144.6893  139.9331  143.7472 LP  0  0  0  0  0  0  0  0  0  0  0  0  # atno 17320 bound_to 7965
  146.0537  139.3536  143.0624 LP  0  0  0  0  0  0  0  0  0  0  0  0  # atno 17321 bound_to 7965
  140.7390  143.2786  151.3666 LP  0  0  0  0  0  0  0  0  0  0  0  0  # atno 17342 bound_to 10162
  139.6221  144.0886  152.2401 LP  0  0  0  0  0  0  0  0  0  0  0  0  # atno 17343 bound_to 10162
  156.1614  130.6376  151.0723 LP  0  0  0  0  0  0  0  0  0  0  0  0  # atno 17370 bound_to 10713
  157.6909  131.0810  150.7109 LP  0  0  0  0  0  0  0  0  0  0  0  0  # atno 17371 bound_to 10713
  140.4425  134.7003  157.4999 LP  0  0  0  0  0  0  0  0  0  0  0  0  # atno 17394 bound_to 11000
  140.0220  134.6534  155.9227 LP  0  0  0  0  0  0  0  0  0  0  0  0  # atno 17395 bound_to 11000

$$$$
