AV-unprocessed.smi:262|AV-procd|sdf|2001|dock3
  -GOLD-   2262021193D 1   1.00000     0.00000
 Structure written by MMmdl.
 59 63  0  0  0  0  0  0  0  0  1 V2000
  146.2063  134.9185  150.5188 O   0  0  0  0  0  0  0  0  0  0  0  0
  145.2756  134.4331  151.4709 C   0  0  0  0  0  0  0  0  0  0  0  0
  144.5540  135.6517  152.0984 C   0  0  0  0  0  0  0  0  0  0  0  0
  145.4522  136.6330  152.6875 N   0  0  0  0  0  0  0  0  0  0  0  0
  145.7176  137.8982  152.2144 C   0  0  0  0  0  0  0  0  0  0  0  0
  146.5649  138.5914  152.9247 N   0  0  0  0  0  0  0  0  0  0  0  0
  146.9078  137.7421  153.9706 C   0  0  0  0  0  0  0  0  0  0  0  0
  147.7671  137.8562  155.1002 C   0  0  0  0  0  0  0  0  0  0  0  0
  148.5047  138.9679  155.3513 N   0  0  0  0  0  0  0  0  0  0  0  0
  148.0644  139.8546  156.4261 C   0  0  0  0  0  0  0  0  0  0  0  0
  148.8470  141.1790  156.3820 C   0  0  0  0  0  0  0  0  0  0  0  0
  150.2832  140.9161  156.5020 N   0  0  0  0  0  0  0  0  0  0  0  0
  150.9981  142.1922  156.5331 C   0  0  0  0  0  0  0  0  0  0  0  0
  151.1372  142.7562  157.9617 C   0  0  2  0  0  0  0  0  0  0  0  0
  151.7457  144.1434  158.0315 C   0  0  0  0  0  0  0  0  0  0  0  0
  152.2088  144.2107  159.4832 C   0  0  0  0  0  0  0  0  0  0  0  0
  152.5608  142.8766  159.8379 O   0  0  0  0  0  0  0  0  0  0  0  0
  152.1205  141.9714  158.8296 C   0  0  0  0  0  0  0  0  0  0  0  0
  150.6938  140.1025  155.3517 C   0  0  0  0  0  0  0  0  0  0  0  0
  149.9488  138.7546  155.3640 C   0  0  0  0  0  0  0  0  0  0  0  0
  147.8287  136.7929  155.9466 N   0  0  0  0  0  0  0  0  0  0  0  0
  147.1111  135.6922  155.7039 C   0  0  0  0  0  0  0  0  0  0  0  0
  146.2780  135.4458  154.6916 N   0  0  0  0  0  0  0  0  0  0  0  0
  146.2063  136.5097  153.8414 C   0  0  0  0  0  0  0  0  0  0  0  0
  144.3023  133.4736  150.7508 C   0  0  0  0  0  0  0  0  0  0  0  0
  144.9897  132.1656  150.3197 C   0  0  0  0  0  0  0  0  0  0  0  0
  145.6046  131.5421  151.4407 O   0  0  0  0  0  0  0  0  0  0  0  0
  146.6364  132.3372  152.0118 C   0  0  0  0  0  0  0  0  0  0  0  0
  146.0478  133.6520  152.5532 C   0  0  0  0  0  0  0  0  0  0  0  0
  145.7769  134.9739  149.6786 H   0  0  0  0  0  0  0  0  0  0  0  0
  143.9531  136.1588  151.3422 H   0  0  0  0  0  0  0  0  0  0  0  0
  143.8541  135.3230  152.8682 H   0  0  0  0  0  0  0  0  0  0  0  0
  145.2635  138.2912  151.3161 H   0  0  0  0  0  0  0  0  0  0  0  0
  146.9983  140.0609  156.3234 H   0  0  0  0  0  0  0  0  0  0  0  0
  148.2098  139.3660  157.3909 H   0  0  0  0  0  0  0  0  0  0  0  0
  148.6348  141.7169  155.4564 H   0  0  0  0  0  0  0  0  0  0  0  0
  148.5186  141.8146  157.2052 H   0  0  0  0  0  0  0  0  0  0  0  0
  151.9793  142.0808  156.0687 H   0  0  0  0  0  0  0  0  0  0  0  0
  150.4540  142.9218  155.9311 H   0  0  0  0  0  0  0  0  0  0  0  0
  150.1759  142.7635  158.4756 H   0  0  0  0  0  0  0  0  0  0  0  0
  152.6025  144.2197  157.3604 H   0  0  0  0  0  0  0  0  0  0  0  0
  151.0403  144.9346  157.7752 H   0  0  0  0  0  0  0  0  0  0  0  0
  153.0440  144.8969  159.6235 H   0  0  0  0  0  0  0  0  0  0  0  0
  151.3910  144.5356  160.1276 H   0  0  0  0  0  0  0  0  0  0  0  0
  151.6696  141.0796  159.2656 H   0  0  0  0  0  0  0  0  0  0  0  0
  152.9889  141.6596  158.2475 H   0  0  0  0  0  0  0  0  0  0  0  0
  150.4961  140.6354  154.4201 H   0  0  0  0  0  0  0  0  0  0  0  0
  151.7641  139.9051  155.3851 H   0  0  0  0  0  0  0  0  0  0  0  0
  150.2183  138.1851  156.2546 H   0  0  0  0  0  0  0  0  0  0  0  0
  150.2684  138.1639  154.5064 H   0  0  0  0  0  0  0  0  0  0  0  0
  147.2199  134.8953  156.4246 H   0  0  0  0  0  0  0  0  0  0  0  0
  143.4783  133.2277  151.4218 H   0  0  0  0  0  0  0  0  0  0  0  0
  143.8563  133.9534  149.8790 H   0  0  0  0  0  0  0  0  0  0  0  0
  144.2535  131.4806  149.8989 H   0  0  0  0  0  0  0  0  0  0  0  0
  145.7300  132.3493  149.5396 H   0  0  0  0  0  0  0  0  0  0  0  0
  147.1015  131.7763  152.8225 H   0  0  0  0  0  0  0  0  0  0  0  0
  147.4167  132.5283  151.2736 H   0  0  0  0  0  0  0  0  0  0  0  0
  146.8401  134.2688  152.9797 H   0  0  0  0  0  0  0  0  0  0  0  0
  145.3727  133.4128  153.3760 H   0  0  0  0  0  0  0  0  0  0  0  0
  1  2  1  0  0  0  0
  1 30  1  0  0  0  0
  2 29  1  0  0  0  0
  2  3  1  0  0  0  0
  2 25  1  0  0  0  0
  3  4  1  0  0  0  0
  3 31  1  0  0  0  0
  3 32  1  0  0  0  0
  4 24  1  0  0  0  0
  4  5  1  0  0  0  0
  5  6  2  0  0  0  0
  5 33  1  0  0  0  0
  6  7  1  0  0  0  0
  7 24  2  0  0  0  0
  7  8  1  0  0  0  0
  8  9  1  0  0  0  0
  8 21  2  0  0  0  0
  9 20  1  0  0  0  0
  9 10  1  0  0  0  0
 10 11  1  0  0  0  0
 10 34  1  0  0  0  0
 10 35  1  0  0  0  0
 11 12  1  0  0  0  0
 11 36  1  0  0  0  0
 11 37  1  0  0  0  0
 12 13  1  0  0  0  0
 12 19  1  0  0  0  0
 13 14  1  0  0  0  0
 13 38  1  0  0  0  0
 13 39  1  0  0  0  0
 14 18  1  0  0  0  0
 14 15  1  0  0  0  0
 14 40  1  0  0  0  0
 15 16  1  0  0  0  0
 15 41  1  0  0  0  0
 15 42  1  0  0  0  0
 16 17  1  0  0  0  0
 16 43  1  0  0  0  0
 16 44  1  0  0  0  0
 17 18  1  0  0  0  0
 18 45  1  0  0  0  0
 18 46  1  0  0  0  0
 19 20  1  0  0  0  0
 19 47  1  0  0  0  0
 19 48  1  0  0  0  0
 20 49  1  0  0  0  0
 20 50  1  0  0  0  0
 21 22  1  0  0  0  0
 22 23  2  0  0  0  0
 22 51  1  0  0  0  0
 23 24  1  0  0  0  0
 25 26  1  0  0  0  0
 25 52  1  0  0  0  0
 25 53  1  0  0  0  0
 26 27  1  0  0  0  0
 26 54  1  0  0  0  0
 26 55  1  0  0  0  0
 27 28  1  0  0  0  0
 28 29  1  0  0  0  0
 28 56  1  0  0  0  0
 28 57  1  0  0  0  0
 29 58  1  0  0  0  0
 29 59  1  0  0  0  0
M  END
> <s_m_source_file>
AV-unprocessed.smi

> <i_m_source_file_index>
262

> <i_lp_mmshare_version>
43012

> <i_f3d_flags>
0

> <s_epik_input>
W0NIMl0xW0NIMl1PW0NIMl1bQ0gyXUMxKFtPSF0pW0NIMl1uKFtjSF1uMiljKGMyMyluW2NIXW5jM040W0NIMl1bQ0gyXU4oW0NIMl1bQ0gyXTQpW0NIMl1bQ0BASF01W0NIMl1bQ0gyXU9bQ0gyXTU=

> <s_epik_cmdline>
J2VwaWtfcHl0aG9uJywgJy1waCcsICc3LjAnLCAnLXRuJywgJzgnLCAnLW1hJywgJzIwMCcsICctbWV0YWxfYmluZGluZycsICctaW1hZScsICc8aW5maWxlLm1hZT4nLCAnLW9tYWUnLCAnPG91dGZpbGUubWFlPic=

> <r_lp_tautomer_probability>
1

> <r_epik_Ionization_Penalty>
2.38637

> <r_epik_Ionization_Penalty_Charging>
0

> <r_epik_Ionization_Penalty_Neutral>
2.38637

> <r_epik_State_Penalty>
2.53316

> <r_epik_Charging_Adjusted_Penalty>
2.53316

> <i_epik_Tot_Q>
0

> <i_epik_Tot_abs_Q>
0

> <r_epik_Metal_State_Penalty>
2.52423

> <b_epik_Metal_Only>
0

> <s_lp_Force_Field>
OPLS_2005

> <r_lp_Energy>
56.9797

> <b_lp_Chiralities_Consistent>
1

> <s_lp_Variant>
AV-unprocessed.smi:262-3

> <Gold.Version>
5.8.1

> <Gold.Id.Protein>
6NUR|6NUR_protein|mol2

> <Gold.PLP.Fitness>
43.7766

> <Gold.PLP.PLP>
-38.7543

> <Gold.PLP.part.hbond>
-1.0022

> <Gold.PLP.part.metal>
0.0000

> <Gold.PLP.part.buried>
-4.0696

> <Gold.PLP.part.nonpolar>
-34.4856

> <Gold.PLP.part.repulsive>
0.6642

> <Gold.PLP.ligand.clash>
0.0000

> <Gold.PLP.ligand.torsion>
0.6671

> <Gold.PLP.Chemscore.Hbond>
1.0000

> <Gold.PLP.Chemscore.CHOScore>
1.0000

> <Gold.PLP.Chemscore.Metal>
0.0000

> <Gold.Chemscore.Hbonds>
donor molecule, donor type, donor heavy atom, donor atom, acceptor molecule, acceptor atom, score
      L1  H     1    30       P1  7921  0.74
      L1  C     5    33       P1 10171  1.00
      L1  C     5    33       P1 10175  0.03

> <Gold.PLP.Chemscore.Internal.Correction>
0.3565

> <Gold.Rescore>
     Score         DG    S(hbond)    S(metal)    S(lipo)     H(rot)  DE(clash)    DE(int)     intcor
     12.19     -15.04       0.83        0.00     112.40       2.49       1.85       0.99       ----

> <Gold.Chemscore.Fitness>
12.1925

> <Gold.Chemscore.DG>
-15.0386

> <Gold.Chemscore.ZeroCoef>
-5.4800

> <Gold.Chemscore.Hbond>
0.8294

> <Gold.Chemscore.Metal>
0.0000

> <Gold.Chemscore.Lipo>
112.4026

> <Gold.Chemscore.Internal_Hbond>
0.0000

> <Gold.Chemscore.DEClash>
1.8534

> <Gold.Chemscore.DEInternal>
0.9927

> <Gold.Chemscore.Rot>
2.4855

> <Gold.Chemscore.Internal.Correction>
   9.000000E+99

> <Gold.Chemscore.Hbonds>
donor molecule, donor type, donor heavy atom, donor atom, acceptor molecule, acceptor atom, score
      L1  H     1    30       P1  7921  0.66

> <Gold.Chemscore.Hbond.Weighted>
-2.7703

> <Gold.Chemscore.Metal.Weighted>
-0.0000

> <Gold.Chemscore.Lipo.Weighted>
-13.1511

> <Gold.Chemscore.Internal_Hbond.Weighted>
0.0000

> <Gold.Chemscore.DEClash.Weighted>
1.8534

> <Gold.Chemscore.DEInternal.Weighted>
0.9927

> <Gold.Chemscore.Rot.Weighted>
6.3629

> <Gold.Chemscore.Internal.Correction.Weighted>
   9.000000E+99

> <Gold.Protein.RotatedTorsions>
[ 6907 6896 6895 6894 ] final  -31.36 input  -60.11 | X-H torsion
[ 7974 7965 7964 7962 ] final   19.33 input  175.53 | X-H torsion
[ 8008 7997 7996 7995 ] final  146.30 input   59.86 | X-H torsion
[ 10167 10162 10161 10158 ] final   93.82 input  -65.29 | X-H torsion
[ 10718 10713 10712 10709 ] final  122.33 input   66.30 | X-H torsion
[ 10763 10752 10751 10750 ] final   93.03 input  -60.55 | X-H torsion
[ 11005 11000 10999 10996 ] final  -24.20 input  -57.11 | X-H torsion

> <Gold.Protein.ActiveResidues>
 VAL166  LYS551  ARG553  GLY616  TRP617  ASP618  TYR619  PRO620  LYS621  CYS622 
 ASP623  PHE694  ASN695  SER759  ASP760  ASP761  ALA762  ILE779  LEU786  VAL792 
 PHE793  MET794  SER795  GLU796  ALA797  LYS798  CYS799  TRP800  GLU811  SER814 

> <Gold.Protein.RotatedAtoms>
  151.0932  134.9928  159.8412 H   0  0  0  0  0  0  0  0  0  0  0  0  # atno 6907 bound_to 6896
  152.5431  134.2040  159.8733 H   0  0  0  0  0  0  0  0  0  0  0  0  # atno 6908 bound_to 6896
  151.2078  133.4529  159.2631 H   0  0  0  0  0  0  0  0  0  0  0  0  # atno 6909 bound_to 6896
  146.2153  139.8328  142.8656 H   0  0  0  0  0  0  0  0  0  0  0  0  # atno 7974 bound_to 7965
  156.2859  140.2186  156.5354 H   0  0  0  0  0  0  0  0  0  0  0  0  # atno 8008 bound_to 7997
  154.7414  140.0487  157.0836 H   0  0  0  0  0  0  0  0  0  0  0  0  # atno 8009 bound_to 7997
  155.0226  140.3126  155.4791 H   0  0  0  0  0  0  0  0  0  0  0  0  # atno 8010 bound_to 7997
  139.8143  144.6759  150.9600 H   0  0  0  0  0  0  0  0  0  0  0  0  # atno 10167 bound_to 10162
  157.5750  131.1080  150.8295 H   0  0  0  0  0  0  0  0  0  0  0  0  # atno 10718 bound_to 10713
  153.2258  135.4340  155.0540 H   0  0  0  0  0  0  0  0  0  0  0  0  # atno 10763 bound_to 10752
  154.8272  135.3367  154.6860 H   0  0  0  0  0  0  0  0  0  0  0  0  # atno 10764 bound_to 10752
  153.7290  135.7012  153.5050 H   0  0  0  0  0  0  0  0  0  0  0  0  # atno 10765 bound_to 10752
  140.8823  133.7645  156.0317 H   0  0  0  0  0  0  0  0  0  0  0  0  # atno 11005 bound_to 11000
  145.2979  141.0186  143.3625 LP  0  0  0  0  0  0  0  0  0  0  0  0  # atno 17320 bound_to 7965
  144.9028  139.4628  143.6624 LP  0  0  0  0  0  0  0  0  0  0  0  0  # atno 17321 bound_to 7965
  140.7816  143.4154  151.0926 LP  0  0  0  0  0  0  0  0  0  0  0  0  # atno 17342 bound_to 10162
  139.7818  143.8344  152.3139 LP  0  0  0  0  0  0  0  0  0  0  0  0  # atno 17343 bound_to 10162
  156.8756  130.5161  149.5294 LP  0  0  0  0  0  0  0  0  0  0  0  0  # atno 17370 bound_to 10713
  156.0795  130.5809  150.9537 LP  0  0  0  0  0  0  0  0  0  0  0  0  # atno 17371 bound_to 10713
  140.8447  134.3025  157.5299 LP  0  0  0  0  0  0  0  0  0  0  0  0  # atno 17394 bound_to 11000
  139.8721  134.9435  156.3855 LP  0  0  0  0  0  0  0  0  0  0  0  0  # atno 17395 bound_to 11000

$$$$
