AV-unprocessed.smi:1433|AV-procd|sdf|5841|dock7
  -GOLD-   22720 5503D 1   1.00000     0.00000
 Structure written by MMmdl.
 45 46  0  0  0  0  0  0  0  0  2 V2000
  145.4736  141.1602  157.2354 C   0  0  0  0  0  0  0  0  0  0  0  0
  145.6840  141.2632  155.7207 C   0  0  2  0  0  0  0  0  0  0  0  0
  146.1228  139.9202  155.1083 C   0  0  0  0  0  0  0  0  0  0  0  0
  146.4090  140.0652  153.6558 N   0  3  2  0  0  0  0  0  0  0  0  0
  146.7616  138.8064  152.9210 C   0  0  2  0  0  0  0  0  0  0  0  0
  146.7143  139.0622  151.3984 C   0  0  0  0  0  0  0  0  0  0  0  0
  145.8765  137.5829  153.2928 C   0  0  0  0  0  0  0  0  0  0  0  0
  146.4057  136.3164  152.7953 N   0  0  0  0  0  0  0  0  0  0  0  0
  145.7683  135.1365  152.8557 C   0  0  0  0  0  0  0  0  0  0  0  0
  144.6587  134.9907  153.3683 O   0  0  0  0  0  0  0  0  0  0  0  0
  146.4897  133.9384  152.2381 C   0  0  0  0  0  0  0  0  0  0  0  0
  145.6875  133.3346  151.1899 N   0  0  0  0  0  0  0  0  0  0  0  0
  145.9774  132.2273  150.4200 C   0  0  0  0  0  0  0  0  0  0  0  0
  144.9223  132.0319  149.5755 C   0  0  0  0  0  0  0  0  0  0  0  0
  144.0233  133.0832  149.9090 C   0  0  0  0  0  0  0  0  0  0  0  0
  144.4833  133.8615  150.8757 N   0  0  0  0  0  0  0  0  0  0  0  0
  147.4225  141.1358  153.4562 C   0  0  0  0  0  0  0  0  0  0  0  0
  146.9906  142.4625  154.1090 C   0  0  1  0  0  0  0  0  0  0  0  0
  145.8603  143.1835  153.3531 C   0  0  0  0  0  0  0  0  0  0  0  0
  146.6807  142.2513  155.4844 O   0  0  0  0  0  0  0  0  0  0  0  0
  144.7074  140.4227  157.4765 H   0  0  0  0  0  0  0  0  0  0  0  0
  145.1548  142.1167  157.6504 H   0  0  0  0  0  0  0  0  0  0  0  0
  146.3926  140.8665  157.7434 H   0  0  0  0  0  0  0  0  0  0  0  0
  144.7412  141.5780  155.2729 H   0  0  0  0  0  0  0  0  0  0  0  0
  147.0075  139.5363  155.6194 H   0  0  0  0  0  0  0  0  0  0  0  0
  145.3124  139.2109  155.2735 H   0  0  0  0  0  0  0  0  0  0  0  0
  147.7872  138.5512  153.1918 H   0  0  0  0  0  0  0  0  0  0  0  0
  147.0368  138.1889  150.8316 H   0  0  0  0  0  0  0  0  0  0  0  0
  147.3653  139.8794  151.0924 H   0  0  0  0  0  0  0  0  0  0  0  0
  145.7030  139.3093  151.0741 H   0  0  0  0  0  0  0  0  0  0  0  0
  145.7665  137.4845  154.3738 H   0  0  0  0  0  0  0  0  0  0  0  0
  144.8734  137.7067  152.8832 H   0  0  0  0  0  0  0  0  0  0  0  0
  147.3116  136.3419  152.3489 H   0  0  0  0  0  0  0  0  0  0  0  0
  147.4554  134.2409  151.8296 H   0  0  0  0  0  0  0  0  0  0  0  0
  146.6871  133.1892  153.0061 H   0  0  0  0  0  0  0  0  0  0  0  0
  146.8992  131.6765  150.5378 H   0  0  0  0  0  0  0  0  0  0  0  0
  144.8091  131.2555  148.8335 H   0  0  0  0  0  0  0  0  0  0  0  0
  143.0561  133.3017  149.4809 H   0  0  0  0  0  0  0  0  0  0  0  0
  148.3676  140.8116  153.8952 H   0  0  0  0  0  0  0  0  0  0  0  0
  147.6172  141.3051  152.3983 H   0  0  0  0  0  0  0  0  0  0  0  0
  147.8516  143.1317  154.0967 H   0  0  0  0  0  0  0  0  0  0  0  0
  146.1795  143.4508  152.3454 H   0  0  0  0  0  0  0  0  0  0  0  0
  145.5784  144.1049  153.8629 H   0  0  0  0  0  0  0  0  0  0  0  0
  144.9666  142.5679  153.2551 H   0  0  0  0  0  0  0  0  0  0  0  0
  145.5481  140.3950  153.2430 H   0  0  0  0  0  0  0  0  0  0  0  0
  1  2  1  0  0  0  0
  1 21  1  0  0  0  0
  1 22  1  0  0  0  0
  1 23  1  0  0  0  0
  2 20  1  0  0  0  0
  2  3  1  0  0  0  0
  2 24  1  0  0  0  0
  3  4  1  0  0  0  0
  3 25  1  0  0  0  0
  3 26  1  0  0  0  0
  4  5  1  0  0  0  0
  4 17  1  0  0  0  0
  4 45  1  0  0  0  0
  5  6  1  0  0  0  0
  5  7  1  0  0  0  0
  5 27  1  0  0  0  0
  6 28  1  0  0  0  0
  6 29  1  0  0  0  0
  6 30  1  0  0  0  0
  7  8  1  0  0  0  0
  7 31  1  0  0  0  0
  7 32  1  0  0  0  0
  8  9  1  0  0  0  0
  8 33  1  0  0  0  0
  9 10  2  0  0  0  0
  9 11  1  0  0  0  0
 11 12  1  0  0  0  0
 11 34  1  0  0  0  0
 11 35  1  0  0  0  0
 12 16  1  0  0  0  0
 12 13  1  0  0  0  0
 13 14  2  0  0  0  0
 13 36  1  0  0  0  0
 14 15  1  0  0  0  0
 14 37  1  0  0  0  0
 15 16  2  0  0  0  0
 15 38  1  0  0  0  0
 17 18  1  0  0  0  0
 17 39  1  0  0  0  0
 17 40  1  0  0  0  0
 18 19  1  0  0  0  0
 18 20  1  0  0  0  0
 18 41  1  0  0  0  0
 19 42  1  0  0  0  0
 19 43  1  0  0  0  0
 19 44  1  0  0  0  0
M  CHG  1   4   1
M  END
> <s_m_source_file>
AV-unprocessed.smi

> <i_m_source_file_index>
1433

> <i_lp_mmshare_version>
43012

> <i_f3d_flags>
0

> <s_epik_input>
W0NIM11bQ0BASF0xW0NIMl1OKFtDSDJdW0NASF0oTzEpW0NIM10pW0NASF0oW0NIM10pW0NIMl1bTkhdQyg9TylbQ0gyXW4yW2NIXVtjSF1bY0hdbjI=

> <s_epik_cmdline>
J2VwaWtfcHl0aG9uJywgJy1waCcsICc3LjAnLCAnLXRuJywgJzgnLCAnLW1hJywgJzIwMCcsICctbWV0YWxfYmluZGluZycsICctaW1hZScsICc8aW5maWxlLm1hZT4nLCAnLW9tYWUnLCAnPG91dGZpbGUubWFlPic=

> <r_lp_tautomer_probability>
1

> <r_epik_Ionization_Penalty>
0.748405

> <r_epik_Ionization_Penalty_Charging>
0.748396

> <r_epik_Ionization_Penalty_Neutral>
8.54426e-06

> <r_epik_State_Penalty>
0.775162

> <r_epik_Charging_Adjusted_Penalty>
1.52356

> <i_epik_Tot_Q>
1

> <i_epik_Tot_abs_Q>
1

> <r_epik_Metal_State_Penalty>
0.775167

> <b_epik_Metal_Only>
0

> <s_lp_Force_Field>
OPLS_2005

> <r_lp_Energy>
22.7015

> <b_lp_Chiralities_Consistent>
1

> <s_lp_Variant>
AV-unprocessed.smi:1433-7

> <Gold.Version>
5.8.1

> <Gold.Id.Protein>
6NUR|6NUR_protein|mol2

> <Gold.PLP.Fitness>
48.4889

> <Gold.PLP.PLP>
-33.8612

> <Gold.PLP.part.hbond>
-2.0000

> <Gold.PLP.part.metal>
0.0000

> <Gold.PLP.part.buried>
-4.0063

> <Gold.PLP.part.nonpolar>
-28.4390

> <Gold.PLP.part.repulsive>
0.3721

> <Gold.PLP.ligand.clash>
0.0000

> <Gold.PLP.ligand.torsion>
0.2288

> <Gold.PLP.Chemscore.Hbond>
3.0000

> <Gold.PLP.Chemscore.CHOScore>
2.0000

> <Gold.PLP.Chemscore.Metal>
0.0000

> <Gold.Chemscore.Hbonds>
donor molecule, donor type, donor heavy atom, donor atom, acceptor molecule, acceptor atom, score
      L1  H     4    45       P1 10175  2.00
      L1  H     8    33       P1  7948  1.00
      L1  C    13    36       P1 10747  1.00
      L1  C    15    38       P1 10186  1.00

> <Gold.PLP.Chemscore.Internal.Correction>
0.0854

> <Gold.Rescore>
     Score         DG    S(hbond)    S(metal)    S(lipo)     H(rot)  DE(clash)    DE(int)     intcor
     15.29     -16.89       1.98        0.00      81.84       1.87       0.10       1.50       ----

> <Gold.Chemscore.Fitness>
15.2869

> <Gold.Chemscore.DG>
-16.8928

> <Gold.Chemscore.ZeroCoef>
-5.4800

> <Gold.Chemscore.Hbond>
1.9800

> <Gold.Chemscore.Metal>
0.0000

> <Gold.Chemscore.Lipo>
81.8447

> <Gold.Chemscore.Internal_Hbond>
0.0000

> <Gold.Chemscore.DEClash>
0.1009

> <Gold.Chemscore.DEInternal>
1.5049

> <Gold.Chemscore.Rot>
1.8657

> <Gold.Chemscore.Internal.Correction>
   9.000000E+99

> <Gold.Chemscore.Hbonds>
donor molecule, donor type, donor heavy atom, donor atom, acceptor molecule, acceptor atom, score
      L1  H     4    45       P1 10175  0.91
      L1  H     8    33       P1  7948  1.00

> <Gold.Chemscore.Hbond.Weighted>
-6.6131

> <Gold.Chemscore.Metal.Weighted>
-0.0000

> <Gold.Chemscore.Lipo.Weighted>
-9.5758

> <Gold.Chemscore.Internal_Hbond.Weighted>
0.0000

> <Gold.Chemscore.DEClash.Weighted>
0.1009

> <Gold.Chemscore.DEInternal.Weighted>
1.5049

> <Gold.Chemscore.Rot.Weighted>
4.7761

> <Gold.Chemscore.Internal.Correction.Weighted>
   9.000000E+99

> <Gold.Protein.RotatedTorsions>
[ 6907 6896 6895 6894 ] final -105.19 input  -60.11 | X-H torsion
[ 7974 7965 7964 7962 ] final -169.84 input  175.53 | X-H torsion
[ 8008 7997 7996 7995 ] final -144.04 input   59.86 | X-H torsion
[ 10167 10162 10161 10158 ] final -156.54 input  -65.29 | X-H torsion
[ 10718 10713 10712 10709 ] final  124.52 input   66.30 | X-H torsion
[ 10763 10752 10751 10750 ] final  -59.72 input  -60.55 | X-H torsion
[ 11005 11000 10999 10996 ] final   -1.38 input  -57.11 | X-H torsion

> <Gold.Protein.ActiveResidues>
 VAL166  LYS551  ARG553  GLY616  TRP617  ASP618  TYR619  PRO620  LYS621  CYS622 
 ASP623  PHE694  ASN695  SER759  ASP760  ASP761  ALA762  ILE779  LEU786  VAL792 
 PHE793  MET794  SER795  GLU796  ALA797  LYS798  CYS799  TRP800  GLU811  SER814 

> <Gold.Protein.RotatedAtoms>
  150.7324  134.0163  159.3686 H   0  0  0  0  0  0  0  0  0  0  0  0  # atno 6907 bound_to 6896
  151.8126  135.0674  160.0424 H   0  0  0  0  0  0  0  0  0  0  0  0  # atno 6908 bound_to 6896
  152.3062  133.5669  159.5687 H   0  0  0  0  0  0  0  0  0  0  0  0  # atno 6909 bound_to 6896
  144.7179  140.2161  143.6321 H   0  0  0  0  0  0  0  0  0  0  0  0  # atno 7974 bound_to 7965
  155.5205  140.0591  157.2907 H   0  0  0  0  0  0  0  0  0  0  0  0  # atno 8008 bound_to 7997
  154.4519  140.1953  156.0439 H   0  0  0  0  0  0  0  0  0  0  0  0  # atno 8009 bound_to 7997
  156.0722  140.3258  155.7594 H   0  0  0  0  0  0  0  0  0  0  0  0  # atno 8010 bound_to 7997
  139.6842  143.9530  152.2352 H   0  0  0  0  0  0  0  0  0  0  0  0  # atno 10167 bound_to 10162
  157.5578  131.1091  150.8591 H   0  0  0  0  0  0  0  0  0  0  0  0  # atno 10718 bound_to 10713
  154.2581  135.6313  153.5264 H   0  0  0  0  0  0  0  0  0  0  0  0  # atno 10763 bound_to 10752
  152.9900  135.5581  154.5734 H   0  0  0  0  0  0  0  0  0  0  0  0  # atno 10764 bound_to 10752
  154.5277  135.2886  155.1183 H   0  0  0  0  0  0  0  0  0  0  0  0  # atno 10765 bound_to 10752
  140.6467  133.9441  155.8357 H   0  0  0  0  0  0  0  0  0  0  0  0  # atno 11005 bound_to 11000
  145.8545  139.2192  143.1752 LP  0  0  0  0  0  0  0  0  0  0  0  0  # atno 17320 bound_to 7965
  146.0230  140.8330  142.9914 LP  0  0  0  0  0  0  0  0  0  0  0  0  # atno 17321 bound_to 7965
  139.9328  144.6730  150.8345 LP  0  0  0  0  0  0  0  0  0  0  0  0  # atno 17342 bound_to 10162
  140.7662  143.3297  151.2438 LP  0  0  0  0  0  0  0  0  0  0  0  0  # atno 17343 bound_to 10162
  156.9098  130.5276  149.5280 LP  0  0  0  0  0  0  0  0  0  0  0  0  # atno 17370 bound_to 10713
  156.0634  130.5682  150.9240 LP  0  0  0  0  0  0  0  0  0  0  0  0  # atno 17371 bound_to 10713
  141.0567  134.0406  157.3713 LP  0  0  0  0  0  0  0  0  0  0  0  0  # atno 17394 bound_to 11000
  139.9060  135.0179  156.7488 LP  0  0  0  0  0  0  0  0  0  0  0  0  # atno 17395 bound_to 11000

$$$$
