AV-unprocessed.smi:1592|AV-procd|sdf|6404|dock2
  -GOLD-   22720 7 43D 1   1.00000     0.00000
 Structure written by MMmdl.
 27 28  0  0  0  0  0  0  0  0  3 V2000
  151.1502  140.3600  155.3244 O   0  0  0  0  0  0  0  0  0  0  0  0
  150.1094  141.0070  155.4549 C   0  0  0  0  0  0  0  0  0  0  0  0
  149.9474  142.0300  156.3143 N   0  0  0  0  0  0  0  0  0  0  0  0
  150.8914  142.5929  157.2179 C   0  0  0  0  0  0  0  0  0  0  0  0
  151.0373  143.9336  157.3675 N   0  3  0  0  0  0  0  0  0  0  0  0
  151.9241  144.4992  158.2144 C   0  0  0  0  0  0  0  0  0  0  0  0
  152.7590  143.6832  159.0013 C   0  0  0  0  0  0  0  0  0  0  0  0
  152.6494  142.2832  158.8862 C   0  0  0  0  0  0  0  0  0  0  0  0
  151.7099  141.7320  157.9889 C   0  0  0  0  0  0  0  0  0  0  0  0
  151.6042  140.3736  157.8787 O   0  5  0  0  0  0  0  0  0  0  0  0
  148.8795  140.6482  154.6138 C   0  0  1  0  0  0  0  0  0  0  0  0
  147.6178  140.3431  155.4441 C   0  0  0  0  0  0  0  0  0  0  0  0
  146.6860  141.4965  155.1256 C   0  0  0  0  0  0  0  0  0  0  0  0
  147.1371  141.8890  153.7262 C   0  0  0  0  0  0  0  0  0  0  0  0
  148.5488  141.7773  153.8077 O   0  0  0  0  0  0  0  0  0  0  0  0
  149.0377  142.4693  156.3242 H   0  0  0  0  0  0  0  0  0  0  0  0
  151.9383  145.5792  158.2353 H   0  0  0  0  0  0  0  0  0  0  0  0
  153.4728  144.1224  159.6825 H   0  0  0  0  0  0  0  0  0  0  0  0
  153.2809  141.6395  159.4812 H   0  0  0  0  0  0  0  0  0  0  0  0
  150.4437  144.5466  156.8073 H   0  0  0  0  0  0  0  0  0  0  0  0
  149.1003  139.8015  153.9611 H   0  0  0  0  0  0  0  0  0  0  0  0
  147.1765  139.4038  155.1084 H   0  0  0  0  0  0  0  0  0  0  0  0
  147.7985  140.2511  156.5161 H   0  0  0  0  0  0  0  0  0  0  0  0
  145.6318  141.2230  155.1750 H   0  0  0  0  0  0  0  0  0  0  0  0
  146.8606  142.3212  155.8179 H   0  0  0  0  0  0  0  0  0  0  0  0
  146.7554  141.1896  152.9809 H   0  0  0  0  0  0  0  0  0  0  0  0
  146.8277  142.8968  153.4483 H   0  0  0  0  0  0  0  0  0  0  0  0
  1  2  2  0  0  0  0
  2  3  1  0  0  0  0
  2 11  1  0  0  0  0
  3 16  1  0  0  0  0
  3  4  1  0  0  0  0
  4  9  2  0  0  0  0
  4  5  1  0  0  0  0
  5 20  1  0  0  0  0
  5  6  2  0  0  0  0
  6 17  1  0  0  0  0
  6  7  1  0  0  0  0
  7 18  1  0  0  0  0
  7  8  2  0  0  0  0
  8  9  1  0  0  0  0
  8 19  1  0  0  0  0
  9 10  1  0  0  0  0
 11 15  1  0  0  0  0
 11 12  1  0  0  0  0
 11 21  1  0  0  0  0
 12 13  1  0  0  0  0
 12 22  1  0  0  0  0
 12 23  1  0  0  0  0
 13 14  1  0  0  0  0
 13 24  1  0  0  0  0
 13 25  1  0  0  0  0
 14 15  1  0  0  0  0
 14 26  1  0  0  0  0
 14 27  1  0  0  0  0
M  CHG  1   5   1
M  CHG  1  10  -1
M  END
> <s_m_source_file>
AV-unprocessed.smi

> <i_m_source_file_index>
1592

> <i_lp_mmshare_version>
43012

> <i_f3d_flags>
0

> <s_epik_input>
TzFbQ0gyXVtDSDJdW0NIMl1bQ0BIXTFDKD1PKVtOSF1jMm5bY0hdW2NIXVtjSF1jMltPSF0=

> <s_epik_cmdline>
J2VwaWtfcHl0aG9uJywgJy1waCcsICc3LjAnLCAnLXRuJywgJzgnLCAnLW1hJywgJzIwMCcsICctbWV0YWxfYmluZGluZycsICctaW1hZScsICc8aW5maWxlLm1hZT4nLCAnLW9tYWUnLCAnPG91dGZpbGUubWFlPic=

> <r_lp_tautomer_probability>
0.56342

> <r_epik_Ionization_Penalty>
0.215537

> <r_epik_Ionization_Penalty_Charging>
0.025819

> <r_epik_Ionization_Penalty_Neutral>
0.189718

> <r_epik_State_Penalty>
0.544343

> <r_epik_Charging_Adjusted_Penalty>
0.570162

> <i_epik_Tot_Q>
0

> <i_epik_Tot_abs_Q>
2

> <r_epik_Metal_State_Penalty>
2.6192

> <b_epik_Metal_Only>
0

> <s_lp_Force_Field>
OPLS_2005

> <r_lp_Energy>
19.357

> <b_lp_Chiralities_Consistent>
1

> <s_lp_Variant>
AV-unprocessed.smi:1592-4

> <Gold.Version>
5.8.1

> <Gold.Id.Protein>
6NUR|6NUR_protein|mol2

> <Gold.PLP.Fitness>
43.2822

> <Gold.PLP.PLP>
-32.6794

> <Gold.PLP.part.hbond>
-4.0000

> <Gold.PLP.part.metal>
0.0000

> <Gold.PLP.part.buried>
-5.8344

> <Gold.PLP.part.nonpolar>
-23.7071

> <Gold.PLP.part.repulsive>
0.3043

> <Gold.PLP.ligand.clash>
0.0000

> <Gold.PLP.ligand.torsion>
0.3815

> <Gold.PLP.Chemscore.Hbond>
3.6251

> <Gold.PLP.Chemscore.CHOScore>
0.0000

> <Gold.PLP.Chemscore.Metal>
0.0000

> <Gold.Chemscore.Hbonds>
donor molecule, donor type, donor heavy atom, donor atom, acceptor molecule, acceptor atom, score
      L1  H     3    16       P1  8028  0.07
      L1  H     5    20       P1  8028  1.98
      P1  H  7989  7998       L1     1  1.00
      P1  H  8011  8017       L1    15  0.54

> <Gold.PLP.Chemscore.Internal.Correction>
0.4905

> <Gold.Rescore>
     Score         DG    S(hbond)    S(metal)    S(lipo)     H(rot)  DE(clash)    DE(int)     intcor
     16.99     -18.19       2.19        0.00      67.93       1.00       0.16       1.04       ----

> <Gold.Chemscore.Fitness>
16.9875

> <Gold.Chemscore.DG>
-18.1895

> <Gold.Chemscore.ZeroCoef>
-5.4800

> <Gold.Chemscore.Hbond>
2.1920

> <Gold.Chemscore.Metal>
0.0000

> <Gold.Chemscore.Lipo>
67.9323

> <Gold.Chemscore.Internal_Hbond>
0.0000

> <Gold.Chemscore.DEClash>
0.1576

> <Gold.Chemscore.DEInternal>
1.0445

> <Gold.Chemscore.Rot>
1.0000

> <Gold.Chemscore.Internal.Correction>
   9.000000E+99

> <Gold.Chemscore.Hbonds>
donor molecule, donor type, donor heavy atom, donor atom, acceptor molecule, acceptor atom, score
      L1  H     3    16       P1  8028  0.08
      L1  H     5    20       P1  8028  0.84
      P1  H  7989  7998       L1     1  0.24
      P1  H  8011  8017       L1    15  0.49

> <Gold.Chemscore.Hbond.Weighted>
-7.3214

> <Gold.Chemscore.Metal.Weighted>
-0.0000

> <Gold.Chemscore.Lipo.Weighted>
-7.9481

> <Gold.Chemscore.Internal_Hbond.Weighted>
0.0000

> <Gold.Chemscore.DEClash.Weighted>
0.1576

> <Gold.Chemscore.DEInternal.Weighted>
1.0445

> <Gold.Chemscore.Rot.Weighted>
2.5600

> <Gold.Chemscore.Internal.Correction.Weighted>
   9.000000E+99

> <Gold.Protein.RotatedTorsions>
[ 6907 6896 6895 6894 ] final   80.72 input  -60.11 | X-H torsion
[ 7974 7965 7964 7962 ] final   39.17 input  175.53 | X-H torsion
[ 8008 7997 7996 7995 ] final   50.97 input   59.86 | X-H torsion
[ 10167 10162 10161 10158 ] final   80.69 input  -65.29 | X-H torsion
[ 10718 10713 10712 10709 ] final   31.87 input   66.30 | X-H torsion
[ 10763 10752 10751 10750 ] final  122.89 input  -60.55 | X-H torsion
[ 11005 11000 10999 10996 ] final  137.45 input  -57.11 | X-H torsion

> <Gold.Protein.ActiveResidues>
 VAL166  LYS551  ARG553  GLY616  TRP617  ASP618  TYR619  PRO620  LYS621  CYS622 
 ASP623  PHE694  ASN695  SER759  ASP760  ASP761  ALA762  ILE779  LEU786  VAL792 
 PHE793  MET794  SER795  GLU796  ALA797  LYS798  CYS799  TRP800  GLU811  SER814 

> <Gold.Protein.RotatedAtoms>
  152.5244  134.3315  159.9184 H   0  0  0  0  0  0  0  0  0  0  0  0  # atno 6907 bound_to 6896
  151.3264  133.4012  159.2666 H   0  0  0  0  0  0  0  0  0  0  0  0  # atno 6908 bound_to 6896
  150.9916  134.9267  159.7960 H   0  0  0  0  0  0  0  0  0  0  0  0  # atno 6909 bound_to 6896
  146.1005  139.5684  142.9417 H   0  0  0  0  0  0  0  0  0  0  0  0  # atno 7974 bound_to 7965
  155.4276  140.3449  155.4277 H   0  0  0  0  0  0  0  0  0  0  0  0  # atno 8008 bound_to 7997
  156.1356  140.1527  156.9031 H   0  0  0  0  0  0  0  0  0  0  0  0  # atno 8009 bound_to 7997
  154.4929  140.0836  156.7614 H   0  0  0  0  0  0  0  0  0  0  0  0  # atno 8010 bound_to 7997
  139.9472  144.6051  150.8196 H   0  0  0  0  0  0  0  0  0  0  0  0  # atno 10167 bound_to 10162
  157.2780  130.7241  149.6541 H   0  0  0  0  0  0  0  0  0  0  0  0  # atno 10718 bound_to 10713
  153.6369  135.3386  155.3059 H   0  0  0  0  0  0  0  0  0  0  0  0  # atno 10763 bound_to 10752
  154.8568  135.4309  154.2046 H   0  0  0  0  0  0  0  0  0  0  0  0  # atno 10764 bound_to 10752
  153.2955  135.7020  153.7326 H   0  0  0  0  0  0  0  0  0  0  0  0  # atno 10765 bound_to 10752
  140.0115  134.9437  157.0287 H   0  0  0  0  0  0  0  0  0  0  0  0  # atno 11005 bound_to 11000
  145.5863  141.0376  143.2095 LP  0  0  0  0  0  0  0  0  0  0  0  0  # atno 17320 bound_to 7965
  144.7429  139.7399  143.7303 LP  0  0  0  0  0  0  0  0  0  0  0  0  # atno 17321 bound_to 7965
  140.7594  143.3127  151.2806 LP  0  0  0  0  0  0  0  0  0  0  0  0  # atno 17342 bound_to 10162
  139.6657  144.0109  152.2721 LP  0  0  0  0  0  0  0  0  0  0  0  0  # atno 17343 bound_to 10162
  155.9664  130.4347  150.5059 LP  0  0  0  0  0  0  0  0  0  0  0  0  # atno 17370 bound_to 10713
  157.2997  131.0643  151.2076 LP  0  0  0  0  0  0  0  0  0  0  0  0  # atno 17371 bound_to 10713
  140.4546  134.1546  155.7185 LP  0  0  0  0  0  0  0  0  0  0  0  0  # atno 17394 bound_to 11000
  141.1714  133.8601  157.1559 LP  0  0  0  0  0  0  0  0  0  0  0  0  # atno 17395 bound_to 11000

$$$$
