AV-unprocessed.smi:72|AV-procd|sdf|697|dock10
  -GOLD-   2262017 13D 1   1.00000     0.00000
 Structure written by MMmdl.
 30 31  0  0  0  0  0  0  0  0  2 V2000
  141.0590  136.4487  155.3296 N   0  0  0  0  0  0  0  0  0  0  0  0
  142.1006  136.1930  154.4623 C   0  0  0  0  0  0  0  0  0  0  0  0
  142.2963  134.8841  154.0610 N   0  3  0  0  0  0  0  0  0  0  0  0
  143.2648  134.4662  153.2347 C   0  0  0  0  0  0  0  0  0  0  0  0
  144.1293  135.3452  152.7637 N   0  0  0  0  0  0  0  0  0  0  0  0
  145.2421  134.9495  151.8203 C   0  0  2  0  0  0  0  0  0  0  0  0
  144.6643  134.5133  150.6291 O   0  0  0  0  0  0  0  0  0  0  0  0
  144.5143  133.0981  150.6703 C   0  0  1  0  0  0  0  0  0  0  0  0
  144.2267  132.5243  149.2726 C   0  0  0  0  0  0  0  0  0  0  0  0
  142.8803  132.1056  149.1987 O   0  0  0  0  0  0  0  0  0  0  0  0
  145.8374  132.6702  151.3124 C   0  0  1  0  0  0  0  0  0  0  0  0
  146.8726  132.6489  150.3431 O   0  0  0  0  0  0  0  0  0  0  0  0
  146.0448  133.7504  152.3755 C   0  0  1  0  0  0  0  0  0  0  0  0
  147.4117  134.0431  152.5985 O   0  0  0  0  0  0  0  0  0  0  0  0
  143.9801  136.7195  153.0850 C   0  0  0  0  0  0  0  0  0  0  0  0
  144.7461  137.5560  152.6079 O   0  0  0  0  0  0  0  0  0  0  0  0
  142.9378  137.0576  153.9600 N   0  0  0  0  0  0  0  0  0  0  0  0
  145.8217  135.8595  151.6547 H   0  0  0  0  0  0  0  0  0  0  0  0
  143.7047  132.8352  151.3542 H   0  0  0  0  0  0  0  0  0  0  0  0
  145.7689  131.6771  151.7577 H   0  0  0  0  0  0  0  0  0  0  0  0
  145.6002  133.4144  153.3135 H   0  0  0  0  0  0  0  0  0  0  0  0
  140.8388  137.3735  155.6714 H   0  0  0  0  0  0  0  0  0  0  0  0
  140.4380  135.7394  155.6920 H   0  0  0  0  0  0  0  0  0  0  0  0
  143.3037  133.4174  152.9715 H   0  0  0  0  0  0  0  0  0  0  0  0
  144.4402  133.2518  148.4889 H   0  0  0  0  0  0  0  0  0  0  0  0
  144.8531  131.6511  149.0881 H   0  0  0  0  0  0  0  0  0  0  0  0
  142.3249  132.8616  149.3157 H   0  0  0  0  0  0  0  0  0  0  0  0
  147.3576  131.8437  150.4447 H   0  0  0  0  0  0  0  0  0  0  0  0
  147.5633  134.9534  152.3929 H   0  0  0  0  0  0  0  0  0  0  0  0
  141.6536  134.1911  154.4174 H   0  0  0  0  0  0  0  0  0  0  0  0
  1  2  1  0  0  0  0
  1 22  1  0  0  0  0
  1 23  1  0  0  0  0
  2 17  2  0  0  0  0
  2  3  1  0  0  0  0
  3  4  2  0  0  0  0
  3 30  1  0  0  0  0
  4  5  1  0  0  0  0
  4 24  1  0  0  0  0
  5  6  1  0  0  0  0
  5 15  1  0  0  0  0
  6 18  1  0  0  0  0
  6 13  1  0  0  0  0
  6  7  1  0  0  0  0
  7  8  1  0  0  0  0
  8 19  1  0  0  0  0
  8  9  1  0  0  0  0
  8 11  1  0  0  0  0
  9 10  1  0  0  0  0
  9 25  1  0  0  0  0
  9 26  1  0  0  0  0
 10 27  1  0  0  0  0
 11 20  1  0  0  0  0
 11 12  1  0  0  0  0
 11 13  1  0  0  0  0
 12 28  1  0  0  0  0
 13 21  1  0  0  0  0
 13 14  1  0  0  0  0
 14 29  1  0  0  0  0
 15 16  2  0  0  0  0
 15 17  1  0  0  0  0
M  CHG  1   3   1
M  END
> <s_m_source_file>
AV-unprocessed.smi

> <i_m_source_file_index>
72

> <i_lp_mmshare_version>
43012

> <i_f3d_flags>
0

> <s_epik_input>
W05IMl1jMW5bY0hdbihjKD1PKW4xKVtDQEBIXTJPW0NASF0oW0NIMl1bT0hdKVtDQEBIXShbT0hdKVtDQEhdMltPSF0=

> <s_epik_cmdline>
J2VwaWtfcHl0aG9uJywgJy1waCcsICc3LjAnLCAnLXRuJywgJzgnLCAnLW1hJywgJzIwMCcsICctbWV0YWxfYmluZGluZycsICctaW1hZScsICc8aW5maWxlLm1hZT4nLCAnLW9tYWUnLCAnPG91dGZpbGUubWFlPic=

> <r_lp_tautomer_probability>
4.77166e-05

> <r_epik_Ionization_Penalty>
0.104979

> <r_epik_Ionization_Penalty_Charging>
0.0999619

> <r_epik_Ionization_Penalty_Neutral>
0.00501745

> <r_epik_State_Penalty>
2.51541

> <r_epik_Charging_Adjusted_Penalty>
2.61537

> <i_epik_Tot_Q>
1

> <i_epik_Tot_abs_Q>
1

> <r_epik_Metal_State_Penalty>
3.53763

> <b_epik_Metal_Only>
0

> <s_epik_Chemistry_Notes>
This compound contains an acetal/aminal-like group ( X-CH(R)-Y where X, Y are N, S, or O) that may be acid/base labile, releasing an aldehyde.

> <s_lp_Force_Field>
OPLS_2005

> <r_lp_Energy>
33.8759

> <b_lp_Chiralities_Consistent>
1

> <s_lp_Variant>
AV-unprocessed.smi:72-35

> <Gold.Version>
5.8.1

> <Gold.Id.Protein>
6NUR|6NUR_protein|mol2

> <Gold.PLP.Fitness>
41.5307

> <Gold.PLP.PLP>
-27.0850

> <Gold.PLP.part.hbond>
-6.3275

> <Gold.PLP.part.metal>
0.0000

> <Gold.PLP.part.buried>
-7.5790

> <Gold.PLP.part.nonpolar>
-15.0541

> <Gold.PLP.part.repulsive>
1.3100

> <Gold.PLP.ligand.clash>
0.0000

> <Gold.PLP.ligand.torsion>
0.8034

> <Gold.PLP.Chemscore.Hbond>
4.6140

> <Gold.PLP.Chemscore.CHOScore>
0.7260

> <Gold.PLP.Chemscore.Metal>
0.0000

> <Gold.Chemscore.Hbonds>
donor molecule, donor type, donor heavy atom, donor atom, acceptor molecule, acceptor atom, score
      L1  H     1    23       P1 11000  0.91
      L1  H    10    27       P1 10186  0.96
      L1  H    12    28       P1 10747  0.99
      L1  H    14    29       P1  7948  0.83
      P1  H 10785 10796       L1    10  0.93
      L1  C     4    24       P1 10957  0.75

> <Gold.PLP.Chemscore.Internal.Correction>
0.0326

> <Gold.Rescore>
     Score         DG    S(hbond)    S(metal)    S(lipo)     H(rot)  DE(clash)    DE(int)     intcor
     11.05     -11.98       4.03        0.00      29.79       4.08       0.13       0.80       ----

> <Gold.Chemscore.Fitness>
11.0512

> <Gold.Chemscore.DG>
-11.9800

> <Gold.Chemscore.ZeroCoef>
-5.4800

> <Gold.Chemscore.Hbond>
4.0284

> <Gold.Chemscore.Metal>
0.0000

> <Gold.Chemscore.Lipo>
29.7903

> <Gold.Chemscore.Internal_Hbond>
0.0000

> <Gold.Chemscore.DEClash>
0.1321

> <Gold.Chemscore.DEInternal>
0.7967

> <Gold.Chemscore.Rot>
4.0783

> <Gold.Chemscore.Internal.Correction>
   9.000000E+99

> <Gold.Chemscore.Hbonds>
donor molecule, donor type, donor heavy atom, donor atom, acceptor molecule, acceptor atom, score
      L1  H     1    23       P1 11000  0.67
      L1  H    10    27       P1 10186  0.91
      L1  H    12    28       P1 10747  0.94
      L1  H    14    29       P1  7948  0.79
      P1  H 10785 10796       L1    10  0.20

> <Gold.Chemscore.Hbond.Weighted>
-13.4549

> <Gold.Chemscore.Metal.Weighted>
-0.0000

> <Gold.Chemscore.Lipo.Weighted>
-3.4855

> <Gold.Chemscore.Internal_Hbond.Weighted>
0.0000

> <Gold.Chemscore.DEClash.Weighted>
0.1321

> <Gold.Chemscore.DEInternal.Weighted>
0.7967

> <Gold.Chemscore.Rot.Weighted>
10.4404

> <Gold.Chemscore.Internal.Correction.Weighted>
   9.000000E+99

> <Gold.Protein.RotatedTorsions>
[ 6907 6896 6895 6894 ] final   96.84 input  -60.11 | X-H torsion
[ 7974 7965 7964 7962 ] final  -29.07 input  175.53 | X-H torsion
[ 8008 7997 7996 7995 ] final  -68.88 input   59.86 | X-H torsion
[ 10167 10162 10161 10158 ] final  -51.31 input  -65.29 | X-H torsion
[ 10718 10713 10712 10709 ] final  -41.15 input   66.30 | X-H torsion
[ 10763 10752 10751 10750 ] final   57.36 input  -60.55 | X-H torsion
[ 11005 11000 10999 10996 ] final  -78.67 input  -57.11 | X-H torsion

> <Gold.Protein.ActiveResidues>
 VAL166  LYS551  ARG553  GLY616  TRP617  ASP618  TYR619  PRO620  LYS621  CYS622 
 ASP623  PHE694  ASN695  SER759  ASP760  ASP761  ALA762  ILE779  LEU786  VAL792 
 PHE793  MET794  SER795  GLU796  ALA797  LYS798  CYS799  TRP800  GLU811  SER814 

> <Gold.Protein.RotatedAtoms>
  152.5430  134.0825  159.8241 H   0  0  0  0  0  0  0  0  0  0  0  0  # atno 6907 bound_to 6896
  151.0925  133.5298  159.2621 H   0  0  0  0  0  0  0  0  0  0  0  0  # atno 6908 bound_to 6896
  151.2084  135.0480  159.8955 H   0  0  0  0  0  0  0  0  0  0  0  0  # atno 6909 bound_to 6896
  146.1243  140.5365  142.8722 H   0  0  0  0  0  0  0  0  0  0  0  0  # atno 7974 bound_to 7965
  154.4899  140.0864  156.7570 H   0  0  0  0  0  0  0  0  0  0  0  0  # atno 8008 bound_to 7997
  155.4258  140.3447  155.4257 H   0  0  0  0  0  0  0  0  0  0  0  0  # atno 8009 bound_to 7997
  156.1314  140.1502  156.9047 H   0  0  0  0  0  0  0  0  0  0  0  0  # atno 8010 bound_to 7997
  140.6594  143.2624  151.4485 H   0  0  0  0  0  0  0  0  0  0  0  0  # atno 10167 bound_to 10162
  156.2736  130.4209  149.8412 H   0  0  0  0  0  0  0  0  0  0  0  0  # atno 10718 bound_to 10713
  152.9848  135.5644  154.5378 H   0  0  0  0  0  0  0  0  0  0  0  0  # atno 10763 bound_to 10752
  154.4838  135.2790  155.1552 H   0  0  0  0  0  0  0  0  0  0  0  0  # atno 10764 bound_to 10752
  154.3050  135.6300  153.5494 H   0  0  0  0  0  0  0  0  0  0  0  0  # atno 10765 bound_to 10752
  141.1665  133.7073  156.8006 H   0  0  0  0  0  0  0  0  0  0  0  0  # atno 11005 bound_to 11000
  144.7627  140.5458  143.6725 LP  0  0  0  0  0  0  0  0  0  0  0  0  # atno 17320 bound_to 7965
  145.5400  139.1475  143.3452 LP  0  0  0  0  0  0  0  0  0  0  0  0  # atno 17321 bound_to 7965
  139.5825  144.1679  152.1986 LP  0  0  0  0  0  0  0  0  0  0  0  0  # atno 17342 bound_to 10162
  140.1008  144.5541  150.6990 LP  0  0  0  0  0  0  0  0  0  0  0  0  # atno 17343 bound_to 10162
  156.5885  130.8496  151.3402 LP  0  0  0  0  0  0  0  0  0  0  0  0  # atno 17370 bound_to 10713
  157.7292  130.9667  150.1775 LP  0  0  0  0  0  0  0  0  0  0  0  0  # atno 17371 bound_to 10713
  140.2259  134.8722  157.3426 LP  0  0  0  0  0  0  0  0  0  0  0  0  # atno 17394 bound_to 11000
  140.1940  134.4336  155.7699 LP  0  0  0  0  0  0  0  0  0  0  0  0  # atno 17395 bound_to 11000

$$$$
