AV-unprocessed.smi:2504|AV-procd|sdf|9852|dock2
  -GOLD-   2272013483D 1   1.00000     0.00000
 Structure written by MMmdl.
 46 48  0  0  0  0  0  0  0  0  3 V2000
  150.0958  142.8295  158.3258 O   0  0  0  0  0  0  0  0  0  0  0  0
  151.2409  142.4111  158.1520 C   0  0  0  0  0  0  0  0  0  0  0  0
  152.4365  143.0618  158.8789 C   0  0  0  0  0  0  0  0  0  0  0  0
  152.2243  143.1157  160.3988 C   0  0  0  0  0  0  0  0  0  0  0  0
  151.4789  144.4266  160.6564 C   0  0  0  0  0  0  0  0  0  0  0  0
  151.9585  145.3927  159.5673 C   0  0  0  0  0  0  0  0  0  0  0  0
  152.6374  144.5374  158.4850 C   0  0  0  0  0  0  0  0  0  0  0  0
  151.4916  141.2875  157.3605 N   0  0  0  0  0  0  0  0  0  0  0  0
  150.4659  140.2865  157.0978 C   0  0  0  0  0  0  0  0  0  0  0  0
  151.6159  139.2698  157.0441 C   0  0  0  0  0  0  0  0  0  0  0  0
  152.1236  138.7085  155.3445 S   0  0  0  0  0  0  0  0  0  0  0  0
  151.2194  139.4108  154.4184 O   0  0  0  0  0  0  0  0  0  0  0  0
  153.5613  139.0004  155.2329 O   0  0  0  0  0  0  0  0  0  0  0  0
  151.8340  137.1140  155.4024 N   0  5  0  0  0  0  0  0  0  0  0  0
  150.5064  136.5982  155.1241 C   0  0  0  0  0  0  0  0  0  0  0  0
  150.5140  135.0591  155.2542 C   0  0  0  0  0  0  0  0  0  0  0  0
  149.3245  134.3666  154.5938 C   0  0  0  0  0  0  0  0  0  0  0  0
  149.5195  133.2325  153.7704 C   0  0  0  0  0  0  0  0  0  0  0  0
  148.4050  132.6011  153.1818 C   0  0  0  0  0  0  0  0  0  0  0  0
  147.1165  133.1165  153.4265 C   0  0  0  0  0  0  0  0  0  0  0  0
  146.9659  134.2054  154.2117 N   0  3  0  0  0  0  0  0  0  0  0  0
  148.0077  134.8411  154.7911 C   0  0  0  0  0  0  0  0  0  0  0  0
  152.5439  140.3257  157.6594 C   0  0  0  0  0  0  0  0  0  0  0  0
  153.3406  142.5004  158.6402 H   0  0  0  0  0  0  0  0  0  0  0  0
  151.6779  142.2569  160.7914 H   0  0  0  0  0  0  0  0  0  0  0  0
  153.1931  143.1385  160.8994 H   0  0  0  0  0  0  0  0  0  0  0  0
  150.4055  144.2630  160.5523 H   0  0  0  0  0  0  0  0  0  0  0  0
  151.6530  144.8116  161.6615 H   0  0  0  0  0  0  0  0  0  0  0  0
  151.1225  145.9617  159.1599 H   0  0  0  0  0  0  0  0  0  0  0  0
  152.6700  146.1104  159.9772 H   0  0  0  0  0  0  0  0  0  0  0  0
  153.7040  144.7640  158.4591 H   0  0  0  0  0  0  0  0  0  0  0  0
  152.2473  144.7670  157.4921 H   0  0  0  0  0  0  0  0  0  0  0  0
  149.7946  140.1215  157.9424 H   0  0  0  0  0  0  0  0  0  0  0  0
  149.9257  140.4370  156.1628 H   0  0  0  0  0  0  0  0  0  0  0  0
  151.4643  138.4073  157.6932 H   0  0  0  0  0  0  0  0  0  0  0  0
  149.7621  136.9994  155.8126 H   0  0  0  0  0  0  0  0  0  0  0  0
  150.1697  136.8713  154.1241 H   0  0  0  0  0  0  0  0  0  0  0  0
  151.4304  134.6660  154.8131 H   0  0  0  0  0  0  0  0  0  0  0  0
  150.5479  134.7788  156.3082 H   0  0  0  0  0  0  0  0  0  0  0  0
  150.5130  132.8415  153.6032 H   0  0  0  0  0  0  0  0  0  0  0  0
  148.5382  131.7321  152.5551 H   0  0  0  0  0  0  0  0  0  0  0  0
  146.2090  132.6937  153.0208 H   0  0  0  0  0  0  0  0  0  0  0  0
  147.7586  135.6966  155.4018 H   0  0  0  0  0  0  0  0  0  0  0  0
  153.4693  140.5058  157.1111 H   0  0  0  0  0  0  0  0  0  0  0  0
  152.7111  140.1701  158.7259 H   0  0  0  0  0  0  0  0  0  0  0  0
  146.0246  134.5621  154.3771 H   0  0  0  0  0  0  0  0  0  0  0  0
  1  2  2  0  0  0  0
  2  3  1  0  0  0  0
  2  8  1  0  0  0  0
  3  7  1  0  0  0  0
  3  4  1  0  0  0  0
  3 24  1  0  0  0  0
  4  5  1  0  0  0  0
  4 25  1  0  0  0  0
  4 26  1  0  0  0  0
  5  6  1  0  0  0  0
  5 27  1  0  0  0  0
  5 28  1  0  0  0  0
  6  7  1  0  0  0  0
  6 29  1  0  0  0  0
  6 30  1  0  0  0  0
  7 31  1  0  0  0  0
  7 32  1  0  0  0  0
  8 23  1  0  0  0  0
  8  9  1  0  0  0  0
  9 10  1  0  0  0  0
  9 33  1  0  0  0  0
  9 34  1  0  0  0  0
 10 11  1  0  0  0  0
 10 23  1  0  0  0  0
 10 35  1  0  0  0  0
 11 12  2  0  0  0  0
 11 13  2  0  0  0  0
 11 14  1  0  0  0  0
 14 15  1  0  0  0  0
 15 16  1  0  0  0  0
 15 36  1  0  0  0  0
 15 37  1  0  0  0  0
 16 17  1  0  0  0  0
 16 38  1  0  0  0  0
 16 39  1  0  0  0  0
 17 22  1  0  0  0  0
 17 18  2  0  0  0  0
 18 19  1  0  0  0  0
 18 40  1  0  0  0  0
 19 20  2  0  0  0  0
 19 41  1  0  0  0  0
 20 21  1  0  0  0  0
 20 42  1  0  0  0  0
 21 22  2  0  0  0  0
 21 46  1  0  0  0  0
 22 43  1  0  0  0  0
 23 44  1  0  0  0  0
 23 45  1  0  0  0  0
M  CHG  1  14  -1
M  CHG  1  21   1
M  END
> <s_m_source_file>
AV-unprocessed.smi

> <i_m_source_file_index>
2504

> <i_lp_mmshare_version>
43012

> <i_f3d_flags>
0

> <s_epik_input>
W0NIMl0xW0NIMl1bQ0gyXVtDSDJdW0NIXTFDKD1PKU4yW0NIMl1bQ0hdKFtDSDJdMilTKD1PKSg9TylbTkhdW0NIMl1bQ0gyXWMzW2NIXVtjSF1bY0hdbltjSF0z

> <s_epik_cmdline>
J2VwaWtfcHl0aG9uJywgJy1waCcsICc3LjAnLCAnLXRuJywgJzgnLCAnLW1hJywgJzIwMCcsICctbWV0YWxfYmluZGluZycsICctaW1hZScsICc8aW5maWxlLm1hZT4nLCAnLW9tYWUnLCAnPG91dGZpbGUubWFlPic=

> <r_epik_Ionization_Penalty>
7.23206

> <r_epik_Ionization_Penalty_Charging>
7.23206

> <r_epik_Ionization_Penalty_Neutral>
2.37876e-07

> <r_epik_State_Penalty>
7.91796

> <r_epik_Charging_Adjusted_Penalty>
15.15

> <i_epik_Tot_Q>
0

> <i_epik_Tot_abs_Q>
2

> <r_epik_Metal_State_Penalty>
3.92928

> <b_epik_Metal_Only>
1

> <s_lp_Force_Field>
OPLS_2005

> <r_lp_Energy>
37.1942

> <b_lp_Chiralities_Consistent>
1

> <s_lp_Variant>
AV-unprocessed.smi:2504-4

> <Gold.Version>
5.8.1

> <Gold.Id.Protein>
6NUR|6NUR_protein|mol2

> <Gold.PLP.Fitness>
58.6433

> <Gold.PLP.PLP>
-47.3404

> <Gold.PLP.part.hbond>
-3.0000

> <Gold.PLP.part.metal>
0.0000

> <Gold.PLP.part.buried>
-4.8980

> <Gold.PLP.part.nonpolar>
-39.7174

> <Gold.PLP.part.repulsive>
0.3230

> <Gold.PLP.ligand.clash>
0.0000

> <Gold.PLP.ligand.torsion>
1.5296

> <Gold.PLP.Chemscore.Hbond>
3.9920

> <Gold.PLP.Chemscore.CHOScore>
0.0000

> <Gold.PLP.Chemscore.Metal>
0.0000

> <Gold.Chemscore.Hbonds>
donor molecule, donor type, donor heavy atom, donor atom, acceptor molecule, acceptor atom, score
      P1  H  7989  7998       L1    12  1.00
      P1  H  7997  8010       L1    13  0.99
      P1  H 10752 10765       L1    14  2.00

> <Gold.PLP.Chemscore.Internal.Correction>
2.3860

> <Gold.Rescore>
     Score         DG    S(hbond)    S(metal)    S(lipo)     H(rot)  DE(clash)    DE(int)     intcor
     21.06     -22.87       2.59        0.00     112.23       1.72       0.13       1.68       ----

> <Gold.Chemscore.Fitness>
21.0633

> <Gold.Chemscore.DG>
-22.8734

> <Gold.Chemscore.ZeroCoef>
-5.4800

> <Gold.Chemscore.Hbond>
2.5914

> <Gold.Chemscore.Metal>
0.0000

> <Gold.Chemscore.Lipo>
112.2270

> <Gold.Chemscore.Internal_Hbond>
0.0000

> <Gold.Chemscore.DEClash>
0.1265

> <Gold.Chemscore.DEInternal>
1.6836

> <Gold.Chemscore.Rot>
1.7158

> <Gold.Chemscore.Internal.Correction>
   9.000000E+99

> <Gold.Chemscore.Hbonds>
donor molecule, donor type, donor heavy atom, donor atom, acceptor molecule, acceptor atom, score
      P1  H  7989  7998       L1    12  1.00
      P1  H  7997  8010       L1    13  0.93
      P1  H 10752 10765       L1    14  0.23

> <Gold.Chemscore.Hbond.Weighted>
-8.6552

> <Gold.Chemscore.Metal.Weighted>
-0.0000

> <Gold.Chemscore.Lipo.Weighted>
-13.1306

> <Gold.Chemscore.Internal_Hbond.Weighted>
0.0000

> <Gold.Chemscore.DEClash.Weighted>
0.1265

> <Gold.Chemscore.DEInternal.Weighted>
1.6836

> <Gold.Chemscore.Rot.Weighted>
4.3924

> <Gold.Chemscore.Internal.Correction.Weighted>
   9.000000E+99

> <Gold.Protein.RotatedTorsions>
[ 6907 6896 6895 6894 ] final  -79.36 input  -60.11 | X-H torsion
[ 7974 7965 7964 7962 ] final  -22.44 input  175.53 | X-H torsion
[ 8008 7997 7996 7995 ] final   94.57 input   59.86 | X-H torsion
[ 10167 10162 10161 10158 ] final  -59.63 input  -65.29 | X-H torsion
[ 10718 10713 10712 10709 ] final -165.04 input   66.30 | X-H torsion
[ 10763 10752 10751 10750 ] final -177.02 input  -60.55 | X-H torsion
[ 11005 11000 10999 10996 ] final -176.74 input  -57.11 | X-H torsion

> <Gold.Protein.ActiveResidues>
 VAL166  LYS551  ARG553  GLY616  TRP617  ASP618  TYR619  PRO620  LYS621  CYS622 
 ASP623  PHE694  ASN695  SER759  ASP760  ASP761  ALA762  ILE779  LEU786  VAL792 
 PHE793  MET794  SER795  GLU796  ALA797  LYS798  CYS799  TRP800  GLU811  SER814 

> <Gold.Protein.RotatedAtoms>
  150.6951  134.4133  159.5171 H   0  0  0  0  0  0  0  0  0  0  0  0  # atno 6907 bound_to 6896
  152.1888  134.8687  160.0528 H   0  0  0  0  0  0  0  0  0  0  0  0  # atno 6908 bound_to 6896
  151.9650  133.3672  159.4086 H   0  0  0  0  0  0  0  0  0  0  0  0  # atno 6909 bound_to 6896
  146.1675  140.4479  142.8546 H   0  0  0  0  0  0  0  0  0  0  0  0  # atno 7974 bound_to 7965
  156.0594  140.3298  155.7443 H   0  0  0  0  0  0  0  0  0  0  0  0  # atno 8008 bound_to 7997
  155.5479  140.0607  157.2874 H   0  0  0  0  0  0  0  0  0  0  0  0  # atno 8009 bound_to 7997
  154.4474  140.1899  156.0645 H   0  0  0  0  0  0  0  0  0  0  0  0  # atno 8010 bound_to 7997
  140.6123  143.2391  151.5680 H   0  0  0  0  0  0  0  0  0  0  0  0  # atno 10167 bound_to 10162
  156.6476  130.8994  151.3007 H   0  0  0  0  0  0  0  0  0  0  0  0  # atno 10718 bound_to 10713
  154.5653  135.2823  155.0880 H   0  0  0  0  0  0  0  0  0  0  0  0  # atno 10763 bound_to 10752
  154.2273  135.6380  153.5167 H   0  0  0  0  0  0  0  0  0  0  0  0  # atno 10764 bound_to 10752
  153.0041  135.5529  154.6260 H   0  0  0  0  0  0  0  0  0  0  0  0  # atno 10765 bound_to 10752
  140.4487  134.6363  157.4791 H   0  0  0  0  0  0  0  0  0  0  0  0  # atno 11005 bound_to 11000
  144.8114  140.6392  143.6413 LP  0  0  0  0  0  0  0  0  0  0  0  0  # atno 17320 bound_to 7965
  145.4428  139.1533  143.3961 LP  0  0  0  0  0  0  0  0  0  0  0  0  # atno 17321 bound_to 7965
  139.5371  144.2751  152.1273 LP  0  0  0  0  0  0  0  0  0  0  0  0  # atno 17342 bound_to 10162
  140.1953  144.4711  150.6458 LP  0  0  0  0  0  0  0  0  0  0  0  0  # atno 17343 bound_to 10162
  157.7151  130.9487  150.1226 LP  0  0  0  0  0  0  0  0  0  0  0  0  # atno 17370 bound_to 10713
  156.2109  130.3666  149.8671 LP  0  0  0  0  0  0  0  0  0  0  0  0  # atno 17371 bound_to 10713
  140.0021  134.6820  155.9513 LP  0  0  0  0  0  0  0  0  0  0  0  0  # atno 17394 bound_to 11000
  141.1673  133.6537  156.4527 LP  0  0  0  0  0  0  0  0  0  0  0  0  # atno 17395 bound_to 11000

$$$$
