AV-unprocessed.smi:1793|AV-procd|sdf|7225|dock4
  -GOLD-   22720 8463D 1   1.00000     0.00000
 Structure written by MMmdl.
 46 48  0  0  0  0  0  0  0  0  1 V2000
  150.2648  136.0865  156.8134 C   0  0  0  0  0  0  0  0  0  0  0  0
  150.8678  136.1792  155.4043 C   0  0  1  0  0  0  0  0  0  0  0  0
  149.9715  135.5154  154.4592 N   0  0  0  0  0  0  0  0  0  0  0  0
  149.5523  134.2440  154.5306 C   0  0  0  0  0  0  0  0  0  0  0  0
  149.8794  133.4632  155.4241 O   0  0  0  0  0  0  0  0  0  0  0  0
  148.7268  133.9526  153.5119 N   0  0  0  0  0  0  0  0  0  0  0  0
  148.0101  132.7449  153.2782 C   0  0  0  0  0  0  0  0  0  0  0  0
  148.4410  131.5114  153.8252 C   0  0  0  0  0  0  0  0  0  0  0  0
  147.7409  130.3342  153.5104 C   0  0  0  0  0  0  0  0  0  0  0  0
  146.6402  130.4281  152.6431 C   0  0  0  0  0  0  0  0  0  0  0  0
  146.2261  131.5913  152.1029 N   0  0  0  0  0  0  0  0  0  0  0  0
  146.8812  132.7388  152.4085 C   0  0  0  0  0  0  0  0  0  0  0  0
  146.3892  133.9277  151.8209 N   0  0  0  0  0  0  0  0  0  0  0  0
  145.4730  133.8696  150.6868 C   0  0  0  0  0  0  0  0  0  0  0  0
  144.8794  135.2717  150.5847 C   0  0  0  0  0  0  0  0  0  0  0  0
  144.7791  135.6898  152.0484 C   0  0  0  0  0  0  0  0  0  0  0  0
  145.9974  135.0265  152.6993 C   0  0  0  0  0  0  0  0  0  0  0  0
  151.1020  137.6399  154.9726 C   0  0  2  0  0  0  0  0  0  0  0  0
  152.0985  138.4142  155.8368 C   0  0  0  0  0  0  0  0  0  0  0  0
  151.6998  139.8651  155.6208 C   0  0  0  0  0  0  0  0  0  0  0  0
  150.2815  139.7810  155.0480 C   0  0  0  0  0  0  0  0  0  0  0  0
  149.9201  138.4089  155.1317 O   0  0  0  0  0  0  0  0  0  0  0  0
  150.9198  136.5486  157.5526 H   0  0  0  0  0  0  0  0  0  0  0  0
  150.1192  135.0471  157.1101 H   0  0  0  0  0  0  0  0  0  0  0  0
  149.2977  136.5876  156.8670 H   0  0  0  0  0  0  0  0  0  0  0  0
  151.8343  135.6727  155.4250 H   0  0  0  0  0  0  0  0  0  0  0  0
  149.6441  136.0748  153.6852 H   0  0  0  0  0  0  0  0  0  0  0  0
  148.4866  134.7204  152.9022 H   0  0  0  0  0  0  0  0  0  0  0  0
  149.3105  131.4447  154.4610 H   0  0  0  0  0  0  0  0  0  0  0  0
  148.0488  129.3809  153.9135 H   0  0  0  0  0  0  0  0  0  0  0  0
  146.0809  129.5457  152.3699 H   0  0  0  0  0  0  0  0  0  0  0  0
  145.9900  133.5804  149.7716 H   0  0  0  0  0  0  0  0  0  0  0  0
  144.6735  133.1510  150.8720 H   0  0  0  0  0  0  0  0  0  0  0  0
  145.5672  135.9321  150.0546 H   0  0  0  0  0  0  0  0  0  0  0  0
  143.9206  135.2910  150.0661 H   0  0  0  0  0  0  0  0  0  0  0  0
  144.7638  136.7716  152.1828 H   0  0  0  0  0  0  0  0  0  0  0  0
  143.8645  135.2838  152.4825 H   0  0  0  0  0  0  0  0  0  0  0  0
  145.7727  134.6857  153.7110 H   0  0  0  0  0  0  0  0  0  0  0  0
  146.8196  135.7402  152.7564 H   0  0  0  0  0  0  0  0  0  0  0  0
  151.4115  137.6827  153.9262 H   0  0  0  0  0  0  0  0  0  0  0  0
  151.9669  138.1517  156.8875 H   0  0  0  0  0  0  0  0  0  0  0  0
  153.1363  138.2151  155.5683 H   0  0  0  0  0  0  0  0  0  0  0  0
  151.7300  140.4252  156.5558 H   0  0  0  0  0  0  0  0  0  0  0  0
  152.3672  140.3570  154.9126 H   0  0  0  0  0  0  0  0  0  0  0  0
  149.5725  140.4030  155.5949 H   0  0  0  0  0  0  0  0  0  0  0  0
  150.2712  140.0924  154.0028 H   0  0  0  0  0  0  0  0  0  0  0  0
  1  2  1  0  0  0  0
  1 23  1  0  0  0  0
  1 24  1  0  0  0  0
  1 25  1  0  0  0  0
  2  3  1  0  0  0  0
  2 18  1  0  0  0  0
  2 26  1  0  0  0  0
  3  4  1  0  0  0  0
  3 27  1  0  0  0  0
  4  5  2  0  0  0  0
  4  6  1  0  0  0  0
  6  7  1  0  0  0  0
  6 28  1  0  0  0  0
  7 12  1  0  0  0  0
  7  8  2  0  0  0  0
  8  9  1  0  0  0  0
  8 29  1  0  0  0  0
  9 10  2  0  0  0  0
  9 30  1  0  0  0  0
 10 11  1  0  0  0  0
 10 31  1  0  0  0  0
 11 12  2  0  0  0  0
 12 13  1  0  0  0  0
 13 17  1  0  0  0  0
 13 14  1  0  0  0  0
 14 15  1  0  0  0  0
 14 32  1  0  0  0  0
 14 33  1  0  0  0  0
 15 16  1  0  0  0  0
 15 34  1  0  0  0  0
 15 35  1  0  0  0  0
 16 17  1  0  0  0  0
 16 36  1  0  0  0  0
 16 37  1  0  0  0  0
 17 38  1  0  0  0  0
 17 39  1  0  0  0  0
 18 22  1  0  0  0  0
 18 19  1  0  0  0  0
 18 40  1  0  0  0  0
 19 20  1  0  0  0  0
 19 41  1  0  0  0  0
 19 42  1  0  0  0  0
 20 21  1  0  0  0  0
 20 43  1  0  0  0  0
 20 44  1  0  0  0  0
 21 22  1  0  0  0  0
 21 45  1  0  0  0  0
 21 46  1  0  0  0  0
M  END
> <s_m_source_file>
AV-unprocessed.smi

> <i_m_source_file_index>
1793

> <i_lp_mmshare_version>
43012

> <i_f3d_flags>
0

> <s_epik_input>
TzFbQ0gyXVtDSDJdW0NIMl1bQ0BIXTFbQ0BIXShbQ0gzXSlbTkhdQyg9TylbTkhdYzJbY0hdW2NIXVtjSF1uYzJOM1tDSDJdW0NIMl1bQ0gyXVtDSDJdMw==

> <s_epik_cmdline>
J2VwaWtfcHl0aG9uJywgJy1waCcsICc3LjAnLCAnLXRuJywgJzgnLCAnLW1hJywgJzIwMCcsICctbWV0YWxfYmluZGluZycsICctaW1hZScsICc8aW5maWxlLm1hZT4nLCAnLW9tYWUnLCAnPG91dGZpbGUubWFlPic=

> <r_lp_tautomer_probability>
1

> <r_epik_Ionization_Penalty>
0.0992086

> <r_epik_Ionization_Penalty_Charging>
0

> <r_epik_Ionization_Penalty_Neutral>
0.0992086

> <r_epik_State_Penalty>
0.0887141

> <r_epik_Charging_Adjusted_Penalty>
0.0887141

> <i_epik_Tot_Q>
0

> <i_epik_Tot_abs_Q>
0

> <r_epik_Metal_State_Penalty>
0.075945

> <b_epik_Metal_Only>
0

> <s_lp_Force_Field>
OPLS_2005

> <r_lp_Energy>
46.0011

> <b_lp_Chiralities_Consistent>
1

> <s_lp_Variant>
AV-unprocessed.smi:1793-2

> <Gold.Version>
5.8.1

> <Gold.Id.Protein>
6NUR|6NUR_protein|mol2

> <Gold.PLP.Fitness>
41.3234

> <Gold.PLP.PLP>
-35.6855

> <Gold.PLP.part.hbond>
-2.6522

> <Gold.PLP.part.metal>
0.0000

> <Gold.PLP.part.buried>
-1.7966

> <Gold.PLP.part.nonpolar>
-31.3790

> <Gold.PLP.part.repulsive>
0.5044

> <Gold.PLP.ligand.clash>
0.0000

> <Gold.PLP.ligand.torsion>
0.3630

> <Gold.PLP.Chemscore.Hbond>
1.9920

> <Gold.PLP.Chemscore.CHOScore>
0.0000

> <Gold.PLP.Chemscore.Metal>
0.0000

> <Gold.Chemscore.Hbonds>
donor molecule, donor type, donor heavy atom, donor atom, acceptor molecule, acceptor atom, score
      L1  H     3    27       P1  7948  1.00
      L1  H     6    28       P1  7948  1.00

> <Gold.PLP.Chemscore.Internal.Correction>
0.3878

> <Gold.Rescore>
     Score         DG    S(hbond)    S(metal)    S(lipo)     H(rot)  DE(clash)    DE(int)     intcor
     12.97     -15.52       1.29        0.00      78.79       1.36       0.08       2.47       ----

> <Gold.Chemscore.Fitness>
12.9722

> <Gold.Chemscore.DG>
-15.5229

> <Gold.Chemscore.ZeroCoef>
-5.4800

> <Gold.Chemscore.Hbond>
1.2877

> <Gold.Chemscore.Metal>
0.0000

> <Gold.Chemscore.Lipo>
78.7944

> <Gold.Chemscore.Internal_Hbond>
0.0000

> <Gold.Chemscore.DEClash>
0.0781

> <Gold.Chemscore.DEInternal>
2.4726

> <Gold.Chemscore.Rot>
1.3582

> <Gold.Chemscore.Internal.Correction>
   9.000000E+99

> <Gold.Chemscore.Hbonds>
donor molecule, donor type, donor heavy atom, donor atom, acceptor molecule, acceptor atom, score
      L1  H     3    27       P1  7948  0.33
      L1  H     6    28       P1  7948  0.38

> <Gold.Chemscore.Hbond.Weighted>
-4.3010

> <Gold.Chemscore.Metal.Weighted>
-0.0000

> <Gold.Chemscore.Lipo.Weighted>
-9.2189

> <Gold.Chemscore.Internal_Hbond.Weighted>
0.0000

> <Gold.Chemscore.DEClash.Weighted>
0.0781

> <Gold.Chemscore.DEInternal.Weighted>
2.4726

> <Gold.Chemscore.Rot.Weighted>
3.4771

> <Gold.Chemscore.Internal.Correction.Weighted>
   9.000000E+99

> <Gold.Protein.RotatedTorsions>
[ 6907 6896 6895 6894 ] final  -25.76 input  -60.11 | X-H torsion
[ 7974 7965 7964 7962 ] final -135.70 input  175.53 | X-H torsion
[ 8008 7997 7996 7995 ] final   75.19 input   59.86 | X-H torsion
[ 10167 10162 10161 10158 ] final -111.82 input  -65.29 | X-H torsion
[ 10718 10713 10712 10709 ] final  -22.92 input   66.30 | X-H torsion
[ 10763 10752 10751 10750 ] final -104.84 input  -60.55 | X-H torsion
[ 11005 11000 10999 10996 ] final  122.21 input  -57.11 | X-H torsion

> <Gold.Protein.ActiveResidues>
 VAL166  LYS551  ARG553  GLY616  TRP617  ASP618  TYR619  PRO620  LYS621  CYS622 
 ASP623  PHE694  ASN695  SER759  ASP760  ASP761  ALA762  ILE779  LEU786  VAL792 
 PHE793  MET794  SER795  GLU796  ALA797  LYS798  CYS799  TRP800  GLU811  SER814 

> <Gold.Protein.RotatedAtoms>
  151.1705  135.0316  159.8749 H   0  0  0  0  0  0  0  0  0  0  0  0  # atno 6907 bound_to 6896
  152.5449  134.1176  159.8395 H   0  0  0  0  0  0  0  0  0  0  0  0  # atno 6908 bound_to 6896
  151.1281  133.5010  159.2632 H   0  0  0  0  0  0  0  0  0  0  0  0  # atno 6909 bound_to 6896
  144.8991  140.6747  143.5096 H   0  0  0  0  0  0  0  0  0  0  0  0  # atno 7974 bound_to 7965
  155.8093  140.3474  155.5448 H   0  0  0  0  0  0  0  0  0  0  0  0  # atno 8008 bound_to 7997
  155.8458  140.0948  157.1726 H   0  0  0  0  0  0  0  0  0  0  0  0  # atno 8009 bound_to 7997
  154.4006  140.1386  156.3771 H   0  0  0  0  0  0  0  0  0  0  0  0  # atno 8010 bound_to 7997
  140.1294  143.4373  152.1637 H   0  0  0  0  0  0  0  0  0  0  0  0  # atno 10167 bound_to 10162
  156.4980  130.4581  149.6717 H   0  0  0  0  0  0  0  0  0  0  0  0  # atno 10718 bound_to 10713
  154.7906  135.4771  154.0043 H   0  0  0  0  0  0  0  0  0  0  0  0  # atno 10763 bound_to 10752
  153.1625  135.6811  153.8729 H   0  0  0  0  0  0  0  0  0  0  0  0  # atno 10764 bound_to 10752
  153.8339  135.3188  155.3399 H   0  0  0  0  0  0  0  0  0  0  0  0  # atno 10765 bound_to 10752
  139.9258  134.9640  156.8075 H   0  0  0  0  0  0  0  0  0  0  0  0  # atno 11005 bound_to 11000
  145.3647  139.1673  143.4364 LP  0  0  0  0  0  0  0  0  0  0  0  0  # atno 17320 bound_to 7965
  146.3098  140.3713  142.8674 LP  0  0  0  0  0  0  0  0  0  0  0  0  # atno 17321 bound_to 7965
  139.5527  144.7350  151.4386 LP  0  0  0  0  0  0  0  0  0  0  0  0  # atno 17342 bound_to 10162
  140.6825  143.8048  150.7141 LP  0  0  0  0  0  0  0  0  0  0  0  0  # atno 17343 bound_to 10162
  156.3361  130.7357  151.2295 LP  0  0  0  0  0  0  0  0  0  0  0  0  # atno 17370 bound_to 10713
  157.7466  131.0416  150.4657 LP  0  0  0  0  0  0  0  0  0  0  0  0  # atno 17371 bound_to 10713
  140.6339  133.9880  155.7675 LP  0  0  0  0  0  0  0  0  0  0  0  0  # atno 17394 bound_to 11000
  141.0815  134.0055  157.3379 LP  0  0  0  0  0  0  0  0  0  0  0  0  # atno 17395 bound_to 11000

$$$$
