AV-unprocessed.smi:3122|AV-procd|sdf|11896|dock10
  -GOLD-   2272017283D 1   1.00000     0.00000
 Structure written by MMmdl.
 30 31  0  0  0  0  0  0  0  0  2 V2000
  152.4949  143.7993  158.4314 C   0  0  0  0  0  0  0  0  0  0  0  0
  152.2493  142.4200  159.0591 C   0  0  0  0  0  0  0  0  0  0  0  0
  153.3295  142.0466  160.0849 C   0  0  0  0  0  0  0  0  0  0  0  0
  152.0824  141.3625  158.0134 C   0  0  0  0  0  0  0  0  0  0  0  0
  152.8043  140.2488  157.8602 N   0  0  0  0  0  0  0  0  0  0  0  0
  152.3215  139.6395  156.7248 N   0  0  0  0  0  0  0  0  0  0  0  0
  151.3751  140.4536  156.2495 C   0  0  0  0  0  0  0  0  0  0  0  0
  150.4952  140.2359  155.0611 C   0  0  2  0  0  0  0  0  0  0  0  0
  149.5089  141.3988  154.8425 C   0  0  0  0  0  0  0  0  0  0  0  0
  148.6039  141.0884  153.7185 N   0  3  0  0  0  0  0  0  0  0  0  0
  147.9153  139.7978  153.9193 C   0  0  0  0  0  0  0  0  0  0  0  0
  148.9439  138.6824  154.1764 C   0  0  0  0  0  0  0  0  0  0  0  0
  149.7650  139.0321  155.2858 O   0  0  0  0  0  0  0  0  0  0  0  0
  151.1737  141.5533  157.0211 O   0  0  0  0  0  0  0  0  0  0  0  0
  151.6803  144.0769  157.7618 H   0  0  0  0  0  0  0  0  0  0  0  0
  153.4199  143.8125  157.8537 H   0  0  0  0  0  0  0  0  0  0  0  0
  152.5701  144.5714  159.1974 H   0  0  0  0  0  0  0  0  0  0  0  0
  151.3051  142.4800  159.6021 H   0  0  0  0  0  0  0  0  0  0  0  0
  153.1014  141.0944  160.5649 H   0  0  0  0  0  0  0  0  0  0  0  0
  153.4040  142.8012  160.8684 H   0  0  0  0  0  0  0  0  0  0  0  0
  154.3101  141.9573  159.6161 H   0  0  0  0  0  0  0  0  0  0  0  0
  151.1335  140.1125  154.1842 H   0  0  0  0  0  0  0  0  0  0  0  0
  148.9146  141.5683  155.7418 H   0  0  0  0  0  0  0  0  0  0  0  0
  150.0439  142.3250  154.6306 H   0  0  0  0  0  0  0  0  0  0  0  0
  147.9183  141.8246  153.6251 H   0  0  0  0  0  0  0  0  0  0  0  0
  147.2330  139.8831  154.7660 H   0  0  0  0  0  0  0  0  0  0  0  0
  147.3118  139.5686  153.0409 H   0  0  0  0  0  0  0  0  0  0  0  0
  148.4343  137.7440  154.3959 H   0  0  0  0  0  0  0  0  0  0  0  0
  149.5613  138.5107  153.2932 H   0  0  0  0  0  0  0  0  0  0  0  0
  149.1478  141.0356  152.8689 H   0  0  0  0  0  0  0  0  0  0  0  0
  1  2  1  0  0  0  0
  1 15  1  0  0  0  0
  1 16  1  0  0  0  0
  1 17  1  0  0  0  0
  2  3  1  0  0  0  0
  2  4  1  0  0  0  0
  2 18  1  0  0  0  0
  3 19  1  0  0  0  0
  3 20  1  0  0  0  0
  3 21  1  0  0  0  0
  4 14  1  0  0  0  0
  4  5  2  0  0  0  0
  5  6  1  0  0  0  0
  6  7  2  0  0  0  0
  7  8  1  0  0  0  0
  7 14  1  0  0  0  0
  8 13  1  0  0  0  0
  8  9  1  0  0  0  0
  8 22  1  0  0  0  0
  9 10  1  0  0  0  0
  9 23  1  0  0  0  0
  9 24  1  0  0  0  0
 10 11  1  0  0  0  0
 10 25  1  0  0  0  0
 10 30  1  0  0  0  0
 11 12  1  0  0  0  0
 11 26  1  0  0  0  0
 11 27  1  0  0  0  0
 12 13  1  0  0  0  0
 12 28  1  0  0  0  0
 12 29  1  0  0  0  0
M  CHG  1  10   1
M  END
> <s_m_source_file>
AV-unprocessed.smi

> <i_m_source_file_index>
3122

> <i_lp_mmshare_version>
43012

> <i_f3d_flags>
0

> <s_epik_input>
W0NIM11bQ0hdKFtDSDNdKWMxbm5jKG8xKVtDQEBIXTJbQ0gyXVtOSF1bQ0gyXVtDSDJdTzI=

> <s_epik_cmdline>
J2VwaWtfcHl0aG9uJywgJy1waCcsICc3LjAnLCAnLXRuJywgJzgnLCAnLW1hJywgJzIwMCcsICctbWV0YWxfYmluZGluZycsICctaW1hZScsICc8aW5maWxlLm1hZT4nLCAnLW9tYWUnLCAnPG91dGZpbGUubWFlPic=

> <r_lp_tautomer_probability>
1

> <r_epik_Ionization_Penalty>
0.0380945

> <r_epik_Ionization_Penalty_Charging>
0.0380945

> <r_epik_Ionization_Penalty_Neutral>
3.26791e-13

> <r_epik_State_Penalty>
0.0319257

> <r_epik_Charging_Adjusted_Penalty>
0.0700202

> <i_epik_Tot_Q>
1

> <i_epik_Tot_abs_Q>
1

> <r_epik_Metal_State_Penalty>
0.0319257

> <b_epik_Metal_Only>
0

> <s_lp_Force_Field>
OPLS_2005

> <r_lp_Energy>
10.6056

> <b_lp_Chiralities_Consistent>
1

> <s_lp_Variant>
AV-unprocessed.smi:3122-1

> <Gold.Version>
5.8.1

> <Gold.Id.Protein>
6NUR|6NUR_protein|mol2

> <Gold.PLP.Fitness>
31.0898

> <Gold.PLP.PLP>
-27.0753

> <Gold.PLP.part.hbond>
-2.8130

> <Gold.PLP.part.metal>
0.0000

> <Gold.PLP.part.buried>
-0.8296

> <Gold.PLP.part.nonpolar>
-23.3310

> <Gold.PLP.part.repulsive>
0.3072

> <Gold.PLP.ligand.clash>
0.0000

> <Gold.PLP.ligand.torsion>
0.0555

> <Gold.PLP.Chemscore.Hbond>
1.3430

> <Gold.PLP.Chemscore.CHOScore>
0.0000

> <Gold.PLP.Chemscore.Metal>
0.0000

> <Gold.Chemscore.Hbonds>
donor molecule, donor type, donor heavy atom, donor atom, acceptor molecule, acceptor atom, score
      L1  H    10    30       P1  7957  0.99
      P1  H  7997  8009       L1     5  0.31

> <Gold.PLP.Chemscore.Internal.Correction>
0.0966

> <Gold.Rescore>
     Score         DG    S(hbond)    S(metal)    S(lipo)     H(rot)  DE(clash)    DE(int)     intcor
     12.66     -12.83       1.00        0.00      61.92       1.26       0.09       0.09       ----

> <Gold.Chemscore.Fitness>
12.6569

> <Gold.Chemscore.DG>
-12.8287

> <Gold.Chemscore.ZeroCoef>
-5.4800

> <Gold.Chemscore.Hbond>
0.9989

> <Gold.Chemscore.Metal>
0.0000

> <Gold.Chemscore.Lipo>
61.9191

> <Gold.Chemscore.Internal_Hbond>
0.0000

> <Gold.Chemscore.DEClash>
0.0858

> <Gold.Chemscore.DEInternal>
0.0861

> <Gold.Chemscore.Rot>
1.2625

> <Gold.Chemscore.Internal.Correction>
   9.000000E+99

> <Gold.Chemscore.Hbonds>
donor molecule, donor type, donor heavy atom, donor atom, acceptor molecule, acceptor atom, score
      L1  H    10    30       P1  7957  0.89
      P1  H  7997  8009       L1     5  0.01

> <Gold.Chemscore.Hbond.Weighted>
-3.3362

> <Gold.Chemscore.Metal.Weighted>
-0.0000

> <Gold.Chemscore.Lipo.Weighted>
-7.2445

> <Gold.Chemscore.Internal_Hbond.Weighted>
0.0000

> <Gold.Chemscore.DEClash.Weighted>
0.0858

> <Gold.Chemscore.DEInternal.Weighted>
0.0861

> <Gold.Chemscore.Rot.Weighted>
3.2320

> <Gold.Chemscore.Internal.Correction.Weighted>
   9.000000E+99

> <Gold.Protein.RotatedTorsions>
[ 6907 6896 6895 6894 ] final  162.74 input  -60.11 | X-H torsion
[ 7974 7965 7964 7962 ] final  -72.21 input  175.53 | X-H torsion
[ 8008 7997 7996 7995 ] final  144.15 input   59.86 | X-H torsion
[ 10167 10162 10161 10158 ] final -102.24 input  -65.29 | X-H torsion
[ 10718 10713 10712 10709 ] final   37.10 input   66.30 | X-H torsion
[ 10763 10752 10751 10750 ] final -135.45 input  -60.55 | X-H torsion
[ 11005 11000 10999 10996 ] final   51.18 input  -57.11 | X-H torsion

> <Gold.Protein.ActiveResidues>
 VAL166  LYS551  ARG553  GLY616  TRP617  ASP618  TYR619  PRO620  LYS621  CYS622 
 ASP623  PHE694  ASN695  SER759  ASP760  ASP761  ALA762  ILE779  LEU786  VAL792 
 PHE793  MET794  SER795  GLU796  ALA797  LYS798  CYS799  TRP800  GLU811  SER814 

> <Gold.Protein.RotatedAtoms>
  151.9358  133.3624  159.3946 H   0  0  0  0  0  0  0  0  0  0  0  0  # atno 6907 bound_to 6896
  150.7008  134.4490  159.5337 H   0  0  0  0  0  0  0  0  0  0  0  0  # atno 6908 bound_to 6896
  152.2139  134.8476  160.0545 H   0  0  0  0  0  0  0  0  0  0  0  0  # atno 6909 bound_to 6896
  145.6681  140.9230  143.0898 H   0  0  0  0  0  0  0  0  0  0  0  0  # atno 7974 bound_to 7965
  156.2914  140.2243  156.5006 H   0  0  0  0  0  0  0  0  0  0  0  0  # atno 8008 bound_to 7997
  154.7693  140.0468  157.1059 H   0  0  0  0  0  0  0  0  0  0  0  0  # atno 8009 bound_to 7997
  154.9894  140.3088  155.4916 H   0  0  0  0  0  0  0  0  0  0  0  0  # atno 8010 bound_to 7997
  140.2328  143.3595  152.0872 H   0  0  0  0  0  0  0  0  0  0  0  0  # atno 10167 bound_to 10162
  157.3429  130.7557  149.6924 H   0  0  0  0  0  0  0  0  0  0  0  0  # atno 10718 bound_to 10713
  154.8702  135.3703  154.4901 H   0  0  0  0  0  0  0  0  0  0  0  0  # atno 10763 bound_to 10752
  153.5548  135.7024  153.5579 H   0  0  0  0  0  0  0  0  0  0  0  0  # atno 10764 bound_to 10752
  153.3682  135.4028  155.1732 H   0  0  0  0  0  0  0  0  0  0  0  0  # atno 10765 bound_to 10752
  140.0954  134.5153  155.8812 H   0  0  0  0  0  0  0  0  0  0  0  0  # atno 11005 bound_to 11000
  144.7066  139.8537  143.7428 LP  0  0  0  0  0  0  0  0  0  0  0  0  # atno 17320 bound_to 7965
  146.1068  139.4069  143.0312 LP  0  0  0  0  0  0  0  0  0  0  0  0  # atno 17321 bound_to 7965
  139.5104  144.6884  151.5827 LP  0  0  0  0  0  0  0  0  0  0  0  0  # atno 17342 bound_to 10162
  140.6173  143.9325  150.6498 LP  0  0  0  0  0  0  0  0  0  0  0  0  # atno 17343 bound_to 10162
  155.9710  130.4162  150.4221 LP  0  0  0  0  0  0  0  0  0  0  0  0  # atno 17370 bound_to 10713
  157.2272  131.0496  151.2513 LP  0  0  0  0  0  0  0  0  0  0  0  0  # atno 17371 bound_to 10713
  141.2090  133.6680  156.6412 LP  0  0  0  0  0  0  0  0  0  0  0  0  # atno 17394 bound_to 11000
  140.3294  134.7942  157.4314 LP  0  0  0  0  0  0  0  0  0  0  0  0  # atno 17395 bound_to 11000

$$$$
