AV-unprocessed.smi:288|AV-procd|sdf|2209|dock1
  -GOLD-   2262022 43D 1   1.00000     0.00000
 Structure written by MMmdl.
 33 34  0  0  0  0  0  0  0  0  1 V2000
  151.0925  139.5037  154.3989 O   0  0  0  0  0  0  0  0  0  0  0  0
  151.2614  139.9380  155.5396 C   0  0  0  0  0  0  0  0  0  0  0  0
  152.1478  139.3130  156.5143 C   0  0  0  0  0  0  0  0  0  0  0  0
  152.8199  138.1980  156.1806 F   0  0  0  0  0  0  0  0  0  0  0  0
  152.3132  139.8382  157.7476 C   0  0  0  0  0  0  0  0  0  0  0  0
  151.6711  140.9919  158.1735 N   0  0  0  0  0  0  0  0  0  0  0  0
  151.8410  141.5678  159.5659 C   0  0  2  0  0  0  0  0  0  0  0  0
  152.2003  143.0555  159.6268 C   0  0  0  0  0  0  0  0  0  0  0  0
  152.8019  143.1211  161.0110 C   0  0  0  0  0  0  0  0  0  0  0  0
  153.5874  141.8113  161.0609 C   0  0  0  0  0  0  0  0  0  0  0  0
  152.9059  140.9111  160.1878 O   0  0  0  0  0  0  0  0  0  0  0  0
  150.8058  141.6710  157.2858 C   0  0  0  0  0  0  0  0  0  0  0  0
  150.2526  142.7202  157.6238 O   0  0  0  0  0  0  0  0  0  0  0  0
  150.6124  141.1081  156.0027 N   0  0  0  0  0  0  0  0  0  0  0  0
  149.7172  141.7932  155.0843 C   0  0  0  0  0  0  0  0  0  0  0  0
  148.6391  140.8677  154.4768 C   0  0  2  0  0  0  0  0  0  0  0  0
  148.5834  141.0972  153.0819 O   0  0  0  0  0  0  0  0  0  0  0  0
  147.2373  141.1376  155.0582 C   0  0  0  0  0  0  0  0  0  0  0  0
  146.7814  142.3169  154.6349 F   0  0  0  0  0  0  0  0  0  0  0  0
  146.3926  140.1973  154.6341 F   0  0  0  0  0  0  0  0  0  0  0  0
  147.2606  141.1191  156.3917 F   0  0  0  0  0  0  0  0  0  0  0  0
  152.9990  139.3212  158.3984 H   0  0  0  0  0  0  0  0  0  0  0  0
  150.9052  141.3544  160.0867 H   0  0  0  0  0  0  0  0  0  0  0  0
  152.9768  143.3037  158.9032 H   0  0  0  0  0  0  0  0  0  0  0  0
  151.3271  143.6919  159.4818 H   0  0  0  0  0  0  0  0  0  0  0  0
  153.4277  143.9999  161.1682 H   0  0  0  0  0  0  0  0  0  0  0  0
  152.0130  143.1203  161.7648 H   0  0  0  0  0  0  0  0  0  0  0  0
  154.6014  141.9561  160.6861 H   0  0  0  0  0  0  0  0  0  0  0  0
  153.6542  141.4094  162.0722 H   0  0  0  0  0  0  0  0  0  0  0  0
  149.2646  142.6099  155.6489 H   0  0  0  0  0  0  0  0  0  0  0  0
  150.3124  142.3011  154.3233 H   0  0  0  0  0  0  0  0  0  0  0  0
  148.8917  139.8204  154.6473 H   0  0  0  0  0  0  0  0  0  0  0  0
  148.8825  140.3187  152.6375 H   0  0  0  0  0  0  0  0  0  0  0  0
  1  2  2  0  0  0  0
  2 14  1  0  0  0  0
  2  3  1  0  0  0  0
  3  4  1  0  0  0  0
  3  5  2  0  0  0  0
  5  6  1  0  0  0  0
  5 22  1  0  0  0  0
  6  7  1  0  0  0  0
  6 12  1  0  0  0  0
  7 11  1  0  0  0  0
  7  8  1  0  0  0  0
  7 23  1  0  0  0  0
  8  9  1  0  0  0  0
  8 24  1  0  0  0  0
  8 25  1  0  0  0  0
  9 10  1  0  0  0  0
  9 26  1  0  0  0  0
  9 27  1  0  0  0  0
 10 11  1  0  0  0  0
 10 28  1  0  0  0  0
 10 29  1  0  0  0  0
 12 13  2  0  0  0  0
 12 14  1  0  0  0  0
 14 15  1  0  0  0  0
 15 16  1  0  0  0  0
 15 30  1  0  0  0  0
 15 31  1  0  0  0  0
 16 17  1  0  0  0  0
 16 18  1  0  0  0  0
 16 32  1  0  0  0  0
 17 33  1  0  0  0  0
 18 19  1  0  0  0  0
 18 20  1  0  0  0  0
 18 21  1  0  0  0  0
M  END
> <s_m_source_file>
AV-unprocessed.smi

> <i_m_source_file_index>
288

> <i_lp_mmshare_version>
43012

> <i_f3d_flags>
0

> <s_epik_input>
TzFbQ0gyXVtDSDJdW0NIMl1bQ0BIXTFuKFtjSF1jKEYpYzI9TyljKD1PKW4yW0NIMl1bQ0BIXShbT0hdKUMoRikoRilG

> <s_epik_cmdline>
J2VwaWtfcHl0aG9uJywgJy1waCcsICc3LjAnLCAnLXRuJywgJzgnLCAnLW1hJywgJzIwMCcsICctbWV0YWxfYmluZGluZycsICctaW1hZScsICc8aW5maWxlLm1hZT4nLCAnLW9tYWUnLCAnPG91dGZpbGUubWFlPic=

> <r_lp_tautomer_probability>
1

> <r_epik_Ionization_Penalty>
0.000551119

> <r_epik_Ionization_Penalty_Charging>
2.51184e-08

> <r_epik_Ionization_Penalty_Neutral>
0.000551094

> <r_epik_State_Penalty>
0.000345115

> <r_epik_Charging_Adjusted_Penalty>
0.00034514

> <i_epik_Tot_Q>
0

> <i_epik_Tot_abs_Q>
0

> <r_epik_Metal_State_Penalty>
-0

> <b_epik_Metal_Only>
0

> <s_epik_Chemistry_Notes>
This compound contains an acetal/aminal-like group ( X-CH(R)-Y where X, Y are N, S, or O) that may be acid/base labile, releasing an aldehyde.

> <s_lp_Force_Field>
OPLS_2005

> <r_lp_Energy>
36.863

> <b_lp_Chiralities_Consistent>
1

> <s_lp_Variant>
AV-unprocessed.smi:288-1

> <Gold.Version>
5.8.1

> <Gold.Id.Protein>
6NUR|6NUR_protein|mol2

> <Gold.PLP.Fitness>
46.0103

> <Gold.PLP.PLP>
-40.0406

> <Gold.PLP.part.hbond>
-2.6119

> <Gold.PLP.part.metal>
0.0000

> <Gold.PLP.part.buried>
-2.1691

> <Gold.PLP.part.nonpolar>
-35.8285

> <Gold.PLP.part.repulsive>
0.3597

> <Gold.PLP.ligand.clash>
0.0000

> <Gold.PLP.ligand.torsion>
1.0289

> <Gold.PLP.Chemscore.Hbond>
2.6720

> <Gold.PLP.Chemscore.CHOScore>
0.0000

> <Gold.PLP.Chemscore.Metal>
0.0000

> <Gold.Chemscore.Hbonds>
donor molecule, donor type, donor heavy atom, donor atom, acceptor molecule, acceptor atom, score
      L1  H    17    33       P1  7957  0.67
      P1  H  7989  7998       L1     1  1.00
      P1  H  8011  8017       L1    17  1.00

> <Gold.PLP.Chemscore.Internal.Correction>
0.0116

> <Gold.Rescore>
     Score         DG    S(hbond)    S(metal)    S(lipo)     H(rot)  DE(clash)    DE(int)     intcor
      9.00     -13.04       1.94        0.00      65.26       2.57       0.44       3.60       ----

> <Gold.Chemscore.Fitness>
8.9967

> <Gold.Chemscore.DG>
-13.0367

> <Gold.Chemscore.ZeroCoef>
-5.4800

> <Gold.Chemscore.Hbond>
1.9428

> <Gold.Chemscore.Metal>
0.0000

> <Gold.Chemscore.Lipo>
65.2623

> <Gold.Chemscore.Internal_Hbond>
0.0000

> <Gold.Chemscore.DEClash>
0.4443

> <Gold.Chemscore.DEInternal>
3.5957

> <Gold.Chemscore.Rot>
2.5656

> <Gold.Chemscore.Internal.Correction>
   9.000000E+99

> <Gold.Chemscore.Hbonds>
donor molecule, donor type, donor heavy atom, donor atom, acceptor molecule, acceptor atom, score
      L1  H    17    33       P1  7957  0.66
      P1  H  7989  7998       L1     1  0.26
      P1  H  8011  8017       L1    17  0.23

> <Gold.Chemscore.Hbond.Weighted>
-6.4889

> <Gold.Chemscore.Metal.Weighted>
-0.0000

> <Gold.Chemscore.Lipo.Weighted>
-7.6357

> <Gold.Chemscore.Internal_Hbond.Weighted>
0.0000

> <Gold.Chemscore.DEClash.Weighted>
0.4443

> <Gold.Chemscore.DEInternal.Weighted>
3.5957

> <Gold.Chemscore.Rot.Weighted>
6.5679

> <Gold.Chemscore.Internal.Correction.Weighted>
   9.000000E+99

> <Gold.Protein.RotatedTorsions>
[ 6907 6896 6895 6894 ] final -169.30 input  -60.11 | X-H torsion
[ 7974 7965 7964 7962 ] final  -20.99 input  175.53 | X-H torsion
[ 8008 7997 7996 7995 ] final    6.34 input   59.86 | X-H torsion
[ 10167 10162 10161 10158 ] final -155.35 input  -65.29 | X-H torsion
[ 10718 10713 10712 10709 ] final  116.53 input   66.30 | X-H torsion
[ 10763 10752 10751 10750 ] final   93.84 input  -60.55 | X-H torsion
[ 11005 11000 10999 10996 ] final   29.58 input  -57.11 | X-H torsion

> <Gold.Protein.ActiveResidues>
 VAL166  LYS551  ARG553  GLY616  TRP617  ASP618  TYR619  PRO620  LYS621  CYS622 
 ASP623  PHE694  ASN695  SER759  ASP760  ASP761  ALA762  ILE779  LEU786  VAL792 
 PHE793  MET794  SER795  GLU796  ALA797  LYS798  CYS799  TRP800  GLU811  SER814 

> <Gold.Protein.RotatedAtoms>
  151.4894  133.3528  159.2850 H   0  0  0  0  0  0  0  0  0  0  0  0  # atno 6907 bound_to 6896
  150.8844  134.8242  159.7259 H   0  0  0  0  0  0  0  0  0  0  0  0  # atno 6908 bound_to 6896
  152.4784  134.4796  159.9713 H   0  0  0  0  0  0  0  0  0  0  0  0  # atno 6909 bound_to 6896
  146.1758  140.4279  142.8514 H   0  0  0  0  0  0  0  0  0  0  0  0  # atno 7974 bound_to 7965
  154.7397  140.2746  155.6383 H   0  0  0  0  0  0  0  0  0  0  0  0  # atno 8008 bound_to 7997
  156.2870  140.2699  156.2047 H   0  0  0  0  0  0  0  0  0  0  0  0  # atno 8009 bound_to 7997
  155.0274  140.0371  157.2450 H   0  0  0  0  0  0  0  0  0  0  0  0  # atno 8010 bound_to 7997
  139.6938  143.9376  152.2397 H   0  0  0  0  0  0  0  0  0  0  0  0  # atno 10167 bound_to 10162
  157.6155  131.1026  150.7485 H   0  0  0  0  0  0  0  0  0  0  0  0  # atno 10718 bound_to 10713
  153.2348  135.4311  155.0635 H   0  0  0  0  0  0  0  0  0  0  0  0  # atno 10763 bound_to 10752
  154.8314  135.3388  154.6734 H   0  0  0  0  0  0  0  0  0  0  0  0  # atno 10764 bound_to 10752
  153.7160  135.7020  153.5081 H   0  0  0  0  0  0  0  0  0  0  0  0  # atno 10765 bound_to 10752
  140.3035  134.2730  155.7749 H   0  0  0  0  0  0  0  0  0  0  0  0  # atno 11005 bound_to 11000
  144.8233  140.6587  143.6338 LP  0  0  0  0  0  0  0  0  0  0  0  0  # atno 17320 bound_to 7965
  145.4216  139.1563  143.4071 LP  0  0  0  0  0  0  0  0  0  0  0  0  # atno 17321 bound_to 7965
  139.9199  144.6806  150.8472 LP  0  0  0  0  0  0  0  0  0  0  0  0  # atno 17342 bound_to 10162
  140.7690  143.3382  151.2263 LP  0  0  0  0  0  0  0  0  0  0  0  0  # atno 17343 bound_to 10162
  156.7854  130.4872  149.5394 LP  0  0  0  0  0  0  0  0  0  0  0  0  # atno 17370 bound_to 10713
  156.1275  130.6154  151.0285 LP  0  0  0  0  0  0  0  0  0  0  0  0  # atno 17371 bound_to 10713
  141.2123  133.7661  156.9802 LP  0  0  0  0  0  0  0  0  0  0  0  0  # atno 17394 bound_to 11000
  140.1088  134.9490  157.2034 LP  0  0  0  0  0  0  0  0  0  0  0  0  # atno 17395 bound_to 11000

$$$$
