AV-unprocessed.smi:835|AV-procd|sdf|3887|dock7
  -GOLD-   22720 1343D 1   1.00000     0.00000
 Structure written by MMmdl.
 41 43  0  0  0  0  0  0  0  0  2 V2000
  145.5934  129.7984  151.8614 C   0  0  0  0  0  0  0  0  0  0  0  0
  146.2922  131.0774  152.2168 C   0  0  0  0  0  0  0  0  0  0  0  0
  145.8890  132.4109  151.9151 C   0  0  0  0  0  0  0  0  0  0  0  0
  146.8859  133.1608  152.4770 C   0  0  0  0  0  0  0  0  0  0  0  0
  147.0311  134.5124  152.4965 N   0  0  0  0  0  0  0  0  0  0  0  0
  146.1793  135.4412  152.9648 C   0  0  0  0  0  0  0  0  0  0  0  0
  145.0826  135.2142  153.4759 O   0  0  0  0  0  0  0  0  0  0  0  0
  146.6780  136.6765  152.8155 N   0  0  0  0  0  0  0  0  0  0  0  0
  146.0061  137.8986  153.2444 C   0  0  1  0  0  0  0  0  0  0  0  0
  145.8897  138.0540  154.7622 C   0  0  0  0  0  0  0  0  0  0  0  0
  145.8681  139.5746  154.9903 C   0  0  0  0  0  0  0  0  0  0  0  0
  146.2332  140.2091  153.7013 N   0  3  1  0  0  0  0  0  0  0  0  0
  147.1076  141.3936  153.8331 C   0  0  0  0  0  0  0  0  0  0  0  0
  146.9159  142.1454  155.1283 C   0  0  0  0  0  0  0  0  0  0  0  0
  146.3553  142.7028  153.8377 C   0  0  0  0  0  0  0  0  0  0  0  0
  146.7882  139.1457  152.8449 C   0  0  0  0  0  0  0  0  0  0  0  0
  147.8053  132.3158  153.0576 N   0  0  0  0  0  0  0  0  0  0  0  0
  149.0269  132.6338  153.7709 C   0  0  0  0  0  0  0  0  0  0  0  0
  147.4320  131.0279  152.8973 N   0  0  0  0  0  0  0  0  0  0  0  0
  144.7538  129.9818  151.1906 H   0  0  0  0  0  0  0  0  0  0  0  0
  145.2047  129.3046  152.7520 H   0  0  0  0  0  0  0  0  0  0  0  0
  146.2704  129.1043  151.3628 H   0  0  0  0  0  0  0  0  0  0  0  0
  145.0133  132.7383  151.3753 H   0  0  0  0  0  0  0  0  0  0  0  0
  147.9046  134.8548  152.1243 H   0  0  0  0  0  0  0  0  0  0  0  0
  147.5856  136.7763  152.3847 H   0  0  0  0  0  0  0  0  0  0  0  0
  145.0112  137.9505  152.7970 H   0  0  0  0  0  0  0  0  0  0  0  0
  145.0064  137.5569  155.1649 H   0  0  0  0  0  0  0  0  0  0  0  0
  146.7639  137.6256  155.2552 H   0  0  0  0  0  0  0  0  0  0  0  0
  144.8769  139.9187  155.2872 H   0  0  0  0  0  0  0  0  0  0  0  0
  146.5646  139.8476  155.7847 H   0  0  0  0  0  0  0  0  0  0  0  0
  148.0935  141.3234  153.3766 H   0  0  0  0  0  0  0  0  0  0  0  0
  146.2083  141.7494  155.8547 H   0  0  0  0  0  0  0  0  0  0  0  0
  147.7846  142.6463  155.5512 H   0  0  0  0  0  0  0  0  0  0  0  0
  146.8549  143.5702  153.4112 H   0  0  0  0  0  0  0  0  0  0  0  0
  145.2749  142.6779  153.7073 H   0  0  0  0  0  0  0  0  0  0  0  0
  147.8510  139.0164  153.0596 H   0  0  0  0  0  0  0  0  0  0  0  0
  146.6809  139.3875  151.7869 H   0  0  0  0  0  0  0  0  0  0  0  0
  148.7819  133.1264  154.7120 H   0  0  0  0  0  0  0  0  0  0  0  0
  149.6416  133.3018  153.1674 H   0  0  0  0  0  0  0  0  0  0  0  0
  149.5955  131.7273  153.9830 H   0  0  0  0  0  0  0  0  0  0  0  0
  145.3692  140.5062  153.2704 H   0  0  0  0  0  0  0  0  0  0  0  0
  1  2  1  0  0  0  0
  1 20  1  0  0  0  0
  1 21  1  0  0  0  0
  1 22  1  0  0  0  0
  2 19  2  0  0  0  0
  2  3  1  0  0  0  0
  3  4  2  0  0  0  0
  3 23  1  0  0  0  0
  4  5  1  0  0  0  0
  4 17  1  0  0  0  0
  5  6  1  0  0  0  0
  5 24  1  0  0  0  0
  6  7  2  0  0  0  0
  6  8  1  0  0  0  0
  8  9  1  0  0  0  0
  8 25  1  0  0  0  0
  9 16  1  0  0  0  0
  9 10  1  0  0  0  0
  9 26  1  0  0  0  0
 10 11  1  0  0  0  0
 10 27  1  0  0  0  0
 10 28  1  0  0  0  0
 11 12  1  0  0  0  0
 11 29  1  0  0  0  0
 11 30  1  0  0  0  0
 12 13  1  0  0  0  0
 12 16  1  0  0  0  0
 12 41  1  0  0  0  0
 13 15  1  0  0  0  0
 13 14  1  0  0  0  0
 13 31  1  0  0  0  0
 14 15  1  0  0  0  0
 14 32  1  0  0  0  0
 14 33  1  0  0  0  0
 15 34  1  0  0  0  0
 15 35  1  0  0  0  0
 16 36  1  0  0  0  0
 16 37  1  0  0  0  0
 17 18  1  0  0  0  0
 17 19  1  0  0  0  0
 18 38  1  0  0  0  0
 18 39  1  0  0  0  0
 18 40  1  0  0  0  0
M  CHG  1  12   1
M  END
> <s_m_source_file>
AV-unprocessed.smi

> <i_m_source_file_index>
835

> <i_lp_mmshare_version>
43012

> <i_f3d_flags>
0

> <s_epik_input>
W0NIM11jMVtjSF1jKG4objEpW0NIM10pW05IXUMoPU8pW05IXVtDQEBIXTJbQ0gyXVtDSDJdTihbQ0gyXTIpW0NIXTNbQ0gyXVtDSDJdMw==

> <s_epik_cmdline>
J2VwaWtfcHl0aG9uJywgJy1waCcsICc3LjAnLCAnLXRuJywgJzgnLCAnLW1hJywgJzIwMCcsICctbWV0YWxfYmluZGluZycsICctaW1hZScsICc8aW5maWxlLm1hZT4nLCAnLW9tYWUnLCAnPG91dGZpbGUubWFlPic=

> <r_lp_tautomer_probability>
1

> <r_epik_Ionization_Penalty>
0.000700689

> <r_epik_Ionization_Penalty_Charging>
0.000627528

> <r_epik_Ionization_Penalty_Neutral>
7.31611e-05

> <r_epik_State_Penalty>
0.00039643

> <r_epik_Charging_Adjusted_Penalty>
0.00102396

> <i_epik_Tot_Q>
1

> <i_epik_Tot_abs_Q>
1

> <r_epik_Metal_State_Penalty>
-0

> <b_epik_Metal_Only>
0

> <s_lp_Force_Field>
OPLS_2005

> <r_lp_Energy>
38.0069

> <b_lp_Chiralities_Consistent>
1

> <s_lp_Variant>
AV-unprocessed.smi:835-2

> <Gold.Version>
5.8.1

> <Gold.Id.Protein>
6NUR|6NUR_protein|mol2

> <Gold.PLP.Fitness>
42.2912

> <Gold.PLP.PLP>
-31.9171

> <Gold.PLP.part.hbond>
-2.9016

> <Gold.PLP.part.metal>
0.0000

> <Gold.PLP.part.buried>
-4.0226

> <Gold.PLP.part.nonpolar>
-25.6300

> <Gold.PLP.part.repulsive>
0.5207

> <Gold.PLP.ligand.clash>
0.0000

> <Gold.PLP.ligand.torsion>
1.4324

> <Gold.PLP.Chemscore.Hbond>
3.9920

> <Gold.PLP.Chemscore.CHOScore>
0.0000

> <Gold.PLP.Chemscore.Metal>
0.0000

> <Gold.Chemscore.Hbonds>
donor molecule, donor type, donor heavy atom, donor atom, acceptor molecule, acceptor atom, score
      L1  H     5    24       P1  7948  0.98
      L1  H     8    25       P1  7948  1.00
      L1  H    12    41       P1 10175  2.00

> <Gold.PLP.Chemscore.Internal.Correction>
1.2630

> <Gold.Rescore>
     Score         DG    S(hbond)    S(metal)    S(lipo)     H(rot)  DE(clash)    DE(int)     intcor
     17.33     -18.76       2.82        0.00      59.60       1.22       0.01       1.42       ----

> <Gold.Chemscore.Fitness>
17.3332

> <Gold.Chemscore.DG>
-18.7571

> <Gold.Chemscore.ZeroCoef>
-5.4800

> <Gold.Chemscore.Hbond>
2.8223

> <Gold.Chemscore.Metal>
0.0000

> <Gold.Chemscore.Lipo>
59.5960

> <Gold.Chemscore.Internal_Hbond>
0.0000

> <Gold.Chemscore.DEClash>
0.0069

> <Gold.Chemscore.DEInternal>
1.4170

> <Gold.Chemscore.Rot>
1.2196

> <Gold.Chemscore.Internal.Correction>
   9.000000E+99

> <Gold.Chemscore.Hbonds>
donor molecule, donor type, donor heavy atom, donor atom, acceptor molecule, acceptor atom, score
      L1  H     5    24       P1  7948  0.56
      L1  H     8    25       P1  7948  0.93
      L1  H    12    41       P1 10175  0.96

> <Gold.Chemscore.Hbond.Weighted>
-9.4266

> <Gold.Chemscore.Metal.Weighted>
-0.0000

> <Gold.Chemscore.Lipo.Weighted>
-6.9727

> <Gold.Chemscore.Internal_Hbond.Weighted>
0.0000

> <Gold.Chemscore.DEClash.Weighted>
0.0069

> <Gold.Chemscore.DEInternal.Weighted>
1.4170

> <Gold.Chemscore.Rot.Weighted>
3.1223

> <Gold.Chemscore.Internal.Correction.Weighted>
   9.000000E+99

> <Gold.Protein.RotatedTorsions>
[ 6907 6896 6895 6894 ] final   81.31 input  -60.11 | X-H torsion
[ 7974 7965 7964 7962 ] final -115.62 input  175.53 | X-H torsion
[ 8008 7997 7996 7995 ] final  -56.99 input   59.86 | X-H torsion
[ 10167 10162 10161 10158 ] final  -85.11 input  -65.29 | X-H torsion
[ 10718 10713 10712 10709 ] final  -62.19 input   66.30 | X-H torsion
[ 10763 10752 10751 10750 ] final -146.01 input  -60.55 | X-H torsion
[ 11005 11000 10999 10996 ] final  -49.61 input  -57.11 | X-H torsion

> <Gold.Protein.ActiveResidues>
 VAL166  LYS551  ARG553  GLY616  TRP617  ASP618  TYR619  PRO620  LYS621  CYS622 
 ASP623  PHE694  ASN695  SER759  ASP760  ASP761  ALA762  ILE779  LEU786  VAL792 
 PHE793  MET794  SER795  GLU796  ALA797  LYS798  CYS799  TRP800  GLU811  SER814 

> <Gold.Protein.RotatedAtoms>
  152.5264  134.3223  159.9152 H   0  0  0  0  0  0  0  0  0  0  0  0  # atno 6907 bound_to 6896
  151.3172  133.4049  159.2659 H   0  0  0  0  0  0  0  0  0  0  0  0  # atno 6908 bound_to 6896
  150.9989  134.9323  159.8000 H   0  0  0  0  0  0  0  0  0  0  0  0  # atno 6909 bound_to 6896
  145.1063  140.8584  143.3896 H   0  0  0  0  0  0  0  0  0  0  0  0  # atno 7974 bound_to 7965
  154.4251  140.1117  156.5726 H   0  0  0  0  0  0  0  0  0  0  0  0  # atno 8008 bound_to 7997
  155.6196  140.3495  155.4629 H   0  0  0  0  0  0  0  0  0  0  0  0  # atno 8009 bound_to 7997
  156.0035  140.1204  157.0514 H   0  0  0  0  0  0  0  0  0  0  0  0  # atno 8010 bound_to 7997
  140.4069  143.2639  151.9069 H   0  0  0  0  0  0  0  0  0  0  0  0  # atno 10167 bound_to 10162
  156.0872  130.4206  150.1100 H   0  0  0  0  0  0  0  0  0  0  0  0  # atno 10718 bound_to 10713
  154.8356  135.3398  154.6595 H   0  0  0  0  0  0  0  0  0  0  0  0  # atno 10763 bound_to 10752
  153.7210  135.6958  153.5017 H   0  0  0  0  0  0  0  0  0  0  0  0  # atno 10764 bound_to 10752
  153.2382  135.4393  155.0622 H   0  0  0  0  0  0  0  0  0  0  0  0  # atno 10765 bound_to 10752
  141.0769  133.6663  156.3610 H   0  0  0  0  0  0  0  0  0  0  0  0  # atno 11005 bound_to 11000
  145.0898  139.2899  143.5741 LP  0  0  0  0  0  0  0  0  0  0  0  0  # atno 17320 bound_to 7965
  146.3528  140.0431  142.8641 LP  0  0  0  0  0  0  0  0  0  0  0  0  # atno 17321 bound_to 7965
  139.4783  144.5577  151.8288 LP  0  0  0  0  0  0  0  0  0  0  0  0  # atno 17342 bound_to 10162
  140.4680  144.1627  150.5914 LP  0  0  0  0  0  0  0  0  0  0  0  0  # atno 17343 bound_to 10162
  156.9118  130.9654  151.3562 LP  0  0  0  0  0  0  0  0  0  0  0  0  # atno 17370 bound_to 10713
  157.6010  130.8512  149.8801 LP  0  0  0  0  0  0  0  0  0  0  0  0  # atno 17371 bound_to 10713
  140.5554  134.5986  157.5419 LP  0  0  0  0  0  0  0  0  0  0  0  0  # atno 17394 bound_to 11000
  139.9581  134.7500  156.0297 LP  0  0  0  0  0  0  0  0  0  0  0  0  # atno 17395 bound_to 11000

$$$$
