#       Name:                AV-unprocessed.smi:2923
#       Creating user name   scv26
#       Creation time:       Fri Mar 27 16:10:20 2020


#       File generated by GOLD software.
#

@<TRIPOS>MOLECULE
AV-unprocessed.smi:2923
    52    54     1
SMALL
NO_CHARGES


@<TRIPOS>ATOM
      1 ****        -6.7349   1.0736   0.5996 C.3            1 S1                 0.0000
      2 ****        -6.0778   1.4554  -0.6410 N.3            1 S1                 0.0000
      3 ****        -6.7350   1.0429  -1.8718 C.3            1 S1                 0.0000
      4 ****        -4.7044   1.1787  -0.6388 C.ar           1 S1                 0.0000
      5 ****        -4.2228  -0.1495  -0.6015 C.ar           1 S1                 0.0000
      6 ****        -2.8319  -0.3663  -0.6000 C.ar           1 S1                 0.0000
      7 ****        -1.9653   0.7522  -0.6279 C.ar           1 S1                 0.0000
      8 ****        -0.5475   0.6637  -0.6495 N.am           1 S1                 0.0000
      9 ****         0.2314  -0.3526  -0.2421 C.2            1 S1                 0.0000
     10 ****        -0.1697  -1.3971   0.2712 O.2            1 S1                 0.0000
     11 ****         1.5272  -0.0792  -0.4406 N.am           1 S1                 0.0000
     12 ****         2.6196  -0.9669  -0.0611 C.3            1 S1                 0.0000
     13 ****         3.9871  -0.4315  -0.4846 C.3            1 S1                 0.0000
     14 ****         5.0274  -0.8723  -1.4516 C.3            1 S1                 0.0000
     15 ****         6.2608  -0.7154  -0.5224 C.3            1 S1                 0.0000
     16 ****         5.7309  -0.4932   0.8077 O.3            1 S1                 0.0000
     17 ****         4.4676  -1.1252   0.7758 C.3            1 S1                 0.0000
     18 ****         3.1163  -0.7513   1.4176 C.3            1 S1                 0.0000
     19 ****         2.9911   0.6407   2.0706 C.3            1 S1                 0.0000
     20 ****         2.5756  -1.7532   2.4381 C.3            1 S1                 0.0000
     21 ****        -2.5503   2.0344  -0.6792 C.ar           1 S1                 0.0000
     22 ****        -3.8827   2.2496  -0.6805 N.ar           1 S1                 0.0000
     23 ****        -6.1788   1.4435   1.4621 H              1 S1                 0.0000
     24 ****        -6.8195  -0.0106   0.6818 H              1 S1                 0.0000
     25 ****        -7.7385   1.4978   0.6403 H              1 S1                 0.0000
     26 ****        -6.1739   1.3810  -2.7438 H              1 S1                 0.0000
     27 ****        -7.7344   1.4747  -1.9277 H              1 S1                 0.0000
     28 ****        -6.8287  -0.0426  -1.9210 H              1 S1                 0.0000
     29 ****        -4.9024  -0.9888  -0.5794 H              1 S1                 0.0000
     30 ****        -2.4620  -1.3796  -0.5920 H              1 S1                 0.0000
     31 ****        -0.0667   1.4936  -0.9646 H              1 S1                 0.0000
     32 ****         1.7760   0.8032  -0.8629 H              1 S1                 0.0000
     33 ****         2.4657  -2.0145  -0.3366 H              1 S1                 0.0000
     34 ****         4.0086   0.6582  -0.4090 H              1 S1                 0.0000
     35 ****         4.8800  -1.9066  -1.7663 H              1 S1                 0.0000
     36 ****         5.0841  -0.2352  -2.3345 H              1 S1                 0.0000
     37 ****         6.8779  -1.6144  -0.5425 H              1 S1                 0.0000
     38 ****         6.8847   0.1303  -0.8124 H              1 S1                 0.0000
     39 ****         4.5820  -2.2101   0.6676 H              1 S1                 0.0000
     40 ****         3.5851   0.7006   2.9829 H              1 S1                 0.0000
     41 ****         1.9580   0.8584   2.3437 H              1 S1                 0.0000
     42 ****         3.3215   1.4572   1.4314 H              1 S1                 0.0000
     43 ****         3.1541  -1.7351   3.3623 H              1 S1                 0.0000
     44 ****         2.6101  -2.7737   2.0557 H              1 S1                 0.0000
     45 ****         1.5363  -1.5430   2.6931 H              1 S1                 0.0000
     46 ****        -1.9307   2.9187  -0.7158 H              1 S1                 0.0000
     47 ****        -6.1808   2.4500  -0.6522 LP             1 S1                 0.0000
     48 ****        -1.1491  -1.5400   0.4142 LP             1 S1                 0.0000
     49 ****         0.4838  -2.1027   0.5452 LP             1 S1                 0.0000
     50 ****         5.6357   0.4845   0.9947 LP             1 S1                 0.0000
     51 ****         6.3202  -0.9092   1.5003 LP             1 S1                 0.0000
     52 ****        -4.2521   3.1784  -0.7116 LP             1 S1                 0.0000
@<TRIPOS>BOND
    1    1    2 1     
    2    1   23 1     
    3    1   24 1     
    4    1   25 1     
    5    2    3 1     
    6    2    4 1     
    7    3   26 1     
    8    3   27 1     
    9    3   28 1     
   10    4   22 ar    
   11    4    5 ar    
   12    5    6 ar    
   13    5   29 1     
   14    6    7 ar    
   15    6   30 1     
   16    7    8 1     
   17    7   21 ar    
   18    8    9 am    
   19    8   31 1     
   20    9   10 2     
   21    9   11 am    
   22   11   12 1     
   23   11   32 1     
   24   12   18 1     
   25   12   13 1     
   26   12   33 1     
   27   13   17 1     
   28   13   14 1     
   29   13   34 1     
   30   14   15 1     
   31   14   35 1     
   32   14   36 1     
   33   15   16 1     
   34   15   37 1     
   35   15   38 1     
   36   16   17 1     
   37   17   18 1     
   38   17   39 1     
   39   18   19 1     
   40   18   20 1     
   41   19   40 1     
   42   19   41 1     
   43   19   42 1     
   44   20   43 1     
   45   20   44 1     
   46   20   45 1     
   47   21   22 ar    
   48   21   46 1     
   49    2   47 1     
   50   10   48 1     
   51   10   49 1     
   52   16   50 1     
   53   16   51 1     
   54   22   52 1     
@<TRIPOS>SUBSTRUCTURE
      1 S1             1
@<TRIPOS>SET
LONE_PAIRS      STATIC     ATOMS    <user>   **** ""
6 47 48 49 50 51 52
DONOR_HYDROGENS      STATIC     ATOMS    <user>   **** ""
2 31 32
ATOM$BLUE        STATIC     ATOMS    COLORGROUP SYSTEM
6 47 48 49 50 51 52
ATOM$RED        STATIC     ATOMS    COLORGROUP SYSTEM
2 31 32
