#       Name:                AV-unprocessed.smi:141
#       Creating user name   scv26
#       Creation time:       Thu Mar 26 18:34:13 2020


#       File generated by GOLD software.
#

@<TRIPOS>MOLECULE
AV-unprocessed.smi:141
    64    67     1
SMALL
NO_CHARGES


@<TRIPOS>ATOM
      1 ****        -0.7131   1.5191  -2.2341 O.2            1 S1                 0.0000
      2 ****         0.0749   0.5971  -2.0137 C.2            1 S1                 0.0000
      3 ****         1.5697   0.9218  -1.8076 C.3            1 S1                 0.0000
      4 ****         1.8723   2.3708  -1.8124 N.am           1 S1                 0.0000
      5 ****         2.2019   2.9931  -3.0423 C.2            1 S1                 0.0000
      6 ****         2.2539   2.3488  -4.0909 O.2            1 S1                 0.0000
      7 ****         2.4570   4.4274  -2.9736 C.2            1 S1                 0.0000
      8 ****         2.7629   5.1041  -4.0936 F              1 S1                 0.0000
      9 ****         2.3860   5.0897  -1.8009 C.2            1 S1                 0.0000
     10 ****         2.0830   4.4683  -0.6053 N.am           1 S1                 0.0000
     11 ****         1.9735   5.3005   0.6513 C.3            1 S1                 0.0000
     12 ****         2.9014   4.8301   1.7875 C.3            1 S1                 0.0000
     13 ****         1.9308   4.5405   2.9208 C.3            1 S1                 0.0000
     14 ****         0.7022   5.3549   2.5314 C.3            1 S1                 0.0000
     15 ****         0.6618   5.2295   1.1187 O.3            1 S1                 0.0000
     16 ****         1.7858   3.0857  -0.5933 C.2            1 S1                 0.0000
     17 ****         1.4520   2.5171   0.4477 O.2            1 S1                 0.0000
     18 ****        -0.3309  -0.6941  -1.9414 N.am           1 S1                 0.0000
     19 ****         0.5272  -1.8443  -1.6300 C.3            1 S1                 0.0000
     20 ****         0.1800  -2.3459  -0.2173 C.3            1 S1                 0.0000
     21 ****        -1.3163  -2.7174  -0.1113 C.3            1 S1                 0.0000
     22 ****        -1.7056  -3.1417   1.3223 C.3            1 S1                 0.0000
     23 ****        -2.2421  -4.5594   1.3852 C.ar           1 S1                 0.0000
     24 ****        -3.6226  -4.8029   1.2269 C.ar           1 S1                 0.0000
     25 ****        -4.1185  -6.1202   1.2789 C.ar           1 S1                 0.0000
     26 ****        -3.2361  -7.1977   1.4892 C.ar           1 S1                 0.0000
     27 ****        -1.8569  -6.9580   1.6443 C.ar           1 S1                 0.0000
     28 ****        -1.3603  -5.6410   1.5918 C.ar           1 S1                 0.0000
     29 ****        -2.2035  -1.5652  -0.6357 C.3            1 S1                 0.0000
     30 ****        -1.7424  -1.0885  -2.0257 C.3            1 S1                 0.0000
     31 ****         1.9034   0.4742  -0.8701 H              1 S1                 0.0000
     32 ****         2.1478   0.4068  -2.5762 H              1 S1                 0.0000
     33 ****         2.5783   6.1527  -1.8061 H              1 S1                 0.0000
     34 ****         2.1916   6.3268   0.3527 H              1 S1                 0.0000
     35 ****         3.5021   3.9639   1.5083 H              1 S1                 0.0000
     36 ****         3.5747   5.6479   2.0462 H              1 S1                 0.0000
     37 ****         1.6820   3.4793   2.9409 H              1 S1                 0.0000
     38 ****         2.3260   4.8122   3.8999 H              1 S1                 0.0000
     39 ****        -0.2130   4.9862   2.9952 H              1 S1                 0.0000
     40 ****         0.8284   6.4046   2.8016 H              1 S1                 0.0000
     41 ****         0.3451  -2.6350  -2.3595 H              1 S1                 0.0000
     42 ****         1.5927  -1.6327  -1.6997 H              1 S1                 0.0000
     43 ****         0.7963  -3.2112   0.0296 H              1 S1                 0.0000
     44 ****         0.4251  -1.5718   0.5115 H              1 S1                 0.0000
     45 ****        -1.4735  -3.5663  -0.7794 H              1 S1                 0.0000
     46 ****        -0.8483  -3.0682   1.9928 H              1 S1                 0.0000
     47 ****        -2.4533  -2.4650   1.7384 H              1 S1                 0.0000
     48 ****        -4.3037  -3.9804   1.0628 H              1 S1                 0.0000
     49 ****        -5.1758  -6.3035   1.1565 H              1 S1                 0.0000
     50 ****        -3.6168  -8.2076   1.5296 H              1 S1                 0.0000
     51 ****        -1.1791  -7.7840   1.8028 H              1 S1                 0.0000
     52 ****        -0.3010  -5.4630   1.7080 H              1 S1                 0.0000
     53 ****        -3.2442  -1.8878  -0.6816 H              1 S1                 0.0000
     54 ****        -2.1697  -0.7251   0.0597 H              1 S1                 0.0000
     55 ****        -2.3891  -0.2821  -2.3740 H              1 S1                 0.0000
     56 ****        -1.8524  -1.8914  -2.7559 H              1 S1                 0.0000
     57 ****        -0.3808   2.4613  -2.2772 LP             1 S1                 0.0000
     58 ****        -1.6847   1.3248  -2.3698 LP             1 S1                 0.0000
     59 ****         2.0616   1.3675  -4.0849 LP             1 S1                 0.0000
     60 ****         2.4884   2.8070  -4.9482 LP             1 S1                 0.0000
     61 ****         0.2568   4.3508   0.8658 LP             1 S1                 0.0000
     62 ****         0.1192   5.9719   0.7259 LP             1 S1                 0.0000
     63 ****         1.2386   1.5401   0.4375 LP             1 S1                 0.0000
     64 ****         1.3944   3.0326   1.3026 LP             1 S1                 0.0000
@<TRIPOS>BOND
    1    1    2 2     
    2    2    3 1     
    3    2   18 am    
    4    3    4 1     
    5    3   31 1     
    6    3   32 1     
    7    4   16 am    
    8    4    5 am    
    9    5    6 2     
   10    5    7 1     
   11    7    8 1     
   12    7    9 2     
   13    9   10 1     
   14    9   33 1     
   15   10   11 1     
   16   10   16 am    
   17   11   15 1     
   18   11   12 1     
   19   11   34 1     
   20   12   13 1     
   21   12   35 1     
   22   12   36 1     
   23   13   14 1     
   24   13   37 1     
   25   13   38 1     
   26   14   15 1     
   27   14   39 1     
   28   14   40 1     
   29   16   17 2     
   30   18   30 1     
   31   18   19 1     
   32   19   20 1     
   33   19   41 1     
   34   19   42 1     
   35   20   21 1     
   36   20   43 1     
   37   20   44 1     
   38   21   22 1     
   39   21   29 1     
   40   21   45 1     
   41   22   23 1     
   42   22   46 1     
   43   22   47 1     
   44   23   28 ar    
   45   23   24 ar    
   46   24   25 ar    
   47   24   48 1     
   48   25   26 ar    
   49   25   49 1     
   50   26   27 ar    
   51   26   50 1     
   52   27   28 ar    
   53   27   51 1     
   54   28   52 1     
   55   29   30 1     
   56   29   53 1     
   57   29   54 1     
   58   30   55 1     
   59   30   56 1     
   60    1   57 1     
   61    1   58 1     
   62    6   59 1     
   63    6   60 1     
   64   15   61 1     
   65   15   62 1     
   66   17   63 1     
   67   17   64 1     
@<TRIPOS>SUBSTRUCTURE
      1 S1             1
@<TRIPOS>SET
LONE_PAIRS      STATIC     ATOMS    <user>   **** ""
8 57 58 59 60 61 62 63 64
ATOM$BLUE        STATIC     ATOMS    COLORGROUP SYSTEM
8 57 58 59 60 61 62 63 64
