AV-unprocessed.smi:776|AV-procd|sdf|3700|dock5
  -GOLD-   22720 1123D 1   1.00000     0.00000
 Structure written by MMmdl.
 44 45  0  0  0  0  0  0  0  0  1 V2000
  146.6859  134.7009  159.8462 C   0  0  0  0  0  0  0  0  0  0  0  0
  147.8632  135.3164  160.6172 C   0  0  0  0  0  0  0  0  0  0  0  0
  147.4993  135.7090  162.0573 C   0  0  0  0  0  0  0  0  0  0  0  0
  148.4887  136.4528  159.8672 C   0  0  0  0  0  0  0  0  0  0  0  0
  147.8062  137.5560  159.5775 N   0  0  0  0  0  0  0  0  0  0  0  0
  148.7339  138.3376  158.8747 O   0  0  0  0  0  0  0  0  0  0  0  0
  149.8764  137.6112  158.8386 C   0  0  0  0  0  0  0  0  0  0  0  0
  151.0545  138.1577  158.1044 C   0  0  0  0  0  0  0  0  0  0  0  0
  150.8599  139.6269  157.6966 C   0  0  0  0  0  0  0  0  0  0  0  0
  151.7329  140.5148  158.4556 N   0  0  0  0  0  0  0  0  0  0  0  0
  151.5561  141.8393  158.5988 C   0  0  0  0  0  0  0  0  0  0  0  0
  150.6299  142.4398  158.0537 O   0  0  0  0  0  0  0  0  0  0  0  0
  152.5581  142.4478  159.2833 N   0  0  0  0  0  0  0  0  0  0  0  0
  153.1779  141.8039  160.4564 C   0  0  0  0  0  0  0  0  0  0  0  0
  152.4562  142.2804  161.7326 C   0  0  0  0  0  0  0  0  0  0  0  0
  152.4789  143.8163  161.8436 C   0  0  0  0  0  0  0  0  0  0  0  0
  152.0221  144.4929  160.5372 C   0  0  0  0  0  0  0  0  0  0  0  0
  152.7802  143.9104  159.3264 C   0  0  2  0  0  0  0  0  0  0  0  0
  152.4728  144.6669  158.0165 C   0  0  0  0  0  0  0  0  0  0  0  0
  149.7767  136.4213  159.4256 N   0  0  0  0  0  0  0  0  0  0  0  0
  146.9993  134.3634  158.8577 H   0  0  0  0  0  0  0  0  0  0  0  0
  145.8774  135.4206  159.7129 H   0  0  0  0  0  0  0  0  0  0  0  0
  146.2787  133.8390  160.3751 H   0  0  0  0  0  0  0  0  0  0  0  0
  148.6195  134.5341  160.6960 H   0  0  0  0  0  0  0  0  0  0  0  0
  148.3741  136.0702  162.5988 H   0  0  0  0  0  0  0  0  0  0  0  0
  147.0997  134.8564  162.6070 H   0  0  0  0  0  0  0  0  0  0  0  0
  146.7457  136.4970  162.0762 H   0  0  0  0  0  0  0  0  0  0  0  0
  151.9360  138.0574  158.7386 H   0  0  0  0  0  0  0  0  0  0  0  0
  151.2305  137.5382  157.2241 H   0  0  0  0  0  0  0  0  0  0  0  0
  151.0338  139.7538  156.6266 H   0  0  0  0  0  0  0  0  0  0  0  0
  149.8290  139.9298  157.8819 H   0  0  0  0  0  0  0  0  0  0  0  0
  152.5397  140.0962  158.8949 H   0  0  0  0  0  0  0  0  0  0  0  0
  153.1557  140.7144  160.4136 H   0  0  0  0  0  0  0  0  0  0  0  0
  154.2353  142.0679  160.5028 H   0  0  0  0  0  0  0  0  0  0  0  0
  151.4227  141.9315  161.7190 H   0  0  0  0  0  0  0  0  0  0  0  0
  152.9198  141.8371  162.6143 H   0  0  0  0  0  0  0  0  0  0  0  0
  151.8570  144.1445  162.6770 H   0  0  0  0  0  0  0  0  0  0  0  0
  153.4950  144.1394  162.0730 H   0  0  0  0  0  0  0  0  0  0  0  0
  150.9484  144.3515  160.4049 H   0  0  0  0  0  0  0  0  0  0  0  0
  152.1865  145.5688  160.6055 H   0  0  0  0  0  0  0  0  0  0  0  0
  153.8475  144.0626  159.4973 H   0  0  0  0  0  0  0  0  0  0  0  0
  152.8633  145.6836  158.0645 H   0  0  0  0  0  0  0  0  0  0  0  0
  151.4038  144.7527  157.8231 H   0  0  0  0  0  0  0  0  0  0  0  0
  152.9387  144.1805  157.1589 H   0  0  0  0  0  0  0  0  0  0  0  0
  1  2  1  0  0  0  0
  1 21  1  0  0  0  0
  1 22  1  0  0  0  0
  1 23  1  0  0  0  0
  2  3  1  0  0  0  0
  2  4  1  0  0  0  0
  2 24  1  0  0  0  0
  3 25  1  0  0  0  0
  3 26  1  0  0  0  0
  3 27  1  0  0  0  0
  4 20  1  0  0  0  0
  4  5  2  0  0  0  0
  5  6  1  0  0  0  0
  6  7  1  0  0  0  0
  7  8  1  0  0  0  0
  7 20  2  0  0  0  0
  8  9  1  0  0  0  0
  8 28  1  0  0  0  0
  8 29  1  0  0  0  0
  9 10  1  0  0  0  0
  9 30  1  0  0  0  0
  9 31  1  0  0  0  0
 10 11  1  0  0  0  0
 10 32  1  0  0  0  0
 11 12  2  0  0  0  0
 11 13  1  0  0  0  0
 13 18  1  0  0  0  0
 13 14  1  0  0  0  0
 14 15  1  0  0  0  0
 14 33  1  0  0  0  0
 14 34  1  0  0  0  0
 15 16  1  0  0  0  0
 15 35  1  0  0  0  0
 15 36  1  0  0  0  0
 16 17  1  0  0  0  0
 16 37  1  0  0  0  0
 16 38  1  0  0  0  0
 17 18  1  0  0  0  0
 17 39  1  0  0  0  0
 17 40  1  0  0  0  0
 18 19  1  0  0  0  0
 18 41  1  0  0  0  0
 19 42  1  0  0  0  0
 19 43  1  0  0  0  0
 19 44  1  0  0  0  0
M  END
> <s_m_source_file>
AV-unprocessed.smi

> <i_m_source_file_index>
776

> <i_lp_mmshare_version>
43012

> <i_f3d_flags>
0

> <s_epik_input>
W0NIM11bQ0hdKFtDSDNdKWMxbm9jKG4xKVtDSDJdW0NIMl1bTkhdQyg9TylOMltDSDJdW0NIMl1bQ0gyXVtDSDJdW0NASF0yW0NIM10=

> <s_epik_cmdline>
J2VwaWtfcHl0aG9uJywgJy1waCcsICc3LjAnLCAnLXRuJywgJzgnLCAnLW1hJywgJzIwMCcsICctbWV0YWxfYmluZGluZycsICctaW1hZScsICc8aW5maWxlLm1hZT4nLCAnLW9tYWUnLCAnPG91dGZpbGUubWFlPic=

> <r_lp_tautomer_probability>
1

> <r_epik_Ionization_Penalty>
6.23032e-05

> <r_epik_Ionization_Penalty_Charging>
0

> <r_epik_Ionization_Penalty_Neutral>
6.23032e-05

> <r_epik_State_Penalty>
-0

> <r_epik_Charging_Adjusted_Penalty>
0

> <i_epik_Tot_Q>
0

> <i_epik_Tot_abs_Q>
0

> <r_epik_Metal_State_Penalty>
-0

> <b_epik_Metal_Only>
0

> <s_lp_Force_Field>
OPLS_2005

> <r_lp_Energy>
25.3462

> <b_lp_Chiralities_Consistent>
1

> <s_lp_Variant>
AV-unprocessed.smi:776-2

> <Gold.Version>
5.8.1

> <Gold.Id.Protein>
6NUR|6NUR_protein|mol2

> <Gold.PLP.Fitness>
50.2898

> <Gold.PLP.PLP>
-46.9733

> <Gold.PLP.part.hbond>
-3.9546

> <Gold.PLP.part.metal>
0.0000

> <Gold.PLP.part.buried>
-6.0183

> <Gold.PLP.part.nonpolar>
-37.1799

> <Gold.PLP.part.repulsive>
0.2060

> <Gold.PLP.ligand.clash>
0.0000

> <Gold.PLP.ligand.torsion>
0.8891

> <Gold.PLP.Chemscore.Hbond>
1.5258

> <Gold.PLP.Chemscore.CHOScore>
0.0000

> <Gold.PLP.Chemscore.Metal>
0.0000

> <Gold.Chemscore.Hbonds>
donor molecule, donor type, donor heavy atom, donor atom, acceptor molecule, acceptor atom, score
      P1  H  6896  6908       L1    20  1.00
      P1  H  6934  6947       L1     5  0.45

> <Gold.PLP.Chemscore.Internal.Correction>
0.5175

> <Gold.Rescore>
     Score         DG    S(hbond)    S(metal)    S(lipo)     H(rot)  DE(clash)    DE(int)     intcor
     15.41     -17.74       1.23        0.00     105.82       1.65       0.18       2.15       ----

> <Gold.Chemscore.Fitness>
15.4130

> <Gold.Chemscore.DG>
-17.7392

> <Gold.Chemscore.ZeroCoef>
-5.4800

> <Gold.Chemscore.Hbond>
1.2260

> <Gold.Chemscore.Metal>
0.0000

> <Gold.Chemscore.Lipo>
105.8189

> <Gold.Chemscore.Internal_Hbond>
0.0000

> <Gold.Chemscore.DEClash>
0.1761

> <Gold.Chemscore.DEInternal>
2.1502

> <Gold.Chemscore.Rot>
1.6470

> <Gold.Chemscore.Internal.Correction>
   9.000000E+99

> <Gold.Chemscore.Hbonds>
donor molecule, donor type, donor heavy atom, donor atom, acceptor molecule, acceptor atom, score
      P1  H  6896  6908       L1    20  0.95
      P1  H  6934  6947       L1     5  0.06

> <Gold.Chemscore.Hbond.Weighted>
-4.0948

> <Gold.Chemscore.Metal.Weighted>
-0.0000

> <Gold.Chemscore.Lipo.Weighted>
-12.3808

> <Gold.Chemscore.Internal_Hbond.Weighted>
0.0000

> <Gold.Chemscore.DEClash.Weighted>
0.1761

> <Gold.Chemscore.DEInternal.Weighted>
2.1502

> <Gold.Chemscore.Rot.Weighted>
4.2164

> <Gold.Chemscore.Internal.Correction.Weighted>
   9.000000E+99

> <Gold.Protein.RotatedTorsions>
[ 6907 6896 6895 6894 ] final -176.31 input  -60.11 | X-H torsion
[ 7974 7965 7964 7962 ] final   93.67 input  175.53 | X-H torsion
[ 8008 7997 7996 7995 ] final  -99.36 input   59.86 | X-H torsion
[ 10167 10162 10161 10158 ] final -175.70 input  -65.29 | X-H torsion
[ 10718 10713 10712 10709 ] final  126.42 input   66.30 | X-H torsion
[ 10763 10752 10751 10750 ] final   26.30 input  -60.55 | X-H torsion
[ 11005 11000 10999 10996 ] final  144.34 input  -57.11 | X-H torsion

> <Gold.Protein.ActiveResidues>
 VAL166  LYS551  ARG553  GLY616  TRP617  ASP618  TYR619  PRO620  LYS621  CYS622 
 ASP623  PHE694  ASN695  SER759  ASP760  ASP761  ALA762  ILE779  LEU786  VAL792 
 PHE793  MET794  SER795  GLU796  ALA797  LYS798  CYS799  TRP800  GLU811  SER814 

> <Gold.Protein.RotatedAtoms>
  151.6028  133.3355  159.3050 H   0  0  0  0  0  0  0  0  0  0  0  0  # atno 6907 bound_to 6896
  150.8199  134.7404  159.6774 H   0  0  0  0  0  0  0  0  0  0  0  0  # atno 6908 bound_to 6896
  152.4293  134.5814  160.0000 H   0  0  0  0  0  0  0  0  0  0  0  0  # atno 6909 bound_to 6896
  145.4758  139.2280  143.2910 H   0  0  0  0  0  0  0  0  0  0  0  0  # atno 7974 bound_to 7965
  154.8138  140.0448  157.1362 H   0  0  0  0  0  0  0  0  0  0  0  0  # atno 8008 bound_to 7997
  154.9337  140.3043  155.5135 H   0  0  0  0  0  0  0  0  0  0  0  0  # atno 8009 bound_to 7997
  156.2974  140.2318  156.4400 H   0  0  0  0  0  0  0  0  0  0  0  0  # atno 8010 bound_to 7997
  139.5567  144.1970  152.1172 H   0  0  0  0  0  0  0  0  0  0  0  0  # atno 10167 bound_to 10162
  157.5420  131.1096  150.8843 H   0  0  0  0  0  0  0  0  0  0  0  0  # atno 10718 bound_to 10713
  153.0632  135.6563  154.0415 H   0  0  0  0  0  0  0  0  0  0  0  0  # atno 10763 bound_to 10752
  154.0078  135.2931  155.3397 H   0  0  0  0  0  0  0  0  0  0  0  0  # atno 10764 bound_to 10752
  154.6979  135.5256  153.8553 H   0  0  0  0  0  0  0  0  0  0  0  0  # atno 10765 bound_to 10752
  140.0625  134.9197  157.1208 H   0  0  0  0  0  0  0  0  0  0  0  0  # atno 11005 bound_to 11000
  146.2370  140.5540  142.8950 LP  0  0  0  0  0  0  0  0  0  0  0  0  # atno 17320 bound_to 7965
  144.7918  140.6047  143.6536 LP  0  0  0  0  0  0  0  0  0  0  0  0  # atno 17321 bound_to 7965
  140.1476  144.5144  150.6706 LP  0  0  0  0  0  0  0  0  0  0  0  0  # atno 17342 bound_to 10162
  140.6841  143.2341  151.5306 LP  0  0  0  0  0  0  0  0  0  0  0  0  # atno 17343 bound_to 10162
  156.9392  130.5378  149.5280 LP  0  0  0  0  0  0  0  0  0  0  0  0  # atno 17370 bound_to 10713
  156.0505  130.5575  150.8978 LP  0  0  0  0  0  0  0  0  0  0  0  0  # atno 17371 bound_to 10713
  140.3749  134.2350  155.7175 LP  0  0  0  0  0  0  0  0  0  0  0  0  # atno 17394 bound_to 11000
  141.1979  133.8048  157.0607 LP  0  0  0  0  0  0  0  0  0  0  0  0  # atno 17395 bound_to 11000

$$$$
