AV-unprocessed.smi:2105|AV-procd|sdf|8591|dock5
  -GOLD-   2272011323D 1   1.00000     0.00000
 Structure written by MMmdl.
 42 43  0  0  0  0  0  0  0  0  1 V2000
  145.9163  131.8270  149.5542 C   0  0  0  0  0  0  0  0  0  0  0  0
  145.0219  132.9980  149.9453 C   0  0  0  0  0  0  0  0  0  0  0  0
  143.8060  132.9312  149.7670 O   0  0  0  0  0  0  0  0  0  0  0  0
  145.6382  134.0641  150.4784 N   0  0  0  0  0  0  0  0  0  0  0  0
  144.9661  135.2775  150.9295 C   0  0  0  0  0  0  0  0  0  0  0  0
  145.2332  135.5658  152.4209 C   0  0  0  0  0  0  0  0  0  0  0  0
  146.4412  136.3607  152.6128 N   0  0  0  0  0  0  0  0  0  0  0  0
  146.5046  137.5359  153.2531 C   0  0  0  0  0  0  0  0  0  0  0  0
  145.5426  138.0575  153.8172 O   0  0  0  0  0  0  0  0  0  0  0  0
  147.7359  138.0644  153.1652 N   0  0  0  0  0  0  0  0  0  0  0  0
  148.1872  139.3325  153.6276 C   0  0  0  0  0  0  0  0  0  0  0  0
  147.3823  140.4963  153.5837 C   0  0  0  0  0  0  0  0  0  0  0  0
  147.8990  141.7051  154.0846 C   0  0  0  0  0  0  0  0  0  0  0  0
  149.1991  141.7058  154.6212 C   0  0  0  0  0  0  0  0  0  0  0  0
  149.9727  140.6027  154.6843 N   0  0  0  0  0  0  0  0  0  0  0  0
  149.4821  139.4371  154.1971 C   0  0  0  0  0  0  0  0  0  0  0  0
  150.3001  138.2970  154.2918 N   0  0  0  0  0  0  0  0  0  0  0  0
  151.7190  138.5192  154.5459 C   0  0  0  0  0  0  0  0  0  0  0  0
  152.2053  137.2583  155.2552 C   0  0  0  0  0  0  0  0  0  0  0  0
  150.9889  136.8575  156.0823 C   0  0  0  0  0  0  0  0  0  0  0  0
  149.8057  137.2686  155.2007 C   0  0  0  0  0  0  0  0  0  0  0  0
  146.7098  132.1578  148.8838 H   0  0  0  0  0  0  0  0  0  0  0  0
  145.3407  131.0534  149.0450 H   0  0  0  0  0  0  0  0  0  0  0  0
  146.3723  131.3856  150.4406 H   0  0  0  0  0  0  0  0  0  0  0  0
  146.6411  134.0287  150.5889 H   0  0  0  0  0  0  0  0  0  0  0  0
  145.2131  136.1282  150.2919 H   0  0  0  0  0  0  0  0  0  0  0  0
  143.8982  135.1046  150.7943 H   0  0  0  0  0  0  0  0  0  0  0  0
  144.3878  136.1113  152.8433 H   0  0  0  0  0  0  0  0  0  0  0  0
  145.3103  134.6406  152.9932 H   0  0  0  0  0  0  0  0  0  0  0  0
  147.2832  136.0154  152.1757 H   0  0  0  0  0  0  0  0  0  0  0  0
  148.3949  137.5569  152.5928 H   0  0  0  0  0  0  0  0  0  0  0  0
  146.3773  140.4795  153.1912 H   0  0  0  0  0  0  0  0  0  0  0  0
  147.3091  142.6095  154.0635 H   0  0  0  0  0  0  0  0  0  0  0  0
  149.6269  142.6145  155.0183 H   0  0  0  0  0  0  0  0  0  0  0  0
  152.2585  138.6844  153.6130 H   0  0  0  0  0  0  0  0  0  0  0  0
  151.8795  139.3895  155.1830 H   0  0  0  0  0  0  0  0  0  0  0  0
  152.4298  136.4810  154.5230 H   0  0  0  0  0  0  0  0  0  0  0  0
  153.0977  137.4272  155.8580 H   0  0  0  0  0  0  0  0  0  0  0  0
  150.9776  135.7981  156.3403 H   0  0  0  0  0  0  0  0  0  0  0  0
  150.9725  137.4314  157.0100 H   0  0  0  0  0  0  0  0  0  0  0  0
  148.9603  137.6060  155.8024 H   0  0  0  0  0  0  0  0  0  0  0  0
  149.4674  136.4225  154.6018 H   0  0  0  0  0  0  0  0  0  0  0  0
  1  2  1  0  0  0  0
  1 22  1  0  0  0  0
  1 23  1  0  0  0  0
  1 24  1  0  0  0  0
  2  3  2  0  0  0  0
  2  4  1  0  0  0  0
  4  5  1  0  0  0  0
  4 25  1  0  0  0  0
  5  6  1  0  0  0  0
  5 26  1  0  0  0  0
  5 27  1  0  0  0  0
  6  7  1  0  0  0  0
  6 28  1  0  0  0  0
  6 29  1  0  0  0  0
  7  8  1  0  0  0  0
  7 30  1  0  0  0  0
  8  9  2  0  0  0  0
  8 10  1  0  0  0  0
 10 11  1  0  0  0  0
 10 31  1  0  0  0  0
 11 16  1  0  0  0  0
 11 12  2  0  0  0  0
 12 13  1  0  0  0  0
 12 32  1  0  0  0  0
 13 14  2  0  0  0  0
 13 33  1  0  0  0  0
 14 15  1  0  0  0  0
 14 34  1  0  0  0  0
 15 16  2  0  0  0  0
 16 17  1  0  0  0  0
 17 21  1  0  0  0  0
 17 18  1  0  0  0  0
 18 19  1  0  0  0  0
 18 35  1  0  0  0  0
 18 36  1  0  0  0  0
 19 20  1  0  0  0  0
 19 37  1  0  0  0  0
 19 38  1  0  0  0  0
 20 21  1  0  0  0  0
 20 39  1  0  0  0  0
 20 40  1  0  0  0  0
 21 41  1  0  0  0  0
 21 42  1  0  0  0  0
M  END
> <s_m_source_file>
AV-unprocessed.smi

> <i_m_source_file_index>
2105

> <i_lp_mmshare_version>
43012

> <i_f3d_flags>
0

> <s_epik_input>
W0NIM11DKD1PKVtOSF1bQ0gyXVtDSDJdW05IXUMoPU8pW05IXWMxW2NIXVtjSF1bY0hdbmMxTjJbQ0gyXVtDSDJdW0NIMl1bQ0gyXTI=

> <s_epik_cmdline>
J2VwaWtfcHl0aG9uJywgJy1waCcsICc3LjAnLCAnLXRuJywgJzgnLCAnLW1hJywgJzIwMCcsICctbWV0YWxfYmluZGluZycsICctaW1hZScsICc8aW5maWxlLm1hZT4nLCAnLW9tYWUnLCAnPG91dGZpbGUubWFlPic=

> <r_lp_tautomer_probability>
1

> <r_epik_Ionization_Penalty>
0.0963551

> <r_epik_Ionization_Penalty_Charging>
0

> <r_epik_Ionization_Penalty_Neutral>
0.0963551

> <r_epik_State_Penalty>
0.0859578

> <r_epik_Charging_Adjusted_Penalty>
0.0859578

> <i_epik_Tot_Q>
0

> <i_epik_Tot_abs_Q>
0

> <r_epik_Metal_State_Penalty>
0.0739032

> <b_epik_Metal_Only>
0

> <s_lp_Force_Field>
OPLS_2005

> <r_lp_Energy>
32.5144

> <b_lp_Chiralities_Consistent>
1

> <s_lp_Variant>
AV-unprocessed.smi:2105-1

> <Gold.Version>
5.8.1

> <Gold.Id.Protein>
6NUR|6NUR_protein|mol2

> <Gold.PLP.Fitness>
42.0351

> <Gold.PLP.PLP>
-31.8897

> <Gold.PLP.part.hbond>
-4.0000

> <Gold.PLP.part.metal>
0.0000

> <Gold.PLP.part.buried>
2.2823

> <Gold.PLP.part.nonpolar>
-30.0285

> <Gold.PLP.part.repulsive>
0.8556

> <Gold.PLP.ligand.clash>
0.0000

> <Gold.PLP.ligand.torsion>
0.7146

> <Gold.PLP.Chemscore.Hbond>
2.8188

> <Gold.PLP.Chemscore.CHOScore>
1.0000

> <Gold.PLP.Chemscore.Metal>
0.0000

> <Gold.Chemscore.Hbonds>
donor molecule, donor type, donor heavy atom, donor atom, acceptor molecule, acceptor atom, score
      L1  H     7    30       P1  7948  0.99
      L1  H    10    31       P1  7948  1.00
      P1  H  7989  7998       L1    15  0.81
      L1  C    14    34       P1  8028  1.00

> <Gold.PLP.Chemscore.Internal.Correction>
0.1181

> <Gold.Rescore>
     Score         DG    S(hbond)    S(metal)    S(lipo)     H(rot)  DE(clash)    DE(int)     intcor
     12.71     -16.07       2.19        0.00      70.51       1.94       1.76       1.60       ----

> <Gold.Chemscore.Fitness>
12.7063

> <Gold.Chemscore.DG>
-16.0670

> <Gold.Chemscore.ZeroCoef>
-5.4800

> <Gold.Chemscore.Hbond>
2.1897

> <Gold.Chemscore.Metal>
0.0000

> <Gold.Chemscore.Lipo>
70.5074

> <Gold.Chemscore.Internal_Hbond>
0.0000

> <Gold.Chemscore.DEClash>
1.7583

> <Gold.Chemscore.DEInternal>
1.6025

> <Gold.Chemscore.Rot>
1.9437

> <Gold.Chemscore.Internal.Correction>
   9.000000E+99

> <Gold.Chemscore.Hbonds>
donor molecule, donor type, donor heavy atom, donor atom, acceptor molecule, acceptor atom, score
      L1  H     7    30       P1  7948  0.93
      L1  H    10    31       P1  7948  0.96
      P1  H  7989  7998       L1    15  0.17

> <Gold.Chemscore.Hbond.Weighted>
-7.3135

> <Gold.Chemscore.Metal.Weighted>
-0.0000

> <Gold.Chemscore.Lipo.Weighted>
-8.2494

> <Gold.Chemscore.Internal_Hbond.Weighted>
0.0000

> <Gold.Chemscore.DEClash.Weighted>
1.7583

> <Gold.Chemscore.DEInternal.Weighted>
1.6025

> <Gold.Chemscore.Rot.Weighted>
4.9759

> <Gold.Chemscore.Internal.Correction.Weighted>
   9.000000E+99

> <Gold.Protein.RotatedTorsions>
[ 6907 6896 6895 6894 ] final  -40.77 input  -60.11 | X-H torsion
[ 7974 7965 7964 7962 ] final   11.99 input  175.53 | X-H torsion
[ 8008 7997 7996 7995 ] final -172.62 input   59.86 | X-H torsion
[ 10167 10162 10161 10158 ] final  -91.82 input  -65.29 | X-H torsion
[ 10718 10713 10712 10709 ] final  -85.89 input   66.30 | X-H torsion
[ 10763 10752 10751 10750 ] final -107.59 input  -60.55 | X-H torsion
[ 11005 11000 10999 10996 ] final   44.59 input  -57.11 | X-H torsion

> <Gold.Protein.ActiveResidues>
 VAL166  LYS551  ARG553  GLY616  TRP617  ASP618  TYR619  PRO620  LYS621  CYS622 
 ASP623  PHE694  ASN695  SER759  ASP760  ASP761  ALA762  ILE779  LEU786  VAL792 
 PHE793  MET794  SER795  GLU796  ALA797  LYS798  CYS799  TRP800  GLU811  SER814 

> <Gold.Protein.RotatedAtoms>
  150.9745  134.9112  159.7807 H   0  0  0  0  0  0  0  0  0  0  0  0  # atno 6907 bound_to 6896
  152.5201  134.3495  159.9256 H   0  0  0  0  0  0  0  0  0  0  0  0  # atno 6908 bound_to 6896
  151.3503  133.3887  159.2714 H   0  0  0  0  0  0  0  0  0  0  0  0  # atno 6909 bound_to 6896
  146.2360  139.9403  142.8484 H   0  0  0  0  0  0  0  0  0  0  0  0  # atno 7974 bound_to 7965
  155.9469  140.1119  157.1009 H   0  0  0  0  0  0  0  0  0  0  0  0  # atno 8008 bound_to 7997
  154.4101  140.1208  156.5067 H   0  0  0  0  0  0  0  0  0  0  0  0  # atno 8009 bound_to 7997
  155.6891  140.3472  155.4888 H   0  0  0  0  0  0  0  0  0  0  0  0  # atno 8010 bound_to 7997
  140.3410  143.2942  151.9835 H   0  0  0  0  0  0  0  0  0  0  0  0  # atno 10167 bound_to 10162
  155.9993  130.4746  150.4632 H   0  0  0  0  0  0  0  0  0  0  0  0  # atno 10718 bound_to 10713
  154.8085  135.4669  154.0453 H   0  0  0  0  0  0  0  0  0  0  0  0  # atno 10763 bound_to 10752
  153.1903  135.6854  153.8368 H   0  0  0  0  0  0  0  0  0  0  0  0  # atno 10764 bound_to 10752
  153.7888  135.3246  155.3353 H   0  0  0  0  0  0  0  0  0  0  0  0  # atno 10765 bound_to 10752
  140.1537  134.4429  155.8364 H   0  0  0  0  0  0  0  0  0  0  0  0  # atno 11005 bound_to 11000
  145.1959  140.9833  143.4184 LP  0  0  0  0  0  0  0  0  0  0  0  0  # atno 17320 bound_to 7965
  144.9816  139.3778  143.6259 LP  0  0  0  0  0  0  0  0  0  0  0  0  # atno 17321 bound_to 7965
  139.4840  144.6156  151.7352 LP  0  0  0  0  0  0  0  0  0  0  0  0  # atno 17342 bound_to 10162
  140.5309  144.0732  150.6053 LP  0  0  0  0  0  0  0  0  0  0  0  0  # atno 17343 bound_to 10162
  157.2654  131.0576  151.2294 LP  0  0  0  0  0  0  0  0  0  0  0  0  # atno 17370 bound_to 10713
  157.3393  130.7025  149.6372 LP  0  0  0  0  0  0  0  0  0  0  0  0  # atno 17371 bound_to 10713
  141.2202  133.6883  156.7469 LP  0  0  0  0  0  0  0  0  0  0  0  0  # atno 17394 bound_to 11000
  140.2573  134.8494  157.3725 LP  0  0  0  0  0  0  0  0  0  0  0  0  # atno 17395 bound_to 11000

$$$$
