#       Name:                AV-unprocessed.smi:869
#       Creating user name   scv26
#       Creation time:       Fri Mar 27 01:48:41 2020


#       File generated by GOLD software.
#

@<TRIPOS>MOLECULE
AV-unprocessed.smi:869
    53    55     1
SMALL
NO_CHARGES


@<TRIPOS>ATOM
      1 ****        -1.1360   1.1389  -5.9436 C.3            1 S1                 0.0000
      2 ****        -1.6647   1.7761  -4.7944 O.3            1 S1                 0.0000
      3 ****        -1.5324   0.9800  -3.6261 C.3            1 S1                 0.0000
      4 ****        -2.1150   1.7353  -2.4651 C.2            1 S1                 0.0000
      5 ****        -2.7720   2.8901  -2.6012 N.2            1 S1                 0.0000
      6 ****        -3.1179   3.2021  -1.3015 C.ar           1 S1                 0.0000
      7 ****        -3.8268   4.3077  -0.7792 C.ar           1 S1                 0.0000
      8 ****        -4.0649   4.4125   0.6070 C.ar           1 S1                 0.0000
      9 ****        -3.5994   3.4154   1.4886 C.ar           1 S1                 0.0000
     10 ****        -2.8916   2.3055   0.9886 C.ar           1 S1                 0.0000
     11 ****        -2.6556   2.2067  -0.3957 C.ar           1 S1                 0.0000
     12 ****        -2.0067   1.2705  -1.1943 N.pl3          1 S1                 0.0000
     13 ****        -1.3595   0.0511  -0.7267 C.3            1 S1                 0.0000
     14 ****         0.0069   0.3215  -0.0651 C.3            1 S1                 0.0000
     15 ****         0.8657   0.9336  -1.0072 O.3            1 S1                 0.0000
     16 ****         0.6710  -0.9732   0.4292 C.3            1 S1                 0.0000
     17 ****         1.6264  -0.6453   1.4296 O.3            1 S1                 0.0000
     18 ****         2.3445  -1.6697   2.0084 C.ar           1 S1                 0.0000
     19 ****         3.2793  -1.3136   3.0022 C.ar           1 S1                 0.0000
     20 ****         4.0578  -2.2945   3.6460 C.ar           1 S1                 0.0000
     21 ****         3.9111  -3.6521   3.2999 C.ar           1 S1                 0.0000
     22 ****         4.7460  -4.7113   3.9893 C.3            1 S1                 0.0000
     23 ****         2.9782  -4.0201   2.3105 C.ar           1 S1                 0.0000
     24 ****         2.1988  -3.0384   1.6680 C.ar           1 S1                 0.0000
     25 ****        -1.2611   1.7865  -6.8115 H              1 S1                 0.0000
     26 ****        -1.6524   0.1995  -6.1464 H              1 S1                 0.0000
     27 ****        -0.0707   0.9350  -5.8261 H              1 S1                 0.0000
     28 ****        -2.0647   0.0351  -3.7449 H              1 S1                 0.0000
     29 ****        -0.4806   0.7651  -3.4334 H              1 S1                 0.0000
     30 ****        -4.1874   5.0761  -1.4469 H              1 S1                 0.0000
     31 ****        -4.6074   5.2618   0.9956 H              1 S1                 0.0000
     32 ****        -3.7856   3.5032   2.5489 H              1 S1                 0.0000
     33 ****        -2.5332   1.5404   1.6609 H              1 S1                 0.0000
     34 ****        -2.0291  -0.4271  -0.0110 H              1 S1                 0.0000
     35 ****        -1.2530  -0.6515  -1.5531 H              1 S1                 0.0000
     36 ****        -0.1346   1.0019   0.7757 H              1 S1                 0.0000
     37 ****         1.6882   1.1231  -0.5819 H              1 S1                 0.0000
     38 ****        -0.0857  -1.6189   0.8781 H              1 S1                 0.0000
     39 ****         1.1239  -1.5169  -0.4019 H              1 S1                 0.0000
     40 ****         3.4012  -0.2756   3.2749 H              1 S1                 0.0000
     41 ****         4.7676  -2.0000   4.4051 H              1 S1                 0.0000
     42 ****         4.1908  -5.1451   4.8210 H              1 S1                 0.0000
     43 ****         5.6726  -4.2877   4.3780 H              1 S1                 0.0000
     44 ****         5.0058  -5.5106   3.2947 H              1 S1                 0.0000
     45 ****         2.8566  -5.0588   2.0404 H              1 S1                 0.0000
     46 ****         1.4960  -3.3629   0.9161 H              1 S1                 0.0000
     47 ****        -2.6351   1.9623  -4.9481 LP             1 S1                 0.0000
     48 ****        -1.1782   2.6382  -4.6526 LP             1 S1                 0.0000
     49 ****        -2.9656   3.4023  -3.4379 LP             1 S1                 0.0000
     50 ****         0.4534   1.7822  -1.3386 LP             1 S1                 0.0000
     51 ****         1.0185   0.3142  -1.7773 LP             1 S1                 0.0000
     52 ****         1.1367  -0.1754   2.1640 LP             1 S1                 0.0000
     53 ****         2.2862  -0.0188   1.0148 LP             1 S1                 0.0000
@<TRIPOS>BOND
    1    1    2 1     
    2    1   25 1     
    3    1   26 1     
    4    1   27 1     
    5    2    3 1     
    6    3    4 1     
    7    3   28 1     
    8    3   29 1     
    9    4   12 1     
   10    4    5 2     
   11    5    6 1     
   12    6   11 ar    
   13    6    7 ar    
   14    7    8 ar    
   15    7   30 1     
   16    8    9 ar    
   17    8   31 1     
   18    9   10 ar    
   19    9   32 1     
   20   10   11 ar    
   21   10   33 1     
   22   11   12 1     
   23   12   13 1     
   24   13   14 1     
   25   13   34 1     
   26   13   35 1     
   27   14   15 1     
   28   14   16 1     
   29   14   36 1     
   30   15   37 1     
   31   16   17 1     
   32   16   38 1     
   33   16   39 1     
   34   17   18 1     
   35   18   24 ar    
   36   18   19 ar    
   37   19   20 ar    
   38   19   40 1     
   39   20   21 ar    
   40   20   41 1     
   41   21   22 1     
   42   21   23 ar    
   43   22   42 1     
   44   22   43 1     
   45   22   44 1     
   46   23   24 ar    
   47   23   45 1     
   48   24   46 1     
   49    2   47 1     
   50    2   48 1     
   51    5   49 1     
   52   15   50 1     
   53   15   51 1     
   54   17   52 1     
   55   17   53 1     
@<TRIPOS>SUBSTRUCTURE
      1 S1             1
@<TRIPOS>SET
LONE_PAIRS      STATIC     ATOMS    <user>   **** ""
7 47 48 49 50 51 52 53
DONOR_HYDROGENS      STATIC     ATOMS    <user>   **** ""
1 37
ATOM$BLUE        STATIC     ATOMS    COLORGROUP SYSTEM
7 47 48 49 50 51 52 53
ATOM$RED        STATIC     ATOMS    COLORGROUP SYSTEM
1 37
