AV-unprocessed.smi:101|AV-procd|sdf|917|dock8
  -GOLD-   2262017423D 1   1.00000     0.00000
 Structure written by MMmdl.
 44 46  0  0  0  0  0  0  0  0  1 V2000
  145.2789  144.3399  154.0354 C   0  0  0  0  0  0  0  0  0  0  0  0
  145.6337  143.5115  155.2599 C   0  0  0  0  0  0  0  0  0  0  0  0
  146.3823  142.3819  155.1808 C   0  0  0  0  0  0  0  0  0  0  0  0
  146.7211  141.5974  156.2798 N   0  0  0  0  0  0  0  0  0  0  0  0
  147.5951  140.3573  156.1661 C   0  0  2  0  0  0  0  0  0  0  0  0
  148.8708  140.6367  156.6529 O   0  0  0  0  0  0  0  0  0  0  0  0
  149.6873  141.0706  155.5751 C   0  0  1  0  0  0  0  0  0  0  0  0
  151.1592  141.0268  155.9926 C   0  0  0  0  0  0  0  0  0  0  0  0
  151.3017  141.8465  157.1406 O   0  0  0  0  0  0  0  0  0  0  0  0
  152.1271  141.4873  158.1390 C   0  0  0  0  0  0  0  0  0  0  0  0
  152.7829  140.4439  158.1415 O   0  0  0  0  0  0  0  0  0  0  0  0
  152.1607  142.4882  159.2446 C   0  0  0  0  0  0  0  0  0  0  0  0
  152.7141  142.1233  160.4941 C   0  0  0  0  0  0  0  0  0  0  0  0
  152.7576  143.0471  161.5563 C   0  0  0  0  0  0  0  0  0  0  0  0
  152.2485  144.3473  161.3821 C   0  0  0  0  0  0  0  0  0  0  0  0
  151.6953  144.7228  160.1441 C   0  0  0  0  0  0  0  0  0  0  0  0
  151.6505  143.8004  159.0806 C   0  0  0  0  0  0  0  0  0  0  0  0
  149.2975  140.0861  154.4761 C   0  0  2  0  0  0  0  0  0  0  0  0
  149.5691  140.6374  153.2031 O   0  0  0  0  0  0  0  0  0  0  0  0
  147.7922  139.9238  154.6913 C   0  0  1  0  0  0  0  0  0  0  0  0
  147.4101  138.5792  154.4840 O   0  0  0  0  0  0  0  0  0  0  0  0
  146.3283  142.0219  157.5668 C   0  0  0  0  0  0  0  0  0  0  0  0
  146.6439  141.4185  158.5918 O   0  0  0  0  0  0  0  0  0  0  0  0
  145.5535  143.1772  157.6484 N   0  0  0  0  0  0  0  0  0  0  0  0
  145.1564  143.9675  156.5678 C   0  0  0  0  0  0  0  0  0  0  0  0
  144.4644  144.9646  156.7662 O   0  0  0  0  0  0  0  0  0  0  0  0
  145.2610  143.4736  158.5682 H   0  0  0  0  0  0  0  0  0  0  0  0
  145.6867  143.9092  153.1201 H   0  0  0  0  0  0  0  0  0  0  0  0
  145.6738  145.3518  154.1327 H   0  0  0  0  0  0  0  0  0  0  0  0
  144.1963  144.4038  153.9194 H   0  0  0  0  0  0  0  0  0  0  0  0
  146.7276  142.0998  154.1978 H   0  0  0  0  0  0  0  0  0  0  0  0
  147.1076  139.6148  156.8013 H   0  0  0  0  0  0  0  0  0  0  0  0
  149.4077  142.0839  155.2791 H   0  0  0  0  0  0  0  0  0  0  0  0
  151.4735  140.0025  156.1980 H   0  0  0  0  0  0  0  0  0  0  0  0
  151.7903  141.4182  155.1939 H   0  0  0  0  0  0  0  0  0  0  0  0
  153.1105  141.1304  160.6517 H   0  0  0  0  0  0  0  0  0  0  0  0
  153.1824  142.7569  162.5060 H   0  0  0  0  0  0  0  0  0  0  0  0
  152.2826  145.0555  162.1967 H   0  0  0  0  0  0  0  0  0  0  0  0
  151.3043  145.7204  160.0087 H   0  0  0  0  0  0  0  0  0  0  0  0
  151.2189  144.1221  158.1438 H   0  0  0  0  0  0  0  0  0  0  0  0
  149.8246  139.1399  154.6106 H   0  0  0  0  0  0  0  0  0  0  0  0
  149.2116  140.0600  152.5455 H   0  0  0  0  0  0  0  0  0  0  0  0
  147.2268  140.5775  154.0255 H   0  0  0  0  0  0  0  0  0  0  0  0
  147.9174  138.0334  155.0658 H   0  0  0  0  0  0  0  0  0  0  0  0
  1  2  1  0  0  0  0
  1 28  1  0  0  0  0
  1 29  1  0  0  0  0
  1 30  1  0  0  0  0
  2 25  1  0  0  0  0
  2  3  2  0  0  0  0
  3  4  1  0  0  0  0
  3 31  1  0  0  0  0
  4  5  1  0  0  0  0
  4 22  1  0  0  0  0
  5 20  1  0  0  0  0
  5  6  1  0  0  0  0
  5 32  1  0  0  0  0
  6  7  1  0  0  0  0
  7  8  1  0  0  0  0
  7 18  1  0  0  0  0
  7 33  1  0  0  0  0
  8  9  1  0  0  0  0
  8 34  1  0  0  0  0
  8 35  1  0  0  0  0
  9 10  1  0  0  0  0
 10 11  2  0  0  0  0
 10 12  1  0  0  0  0
 12 17  1  0  0  0  0
 12 13  2  0  0  0  0
 13 14  1  0  0  0  0
 13 36  1  0  0  0  0
 14 15  2  0  0  0  0
 14 37  1  0  0  0  0
 15 16  1  0  0  0  0
 15 38  1  0  0  0  0
 16 17  2  0  0  0  0
 16 39  1  0  0  0  0
 17 40  1  0  0  0  0
 18 19  1  0  0  0  0
 18 20  1  0  0  0  0
 18 41  1  0  0  0  0
 19 42  1  0  0  0  0
 20 21  1  0  0  0  0
 20 43  1  0  0  0  0
 21 44  1  0  0  0  0
 22 23  2  0  0  0  0
 22 24  1  0  0  0  0
 24 27  1  0  0  0  0
 24 25  1  0  0  0  0
 25 26  2  0  0  0  0
M  END
> <s_m_source_file>
AV-unprocessed.smi

> <i_m_source_file_index>
101

> <i_lp_mmshare_version>
43012

> <i_f3d_flags>
0

> <s_epik_input>
Tz1jMVtuSF1jKD1PKW4oW2NIXWMxW0NIM10pW0NAQEhdMk9bQ0BIXShbQ0BASF0oW09IXSlbQ0BIXTJbT0hdKVtDSDJdT0MoPU8pYzNbY0hdW2NIXVtjSF1bY0hdW2NIXTM=

> <s_epik_cmdline>
J2VwaWtfcHl0aG9uJywgJy1waCcsICc3LjAnLCAnLXRuJywgJzgnLCAnLW1hJywgJzIwMCcsICctbWV0YWxfYmluZGluZycsICctaW1hZScsICc8aW5maWxlLm1hZT4nLCAnLW9tYWUnLCAnPG91dGZpbGUubWFlPic=

> <r_lp_tautomer_probability>
0.999537

> <r_epik_Ionization_Penalty>
0.00263537

> <r_epik_Ionization_Penalty_Charging>
0.00263428

> <r_epik_Ionization_Penalty_Neutral>
1.09111e-06

> <r_epik_State_Penalty>
0.00183335

> <r_epik_Charging_Adjusted_Penalty>
0.00446763

> <i_epik_Tot_Q>
0

> <i_epik_Tot_abs_Q>
0

> <r_epik_Metal_State_Penalty>
1.00528

> <b_epik_Metal_Only>
0

> <s_epik_Chemistry_Notes>
This compound has an ester and may undergo hydrolysis at high or low pH. This compound contains an acetal/aminal-like group ( X-CH(R)-Y where X, Y are N, S, or O) that may be acid/base labile, releasing an aldehyde.

> <s_lp_Force_Field>
OPLS_2005

> <r_lp_Energy>
27.5612

> <b_lp_Chiralities_Consistent>
1

> <s_lp_Variant>
AV-unprocessed.smi:101-5

> <Gold.Version>
5.8.1

> <Gold.Id.Protein>
6NUR|6NUR_protein|mol2

> <Gold.PLP.Fitness>
52.2457

> <Gold.PLP.PLP>
-44.8813

> <Gold.PLP.part.hbond>
-3.5257

> <Gold.PLP.part.metal>
0.0000

> <Gold.PLP.part.buried>
-6.5910

> <Gold.PLP.part.nonpolar>
-33.2355

> <Gold.PLP.part.repulsive>
0.1758

> <Gold.PLP.ligand.clash>
0.0000

> <Gold.PLP.ligand.torsion>
0.6149

> <Gold.PLP.Chemscore.Hbond>
2.8436

> <Gold.PLP.Chemscore.CHOScore>
0.0000

> <Gold.PLP.Chemscore.Metal>
0.0000

> <Gold.Chemscore.Hbonds>
donor molecule, donor type, donor heavy atom, donor atom, acceptor molecule, acceptor atom, score
      L1  H    19    42       P1  7957  0.39
      P1  H  6934  6946       L1    23  0.32
      P1  H  7989  7998       L1    19  0.24
      P1  H  7997  8008       L1    11  0.62
      P1  H  8011  8017       L1    19  1.00

> <Gold.PLP.Chemscore.Internal.Correction>
0.0635

> <Gold.Rescore>
     Score         DG    S(hbond)    S(metal)    S(lipo)     H(rot)  DE(clash)    DE(int)     intcor
     15.68     -16.47       2.16        0.00     104.88       3.32       0.11       0.68       ----

> <Gold.Chemscore.Fitness>
15.6795

> <Gold.Chemscore.DG>
-16.4662

> <Gold.Chemscore.ZeroCoef>
-5.4800

> <Gold.Chemscore.Hbond>
2.1580

> <Gold.Chemscore.Metal>
0.0000

> <Gold.Chemscore.Lipo>
104.8763

> <Gold.Chemscore.Internal_Hbond>
0.0000

> <Gold.Chemscore.DEClash>
0.1089

> <Gold.Chemscore.DEInternal>
0.6778

> <Gold.Chemscore.Rot>
3.3172

> <Gold.Chemscore.Internal.Correction>
   9.000000E+99

> <Gold.Chemscore.Hbonds>
donor molecule, donor type, donor heavy atom, donor atom, acceptor molecule, acceptor atom, score
      L1  H    19    42       P1  7957  0.38
      P1  H  6934  6946       L1    23  0.31
      P1  H  7989  7998       L1    19  0.04
      P1  H  7997  8008       L1    11  0.62
      P1  H  8011  8017       L1    19  0.54

> <Gold.Chemscore.Hbond.Weighted>
-7.2077

> <Gold.Chemscore.Metal.Weighted>
-0.0000

> <Gold.Chemscore.Lipo.Weighted>
-12.2705

> <Gold.Chemscore.Internal_Hbond.Weighted>
0.0000

> <Gold.Chemscore.DEClash.Weighted>
0.1089

> <Gold.Chemscore.DEInternal.Weighted>
0.6778

> <Gold.Chemscore.Rot.Weighted>
8.4920

> <Gold.Chemscore.Internal.Correction.Weighted>
   9.000000E+99

> <Gold.Protein.RotatedTorsions>
[ 6907 6896 6895 6894 ] final   94.67 input  -60.11 | X-H torsion
[ 7974 7965 7964 7962 ] final  -51.48 input  175.53 | X-H torsion
[ 8008 7997 7996 7995 ] final  -79.08 input   59.86 | X-H torsion
[ 10167 10162 10161 10158 ] final  -30.34 input  -65.29 | X-H torsion
[ 10718 10713 10712 10709 ] final  150.76 input   66.30 | X-H torsion
[ 10763 10752 10751 10750 ] final   16.53 input  -60.55 | X-H torsion
[ 11005 11000 10999 10996 ] final  -63.15 input  -57.11 | X-H torsion

> <Gold.Protein.ActiveResidues>
 VAL166  LYS551  ARG553  GLY616  TRP617  ASP618  TYR619  PRO620  LYS621  CYS622 
 ASP623  PHE694  ASN695  SER759  ASP760  ASP761  ALA762  ILE779  LEU786  VAL792 
 PHE793  MET794  SER795  GLU796  ALA797  LYS798  CYS799  TRP800  GLU811  SER814 

> <Gold.Protein.RotatedAtoms>
  152.5448  134.1158  159.8377 H   0  0  0  0  0  0  0  0  0  0  0  0  # atno 6907 bound_to 6896
  151.1219  133.5090  159.2609 H   0  0  0  0  0  0  0  0  0  0  0  0  # atno 6908 bound_to 6896
  151.1769  135.0353  159.8830 H   0  0  0  0  0  0  0  0  0  0  0  0  # atno 6909 bound_to 6896
  145.9184  140.7854  142.9659 H   0  0  0  0  0  0  0  0  0  0  0  0  # atno 7974 bound_to 7965
  154.5751  140.0684  156.9022 H   0  0  0  0  0  0  0  0  0  0  0  0  # atno 8008 bound_to 7997
  155.2564  140.3355  155.4259 H   0  0  0  0  0  0  0  0  0  0  0  0  # atno 8009 bound_to 7997
  156.2148  140.1774  156.7600 H   0  0  0  0  0  0  0  0  0  0  0  0  # atno 8010 bound_to 7997
  140.7250  143.3857  151.1520 H   0  0  0  0  0  0  0  0  0  0  0  0  # atno 10167 bound_to 10162
  157.2793  131.0832  151.1543 H   0  0  0  0  0  0  0  0  0  0  0  0  # atno 10718 bound_to 10713
  153.1422  135.6762  153.9009 H   0  0  0  0  0  0  0  0  0  0  0  0  # atno 10763 bound_to 10752
  153.8462  135.3099  155.3431 H   0  0  0  0  0  0  0  0  0  0  0  0  # atno 10764 bound_to 10752
  154.7797  135.4895  153.9902 H   0  0  0  0  0  0  0  0  0  0  0  0  # atno 10765 bound_to 10752
  141.1383  133.6648  156.5636 H   0  0  0  0  0  0  0  0  0  0  0  0  # atno 11005 bound_to 11000
  144.6750  140.1937  143.7394 LP  0  0  0  0  0  0  0  0  0  0  0  0  # atno 17320 bound_to 7965
  145.8581  139.2209  143.1733 LP  0  0  0  0  0  0  0  0  0  0  0  0  # atno 17321 bound_to 7965
  139.7453  143.8861  152.3062 LP  0  0  0  0  0  0  0  0  0  0  0  0  # atno 17342 bound_to 10162
  139.8696  144.7075  150.9003 LP  0  0  0  0  0  0  0  0  0  0  0  0  # atno 17343 bound_to 10162
  157.2984  130.6830  149.6151 LP  0  0  0  0  0  0  0  0  0  0  0  0  # atno 17370 bound_to 10713
  155.9664  130.4399  150.5280 LP  0  0  0  0  0  0  0  0  0  0  0  0  # atno 17371 bound_to 10713
  140.3969  134.7391  157.4756 LP  0  0  0  0  0  0  0  0  0  0  0  0  # atno 17394 bound_to 11000
  140.0525  134.6111  155.8845 LP  0  0  0  0  0  0  0  0  0  0  0  0  # atno 17395 bound_to 11000

$$$$
