AV-unprocessed.smi:3226|AV-procd|sdf|12314|dock3
  -GOLD-   2272018163D 1   1.00000     0.00000
 Structure written by MMmdl.
 41 43  0  0  0  0  0  0  0  0  2 V2000
  150.0150  136.5576  155.1399 C   0  0  0  0  0  0  0  0  0  0  0  0
  151.1325  137.4380  154.5697 C   0  0  0  0  0  0  0  0  0  0  0  0
  151.7782  138.2965  155.6132 C   0  0  0  0  0  0  0  0  0  0  0  0
  152.9941  138.0514  156.1159 N   0  0  0  0  0  0  0  0  0  0  0  0
  153.2396  139.0706  157.0137 N   0  0  0  0  0  0  0  0  0  0  0  0
  152.1516  139.8359  156.9565 C   0  0  0  0  0  0  0  0  0  0  0  0
  151.2011  139.4118  156.1094 N   0  0  0  0  0  0  0  0  0  0  0  0
  149.9135  140.0213  155.8224 C   0  0  0  0  0  0  0  0  0  0  0  0
  150.0357  141.5101  155.4587 C   0  0  0  0  0  0  0  0  0  0  0  0
  149.8717  142.3786  156.6422 N   0  3  0  0  0  0  0  0  0  0  0  0
  151.1267  142.6409  157.3730 C   0  0  0  0  0  0  0  0  0  0  0  0
  151.1224  144.0474  158.0008 C   0  0  1  0  0  0  0  0  0  0  0  0
  150.1413  144.2219  159.2020 C   0  0  0  0  0  0  0  0  0  0  0  0
  151.0525  144.7861  160.3165 C   0  0  1  0  0  0  0  0  0  0  0  0
  152.0078  143.6862  160.7262 C   0  0  0  0  0  0  0  0  0  0  0  0
  152.8599  143.5050  159.7159 C   0  0  0  0  0  0  0  0  0  0  0  0
  152.4771  144.4818  158.6208 C   0  0  2  0  0  0  0  0  0  0  0  0
  151.9938  145.6575  159.4784 C   0  0  0  0  0  0  0  0  0  0  0  0
  149.5615  135.9492  154.3571 H   0  0  0  0  0  0  0  0  0  0  0  0
  149.2275  137.1635  155.5894 H   0  0  0  0  0  0  0  0  0  0  0  0
  150.3970  135.8830  155.9065 H   0  0  0  0  0  0  0  0  0  0  0  0
  151.8854  136.8185  154.0831 H   0  0  0  0  0  0  0  0  0  0  0  0
  150.7247  138.0853  153.7925 H   0  0  0  0  0  0  0  0  0  0  0  0
  152.0438  140.7305  157.5523 H   0  0  0  0  0  0  0  0  0  0  0  0
  149.4376  139.4689  155.0110 H   0  0  0  0  0  0  0  0  0  0  0  0
  149.2700  139.9004  156.6941 H   0  0  0  0  0  0  0  0  0  0  0  0
  151.0182  141.6930  155.0218 H   0  0  0  0  0  0  0  0  0  0  0  0
  149.2970  141.7813  154.7034 H   0  0  0  0  0  0  0  0  0  0  0  0
  149.4833  143.2615  156.3423 H   0  0  0  0  0  0  0  0  0  0  0  0
  151.2627  141.8747  158.1372 H   0  0  0  0  0  0  0  0  0  0  0  0
  151.9628  142.5531  156.6781 H   0  0  0  0  0  0  0  0  0  0  0  0
  150.8604  144.7689  157.2245 H   0  0  0  0  0  0  0  0  0  0  0  0
  149.3470  144.9262  158.9507 H   0  0  0  0  0  0  0  0  0  0  0  0
  149.6700  143.2863  159.5062 H   0  0  0  0  0  0  0  0  0  0  0  0
  150.5525  145.2919  161.1429 H   0  0  0  0  0  0  0  0  0  0  0  0
  151.9615  143.1443  161.6594 H   0  0  0  0  0  0  0  0  0  0  0  0
  153.6593  142.7822  159.6460 H   0  0  0  0  0  0  0  0  0  0  0  0
  153.2761  144.7190  157.9178 H   0  0  0  0  0  0  0  0  0  0  0  0
  151.4856  146.4416  158.9136 H   0  0  0  0  0  0  0  0  0  0  0  0
  152.7925  146.1116  160.0690 H   0  0  0  0  0  0  0  0  0  0  0  0
  149.2213  141.9382  157.2773 H   0  0  0  0  0  0  0  0  0  0  0  0
  1  2  1  0  0  0  0
  1 19  1  0  0  0  0
  1 20  1  0  0  0  0
  1 21  1  0  0  0  0
  2  3  1  0  0  0  0
  2 22  1  0  0  0  0
  2 23  1  0  0  0  0
  3  7  1  0  0  0  0
  3  4  2  0  0  0  0
  4  5  1  0  0  0  0
  5  6  2  0  0  0  0
  6  7  1  0  0  0  0
  6 24  1  0  0  0  0
  7  8  1  0  0  0  0
  8  9  1  0  0  0  0
  8 25  1  0  0  0  0
  8 26  1  0  0  0  0
  9 10  1  0  0  0  0
  9 27  1  0  0  0  0
  9 28  1  0  0  0  0
 10 11  1  0  0  0  0
 10 29  1  0  0  0  0
 10 41  1  0  0  0  0
 11 12  1  0  0  0  0
 11 30  1  0  0  0  0
 11 31  1  0  0  0  0
 12 17  1  0  0  0  0
 12 13  1  0  0  0  0
 12 32  1  0  0  0  0
 13 14  1  0  0  0  0
 13 33  1  0  0  0  0
 13 34  1  0  0  0  0
 14 18  1  0  0  0  0
 14 15  1  0  0  0  0
 14 35  1  0  0  0  0
 15 16  2  0  0  0  0
 15 36  1  0  0  0  0
 16 17  1  0  0  0  0
 16 37  1  0  0  0  0
 17 18  1  0  0  0  0
 17 38  1  0  0  0  0
 18 39  1  0  0  0  0
 18 40  1  0  0  0  0
M  CHG  1  10   1
M  END
> <s_m_source_file>
AV-unprocessed.smi

> <i_m_source_file_index>
3226

> <i_lp_mmshare_version>
43012

> <i_f3d_flags>
0

> <s_epik_input>
W0NIM11bQ0gyXWMxbm5bY0hdbjFbQ0gyXVtDSDJdW05IXVtDSDJdW0NASF0oW0NIMl1bQ0BASF0yMylbQ0BASF0oW0NIMl0zKVtDSF09W0NIXTI=

> <s_epik_cmdline>
J2VwaWtfcHl0aG9uJywgJy1waCcsICc3LjAnLCAnLXRuJywgJzgnLCAnLW1hJywgJzIwMCcsICctbWV0YWxfYmluZGluZycsICctaW1hZScsICc8aW5maWxlLm1hZT4nLCAnLW9tYWUnLCAnPG91dGZpbGUubWFlPic=

> <r_lp_tautomer_probability>
1

> <r_epik_Ionization_Penalty>
0.00175008

> <r_epik_Ionization_Penalty_Charging>
0.00173932

> <r_epik_Ionization_Penalty_Neutral>
1.07546e-05

> <r_epik_State_Penalty>
-0

> <r_epik_Charging_Adjusted_Penalty>
0.00173932

> <i_epik_Tot_Q>
1

> <i_epik_Tot_abs_Q>
1

> <r_epik_Metal_State_Penalty>
-0

> <b_epik_Metal_Only>
0

> <s_lp_Force_Field>
OPLS_2005

> <r_lp_Energy>
65.2823

> <b_lp_Chiralities_Consistent>
1

> <s_lp_Variant>
AV-unprocessed.smi:3226-2

> <Gold.Version>
5.8.1

> <Gold.Id.Protein>
6NUR|6NUR_protein|mol2

> <Gold.PLP.Fitness>
50.6012

> <Gold.PLP.PLP>
-43.3223

> <Gold.PLP.part.hbond>
-1.8716

> <Gold.PLP.part.metal>
0.0000

> <Gold.PLP.part.buried>
-4.4209

> <Gold.PLP.part.nonpolar>
-38.1774

> <Gold.PLP.part.repulsive>
0.0436

> <Gold.PLP.ligand.clash>
0.0000

> <Gold.PLP.ligand.torsion>
0.8988

> <Gold.PLP.Chemscore.Hbond>
3.0000

> <Gold.PLP.Chemscore.CHOScore>
0.0000

> <Gold.PLP.Chemscore.Metal>
0.0000

> <Gold.Chemscore.Hbonds>
donor molecule, donor type, donor heavy atom, donor atom, acceptor molecule, acceptor atom, score
      L1  H    10    29       P1  8028  2.00
      P1  H  7997  8009       L1     5  1.00

> <Gold.PLP.Chemscore.Internal.Correction>
0.0766

> <Gold.Rescore>
     Score         DG    S(hbond)    S(metal)    S(lipo)     H(rot)  DE(clash)    DE(int)     intcor
     17.58     -18.49       1.43        0.00     115.49       2.06       0.04       0.87       ----

> <Gold.Chemscore.Fitness>
17.5801

> <Gold.Chemscore.DG>
-18.4853

> <Gold.Chemscore.ZeroCoef>
-5.4800

> <Gold.Chemscore.Hbond>
1.4288

> <Gold.Chemscore.Metal>
0.0000

> <Gold.Chemscore.Lipo>
115.4922

> <Gold.Chemscore.Internal_Hbond>
0.0000

> <Gold.Chemscore.DEClash>
0.0361

> <Gold.Chemscore.DEInternal>
0.8691

> <Gold.Chemscore.Rot>
2.0623

> <Gold.Chemscore.Internal.Correction>
   9.000000E+99

> <Gold.Chemscore.Hbonds>
donor molecule, donor type, donor heavy atom, donor atom, acceptor molecule, acceptor atom, score
      L1  H    10    29       P1  8028  1.00
      P1  H  7997  8009       L1     5  0.62

> <Gold.Chemscore.Hbond.Weighted>
-4.7724

> <Gold.Chemscore.Metal.Weighted>
-0.0000

> <Gold.Chemscore.Lipo.Weighted>
-13.5126

> <Gold.Chemscore.Internal_Hbond.Weighted>
0.0000

> <Gold.Chemscore.DEClash.Weighted>
0.0361

> <Gold.Chemscore.DEInternal.Weighted>
0.8691

> <Gold.Chemscore.Rot.Weighted>
5.2796

> <Gold.Chemscore.Internal.Correction.Weighted>
   9.000000E+99

> <Gold.Protein.RotatedTorsions>
[ 6907 6896 6895 6894 ] final  -55.79 input  -60.11 | X-H torsion
[ 7974 7965 7964 7962 ] final  -63.09 input  175.53 | X-H torsion
[ 8008 7997 7996 7995 ] final  161.70 input   59.86 | X-H torsion
[ 10167 10162 10161 10158 ] final    1.19 input  -65.29 | X-H torsion
[ 10718 10713 10712 10709 ] final  -24.73 input   66.30 | X-H torsion
[ 10763 10752 10751 10750 ] final  -15.47 input  -60.55 | X-H torsion
[ 11005 11000 10999 10996 ] final  -21.61 input  -57.11 | X-H torsion

> <Gold.Protein.ActiveResidues>
 VAL166  LYS551  ARG553  GLY616  TRP617  ASP618  TYR619  PRO620  LYS621  CYS622 
 ASP623  PHE694  ASN695  SER759  ASP760  ASP761  ALA762  ILE779  LEU786  VAL792 
 PHE793  MET794  SER795  GLU796  ALA797  LYS798  CYS799  TRP800  GLU811  SER814 

> <Gold.Protein.RotatedAtoms>
  150.8222  134.7435  159.6781 H   0  0  0  0  0  0  0  0  0  0  0  0  # atno 6907 bound_to 6896
  152.4336  134.5726  159.9935 H   0  0  0  0  0  0  0  0  0  0  0  0  # atno 6908 bound_to 6896
  151.5907  133.3329  159.3063 H   0  0  0  0  0  0  0  0  0  0  0  0  # atno 6909 bound_to 6896
  145.7833  140.8750  143.0319 H   0  0  0  0  0  0  0  0  0  0  0  0  # atno 7974 bound_to 7965
  156.2084  140.1770  156.7749 H   0  0  0  0  0  0  0  0  0  0  0  0  # atno 8008 bound_to 7997
  154.5688  140.0686  156.8962 H   0  0  0  0  0  0  0  0  0  0  0  0  # atno 8009 bound_to 7997
  155.2712  140.3342  155.4267 H   0  0  0  0  0  0  0  0  0  0  0  0  # atno 8010 bound_to 7997
  140.6694  143.7090  150.7892 H   0  0  0  0  0  0  0  0  0  0  0  0  # atno 10167 bound_to 10162
  156.4737  130.4530  149.6853 H   0  0  0  0  0  0  0  0  0  0  0  0  # atno 10718 bound_to 10713
  153.5438  135.7013  153.5624 H   0  0  0  0  0  0  0  0  0  0  0  0  # atno 10763 bound_to 10752
  153.3578  135.3978  155.1695 H   0  0  0  0  0  0  0  0  0  0  0  0  # atno 10764 bound_to 10752
  154.8670  135.3781  154.4944 H   0  0  0  0  0  0  0  0  0  0  0  0  # atno 10765 bound_to 10752
  140.8578  133.7810  156.0039 H   0  0  0  0  0  0  0  0  0  0  0  0  # atno 11005 bound_to 11000
  144.6793  140.0020  143.7484 LP  0  0  0  0  0  0  0  0  0  0  0  0  # atno 17320 bound_to 7965
  146.0052  139.3123  143.0904 LP  0  0  0  0  0  0  0  0  0  0  0  0  # atno 17321 bound_to 7965
  140.0773  143.5003  152.2549 LP  0  0  0  0  0  0  0  0  0  0  0  0  # atno 17342 bound_to 10162
  139.5956  144.7566  151.3294 LP  0  0  0  0  0  0  0  0  0  0  0  0  # atno 17343 bound_to 10162
  156.3592  130.7472  151.2442 LP  0  0  0  0  0  0  0  0  0  0  0  0  # atno 17370 bound_to 10713
  157.7489  131.0355  150.4366 LP  0  0  0  0  0  0  0  0  0  0  0  0  # atno 17371 bound_to 10713
  140.8718  134.2717  157.5187 LP  0  0  0  0  0  0  0  0  0  0  0  0  # atno 17394 bound_to 11000
  139.8706  134.9571  156.4258 LP  0  0  0  0  0  0  0  0  0  0  0  0  # atno 17395 bound_to 11000

$$$$
