AV-unprocessed.smi:2061|AV-procd|sdf|8381|dock8
  -GOLD-   2272011 63D 1   1.00000     0.00000
 Structure written by MMmdl.
 45 46  0  0  0  0  0  0  0  0  3 V2000
  146.0138  133.3253  161.3129 C   0  0  0  0  0  0  0  0  0  0  0  0
  146.9304  134.2711  160.6149 C   0  0  0  0  0  0  0  0  0  0  0  0
  147.1797  135.6053  160.7694 C   0  0  0  0  0  0  0  0  0  0  0  0
  148.1564  135.8712  159.7711 C   0  0  0  0  0  0  0  0  0  0  0  0
  148.7345  137.0578  159.5288 N   0  5  0  0  0  0  0  0  0  0  0  0
  149.6891  137.1690  158.5776 C   0  0  0  0  0  0  0  0  0  0  0  0
  150.3131  136.2435  158.0530 O   0  0  0  0  0  0  0  0  0  0  0  0
  149.9324  138.4333  158.2043 N   0  0  0  0  0  0  0  0  0  0  0  0
  150.8892  138.8501  157.1838 C   0  0  0  0  0  0  0  0  0  0  0  0
  150.8085  140.3655  156.8600 C   0  0  1  0  0  0  0  0  0  0  0  0
  149.4040  140.7204  156.3135 C   0  0  0  0  0  0  0  0  0  0  0  0
  151.2063  141.1699  158.0609 N   0  3  1  0  0  0  0  0  0  0  0  0
  152.3973  140.6084  158.7536 C   0  0  0  0  0  0  0  0  0  0  0  0
  152.7019  141.3856  160.0468 C   0  0  1  0  0  0  0  0  0  0  0  0
  153.9562  140.8628  160.7561 C   0  0  0  0  0  0  0  0  0  0  0  0
  152.9166  142.7521  159.7199 O   0  0  0  0  0  0  0  0  0  0  0  0
  151.7673  143.3539  159.1391 C   0  0  1  0  0  0  0  0  0  0  0  0
  152.0736  144.8384  158.9116 C   0  0  0  0  0  0  0  0  0  0  0  0
  151.4129  142.6258  157.8275 C   0  0  0  0  0  0  0  0  0  0  0  0
  148.4848  134.7898  159.0847 N   0  0  0  0  0  0  0  0  0  0  0  0
  147.6976  133.7606  159.6144 O   0  0  0  0  0  0  0  0  0  0  0  0
  146.1029  133.4287  162.3942 H   0  0  0  0  0  0  0  0  0  0  0  0
  146.2427  132.2915  161.0530 H   0  0  0  0  0  0  0  0  0  0  0  0
  144.9773  133.5214  161.0382 H   0  0  0  0  0  0  0  0  0  0  0  0
  146.7321  136.2842  161.4794 H   0  0  0  0  0  0  0  0  0  0  0  0
  149.4036  139.1611  158.6623 H   0  0  0  0  0  0  0  0  0  0  0  0
  151.8879  138.6045  157.5456 H   0  0  0  0  0  0  0  0  0  0  0  0
  150.7304  138.2319  156.3010 H   0  0  0  0  0  0  0  0  0  0  0  0
  151.5186  140.5956  156.0642 H   0  0  0  0  0  0  0  0  0  0  0  0
  149.1356  140.1006  155.4578 H   0  0  0  0  0  0  0  0  0  0  0  0
  149.3516  141.7491  155.9571 H   0  0  0  0  0  0  0  0  0  0  0  0
  148.6330  140.5790  157.0713 H   0  0  0  0  0  0  0  0  0  0  0  0
  152.2468  139.5599  159.0039 H   0  0  0  0  0  0  0  0  0  0  0  0
  153.2579  140.6496  158.0835 H   0  0  0  0  0  0  0  0  0  0  0  0
  151.8574  141.3048  160.7337 H   0  0  0  0  0  0  0  0  0  0  0  0
  153.8415  139.8151  161.0353 H   0  0  0  0  0  0  0  0  0  0  0  0
  154.1526  141.4288  161.6672 H   0  0  0  0  0  0  0  0  0  0  0  0
  154.8358  140.9448  160.1169 H   0  0  0  0  0  0  0  0  0  0  0  0
  150.9317  143.2776  159.8372 H   0  0  0  0  0  0  0  0  0  0  0  0
  151.2162  145.3561  158.4811 H   0  0  0  0  0  0  0  0  0  0  0  0
  152.9179  144.9684  158.2337 H   0  0  0  0  0  0  0  0  0  0  0  0
  152.3226  145.3330  159.8508 H   0  0  0  0  0  0  0  0  0  0  0  0
  152.2030  142.7671  157.0881 H   0  0  0  0  0  0  0  0  0  0  0  0
  150.5074  143.0860  157.4329 H   0  0  0  0  0  0  0  0  0  0  0  0
  150.4327  141.1039  158.7069 H   0  0  0  0  0  0  0  0  0  0  0  0
  1  2  1  0  0  0  0
  1 22  1  0  0  0  0
  1 23  1  0  0  0  0
  1 24  1  0  0  0  0
  2 21  1  0  0  0  0
  2  3  2  0  0  0  0
  3  4  1  0  0  0  0
  3 25  1  0  0  0  0
  4  5  1  0  0  0  0
  4 20  2  0  0  0  0
  5  6  1  0  0  0  0
  6  7  2  0  0  0  0
  6  8  1  0  0  0  0
  8  9  1  0  0  0  0
  8 26  1  0  0  0  0
  9 10  1  0  0  0  0
  9 27  1  0  0  0  0
  9 28  1  0  0  0  0
 10 11  1  0  0  0  0
 10 12  1  0  0  0  0
 10 29  1  0  0  0  0
 11 30  1  0  0  0  0
 11 31  1  0  0  0  0
 11 32  1  0  0  0  0
 12 19  1  0  0  0  0
 12 13  1  0  0  0  0
 12 45  1  0  0  0  0
 13 14  1  0  0  0  0
 13 33  1  0  0  0  0
 13 34  1  0  0  0  0
 14 15  1  0  0  0  0
 14 16  1  0  0  0  0
 14 35  1  0  0  0  0
 15 36  1  0  0  0  0
 15 37  1  0  0  0  0
 15 38  1  0  0  0  0
 16 17  1  0  0  0  0
 17 18  1  0  0  0  0
 17 19  1  0  0  0  0
 17 39  1  0  0  0  0
 18 40  1  0  0  0  0
 18 41  1  0  0  0  0
 18 42  1  0  0  0  0
 19 43  1  0  0  0  0
 19 44  1  0  0  0  0
 20 21  1  0  0  0  0
M  CHG  1   5  -1
M  CHG  1  12   1
M  END
> <s_m_source_file>
AV-unprocessed.smi

> <i_m_source_file_index>
2061

> <i_lp_mmshare_version>
43012

> <i_f3d_flags>
0

> <s_epik_input>
W0NIM11jMVtjSF1jKG5vMSlbTkhdQyg9TylbTkhdW0NIMl1bQ0BIXShbQ0gzXSlOMltDSDJdW0NAQEhdKFtDSDNdKU9bQ0BASF0oW0NIM10pW0NIMl0y

> <s_epik_cmdline>
J2VwaWtfcHl0aG9uJywgJy1waCcsICc3LjAnLCAnLXRuJywgJzgnLCAnLW1hJywgJzIwMCcsICctbWV0YWxfYmluZGluZycsICctaW1hZScsICc8aW5maWxlLm1hZT4nLCAnLW9tYWUnLCAnPG91dGZpbGUubWFlPic=

> <r_epik_Ionization_Penalty>
6.73511

> <r_epik_Ionization_Penalty_Charging>
6.73502

> <r_epik_Ionization_Penalty_Neutral>
9.50841e-05

> <r_epik_State_Penalty>
6.93549

> <r_epik_Charging_Adjusted_Penalty>
13.6705

> <i_epik_Tot_Q>
0

> <i_epik_Tot_abs_Q>
2

> <r_epik_Metal_State_Penalty>
2.87211

> <b_epik_Metal_Only>
1

> <s_lp_Force_Field>
OPLS_2005

> <r_lp_Energy>
8.02842

> <b_lp_Chiralities_Consistent>
1

> <s_lp_Variant>
AV-unprocessed.smi:2061-22

> <Gold.Version>
5.8.1

> <Gold.Id.Protein>
6NUR|6NUR_protein|mol2

> <Gold.PLP.Fitness>
45.8672

> <Gold.PLP.PLP>
-40.9016

> <Gold.PLP.part.hbond>
-3.6767

> <Gold.PLP.part.metal>
0.0000

> <Gold.PLP.part.buried>
-5.9617

> <Gold.PLP.part.nonpolar>
-32.7193

> <Gold.PLP.part.repulsive>
0.2758

> <Gold.PLP.ligand.clash>
0.0000

> <Gold.PLP.ligand.torsion>
0.2461

> <Gold.PLP.Chemscore.Hbond>
1.7913

> <Gold.PLP.Chemscore.CHOScore>
0.0000

> <Gold.PLP.Chemscore.Metal>
0.0000

> <Gold.Chemscore.Hbonds>
donor molecule, donor type, donor heavy atom, donor atom, acceptor molecule, acceptor atom, score
      P1  H  6896  6908       L1    20  0.52

> <Gold.PLP.Chemscore.Internal.Correction>
0.0842

> <Gold.Rescore>
     Score         DG    S(hbond)    S(metal)    S(lipo)     H(rot)  DE(clash)    DE(int)     intcor
     13.56     -15.71       0.63        0.00     103.53       1.56       0.18       1.97       ----

> <Gold.Chemscore.Fitness>
13.5643

> <Gold.Chemscore.DG>
-15.7133

> <Gold.Chemscore.ZeroCoef>
-5.4800

> <Gold.Chemscore.Hbond>
0.6293

> <Gold.Chemscore.Metal>
0.0000

> <Gold.Chemscore.Lipo>
103.5256

> <Gold.Chemscore.Internal_Hbond>
0.0000

> <Gold.Chemscore.DEClash>
0.1807

> <Gold.Chemscore.DEInternal>
1.9683

> <Gold.Chemscore.Rot>
1.5550

> <Gold.Chemscore.Internal.Correction>
   9.000000E+99

> <Gold.Chemscore.Hbonds>
donor molecule, donor type, donor heavy atom, donor atom, acceptor molecule, acceptor atom, score
      P1  H  6896  6908       L1     7  0.21

> <Gold.Chemscore.Hbond.Weighted>
-2.1017

> <Gold.Chemscore.Metal.Weighted>
-0.0000

> <Gold.Chemscore.Lipo.Weighted>
-12.1125

> <Gold.Chemscore.Internal_Hbond.Weighted>
0.0000

> <Gold.Chemscore.DEClash.Weighted>
0.1807

> <Gold.Chemscore.DEInternal.Weighted>
1.9683

> <Gold.Chemscore.Rot.Weighted>
3.9809

> <Gold.Chemscore.Internal.Correction.Weighted>
   9.000000E+99

> <Gold.Protein.RotatedTorsions>
[ 6907 6896 6895 6894 ] final  164.82 input  -60.11 | X-H torsion
[ 7974 7965 7964 7962 ] final  -85.58 input  175.53 | X-H torsion
[ 8008 7997 7996 7995 ] final  -32.77 input   59.86 | X-H torsion
[ 10167 10162 10161 10158 ] final  -11.59 input  -65.29 | X-H torsion
[ 10718 10713 10712 10709 ] final  158.02 input   66.30 | X-H torsion
[ 10763 10752 10751 10750 ] final  -48.33 input  -60.55 | X-H torsion
[ 11005 11000 10999 10996 ] final  123.33 input  -57.11 | X-H torsion

> <Gold.Protein.ActiveResidues>
 VAL166  LYS551  ARG553  GLY616  TRP617  ASP618  TYR619  PRO620  LYS621  CYS622 
 ASP623  PHE694  ASN695  SER759  ASP760  ASP761  ALA762  ILE779  LEU786  VAL792 
 PHE793  MET794  SER795  GLU796  ALA797  LYS798  CYS799  TRP800  GLU811  SER814 

> <Gold.Protein.RotatedAtoms>
  151.9039  133.3545  159.3840 H   0  0  0  0  0  0  0  0  0  0  0  0  # atno 6907 bound_to 6896
  150.7073  134.4800  159.5475 H   0  0  0  0  0  0  0  0  0  0  0  0  # atno 6908 bound_to 6896
  152.2393  134.8244  160.0513 H   0  0  0  0  0  0  0  0  0  0  0  0  # atno 6909 bound_to 6896
  145.4913  140.9552  143.1810 H   0  0  0  0  0  0  0  0  0  0  0  0  # atno 7974 bound_to 7965
  154.4169  140.1728  156.1781 H   0  0  0  0  0  0  0  0  0  0  0  0  # atno 8008 bound_to 7997
  155.9705  140.3386  155.6547 H   0  0  0  0  0  0  0  0  0  0  0  0  # atno 8009 bound_to 7997
  155.6632  140.0703  157.2537 H   0  0  0  0  0  0  0  0  0  0  0  0  # atno 8010 bound_to 7997
  140.7142  143.5623  150.9182 H   0  0  0  0  0  0  0  0  0  0  0  0  # atno 10167 bound_to 10162
  157.1836  131.0638  151.2118 H   0  0  0  0  0  0  0  0  0  0  0  0  # atno 10718 bound_to 10713
  154.0760  135.6598  153.4831 H   0  0  0  0  0  0  0  0  0  0  0  0  # atno 10763 bound_to 10752
  153.0373  135.5168  154.7520 H   0  0  0  0  0  0  0  0  0  0  0  0  # atno 10764 bound_to 10752
  154.6601  135.3013  154.9845 H   0  0  0  0  0  0  0  0  0  0  0  0  # atno 10765 bound_to 10752
  139.9308  134.9641  156.8244 H   0  0  0  0  0  0  0  0  0  0  0  0  # atno 11005 bound_to 11000
  144.7832  139.6482  143.7145 LP  0  0  0  0  0  0  0  0  0  0  0  0  # atno 17320 bound_to 7965
  146.2282  139.5763  142.9573 LP  0  0  0  0  0  0  0  0  0  0  0  0  # atno 17321 bound_to 7965
  139.9349  143.6450  152.3068 LP  0  0  0  0  0  0  0  0  0  0  0  0  # atno 17342 bound_to 10162
  139.6914  144.7646  151.1432 LP  0  0  0  0  0  0  0  0  0  0  0  0  # atno 17343 bound_to 10162
  157.3929  130.7291  149.6710 LP  0  0  0  0  0  0  0  0  0  0  0  0  # atno 17370 bound_to 10713
  155.9721  130.4141  150.4118 LP  0  0  0  0  0  0  0  0  0  0  0  0  # atno 17371 bound_to 10713
  140.6208  133.9996  155.7617 LP  0  0  0  0  0  0  0  0  0  0  0  0  # atno 17394 bound_to 11000
  141.0895  133.9939  157.3260 LP  0  0  0  0  0  0  0  0  0  0  0  0  # atno 17395 bound_to 11000

$$$$
