AV-unprocessed.smi:100|AV-procd|sdf|897|dock9
  -GOLD-   2262017393D 1   1.00000     0.00000
 Structure written by MMmdl.
 31 33  0  0  0  0  0  0  0  0  1 V2000
  154.1043  141.4643  160.3180 N   0  0  0  0  0  0  0  0  0  0  0  0
  153.1235  142.0141  159.5889 C   0  0  0  0  0  0  0  0  0  0  0  0
  152.6882  143.2517  159.9238 N   0  0  0  0  0  0  0  0  0  0  0  0
  151.7116  143.8227  159.2103 C   0  0  0  0  0  0  0  0  0  0  0  0
  151.0549  143.3372  158.1526 N   0  0  0  0  0  0  0  0  0  0  0  0
  151.4951  142.0880  157.8209 C   0  0  0  0  0  0  0  0  0  0  0  0
  152.5220  141.3614  158.4835 C   0  0  0  0  0  0  0  0  0  0  0  0
  152.7052  140.1311  157.8656 N   0  0  0  0  0  0  0  0  0  0  0  0
  151.8328  140.1353  156.8930 C   0  0  0  0  0  0  0  0  0  0  0  0
  151.0614  141.2741  156.7977 N   0  0  0  0  0  0  0  0  0  0  0  0
  149.9940  141.5968  155.8060 C   0  0  2  0  0  0  0  0  0  0  0  0
  148.8086  141.7876  156.5193 O   0  0  0  0  0  0  0  0  0  0  0  0
  147.7334  141.0800  155.9108 C   0  0  1  0  0  0  0  0  0  0  0  0
  147.0337  141.9994  154.8910 C   0  0  0  0  0  0  0  0  0  0  0  0
  145.9308  141.3317  154.3171 O   0  0  0  0  0  0  0  0  0  0  0  0
  148.4249  139.8776  155.2642 C   0  0  2  0  0  0  0  0  0  0  0  0
  148.5761  138.9142  156.1747 F   0  0  0  0  0  0  0  0  0  0  0  0
  149.7920  140.4044  154.8570 C   0  0  1  0  0  0  0  0  0  0  0  0
  149.7940  140.7960  153.4987 O   0  0  0  0  0  0  0  0  0  0  0  0
  154.4458  140.5426  160.0863 H   0  0  0  0  0  0  0  0  0  0  0  0
  154.4991  141.9713  161.0968 H   0  0  0  0  0  0  0  0  0  0  0  0
  151.4132  144.8093  159.5330 H   0  0  0  0  0  0  0  0  0  0  0  0
  151.7277  139.3021  156.2133 H   0  0  0  0  0  0  0  0  0  0  0  0
  150.3127  142.5188  155.3172 H   0  0  0  0  0  0  0  0  0  0  0  0
  147.0167  140.7466  156.6629 H   0  0  0  0  0  0  0  0  0  0  0  0
  146.7102  142.9382  155.3412 H   0  0  0  0  0  0  0  0  0  0  0  0
  147.7173  142.2502  154.0795 H   0  0  0  0  0  0  0  0  0  0  0  0
  145.5526  140.7607  154.9682 H   0  0  0  0  0  0  0  0  0  0  0  0
  147.8597  139.4376  154.4416 H   0  0  0  0  0  0  0  0  0  0  0  0
  150.5725  139.6539  154.9933 H   0  0  0  0  0  0  0  0  0  0  0  0
  149.6361  140.0302  152.9671 H   0  0  0  0  0  0  0  0  0  0  0  0
  1  2  1  0  0  0  0
  1 20  1  0  0  0  0
  1 21  1  0  0  0  0
  2  7  1  0  0  0  0
  2  3  2  0  0  0  0
  3  4  1  0  0  0  0
  4  5  2  0  0  0  0
  4 22  1  0  0  0  0
  5  6  1  0  0  0  0
  6 10  1  0  0  0  0
  6  7  2  0  0  0  0
  7  8  1  0  0  0  0
  8  9  2  0  0  0  0
  9 10  1  0  0  0  0
  9 23  1  0  0  0  0
 10 11  1  0  0  0  0
 11 18  1  0  0  0  0
 11 12  1  0  0  0  0
 11 24  1  0  0  0  0
 12 13  1  0  0  0  0
 13 14  1  0  0  0  0
 13 16  1  0  0  0  0
 13 25  1  0  0  0  0
 14 15  1  0  0  0  0
 14 26  1  0  0  0  0
 14 27  1  0  0  0  0
 15 28  1  0  0  0  0
 16 17  1  0  0  0  0
 16 18  1  0  0  0  0
 16 29  1  0  0  0  0
 18 19  1  0  0  0  0
 18 30  1  0  0  0  0
 19 31  1  0  0  0  0
M  END
> <s_m_source_file>
AV-unprocessed.smi

> <i_m_source_file_index>
100

> <i_lp_mmshare_version>
43012

> <i_f3d_flags>
0

> <s_epik_input>
bjFbY0hdbmMoW05IMl0pYyhjMTIpbltjSF1uMltDQEBIXTNPW0NAQEhdKFtDSDJdW09IXSlbQ0BIXShGKVtDQEhdM1tPSF0=

> <s_epik_cmdline>
J2VwaWtfcHl0aG9uJywgJy1waCcsICc3LjAnLCAnLXRuJywgJzgnLCAnLW1hJywgJzIwMCcsICctbWV0YWxfYmluZGluZycsICctaW1hZScsICc8aW5maWxlLm1hZT4nLCAnLW9tYWUnLCAnPG91dGZpbGUubWFlPic=

> <r_lp_tautomer_probability>
1

> <r_epik_Ionization_Penalty>
0.000750324

> <r_epik_Ionization_Penalty_Charging>
0

> <r_epik_Ionization_Penalty_Neutral>
0.000750324

> <r_epik_State_Penalty>
-0

> <r_epik_Charging_Adjusted_Penalty>
0

> <i_epik_Tot_Q>
0

> <i_epik_Tot_abs_Q>
0

> <r_epik_Metal_State_Penalty>
-0

> <b_epik_Metal_Only>
0

> <s_epik_Chemistry_Notes>
This compound contains an acetal/aminal-like group ( X-CH(R)-Y where X, Y are N, S, or O) that may be acid/base labile, releasing an aldehyde.

> <s_lp_Force_Field>
OPLS_2005

> <r_lp_Energy>
27.7777

> <b_lp_Chiralities_Consistent>
1

> <s_lp_Variant>
AV-unprocessed.smi:100-1

> <Gold.Version>
5.8.1

> <Gold.Id.Protein>
6NUR|6NUR_protein|mol2

> <Gold.PLP.Fitness>
38.4506

> <Gold.PLP.PLP>
-30.3508

> <Gold.PLP.part.hbond>
-4.4485

> <Gold.PLP.part.metal>
0.0000

> <Gold.PLP.part.buried>
-5.0288

> <Gold.PLP.part.nonpolar>
-20.8686

> <Gold.PLP.part.repulsive>
0.7811

> <Gold.PLP.ligand.clash>
0.0000

> <Gold.PLP.ligand.torsion>
0.0219

> <Gold.PLP.Chemscore.Hbond>
2.7088

> <Gold.PLP.Chemscore.CHOScore>
0.0000

> <Gold.PLP.Chemscore.Metal>
0.0000

> <Gold.Chemscore.Hbonds>
donor molecule, donor type, donor heavy atom, donor atom, acceptor molecule, acceptor atom, score
      L1  H    19    31       P1  7957  0.48
      P1  H  7989  7998       L1    19  0.23
      P1  H  7997  8008       L1     8  1.00
      P1  H  8011  8017       L1    19  1.00

> <Gold.PLP.Chemscore.Internal.Correction>
0.0172

> <Gold.Rescore>
     Score         DG    S(hbond)    S(metal)    S(lipo)     H(rot)  DE(clash)    DE(int)     intcor
      6.77      -7.50       2.03        0.00      29.01       3.19       0.68       0.05       ----

> <Gold.Chemscore.Fitness>
6.7707

> <Gold.Chemscore.DG>
-7.5027

> <Gold.Chemscore.ZeroCoef>
-5.4800

> <Gold.Chemscore.Hbond>
2.0344

> <Gold.Chemscore.Metal>
0.0000

> <Gold.Chemscore.Lipo>
29.0121

> <Gold.Chemscore.Internal_Hbond>
0.0000

> <Gold.Chemscore.DEClash>
0.6825

> <Gold.Chemscore.DEInternal>
0.0495

> <Gold.Chemscore.Rot>
3.1901

> <Gold.Chemscore.Internal.Correction>
   9.000000E+99

> <Gold.Chemscore.Hbonds>
donor molecule, donor type, donor heavy atom, donor atom, acceptor molecule, acceptor atom, score
      L1  H    19    31       P1  7957  0.48
      P1  H  7989  7998       L1    19  0.01
      P1  H  7997  8008       L1     8  0.21
      P1  H  8011  8017       L1    19  0.66

> <Gold.Chemscore.Hbond.Weighted>
-6.7949

> <Gold.Chemscore.Metal.Weighted>
-0.0000

> <Gold.Chemscore.Lipo.Weighted>
-3.3944

> <Gold.Chemscore.Internal_Hbond.Weighted>
0.0000

> <Gold.Chemscore.DEClash.Weighted>
0.6825

> <Gold.Chemscore.DEInternal.Weighted>
0.0495

> <Gold.Chemscore.Rot.Weighted>
8.1667

> <Gold.Chemscore.Internal.Correction.Weighted>
   9.000000E+99

> <Gold.Protein.RotatedTorsions>
[ 6907 6896 6895 6894 ] final  147.33 input  -60.11 | X-H torsion
[ 7974 7965 7964 7962 ] final   77.60 input  175.53 | X-H torsion
[ 8008 7997 7996 7995 ] final  -70.44 input   59.86 | X-H torsion
[ 10167 10162 10161 10158 ] final   66.20 input  -65.29 | X-H torsion
[ 10718 10713 10712 10709 ] final  -63.10 input   66.30 | X-H torsion
[ 10763 10752 10751 10750 ] final  -88.35 input  -60.55 | X-H torsion
[ 11005 11000 10999 10996 ] final -138.37 input  -57.11 | X-H torsion

> <Gold.Protein.ActiveResidues>
 VAL166  LYS551  ARG553  GLY616  TRP617  ASP618  TYR619  PRO620  LYS621  CYS622 
 ASP623  PHE694  ASN695  SER759  ASP760  ASP761  ALA762  ILE779  LEU786  VAL792 
 PHE793  MET794  SER795  GLU796  ALA797  LYS798  CYS799  TRP800  GLU811  SER814 

> <Gold.Protein.RotatedAtoms>
  152.1562  133.4552  159.4837 H   0  0  0  0  0  0  0  0  0  0  0  0  # atno 6907 bound_to 6896
  150.6901  134.2128  159.4375 H   0  0  0  0  0  0  0  0  0  0  0  0  # atno 6908 bound_to 6896
  152.0028  134.9918  160.0616 H   0  0  0  0  0  0  0  0  0  0  0  0  # atno 6909 bound_to 6896
  145.6879  139.2543  143.1777 H   0  0  0  0  0  0  0  0  0  0  0  0  # atno 7974 bound_to 7965
  154.5012  140.0834  156.7802 H   0  0  0  0  0  0  0  0  0  0  0  0  # atno 8008 bound_to 7997
  155.3998  140.3436  155.4238 H   0  0  0  0  0  0  0  0  0  0  0  0  # atno 8009 bound_to 7997
  156.1459  140.1543  156.8835 H   0  0  0  0  0  0  0  0  0  0  0  0  # atno 8010 bound_to 7997
  140.1030  144.4886  150.7025 H   0  0  0  0  0  0  0  0  0  0  0  0  # atno 10167 bound_to 10162
  156.0813  130.4216  150.1228 H   0  0  0  0  0  0  0  0  0  0  0  0  # atno 10718 bound_to 10713
  154.6436  135.5380  153.7818 H   0  0  0  0  0  0  0  0  0  0  0  0  # atno 10763 bound_to 10752
  153.0347  135.6465  154.1123 H   0  0  0  0  0  0  0  0  0  0  0  0  # atno 10764 bound_to 10752
  154.1045  135.2931  155.3224 H   0  0  0  0  0  0  0  0  0  0  0  0  # atno 10765 bound_to 10752
  140.8622  134.2154  157.4700 H   0  0  0  0  0  0  0  0  0  0  0  0  # atno 11005 bound_to 11000
  146.0908  140.7658  142.9596 LP  0  0  0  0  0  0  0  0  0  0  0  0  # atno 17320 bound_to 7965
  144.7006  140.3633  143.7159 LP  0  0  0  0  0  0  0  0  0  0  0  0  # atno 17321 bound_to 7965
  140.6967  143.2408  151.4980 LP  0  0  0  0  0  0  0  0  0  0  0  0  # atno 17342 bound_to 10162
  139.5660  144.2040  152.1766 LP  0  0  0  0  0  0  0  0  0  0  0  0  # atno 17343 bound_to 10162
  156.9259  130.9698  151.3541 LP  0  0  0  0  0  0  0  0  0  0  0  0  # atno 17370 bound_to 10713
  157.5930  130.8457  149.8687 LP  0  0  0  0  0  0  0  0  0  0  0  0  # atno 17371 bound_to 10713
  139.8707  134.9735  156.4811 LP  0  0  0  0  0  0  0  0  0  0  0  0  # atno 17394 bound_to 11000
  140.8669  133.8017  155.9324 LP  0  0  0  0  0  0  0  0  0  0  0  0  # atno 17395 bound_to 11000

$$$$
