#       Name:                AV-unprocessed.smi:3140
#       Creating user name   scv26
#       Creation time:       Fri Mar 27 17:36:16 2020


#       File generated by GOLD software.
#

@<TRIPOS>MOLECULE
AV-unprocessed.smi:3140
    41    42     1
SMALL
NO_CHARGES


@<TRIPOS>ATOM
      1 ****        -2.4784  -2.0176  -0.9554 C.3            1 S1                 0.0000
      2 ****        -1.9405  -1.2439   0.2613 C.3            1 S1                 0.0000
      3 ****        -2.4071  -1.8962   1.5785 C.3            1 S1                 0.0000
      4 ****        -2.0788  -1.0927   2.7438 N.pl3          1 S1                 0.0000
      5 ****        -2.6791   0.0714   3.1753 C.2            1 S1                 0.0000
      6 ****        -2.0334   0.4654   4.3121 C.2            1 S1                 0.0000
      7 ****        -1.0418  -0.5374   4.5015 C.2            1 S1                 0.0000
      8 ****        -1.0733  -1.4702   3.5634 N.2            1 S1                 0.0000
      9 ****        -0.4816  -1.2200   0.2350 N.3            1 S1                 0.0000
     10 ****         0.0428  -0.2296  -0.6925 C.3            1 S1                 0.0000
     11 ****         1.5770  -0.2275  -0.6206 C.3            1 S1                 0.0000
     12 ****         2.1493   0.7650  -1.5252 N.am           1 S1                 0.0000
     13 ****         2.7329   1.9913  -1.0081 C.3            1 S1                 0.0000
     14 ****         3.0304   2.8445  -2.2496 C.3            1 S1                 0.0000
     15 ****         2.9187   1.8929  -3.4460 C.3            1 S1                 0.0000
     16 ****         2.2481   0.6638  -2.8560 C.2            1 S1                 0.0000
     17 ****         1.8616  -0.2804  -3.5435 O.2            1 S1                 0.0000
     18 ****        -3.5661  -2.0835  -0.9220 H              1 S1                 0.0000
     19 ****        -2.0883  -3.0357  -0.9840 H              1 S1                 0.0000
     20 ****        -2.2189  -1.5336  -1.8965 H              1 S1                 0.0000
     21 ****        -2.3206  -0.2217   0.2317 H              1 S1                 0.0000
     22 ****        -3.4899  -2.0254   1.5653 H              1 S1                 0.0000
     23 ****        -1.9789  -2.8939   1.6926 H              1 S1                 0.0000
     24 ****        -3.5049   0.5176   2.6412 H              1 S1                 0.0000
     25 ****        -2.2385   1.3366   4.9164 H              1 S1                 0.0000
     26 ****        -0.3063  -0.6156   5.2887 H              1 S1                 0.0000
     27 ****        -0.1200  -2.1383   0.0197 H              1 S1                 0.0000
     28 ****        -0.2825  -0.4538  -1.7078 H              1 S1                 0.0000
     29 ****        -0.3442   0.7565  -0.4328 H              1 S1                 0.0000
     30 ****         1.9042  -0.0174   0.3990 H              1 S1                 0.0000
     31 ****         1.9708  -1.2134  -0.8744 H              1 S1                 0.0000
     32 ****         2.0524   2.4973  -0.3220 H              1 S1                 0.0000
     33 ****         3.6500   1.7530  -0.4679 H              1 S1                 0.0000
     34 ****         2.2918   3.6419  -2.3415 H              1 S1                 0.0000
     35 ****         4.0131   3.3134  -2.1909 H              1 S1                 0.0000
     36 ****         2.3282   2.3184  -4.2578 H              1 S1                 0.0000
     37 ****         3.9016   1.6204  -3.8315 H              1 S1                 0.0000
     38 ****        -0.4847  -2.2744   3.4799 LP             1 S1                 0.0000
     39 ****        -0.1733  -0.9519   1.1477 LP             1 S1                 0.0000
     40 ****         1.4262  -1.0694  -3.1099 LP             1 S1                 0.0000
     41 ****         1.9828  -0.2590  -4.5359 LP             1 S1                 0.0000
@<TRIPOS>BOND
    1    1    2 1     
    2    1   18 1     
    3    1   19 1     
    4    1   20 1     
    5    2    3 1     
    6    2    9 1     
    7    2   21 1     
    8    3    4 1     
    9    3   22 1     
   10    3   23 1     
   11    4    8 1     
   12    4    5 1     
   13    5    6 2     
   14    5   24 1     
   15    6    7 1     
   16    6   25 1     
   17    7    8 2     
   18    7   26 1     
   19    9   10 1     
   20    9   27 1     
   21   10   11 1     
   22   10   28 1     
   23   10   29 1     
   24   11   12 1     
   25   11   30 1     
   26   11   31 1     
   27   12   16 am    
   28   12   13 1     
   29   13   14 1     
   30   13   32 1     
   31   13   33 1     
   32   14   15 1     
   33   14   34 1     
   34   14   35 1     
   35   15   16 1     
   36   15   36 1     
   37   15   37 1     
   38   16   17 2     
   39    8   38 1     
   40    9   39 1     
   41   17   40 1     
   42   17   41 1     
@<TRIPOS>SUBSTRUCTURE
      1 S1             1
@<TRIPOS>SET
LONE_PAIRS      STATIC     ATOMS    <user>   **** ""
4 38 39 40 41
DONOR_HYDROGENS      STATIC     ATOMS    <user>   **** ""
1 27
ATOM$BLUE        STATIC     ATOMS    COLORGROUP SYSTEM
4 38 39 40 41
ATOM$RED        STATIC     ATOMS    COLORGROUP SYSTEM
1 27
