AV-unprocessed.smi:833|AV-procd|sdf|3882|dock7
  -GOLD-   22720 1333D 1   1.00000     0.00000
 Structure written by MMmdl.
 40 41  0  0  0  0  0  0  0  0  2 V2000
  157.0445  138.8429  161.0916 C   0  0  0  0  0  0  0  0  0  0  0  0
  156.0281  139.6951  160.3198 C   0  0  2  0  0  0  0  0  0  0  0  0
  156.7245  140.8280  159.8432 O   0  0  0  0  0  0  0  0  0  0  0  0
  154.8607  140.1577  161.2158 C   0  0  0  0  0  0  0  0  0  0  0  0
  153.8774  140.9393  160.4731 N   0  0  0  0  0  0  0  0  0  0  0  0
  153.3339  140.5815  159.3017 C   0  0  0  0  0  0  0  0  0  0  0  0
  153.6080  139.5359  158.7132 O   0  0  0  0  0  0  0  0  0  0  0  0
  152.4462  141.4955  158.8759 N   0  0  0  0  0  0  0  0  0  0  0  0
  151.6170  141.4289  157.7210 C   0  0  0  0  0  0  0  0  0  0  0  0
  151.5243  140.2370  156.9571 C   0  0  0  0  0  0  0  0  0  0  0  0
  150.7528  140.2139  155.7803 C   0  0  0  0  0  0  0  0  0  0  0  0
  150.0980  141.3889  155.3739 C   0  0  0  0  0  0  0  0  0  0  0  0
  150.2162  142.5102  156.1147 N   0  3  0  0  0  0  0  0  0  0  0  0
  150.9310  142.5921  157.2647 C   0  0  0  0  0  0  0  0  0  0  0  0
  150.9520  143.8345  157.9396 N   0  0  0  0  0  0  0  0  0  0  0  0
  150.1974  144.0177  159.1744 C   0  0  0  0  0  0  0  0  0  0  0  0
  150.7416  145.3058  159.7861 C   0  0  0  0  0  0  0  0  0  0  0  0
  152.2155  145.2576  159.3948 C   0  0  0  0  0  0  0  0  0  0  0  0
  152.2036  144.5811  158.0202 C   0  0  0  0  0  0  0  0  0  0  0  0
  156.5833  137.9309  161.4713 H   0  0  0  0  0  0  0  0  0  0  0  0
  157.4558  139.3868  161.9427 H   0  0  0  0  0  0  0  0  0  0  0  0
  157.8766  138.5464  160.4517 H   0  0  0  0  0  0  0  0  0  0  0  0
  155.6559  139.1197  159.4710 H   0  0  0  0  0  0  0  0  0  0  0  0
  156.2354  141.6024  160.0776 H   0  0  0  0  0  0  0  0  0  0  0  0
  154.3242  139.2851  161.5898 H   0  0  0  0  0  0  0  0  0  0  0  0
  155.2141  140.6934  162.0990 H   0  0  0  0  0  0  0  0  0  0  0  0
  153.5921  141.8154  160.8856 H   0  0  0  0  0  0  0  0  0  0  0  0
  152.2569  142.2603  159.5070 H   0  0  0  0  0  0  0  0  0  0  0  0
  152.0543  139.3416  157.2452 H   0  0  0  0  0  0  0  0  0  0  0  0
  150.6759  139.3111  155.1921 H   0  0  0  0  0  0  0  0  0  0  0  0
  149.4915  141.4682  154.4832 H   0  0  0  0  0  0  0  0  0  0  0  0
  149.1263  144.0825  158.9818 H   0  0  0  0  0  0  0  0  0  0  0  0
  150.3756  143.1860  159.8573 H   0  0  0  0  0  0  0  0  0  0  0  0
  150.2621  146.1709  159.3262 H   0  0  0  0  0  0  0  0  0  0  0  0
  150.5863  145.3637  160.8638 H   0  0  0  0  0  0  0  0  0  0  0  0
  152.6855  146.2413  159.3791 H   0  0  0  0  0  0  0  0  0  0  0  0
  152.7621  144.6360  160.1054 H   0  0  0  0  0  0  0  0  0  0  0  0
  153.0766  143.9410  157.8861 H   0  0  0  0  0  0  0  0  0  0  0  0
  152.2112  145.3362  157.2338 H   0  0  0  0  0  0  0  0  0  0  0  0
  149.7302  143.3471  155.7923 H   0  0  0  0  0  0  0  0  0  0  0  0
  1  2  1  0  0  0  0
  1 20  1  0  0  0  0
  1 21  1  0  0  0  0
  1 22  1  0  0  0  0
  2  3  1  0  0  0  0
  2  4  1  0  0  0  0
  2 23  1  0  0  0  0
  3 24  1  0  0  0  0
  4  5  1  0  0  0  0
  4 25  1  0  0  0  0
  4 26  1  0  0  0  0
  5  6  1  0  0  0  0
  5 27  1  0  0  0  0
  6  7  2  0  0  0  0
  6  8  1  0  0  0  0
  8  9  1  0  0  0  0
  8 28  1  0  0  0  0
  9 14  1  0  0  0  0
  9 10  2  0  0  0  0
 10 11  1  0  0  0  0
 10 29  1  0  0  0  0
 11 12  2  0  0  0  0
 11 30  1  0  0  0  0
 12 13  1  0  0  0  0
 12 31  1  0  0  0  0
 13 14  2  0  0  0  0
 13 40  1  0  0  0  0
 14 15  1  0  0  0  0
 15 19  1  0  0  0  0
 15 16  1  0  0  0  0
 16 17  1  0  0  0  0
 16 32  1  0  0  0  0
 16 33  1  0  0  0  0
 17 18  1  0  0  0  0
 17 34  1  0  0  0  0
 17 35  1  0  0  0  0
 18 19  1  0  0  0  0
 18 36  1  0  0  0  0
 18 37  1  0  0  0  0
 19 38  1  0  0  0  0
 19 39  1  0  0  0  0
M  CHG  1  13   1
M  END
> <s_m_source_file>
AV-unprocessed.smi

> <i_m_source_file_index>
833

> <i_lp_mmshare_version>
43012

> <i_f3d_flags>
0

> <s_epik_input>
W0NIM11bQ0BIXShbT0hdKVtDSDJdW05IXUMoPU8pW05IXWMxW2NIXVtjSF1bY0hdbmMxTjJbQ0gyXVtDSDJdW0NIMl1bQ0gyXTI=

> <s_epik_cmdline>
J2VwaWtfcHl0aG9uJywgJy1waCcsICc3LjAnLCAnLXRuJywgJzgnLCAnLW1hJywgJzIwMCcsICctbWV0YWxfYmluZGluZycsICctaW1hZScsICc8aW5maWxlLm1hZT4nLCAnLW9tYWUnLCAnPG91dGZpbGUubWFlPic=

> <r_lp_tautomer_probability>
0.999994

> <r_epik_Ionization_Penalty>
1.11387

> <r_epik_Ionization_Penalty_Charging>
1.11385

> <r_epik_Ionization_Penalty_Neutral>
1.95796e-05

> <r_epik_State_Penalty>
1.17209

> <r_epik_Charging_Adjusted_Penalty>
2.28594

> <i_epik_Tot_Q>
1

> <i_epik_Tot_abs_Q>
1

> <r_epik_Metal_State_Penalty>
1.25763

> <b_epik_Metal_Only>
0

> <s_lp_Force_Field>
OPLS_2005

> <r_lp_Energy>
38.091

> <b_lp_Chiralities_Consistent>
1

> <s_lp_Variant>
AV-unprocessed.smi:833-3

> <Gold.Version>
5.8.1

> <Gold.Id.Protein>
6NUR|6NUR_protein|mol2

> <Gold.PLP.Fitness>
45.6027

> <Gold.PLP.PLP>
-36.7864

> <Gold.PLP.part.hbond>
-2.6922

> <Gold.PLP.part.metal>
0.0000

> <Gold.PLP.part.buried>
-6.4209

> <Gold.PLP.part.nonpolar>
-28.1581

> <Gold.PLP.part.repulsive>
0.4226

> <Gold.PLP.ligand.clash>
0.0000

> <Gold.PLP.ligand.torsion>
0.2921

> <Gold.PLP.Chemscore.Hbond>
3.0000

> <Gold.PLP.Chemscore.CHOScore>
0.0000

> <Gold.PLP.Chemscore.Metal>
0.0000

> <Gold.Chemscore.Hbonds>
donor molecule, donor type, donor heavy atom, donor atom, acceptor molecule, acceptor atom, score
      L1  H    13    40       P1  8028  2.00
      P1  H  7997  8009       L1     7  1.00

> <Gold.PLP.Chemscore.Internal.Correction>
0.4005

> <Gold.Rescore>
     Score         DG    S(hbond)    S(metal)    S(lipo)     H(rot)  DE(clash)    DE(int)     intcor
     13.64     -16.65       1.80        0.00      89.15       2.06       0.14       2.87       ----

> <Gold.Chemscore.Fitness>
13.6420

> <Gold.Chemscore.DG>
-16.6487

> <Gold.Chemscore.ZeroCoef>
-5.4800

> <Gold.Chemscore.Hbond>
1.8028

> <Gold.Chemscore.Metal>
0.0000

> <Gold.Chemscore.Lipo>
89.1507

> <Gold.Chemscore.Internal_Hbond>
0.0000

> <Gold.Chemscore.DEClash>
0.1365

> <Gold.Chemscore.DEInternal>
2.8702

> <Gold.Chemscore.Rot>
2.0637

> <Gold.Chemscore.Internal.Correction>
   9.000000E+99

> <Gold.Chemscore.Hbonds>
donor molecule, donor type, donor heavy atom, donor atom, acceptor molecule, acceptor atom, score
      L1  H    13    40       P1  8028  0.99
      P1  H  7997  8009       L1     7  0.59

> <Gold.Chemscore.Hbond.Weighted>
-6.0213

> <Gold.Chemscore.Metal.Weighted>
-0.0000

> <Gold.Chemscore.Lipo.Weighted>
-10.4306

> <Gold.Chemscore.Internal_Hbond.Weighted>
0.0000

> <Gold.Chemscore.DEClash.Weighted>
0.1365

> <Gold.Chemscore.DEInternal.Weighted>
2.8702

> <Gold.Chemscore.Rot.Weighted>
5.2832

> <Gold.Chemscore.Internal.Correction.Weighted>
   9.000000E+99

> <Gold.Protein.RotatedTorsions>
[ 6907 6896 6895 6894 ] final -126.83 input  -60.11 | X-H torsion
[ 7974 7965 7964 7962 ] final -155.79 input  175.53 | X-H torsion
[ 8008 7997 7996 7995 ] final  140.67 input   59.86 | X-H torsion
[ 10167 10162 10161 10158 ] final  162.77 input  -65.29 | X-H torsion
[ 10718 10713 10712 10709 ] final  137.25 input   66.30 | X-H torsion
[ 10763 10752 10751 10750 ] final -160.36 input  -60.55 | X-H torsion
[ 11005 11000 10999 10996 ] final  175.07 input  -57.11 | X-H torsion

> <Gold.Protein.ActiveResidues>
 VAL166  LYS551  ARG553  GLY616  TRP617  ASP618  TYR619  PRO620  LYS621  CYS622 
 ASP623  PHE694  ASN695  SER759  ASP760  ASP761  ALA762  ILE779  LEU786  VAL792 
 PHE793  MET794  SER795  GLU796  ALA797  LYS798  CYS799  TRP800  GLU811  SER814 

> <Gold.Protein.RotatedAtoms>
  150.9010  133.7118  159.2878 H   0  0  0  0  0  0  0  0  0  0  0  0  # atno 6907 bound_to 6896
  151.4637  135.1039  159.9741 H   0  0  0  0  0  0  0  0  0  0  0  0  # atno 6908 bound_to 6896
  152.4876  133.8367  159.7186 H   0  0  0  0  0  0  0  0  0  0  0  0  # atno 6909 bound_to 6896
  144.7623  140.4201  143.5967 H   0  0  0  0  0  0  0  0  0  0  0  0  # atno 7974 bound_to 7965
  156.2976  140.2335  156.4438 H   0  0  0  0  0  0  0  0  0  0  0  0  # atno 8008 bound_to 7997
  154.8162  140.0440  157.1398 H   0  0  0  0  0  0  0  0  0  0  0  0  # atno 8009 bound_to 7997
  154.9367  140.3024  155.5144 H   0  0  0  0  0  0  0  0  0  0  0  0  # atno 8010 bound_to 7997
  139.4865  144.4404  151.8959 H   0  0  0  0  0  0  0  0  0  0  0  0  # atno 10167 bound_to 10162
  157.4381  131.1055  151.0175 H   0  0  0  0  0  0  0  0  0  0  0  0  # atno 10718 bound_to 10713
  154.7397  135.3065  154.8749 H   0  0  0  0  0  0  0  0  0  0  0  0  # atno 10763 bound_to 10752
  153.9568  135.6757  153.4749 H   0  0  0  0  0  0  0  0  0  0  0  0  # atno 10764 bound_to 10752
  153.0997  135.4918  154.8768 H   0  0  0  0  0  0  0  0  0  0  0  0  # atno 10765 bound_to 10752
  140.3581  134.7136  157.4313 H   0  0  0  0  0  0  0  0  0  0  0  0  # atno 11005 bound_to 11000
  145.6579  139.1576  143.2825 LP  0  0  0  0  0  0  0  0  0  0  0  0  # atno 17320 bound_to 7965
  146.1699  140.6662  142.9238 LP  0  0  0  0  0  0  0  0  0  0  0  0  # atno 17321 bound_to 7965
  140.3855  144.2682  150.5904 LP  0  0  0  0  0  0  0  0  0  0  0  0  # atno 17342 bound_to 10162
  140.5194  143.2269  151.8413 LP  0  0  0  0  0  0  0  0  0  0  0  0  # atno 17343 bound_to 10162
  157.1047  130.5996  149.5468 LP  0  0  0  0  0  0  0  0  0  0  0  0  # atno 17370 bound_to 10713
  155.9938  130.5000  150.7395 LP  0  0  0  0  0  0  0  0  0  0  0  0  # atno 17371 bound_to 10713
  140.0648  134.5944  155.8707 LP  0  0  0  0  0  0  0  0  0  0  0  0  # atno 17394 bound_to 11000
  141.1992  133.6605  156.5832 LP  0  0  0  0  0  0  0  0  0  0  0  0  # atno 17395 bound_to 11000

$$$$
