AV-unprocessed.smi:1626|AV-procd|sdf|6508|dock8
  -GOLD-   22720 7173D 1   1.00000     0.00000
 Structure written by MMmdl.
 48 50  0  0  0  0  0  0  0  0  2 V2000
  152.0755  143.3525  162.5197 C   0  0  0  0  0  0  0  0  0  0  0  0
  151.7696  142.8945  161.1046 C   0  0  0  0  0  0  0  0  0  0  0  0
  151.9554  141.5349  160.7677 C   0  0  0  0  0  0  0  0  0  0  0  0
  151.6852  141.0685  159.4628 C   0  0  0  0  0  0  0  0  0  0  0  0
  151.7981  139.7999  158.9210 N   0  0  0  0  0  0  0  0  0  0  0  0
  151.4029  140.0067  157.6686 C   0  0  0  0  0  0  0  0  0  0  0  0
  151.0599  141.2647  157.3296 N   0  0  0  0  0  0  0  0  0  0  0  0
  150.6119  141.7285  156.0284 C   0  0  0  0  0  0  0  0  0  0  0  0
  149.9299  140.6185  155.2032 C   0  0  2  0  0  0  0  0  0  0  0  0
  150.9442  139.9112  154.5184 O   0  0  0  0  0  0  0  0  0  0  0  0
  148.9049  141.1530  154.1768 C   0  0  0  0  0  0  0  0  0  0  0  0
  147.8464  141.9811  154.8089 N   0  3  2  0  0  0  0  0  0  0  0  0
  147.3248  141.3716  156.0591 C   0  0  0  0  0  0  0  0  0  0  0  0
  146.3421  142.3178  156.7728 C   0  0  0  0  0  0  0  0  0  0  0  0
  145.1911  142.7542  155.8514 C   0  0  2  0  0  0  0  0  0  0  0  0
  144.3275  141.6626  155.6043 O   0  0  0  0  0  0  0  0  0  0  0  0
  145.7455  143.3037  154.5265 C   0  0  0  0  0  0  0  0  0  0  0  0
  146.7433  142.3301  153.8734 C   0  0  0  0  0  0  0  0  0  0  0  0
  151.2199  142.0069  158.4956 C   0  0  0  0  0  0  0  0  0  0  0  0
  151.0252  143.3611  158.8207 C   0  0  0  0  0  0  0  0  0  0  0  0
  151.3042  143.8111  160.1280 C   0  0  0  0  0  0  0  0  0  0  0  0
  151.0995  145.2772  160.4663 C   0  0  0  0  0  0  0  0  0  0  0  0
  152.3439  142.5123  163.1608 H   0  0  0  0  0  0  0  0  0  0  0  0
  151.2085  143.8441  162.9612 H   0  0  0  0  0  0  0  0  0  0  0  0
  152.9096  144.0547  162.5194 H   0  0  0  0  0  0  0  0  0  0  0  0
  152.3093  140.8364  161.5119 H   0  0  0  0  0  0  0  0  0  0  0  0
  151.3713  139.1981  156.9529 H   0  0  0  0  0  0  0  0  0  0  0  0
  149.9269  142.5652  156.1755 H   0  0  0  0  0  0  0  0  0  0  0  0
  151.4768  142.1227  155.4929 H   0  0  0  0  0  0  0  0  0  0  0  0
  149.4540  139.9235  155.8928 H   0  0  0  0  0  0  0  0  0  0  0  0
  150.9862  139.0291  154.8540 H   0  0  0  0  0  0  0  0  0  0  0  0
  149.3891  141.7525  153.4052 H   0  0  0  0  0  0  0  0  0  0  0  0
  148.4616  140.3019  153.6572 H   0  0  0  0  0  0  0  0  0  0  0  0
  146.8394  140.4219  155.8283 H   0  0  0  0  0  0  0  0  0  0  0  0
  148.1525  141.1479  156.7332 H   0  0  0  0  0  0  0  0  0  0  0  0
  145.9486  141.8431  157.6725 H   0  0  0  0  0  0  0  0  0  0  0  0
  146.8839  143.2028  157.1093 H   0  0  0  0  0  0  0  0  0  0  0  0
  144.6021  143.5256  156.3486 H   0  0  0  0  0  0  0  0  0  0  0  0
  144.2628  141.5325  154.6700 H   0  0  0  0  0  0  0  0  0  0  0  0
  144.9301  143.5258  153.8369 H   0  0  0  0  0  0  0  0  0  0  0  0
  146.2489  144.2528  154.7161 H   0  0  0  0  0  0  0  0  0  0  0  0
  147.1402  142.7875  152.9680 H   0  0  0  0  0  0  0  0  0  0  0  0
  146.2297  141.4200  153.5598 H   0  0  0  0  0  0  0  0  0  0  0  0
  150.6642  144.0494  158.0711 H   0  0  0  0  0  0  0  0  0  0  0  0
  150.8026  145.8507  159.5877 H   0  0  0  0  0  0  0  0  0  0  0  0
  152.0205  145.7136  160.8535 H   0  0  0  0  0  0  0  0  0  0  0  0
  150.3192  145.3893  161.2194 H   0  0  0  0  0  0  0  0  0  0  0  0
  148.2888  142.8458  155.0846 H   0  0  0  0  0  0  0  0  0  0  0  0
  1  2  1  0  0  0  0
  1 23  1  0  0  0  0
  1 24  1  0  0  0  0
  1 25  1  0  0  0  0
  2 21  1  0  0  0  0
  2  3  2  0  0  0  0
  3  4  1  0  0  0  0
  3 26  1  0  0  0  0
  4 19  2  0  0  0  0
  4  5  1  0  0  0  0
  5  6  2  0  0  0  0
  6  7  1  0  0  0  0
  6 27  1  0  0  0  0
  7  8  1  0  0  0  0
  7 19  1  0  0  0  0
  8  9  1  0  0  0  0
  8 28  1  0  0  0  0
  8 29  1  0  0  0  0
  9 10  1  0  0  0  0
  9 11  1  0  0  0  0
  9 30  1  0  0  0  0
 10 31  1  0  0  0  0
 11 12  1  0  0  0  0
 11 32  1  0  0  0  0
 11 33  1  0  0  0  0
 12 18  1  0  0  0  0
 12 13  1  0  0  0  0
 12 48  1  0  0  0  0
 13 14  1  0  0  0  0
 13 34  1  0  0  0  0
 13 35  1  0  0  0  0
 14 15  1  0  0  0  0
 14 36  1  0  0  0  0
 14 37  1  0  0  0  0
 15 16  1  0  0  0  0
 15 17  1  0  0  0  0
 15 38  1  0  0  0  0
 16 39  1  0  0  0  0
 17 18  1  0  0  0  0
 17 40  1  0  0  0  0
 17 41  1  0  0  0  0
 18 42  1  0  0  0  0
 18 43  1  0  0  0  0
 19 20  1  0  0  0  0
 20 21  2  0  0  0  0
 20 44  1  0  0  0  0
 21 22  1  0  0  0  0
 22 45  1  0  0  0  0
 22 46  1  0  0  0  0
 22 47  1  0  0  0  0
M  CHG  1  12   1
M  END
> <s_m_source_file>
AV-unprocessed.smi

> <i_m_source_file_index>
1626

> <i_lp_mmshare_version>
43012

> <i_f3d_flags>
0

> <s_epik_input>
W0NIM11jKFtjSF0xKWMoW0NIM10pW2NIXWMoYzEyKW4oW2NIXW4yKVtDSDJdW0NASF0oW09IXSlbQ0gyXU4zW0NIMl1bQ0gyXVtDSF0oW09IXSlbQ0gyXVtDSDJdMw==

> <s_epik_cmdline>
J2VwaWtfcHl0aG9uJywgJy1waCcsICc3LjAnLCAnLXRuJywgJzgnLCAnLW1hJywgJzIwMCcsICctbWV0YWxfYmluZGluZycsICctaW1hZScsICc8aW5maWxlLm1hZT4nLCAnLW9tYWUnLCAnPG91dGZpbGUubWFlPic=

> <r_epik_Ionization_Penalty>
0.106584

> <r_epik_Ionization_Penalty_Charging>
0.0185694

> <r_epik_Ionization_Penalty_Neutral>
0.0880147

> <r_epik_State_Penalty>
0.0908428

> <r_epik_Charging_Adjusted_Penalty>
0.109412

> <i_epik_Tot_Q>
1

> <i_epik_Tot_abs_Q>
1

> <r_epik_Metal_State_Penalty>
0.0153739

> <b_epik_Metal_Only>
0

> <s_lp_Force_Field>
OPLS_2005

> <r_lp_Energy>
24.9536

> <b_lp_Chiralities_Consistent>
1

> <s_lp_Variant>
AV-unprocessed.smi:1626-3

> <Gold.Version>
5.8.1

> <Gold.Id.Protein>
6NUR|6NUR_protein|mol2

> <Gold.PLP.Fitness>
57.8122

> <Gold.PLP.PLP>
-50.2909

> <Gold.PLP.part.hbond>
-2.0000

> <Gold.PLP.part.metal>
0.0000

> <Gold.PLP.part.buried>
-8.5163

> <Gold.PLP.part.nonpolar>
-39.6758

> <Gold.PLP.part.repulsive>
0.1223

> <Gold.PLP.ligand.clash>
0.0000

> <Gold.PLP.ligand.torsion>
0.7526

> <Gold.PLP.Chemscore.Hbond>
3.0000

> <Gold.PLP.Chemscore.CHOScore>
0.0000

> <Gold.PLP.Chemscore.Metal>
0.0000

> <Gold.Chemscore.Hbonds>
donor molecule, donor type, donor heavy atom, donor atom, acceptor molecule, acceptor atom, score
      L1  H    12    48       P1  8028  2.00
      P1  H  7989  7998       L1    10  1.00

> <Gold.PLP.Chemscore.Internal.Correction>
0.0264

> <Gold.Rescore>
     Score         DG    S(hbond)    S(metal)    S(lipo)     H(rot)  DE(clash)    DE(int)     intcor
     18.25     -19.13       1.94        0.00     119.70       2.67       0.13       0.75       ----

> <Gold.Chemscore.Fitness>
18.2495

> <Gold.Chemscore.DG>
-19.1304

> <Gold.Chemscore.ZeroCoef>
-5.4800

> <Gold.Chemscore.Hbond>
1.9413

> <Gold.Chemscore.Metal>
0.0000

> <Gold.Chemscore.Lipo>
119.6995

> <Gold.Chemscore.Internal_Hbond>
0.0000

> <Gold.Chemscore.DEClash>
0.1336

> <Gold.Chemscore.DEInternal>
0.7473

> <Gold.Chemscore.Rot>
2.6712

> <Gold.Chemscore.Internal.Correction>
   9.000000E+99

> <Gold.Chemscore.Hbonds>
donor molecule, donor type, donor heavy atom, donor atom, acceptor molecule, acceptor atom, score
      L1  H    12    48       P1  8028  0.93
      L1  H    16    39       P1 10175  0.02
      P1  H  7989  7998       L1    10  0.67

> <Gold.Chemscore.Hbond.Weighted>
-6.4839

> <Gold.Chemscore.Metal.Weighted>
-0.0000

> <Gold.Chemscore.Lipo.Weighted>
-14.0048

> <Gold.Chemscore.Internal_Hbond.Weighted>
0.0000

> <Gold.Chemscore.DEClash.Weighted>
0.1336

> <Gold.Chemscore.DEInternal.Weighted>
0.7473

> <Gold.Chemscore.Rot.Weighted>
6.8383

> <Gold.Chemscore.Internal.Correction.Weighted>
   9.000000E+99

> <Gold.Protein.RotatedTorsions>
[ 6907 6896 6895 6894 ] final   62.12 input  -60.11 | X-H torsion
[ 7974 7965 7964 7962 ] final   26.41 input  175.53 | X-H torsion
[ 8008 7997 7996 7995 ] final  -69.12 input   59.86 | X-H torsion
[ 10167 10162 10161 10158 ] final   48.07 input  -65.29 | X-H torsion
[ 10718 10713 10712 10709 ] final -109.15 input   66.30 | X-H torsion
[ 10763 10752 10751 10750 ] final -109.30 input  -60.55 | X-H torsion
[ 11005 11000 10999 10996 ] final    9.76 input  -57.11 | X-H torsion

> <Gold.Protein.ActiveResidues>
 VAL166  LYS551  ARG553  GLY616  TRP617  ASP618  TYR619  PRO620  LYS621  CYS622 
 ASP623  PHE694  ASN695  SER759  ASP760  ASP761  ALA762  ILE779  LEU786  VAL792 
 PHE793  MET794  SER795  GLU796  ALA797  LYS798  CYS799  TRP800  GLU811  SER814 

> <Gold.Protein.RotatedAtoms>
  152.4146  134.6065  160.0013 H   0  0  0  0  0  0  0  0  0  0  0  0  # atno 6907 bound_to 6896
  151.6232  133.3332  159.3100 H   0  0  0  0  0  0  0  0  0  0  0  0  # atno 6908 bound_to 6896
  150.8035  134.7184  159.6688 H   0  0  0  0  0  0  0  0  0  0  0  0  # atno 6909 bound_to 6896
  146.1839  139.7332  142.8881 H   0  0  0  0  0  0  0  0  0  0  0  0  # atno 7974 bound_to 7965
  154.4916  140.0859  156.7606 H   0  0  0  0  0  0  0  0  0  0  0  0  # atno 8008 bound_to 7997
  155.4217  140.3446  155.4254 H   0  0  0  0  0  0  0  0  0  0  0  0  # atno 8009 bound_to 7997
  156.1337  140.1509  156.9014 H   0  0  0  0  0  0  0  0  0  0  0  0  # atno 8010 bound_to 7997
  140.2971  144.2977  150.6227 H   0  0  0  0  0  0  0  0  0  0  0  0  # atno 10167 bound_to 10162
  156.0522  130.5749  150.8060 H   0  0  0  0  0  0  0  0  0  0  0  0  # atno 10718 bound_to 10713
  154.8185  135.4606  154.0711 H   0  0  0  0  0  0  0  0  0  0  0  0  # atno 10763 bound_to 10752
  153.2084  135.6878  153.8151 H   0  0  0  0  0  0  0  0  0  0  0  0  # atno 10764 bound_to 10752
  153.7611  135.3284  155.3314 H   0  0  0  0  0  0  0  0  0  0  0  0  # atno 10765 bound_to 10752
  140.5221  134.0549  155.7848 H   0  0  0  0  0  0  0  0  0  0  0  0  # atno 11005 bound_to 11000
  145.3996  141.0383  143.3078 LP  0  0  0  0  0  0  0  0  0  0  0  0  # atno 17320 bound_to 7965
  144.8363  139.5546  143.6921 LP  0  0  0  0  0  0  0  0  0  0  0  0  # atno 17321 bound_to 7965
  140.5683  143.2183  151.7645 LP  0  0  0  0  0  0  0  0  0  0  0  0  # atno 17342 bound_to 10162
  139.4924  144.4253  151.9932 LP  0  0  0  0  0  0  0  0  0  0  0  0  # atno 17343 bound_to 10162
  157.5459  131.0942  150.9763 LP  0  0  0  0  0  0  0  0  0  0  0  0  # atno 17370 bound_to 10713
  157.0035  130.5609  149.5313 LP  0  0  0  0  0  0  0  0  0  0  0  0  # atno 17371 bound_to 10713
  141.1328  133.9272  157.2498 LP  0  0  0  0  0  0  0  0  0  0  0  0  # atno 17394 bound_to 11000
  139.9600  135.0156  156.9235 LP  0  0  0  0  0  0  0  0  0  0  0  0  # atno 17395 bound_to 11000

$$$$
