AV-unprocessed.smi:114|AV-procd|sdf|1109|dock5
  -GOLD-   2262018223D 1   1.00000     0.00000
 Structure written by MMmdl.
 32 34  0  0  0  0  0  0  0  0  1 V2000
  154.1825  137.3827  156.7020 N   0  0  0  0  0  0  0  0  0  0  0  0
  153.0883  138.1562  156.7308 C   0  0  0  0  0  0  0  0  0  0  0  0
  153.0797  139.2288  157.5555 N   0  0  0  0  0  0  0  0  0  0  0  0
  152.0069  140.0269  157.6142 C   0  0  0  0  0  0  0  0  0  0  0  0
  152.0833  141.0757  158.4667 F   0  0  0  0  0  0  0  0  0  0  0  0
  150.8675  139.9038  156.9256 N   0  0  0  0  0  0  0  0  0  0  0  0
  150.8701  138.8236  156.0920 C   0  0  0  0  0  0  0  0  0  0  0  0
  151.9414  137.9027  155.9395 C   0  0  0  0  0  0  0  0  0  0  0  0
  151.6010  136.9274  155.0127 N   0  0  0  0  0  0  0  0  0  0  0  0
  150.3932  137.2571  154.6412 C   0  0  0  0  0  0  0  0  0  0  0  0
  149.8729  138.3822  155.2428 N   0  0  0  0  0  0  0  0  0  0  0  0
  148.5198  138.9863  155.0100 C   0  0  2  0  0  0  0  0  0  0  0  0
  147.7851  138.1667  154.1504 O   0  0  0  0  0  0  0  0  0  0  0  0
  147.4302  138.8717  152.9619 C   0  0  1  0  0  0  0  0  0  0  0  0
  146.1007  138.3506  152.3884 C   0  0  0  0  0  0  0  0  0  0  0  0
  146.1889  136.9637  152.1413 O   0  0  0  0  0  0  0  0  0  0  0  0
  147.4365  140.3473  153.3868 C   0  0  1  0  0  0  0  0  0  0  0  0
  146.2151  140.7126  154.0041 O   0  0  0  0  0  0  0  0  0  0  0  0
  148.5742  140.3993  154.3942 C   0  0  2  0  0  0  0  0  0  0  0  0
  149.7993  140.7034  153.7507 O   0  0  0  0  0  0  0  0  0  0  0  0
  148.0421  138.9757  155.9904 H   0  0  0  0  0  0  0  0  0  0  0  0
  148.2239  138.7388  152.2259 H   0  0  0  0  0  0  0  0  0  0  0  0
  147.5976  141.0146  152.5389 H   0  0  0  0  0  0  0  0  0  0  0  0
  148.4102  141.1452  155.1732 H   0  0  0  0  0  0  0  0  0  0  0  0
  154.2118  136.5763  156.0948 H   0  0  0  0  0  0  0  0  0  0  0  0
  154.9770  137.6113  157.2818 H   0  0  0  0  0  0  0  0  0  0  0  0
  149.8421  136.6811  153.9120 H   0  0  0  0  0  0  0  0  0  0  0  0
  145.2673  138.5623  153.0592 H   0  0  0  0  0  0  0  0  0  0  0  0
  145.8862  138.8366  151.4363 H   0  0  0  0  0  0  0  0  0  0  0  0
  147.0975  136.7375  152.0136 H   0  0  0  0  0  0  0  0  0  0  0  0
  145.5118  140.5605  153.3914 H   0  0  0  0  0  0  0  0  0  0  0  0
  149.8561  140.1904  152.9592 H   0  0  0  0  0  0  0  0  0  0  0  0
  1  2  1  0  0  0  0
  1 25  1  0  0  0  0
  1 26  1  0  0  0  0
  2  8  1  0  0  0  0
  2  3  2  0  0  0  0
  3  4  1  0  0  0  0
  4  5  1  0  0  0  0
  4  6  2  0  0  0  0
  6  7  1  0  0  0  0
  7 11  1  0  0  0  0
  7  8  2  0  0  0  0
  8  9  1  0  0  0  0
  9 10  2  0  0  0  0
 10 11  1  0  0  0  0
 10 27  1  0  0  0  0
 11 12  1  0  0  0  0
 12 21  1  0  0  0  0
 12 19  1  0  0  0  0
 12 13  1  0  0  0  0
 13 14  1  0  0  0  0
 14 22  1  0  0  0  0
 14 15  1  0  0  0  0
 14 17  1  0  0  0  0
 15 16  1  0  0  0  0
 15 28  1  0  0  0  0
 15 29  1  0  0  0  0
 16 30  1  0  0  0  0
 17 23  1  0  0  0  0
 17 18  1  0  0  0  0
 17 19  1  0  0  0  0
 18 31  1  0  0  0  0
 19 24  1  0  0  0  0
 19 20  1  0  0  0  0
 20 32  1  0  0  0  0
M  END
> <s_m_source_file>
AV-unprocessed.smi

> <i_m_source_file_index>
114

> <i_lp_mmshare_version>
43012

> <i_f3d_flags>
0

> <s_epik_input>
RmMobjEpbmMoW05IMl0pYyhjMTIpbltjSF1uMltDQEBIXTNPW0NASF0oW0NIMl1bT0hdKVtDQEBIXShbT0hdKVtDQEBIXTNbT0hd

> <s_epik_cmdline>
J2VwaWtfcHl0aG9uJywgJy1waCcsICc3LjAnLCAnLXRuJywgJzgnLCAnLW1hJywgJzIwMCcsICctbWV0YWxfYmluZGluZycsICctaW1hZScsICc8aW5maWxlLm1hZT4nLCAnLW9tYWUnLCAnPG91dGZpbGUubWFlPic=

> <r_lp_tautomer_probability>
1

> <r_epik_Ionization_Penalty>
1.13199e-05

> <r_epik_Ionization_Penalty_Charging>
0

> <r_epik_Ionization_Penalty_Neutral>
1.13199e-05

> <r_epik_State_Penalty>
-0

> <r_epik_Charging_Adjusted_Penalty>
0

> <i_epik_Tot_Q>
0

> <i_epik_Tot_abs_Q>
0

> <r_epik_Metal_State_Penalty>
-0

> <b_epik_Metal_Only>
0

> <s_epik_Chemistry_Notes>
This compound contains an acetal/aminal-like group ( X-CH(R)-Y where X, Y are N, S, or O) that may be acid/base labile, releasing an aldehyde.

> <s_lp_Force_Field>
OPLS_2005

> <r_lp_Energy>
40.543

> <b_lp_Chiralities_Consistent>
1

> <s_lp_Variant>
AV-unprocessed.smi:114-3

> <Gold.Version>
5.8.1

> <Gold.Id.Protein>
6NUR|6NUR_protein|mol2

> <Gold.PLP.Fitness>
43.9054

> <Gold.PLP.PLP>
-24.0157

> <Gold.PLP.part.hbond>
-6.5763

> <Gold.PLP.part.metal>
0.0000

> <Gold.PLP.part.buried>
2.4122

> <Gold.PLP.part.nonpolar>
-20.5075

> <Gold.PLP.part.repulsive>
0.5053

> <Gold.PLP.ligand.clash>
0.0000

> <Gold.PLP.ligand.torsion>
0.0484

> <Gold.PLP.Chemscore.Hbond>
5.6614

> <Gold.PLP.Chemscore.CHOScore>
1.0000

> <Gold.PLP.Chemscore.Metal>
0.0000

> <Gold.Chemscore.Hbonds>
donor molecule, donor type, donor heavy atom, donor atom, acceptor molecule, acceptor atom, score
      L1  H    16    30       P1  7948  1.00
      L1  H    18    31       P1 10175  0.98
      L1  H    20    32       P1  7957  0.99
      P1  H  7989  7998       L1    20  0.05
      P1  H  7997  8008       L1     3  0.80
      P1  H  8011  8017       L1    20  0.08
      P1  H 10752 10763       L1     9  1.00
      L1  C    10    27       P1  7948  1.00

> <Gold.PLP.Chemscore.Internal.Correction>
0.0020

> <Gold.Rescore>
     Score         DG    S(hbond)    S(metal)    S(lipo)     H(rot)  DE(clash)    DE(int)     intcor
     12.69     -13.02       4.12        0.00      34.89       4.03       0.28       0.06       ----

> <Gold.Chemscore.Fitness>
12.6868

> <Gold.Chemscore.DG>
-13.0241

> <Gold.Chemscore.ZeroCoef>
-5.4800

> <Gold.Chemscore.Hbond>
4.1238

> <Gold.Chemscore.Metal>
0.0000

> <Gold.Chemscore.Lipo>
34.8859

> <Gold.Chemscore.Internal_Hbond>
0.0000

> <Gold.Chemscore.DEClash>
0.2815

> <Gold.Chemscore.DEInternal>
0.0558

> <Gold.Chemscore.Rot>
4.0277

> <Gold.Chemscore.Internal.Correction>
   9.000000E+99

> <Gold.Chemscore.Hbonds>
donor molecule, donor type, donor heavy atom, donor atom, acceptor molecule, acceptor atom, score
      L1  H    16    30       P1  7948  1.00
      L1  H    18    31       P1 10175  0.86
      L1  H    20    32       P1  7957  0.94
      P1  H  7997  8008       L1     3  0.09
      P1  H 10752 10763       L1     9  0.96

> <Gold.Chemscore.Hbond.Weighted>
-13.7734

> <Gold.Chemscore.Metal.Weighted>
-0.0000

> <Gold.Chemscore.Lipo.Weighted>
-4.0816

> <Gold.Chemscore.Internal_Hbond.Weighted>
0.0000

> <Gold.Chemscore.DEClash.Weighted>
0.2815

> <Gold.Chemscore.DEInternal.Weighted>
0.0558

> <Gold.Chemscore.Rot.Weighted>
10.3110

> <Gold.Chemscore.Internal.Correction.Weighted>
   9.000000E+99

> <Gold.Protein.RotatedTorsions>
[ 6907 6896 6895 6894 ] final   37.46 input  -60.11 | X-H torsion
[ 7974 7965 7964 7962 ] final   54.48 input  175.53 | X-H torsion
[ 8008 7997 7996 7995 ] final  -68.97 input   59.86 | X-H torsion
[ 10167 10162 10161 10158 ] final   83.93 input  -65.29 | X-H torsion
[ 10718 10713 10712 10709 ] final  112.18 input   66.30 | X-H torsion
[ 10763 10752 10751 10750 ] final   53.10 input  -60.55 | X-H torsion
[ 11005 11000 10999 10996 ] final  145.77 input  -57.11 | X-H torsion

> <Gold.Protein.ActiveResidues>
 VAL166  LYS551  ARG553  GLY616  TRP617  ASP618  TYR619  PRO620  LYS621  CYS622 
 ASP623  PHE694  ASN695  SER759  ASP760  ASP761  ALA762  ILE779  LEU786  VAL792 
 PHE793  MET794  SER795  GLU796  ALA797  LYS798  CYS799  TRP800  GLU811  SER814 

> <Gold.Protein.RotatedAtoms>
  152.1435  134.9044  160.0552 H   0  0  0  0  0  0  0  0  0  0  0  0  # atno 6907 bound_to 6896
  152.0103  133.3854  159.4225 H   0  0  0  0  0  0  0  0  0  0  0  0  # atno 6908 bound_to 6896
  150.6867  134.3659  159.5014 H   0  0  0  0  0  0  0  0  0  0  0  0  # atno 6909 bound_to 6896
  145.9604  139.4054  143.0251 H   0  0  0  0  0  0  0  0  0  0  0  0  # atno 7974 bound_to 7965
  154.4905  140.0862  156.7584 H   0  0  0  0  0  0  0  0  0  0  0  0  # atno 8008 bound_to 7997
  155.4242  140.3447  155.4256 H   0  0  0  0  0  0  0  0  0  0  0  0  # atno 8009 bound_to 7997
  156.1323  140.1505  156.9034 H   0  0  0  0  0  0  0  0  0  0  0  0  # atno 8010 bound_to 7997
  139.9133  144.6258  150.8515 H   0  0  0  0  0  0  0  0  0  0  0  0  # atno 10167 bound_to 10162
  157.6406  131.0963  150.6858 H   0  0  0  0  0  0  0  0  0  0  0  0  # atno 10718 bound_to 10713
  152.9793  135.5790  154.4687 H   0  0  0  0  0  0  0  0  0  0  0  0  # atno 10763 bound_to 10752
  154.4253  135.2772  155.1950 H   0  0  0  0  0  0  0  0  0  0  0  0  # atno 10764 bound_to 10752
  154.3682  135.6173  153.5780 H   0  0  0  0  0  0  0  0  0  0  0  0  # atno 10765 bound_to 10752
  140.0739  134.9136  157.1391 H   0  0  0  0  0  0  0  0  0  0  0  0  # atno 11005 bound_to 11000
  145.8047  140.9754  143.0980 LP  0  0  0  0  0  0  0  0  0  0  0  0  # atno 17320 bound_to 7965
  144.6814  139.9846  143.7484 LP  0  0  0  0  0  0  0  0  0  0  0  0  # atno 17321 bound_to 7965
  140.7680  143.3350  151.2329 LP  0  0  0  0  0  0  0  0  0  0  0  0  # atno 17342 bound_to 10162
  139.6924  143.9670  152.2866 LP  0  0  0  0  0  0  0  0  0  0  0  0  # atno 17343 bound_to 10162
  156.7182  130.4672  149.5529 LP  0  0  0  0  0  0  0  0  0  0  0  0  # atno 17370 bound_to 10713
  156.1683  130.6420  151.0806 LP  0  0  0  0  0  0  0  0  0  0  0  0  # atno 17371 bound_to 10713
  140.3586  134.2519  155.7189 LP  0  0  0  0  0  0  0  0  0  0  0  0  # atno 17394 bound_to 11000
  141.2022  133.7943  157.0402 LP  0  0  0  0  0  0  0  0  0  0  0  0  # atno 17395 bound_to 11000

$$$$
