AV-unprocessed.smi:1565|AV-procd|sdf|6297|dock10
  -GOLD-   22720 6493D 1   1.00000     0.00000
 Structure written by MMmdl.
 40 41  0  0  0  0  0  0  0  0  1 V2000
  149.2549  142.1781  157.4998 C   0  0  0  0  0  0  0  0  0  0  0  0
  150.7088  142.3289  157.0176 C   0  0  2  0  0  0  0  0  0  0  0  0
  151.6204  141.1622  157.4461 C   0  0  0  0  0  0  0  0  0  0  0  0
  151.9644  141.2589  158.8619 N   0  0  0  0  0  0  0  0  0  0  0  0
  152.5406  140.1025  159.4293 C   0  0  0  0  0  0  0  0  0  0  0  0
  151.9647  138.8327  159.1908 C   0  0  0  0  0  0  0  0  0  0  0  0
  152.5575  137.6905  159.7625 C   0  0  0  0  0  0  0  0  0  0  0  0
  153.7157  137.8398  160.5535 C   0  0  0  0  0  0  0  0  0  0  0  0
  154.3631  136.6469  161.1954 C   0  0  0  0  0  0  0  0  0  0  0  0
  154.2522  135.5260  160.6986 O   0  0  0  0  0  0  0  0  0  0  0  0
  155.1006  136.9050  162.2871 N   0  0  0  0  0  0  0  0  0  0  0  0
  155.8632  135.9147  163.0402 C   0  0  0  0  0  0  0  0  0  0  0  0
  154.9488  134.9492  163.8132 C   0  0  0  0  0  0  0  0  0  0  0  0
  154.4523  134.0475  162.9675 F   0  0  0  0  0  0  0  0  0  0  0  0
  155.6271  134.3098  164.7660 F   0  0  0  0  0  0  0  0  0  0  0  0
  153.9366  135.6169  164.3675 F   0  0  0  0  0  0  0  0  0  0  0  0
  154.2077  139.1492  160.7507 C   0  0  0  0  0  0  0  0  0  0  0  0
  153.6426  140.2467  160.2056 N   0  0  0  0  0  0  0  0  0  0  0  0
  152.5212  142.5573  159.2308 C   0  0  0  0  0  0  0  0  0  0  0  0
  151.5679  143.6886  158.8072 C   0  0  1  0  0  0  0  0  0  0  0  0
  152.1762  145.0722  159.0585 C   0  0  0  0  0  0  0  0  0  0  0  0
  151.2834  143.5767  157.4132 O   0  0  0  0  0  0  0  0  0  0  0  0
  148.7976  141.2859  157.0716 H   0  0  0  0  0  0  0  0  0  0  0  0
  148.6535  143.0349  157.1959 H   0  0  0  0  0  0  0  0  0  0  0  0
  149.1854  142.0869  158.5834 H   0  0  0  0  0  0  0  0  0  0  0  0
  150.6785  142.3417  155.9277 H   0  0  0  0  0  0  0  0  0  0  0  0
  151.1357  140.2169  157.2052 H   0  0  0  0  0  0  0  0  0  0  0  0
  152.5461  141.1920  156.8699 H   0  0  0  0  0  0  0  0  0  0  0  0
  151.0724  138.7240  158.5924 H   0  0  0  0  0  0  0  0  0  0  0  0
  152.1235  136.7162  159.5896 H   0  0  0  0  0  0  0  0  0  0  0  0
  155.1563  137.8607  162.6078 H   0  0  0  0  0  0  0  0  0  0  0  0
  156.4706  135.3532  162.3299 H   0  0  0  0  0  0  0  0  0  0  0  0
  156.5623  136.4043  163.7201 H   0  0  0  0  0  0  0  0  0  0  0  0
  155.0774  139.3331  161.3645 H   0  0  0  0  0  0  0  0  0  0  0  0
  152.6824  142.6067  160.3085 H   0  0  0  0  0  0  0  0  0  0  0  0
  153.4923  142.6808  158.7491 H   0  0  0  0  0  0  0  0  0  0  0  0
  150.6419  143.6193  159.3782 H   0  0  0  0  0  0  0  0  0  0  0  0
  152.4003  145.2160  160.1158 H   0  0  0  0  0  0  0  0  0  0  0  0
  151.4881  145.8612  158.7545 H   0  0  0  0  0  0  0  0  0  0  0  0
  153.1025  145.2041  158.4985 H   0  0  0  0  0  0  0  0  0  0  0  0
  1  2  1  0  0  0  0
  1 23  1  0  0  0  0
  1 24  1  0  0  0  0
  1 25  1  0  0  0  0
  2 22  1  0  0  0  0
  2  3  1  0  0  0  0
  2 26  1  0  0  0  0
  3  4  1  0  0  0  0
  3 27  1  0  0  0  0
  3 28  1  0  0  0  0
  4  5  1  0  0  0  0
  4 19  1  0  0  0  0
  5 18  1  0  0  0  0
  5  6  2  0  0  0  0
  6  7  1  0  0  0  0
  6 29  1  0  0  0  0
  7  8  2  0  0  0  0
  7 30  1  0  0  0  0
  8  9  1  0  0  0  0
  8 17  1  0  0  0  0
  9 10  2  0  0  0  0
  9 11  1  0  0  0  0
 11 12  1  0  0  0  0
 11 31  1  0  0  0  0
 12 13  1  0  0  0  0
 12 32  1  0  0  0  0
 12 33  1  0  0  0  0
 13 14  1  0  0  0  0
 13 15  1  0  0  0  0
 13 16  1  0  0  0  0
 17 18  2  0  0  0  0
 17 34  1  0  0  0  0
 19 20  1  0  0  0  0
 19 35  1  0  0  0  0
 19 36  1  0  0  0  0
 20 21  1  0  0  0  0
 20 22  1  0  0  0  0
 20 37  1  0  0  0  0
 21 38  1  0  0  0  0
 21 39  1  0  0  0  0
 21 40  1  0  0  0  0
M  END
> <s_m_source_file>
AV-unprocessed.smi

> <i_m_source_file_index>
1565

> <i_lp_mmshare_version>
43012

> <i_f3d_flags>
0

> <s_epik_input>
W0NIM11bQ0BASF0xW0NIMl1OKFtDSDJdW0NASF0oTzEpW0NIM10pYzJbY0hdW2NIXWMoW2NIXW4yKUMoPU8pW05IXVtDSDJdQyhGKShGKUY=

> <s_epik_cmdline>
J2VwaWtfcHl0aG9uJywgJy1waCcsICc3LjAnLCAnLXRuJywgJzgnLCAnLW1hJywgJzIwMCcsICctbWV0YWxfYmluZGluZycsICctaW1hZScsICc8aW5maWxlLm1hZT4nLCAnLW9tYWUnLCAnPG91dGZpbGUubWFlPic=

> <r_lp_tautomer_probability>
1

> <r_epik_Ionization_Penalty>
1.48031e-05

> <r_epik_Ionization_Penalty_Charging>
0

> <r_epik_Ionization_Penalty_Neutral>
1.48031e-05

> <r_epik_State_Penalty>
-0

> <r_epik_Charging_Adjusted_Penalty>
0

> <i_epik_Tot_Q>
0

> <i_epik_Tot_abs_Q>
0

> <r_epik_Metal_State_Penalty>
0.00620302

> <b_epik_Metal_Only>
0

> <s_lp_Force_Field>
OPLS_2005

> <r_lp_Energy>
19.6517

> <b_lp_Chiralities_Consistent>
1

> <s_lp_Variant>
AV-unprocessed.smi:1565-1

> <Gold.Version>
5.8.1

> <Gold.Id.Protein>
6NUR|6NUR_protein|mol2

> <Gold.PLP.Fitness>
39.2184

> <Gold.PLP.PLP>
-37.7401

> <Gold.PLP.part.hbond>
-0.8552

> <Gold.PLP.part.metal>
0.0000

> <Gold.PLP.part.buried>
-5.5318

> <Gold.PLP.part.nonpolar>
-31.6410

> <Gold.PLP.part.repulsive>
0.1400

> <Gold.PLP.ligand.clash>
0.0000

> <Gold.PLP.ligand.torsion>
0.7223

> <Gold.PLP.Chemscore.Hbond>
0.8613

> <Gold.PLP.Chemscore.CHOScore>
0.0000

> <Gold.PLP.Chemscore.Metal>
0.0000

> <Gold.Chemscore.Hbonds>
donor molecule, donor type, donor heavy atom, donor atom, acceptor molecule, acceptor atom, score
      P1  H  6896  6909       L1    10  0.83

> <Gold.PLP.Chemscore.Internal.Correction>
0.3392

> <Gold.Rescore>
     Score         DG    S(hbond)    S(metal)    S(lipo)     H(rot)  DE(clash)    DE(int)     intcor
     13.69     -15.70       0.99        0.00      87.74       1.31       0.02       1.99       ----

> <Gold.Chemscore.Fitness>
13.6913

> <Gold.Chemscore.DG>
-15.7040

> <Gold.Chemscore.ZeroCoef>
-5.4800

> <Gold.Chemscore.Hbond>
0.9879

> <Gold.Chemscore.Metal>
0.0000

> <Gold.Chemscore.Lipo>
87.7426

> <Gold.Chemscore.Internal_Hbond>
0.0000

> <Gold.Chemscore.DEClash>
0.0195

> <Gold.Chemscore.DEInternal>
1.9932

> <Gold.Chemscore.Rot>
1.3052

> <Gold.Chemscore.Internal.Correction>
   9.000000E+99

> <Gold.Chemscore.Hbonds>
donor molecule, donor type, donor heavy atom, donor atom, acceptor molecule, acceptor atom, score
      P1  H  6896  6909       L1    10  0.80

> <Gold.Chemscore.Hbond.Weighted>
-3.2996

> <Gold.Chemscore.Metal.Weighted>
-0.0000

> <Gold.Chemscore.Lipo.Weighted>
-10.2659

> <Gold.Chemscore.Internal_Hbond.Weighted>
0.0000

> <Gold.Chemscore.DEClash.Weighted>
0.0195

> <Gold.Chemscore.DEInternal.Weighted>
1.9932

> <Gold.Chemscore.Rot.Weighted>
3.3414

> <Gold.Chemscore.Internal.Correction.Weighted>
   9.000000E+99

> <Gold.Protein.RotatedTorsions>
[ 6907 6896 6895 6894 ] final -175.04 input  -60.11 | X-H torsion
[ 7974 7965 7964 7962 ] final -119.41 input  175.53 | X-H torsion
[ 8008 7997 7996 7995 ] final  171.89 input   59.86 | X-H torsion
[ 10167 10162 10161 10158 ] final  152.51 input  -65.29 | X-H torsion
[ 10718 10713 10712 10709 ] final  -59.88 input   66.30 | X-H torsion
[ 10763 10752 10751 10750 ] final -111.53 input  -60.55 | X-H torsion
[ 11005 11000 10999 10996 ] final  -23.27 input  -57.11 | X-H torsion

> <Gold.Protein.ActiveResidues>
 VAL166  LYS551  ARG553  GLY616  TRP617  ASP618  TYR619  PRO620  LYS621  CYS622 
 ASP623  PHE694  ASN695  SER759  ASP760  ASP761  ALA762  ILE779  LEU786  VAL792 
 PHE793  MET794  SER795  GLU796  ALA797  LYS798  CYS799  TRP800  GLU811  SER814 

> <Gold.Protein.RotatedAtoms>
  151.5821  133.3376  159.3010 H   0  0  0  0  0  0  0  0  0  0  0  0  # atno 6907 bound_to 6896
  150.8307  134.7562  159.6863 H   0  0  0  0  0  0  0  0  0  0  0  0  # atno 6908 bound_to 6896
  152.4391  134.5633  159.9952 H   0  0  0  0  0  0  0  0  0  0  0  0  # atno 6909 bound_to 6896
  145.0628  140.8303  143.4142 H   0  0  0  0  0  0  0  0  0  0  0  0  # atno 7974 bound_to 7965
  156.1227  140.1500  156.9180 H   0  0  0  0  0  0  0  0  0  0  0  0  # atno 8008 bound_to 7997
  154.4848  140.0868  156.7503 H   0  0  0  0  0  0  0  0  0  0  0  0  # atno 8009 bound_to 7997
  155.4399  140.3430  155.4291 H   0  0  0  0  0  0  0  0  0  0  0  0  # atno 8010 bound_to 7997
  139.4832  144.5352  151.7657 H   0  0  0  0  0  0  0  0  0  0  0  0  # atno 10167 bound_to 10162
  156.1030  130.4184  150.0777 H   0  0  0  0  0  0  0  0  0  0  0  0  # atno 10718 bound_to 10713
  154.8305  135.4524  154.1053 H   0  0  0  0  0  0  0  0  0  0  0  0  # atno 10763 bound_to 10752
  153.2331  135.6908  153.7874 H   0  0  0  0  0  0  0  0  0  0  0  0  # atno 10764 bound_to 10752
  153.7249  135.3336  155.3250 H   0  0  0  0  0  0  0  0  0  0  0  0  # atno 10765 bound_to 10752
  140.8736  133.7703  156.0216 H   0  0  0  0  0  0  0  0  0  0  0  0  # atno 11005 bound_to 11000
  145.1387  139.2585  143.5501 LP  0  0  0  0  0  0  0  0  0  0  0  0  # atno 17320 bound_to 7965
  146.3525  140.1059  142.8606 LP  0  0  0  0  0  0  0  0  0  0  0  0  # atno 17321 bound_to 7965
  140.4883  144.1348  150.5945 LP  0  0  0  0  0  0  0  0  0  0  0  0  # atno 17342 bound_to 10162
  140.4200  143.2616  151.9727 LP  0  0  0  0  0  0  0  0  0  0  0  0  # atno 17343 bound_to 10162
  156.8760  130.9540  151.3604 LP  0  0  0  0  0  0  0  0  0  0  0  0  # atno 17370 bound_to 10713
  157.6202  130.8649  149.9097 LP  0  0  0  0  0  0  0  0  0  0  0  0  # atno 17371 bound_to 10713
  140.8544  134.2915  157.5261 LP  0  0  0  0  0  0  0  0  0  0  0  0  # atno 17394 bound_to 11000
  139.8714  134.9485  156.3998 LP  0  0  0  0  0  0  0  0  0  0  0  0  # atno 17395 bound_to 11000

$$$$
