AV-unprocessed.smi:1454|AV-procd|sdf|5914|dock10
  -GOLD-   22720 6 03D 1   1.00000     0.00000
 Structure written by MMmdl.
 45 46  0  0  0  0  0  0  0  0  2 V2000
  146.6991  134.3461  156.4591 O   0  0  0  0  0  0  0  0  0  0  0  0
  147.1178  135.3856  155.9507 C   0  0  0  0  0  0  0  0  0  0  0  0
  148.2793  136.1360  156.6103 C   0  0  0  0  0  0  0  0  0  0  0  0
  147.9247  136.7654  157.9748 C   0  0  0  0  0  0  0  0  0  0  0  0
  147.8115  135.7707  159.0369 N   0  0  0  0  0  0  0  0  0  0  0  0
  147.7339  136.0214  160.3518 C   0  0  0  0  0  0  0  0  0  0  0  0
  147.7333  137.1592  160.8214 O   0  0  0  0  0  0  0  0  0  0  0  0
  147.6396  134.7865  161.2653 C   0  0  0  0  0  0  0  0  0  0  0  0
  146.5030  133.8220  160.8679 C   0  0  0  0  0  0  0  0  0  0  0  0
  145.3248  134.0951  161.8190 C   0  0  0  0  0  0  0  0  0  0  0  0
  145.7780  135.2055  162.7721 C   0  0  0  0  0  0  0  0  0  0  0  0
  147.3038  135.1812  162.7104 C   0  0  0  0  0  0  0  0  0  0  0  0
  146.6375  135.8943  154.8041 N   0  0  0  0  0  0  0  0  0  0  0  0
  145.6781  135.2363  153.9181 C   0  0  0  0  0  0  0  0  0  0  0  0
  146.2143  135.0122  152.4886 C   0  0  0  0  0  0  0  0  0  0  0  0
  145.3537  134.1421  151.5824 C   0  0  0  0  0  0  0  0  0  0  0  0
  145.9031  132.9861  150.9836 C   0  0  0  0  0  0  0  0  0  0  0  0
  145.0976  132.1812  150.1515 C   0  0  0  0  0  0  0  0  0  0  0  0
  143.7538  132.5466  149.9371 C   0  0  0  0  0  0  0  0  0  0  0  0
  143.2541  133.6469  150.5398 N   0  3  0  0  0  0  0  0  0  0  0  0
  143.9913  134.4380  151.3492 C   0  0  0  0  0  0  0  0  0  0  0  0
  149.0727  135.4032  156.7611 H   0  0  0  0  0  0  0  0  0  0  0  0
  148.6930  136.8853  155.9335 H   0  0  0  0  0  0  0  0  0  0  0  0
  148.6342  137.5451  158.2586 H   0  0  0  0  0  0  0  0  0  0  0  0
  146.9563  137.2599  157.8959 H   0  0  0  0  0  0  0  0  0  0  0  0
  147.7963  134.8037  158.7454 H   0  0  0  0  0  0  0  0  0  0  0  0
  148.5975  134.2646  161.2300 H   0  0  0  0  0  0  0  0  0  0  0  0
  146.2030  133.9252  159.8240 H   0  0  0  0  0  0  0  0  0  0  0  0
  146.8385  132.7912  160.9893 H   0  0  0  0  0  0  0  0  0  0  0  0
  144.4236  134.3820  161.2778 H   0  0  0  0  0  0  0  0  0  0  0  0
  145.0893  133.1907  162.3812 H   0  0  0  0  0  0  0  0  0  0  0  0
  145.4196  136.1707  162.4158 H   0  0  0  0  0  0  0  0  0  0  0  0
  145.3979  135.0679  163.7848 H   0  0  0  0  0  0  0  0  0  0  0  0
  147.6883  134.4221  163.3927 H   0  0  0  0  0  0  0  0  0  0  0  0
  147.7398  136.1353  163.0108 H   0  0  0  0  0  0  0  0  0  0  0  0
  147.0371  136.7605  154.4727 H   0  0  0  0  0  0  0  0  0  0  0  0
  145.4531  134.2659  154.3608 H   0  0  0  0  0  0  0  0  0  0  0  0
  144.7271  135.7701  153.8953 H   0  0  0  0  0  0  0  0  0  0  0  0
  146.3639  135.9817  152.0110 H   0  0  0  0  0  0  0  0  0  0  0  0
  147.2004  134.5504  152.5473 H   0  0  0  0  0  0  0  0  0  0  0  0
  146.9335  132.7144  151.1583 H   0  0  0  0  0  0  0  0  0  0  0  0
  145.5056  131.2985  149.6820 H   0  0  0  0  0  0  0  0  0  0  0  0
  143.0676  131.9933  149.3129 H   0  0  0  0  0  0  0  0  0  0  0  0
  143.4684  135.2820  151.7737 H   0  0  0  0  0  0  0  0  0  0  0  0
  142.2768  133.8912  150.3779 H   0  0  0  0  0  0  0  0  0  0  0  0
  1  2  2  0  0  0  0
  2  3  1  0  0  0  0
  2 13  1  0  0  0  0
  3  4  1  0  0  0  0
  3 22  1  0  0  0  0
  3 23  1  0  0  0  0
  4  5  1  0  0  0  0
  4 24  1  0  0  0  0
  4 25  1  0  0  0  0
  5  6  1  0  0  0  0
  5 26  1  0  0  0  0
  6  7  2  0  0  0  0
  6  8  1  0  0  0  0
  8 12  1  0  0  0  0
  8  9  1  0  0  0  0
  8 27  1  0  0  0  0
  9 10  1  0  0  0  0
  9 28  1  0  0  0  0
  9 29  1  0  0  0  0
 10 11  1  0  0  0  0
 10 30  1  0  0  0  0
 10 31  1  0  0  0  0
 11 12  1  0  0  0  0
 11 32  1  0  0  0  0
 11 33  1  0  0  0  0
 12 34  1  0  0  0  0
 12 35  1  0  0  0  0
 13 14  1  0  0  0  0
 13 36  1  0  0  0  0
 14 15  1  0  0  0  0
 14 37  1  0  0  0  0
 14 38  1  0  0  0  0
 15 16  1  0  0  0  0
 15 39  1  0  0  0  0
 15 40  1  0  0  0  0
 16 21  1  0  0  0  0
 16 17  2  0  0  0  0
 17 18  1  0  0  0  0
 17 41  1  0  0  0  0
 18 19  2  0  0  0  0
 18 42  1  0  0  0  0
 19 20  1  0  0  0  0
 19 43  1  0  0  0  0
 20 21  2  0  0  0  0
 20 45  1  0  0  0  0
 21 44  1  0  0  0  0
M  CHG  1  20   1
M  END
> <s_m_source_file>
AV-unprocessed.smi

> <i_m_source_file_index>
1454

> <i_lp_mmshare_version>
43012

> <i_f3d_flags>
0

> <s_epik_input>
W2NIXTFuW2NIXVtjSF1bY0hdYzFbQ0gyXVtDSDJdW05IXUMoPU8pW0NIMl1bQ0gyXVtOSF1DKD1PKVtDSF0yW0NIMl1bQ0gyXVtDSDJdW0NIMl0y

> <s_epik_cmdline>
J2VwaWtfcHl0aG9uJywgJy1waCcsICc3LjAnLCAnLXRuJywgJzgnLCAnLW1hJywgJzIwMCcsICctbWV0YWxfYmluZGluZycsICctaW1hZScsICc8aW5maWxlLm1hZT4nLCAnLW9tYWUnLCAnPG91dGZpbGUubWFlPic=

> <r_epik_Ionization_Penalty>
2.25878

> <r_epik_Ionization_Penalty_Charging>
2.25878

> <r_epik_Ionization_Penalty_Neutral>
5.05393e-08

> <r_epik_State_Penalty>
2.40647

> <r_epik_Charging_Adjusted_Penalty>
4.66526

> <i_epik_Tot_Q>
1

> <i_epik_Tot_abs_Q>
1

> <r_epik_Metal_State_Penalty>
2.41947

> <b_epik_Metal_Only>
0

> <s_lp_Force_Field>
OPLS_2005

> <r_lp_Energy>
23.282

> <b_lp_Chiralities_Consistent>
1

> <s_lp_Variant>
AV-unprocessed.smi:1454-2

> <Gold.Version>
5.8.1

> <Gold.Id.Protein>
6NUR|6NUR_protein|mol2

> <Gold.PLP.Fitness>
44.3202

> <Gold.PLP.PLP>
-33.5485

> <Gold.PLP.part.hbond>
-3.0000

> <Gold.PLP.part.metal>
0.0000

> <Gold.PLP.part.buried>
-4.5584

> <Gold.PLP.part.nonpolar>
-25.2819

> <Gold.PLP.part.repulsive>
0.0829

> <Gold.PLP.ligand.clash>
0.0000

> <Gold.PLP.ligand.torsion>
0.3408

> <Gold.PLP.Chemscore.Hbond>
3.7760

> <Gold.PLP.Chemscore.CHOScore>
0.0000

> <Gold.PLP.Chemscore.Metal>
0.0000

> <Gold.Chemscore.Hbonds>
donor molecule, donor type, donor heavy atom, donor atom, acceptor molecule, acceptor atom, score
      L1  H    20    45       P1 10186  2.00
      P1  H  6931  6943       L1     7  0.86
      P1  H  6934  6947       L1     7  0.90

> <Gold.PLP.Chemscore.Internal.Correction>
0.1252

> <Gold.Rescore>
     Score         DG    S(hbond)    S(metal)    S(lipo)     H(rot)  DE(clash)    DE(int)     intcor
     18.47     -18.84       2.76        0.00      84.45       2.23       0.07       0.30       ----

> <Gold.Chemscore.Fitness>
18.4735

> <Gold.Chemscore.DG>
-18.8418

> <Gold.Chemscore.ZeroCoef>
-5.4800

> <Gold.Chemscore.Hbond>
2.7552

> <Gold.Chemscore.Metal>
0.0000

> <Gold.Chemscore.Lipo>
84.4502

> <Gold.Chemscore.Internal_Hbond>
0.0000

> <Gold.Chemscore.DEClash>
0.0727

> <Gold.Chemscore.DEInternal>
0.2956

> <Gold.Chemscore.Rot>
2.2348

> <Gold.Chemscore.Internal.Correction>
   9.000000E+99

> <Gold.Chemscore.Hbonds>
donor molecule, donor type, donor heavy atom, donor atom, acceptor molecule, acceptor atom, score
      L1  H    20    45       P1 10186  0.92
      P1  H  6931  6943       L1     7  0.81
      P1  H  6934  6947       L1     7  0.87

> <Gold.Chemscore.Hbond.Weighted>
-9.2023

> <Gold.Chemscore.Metal.Weighted>
-0.0000

> <Gold.Chemscore.Lipo.Weighted>
-9.8807

> <Gold.Chemscore.Internal_Hbond.Weighted>
0.0000

> <Gold.Chemscore.DEClash.Weighted>
0.0727

> <Gold.Chemscore.DEInternal.Weighted>
0.2956

> <Gold.Chemscore.Rot.Weighted>
5.7212

> <Gold.Chemscore.Internal.Correction.Weighted>
   9.000000E+99

> <Gold.Protein.RotatedTorsions>
[ 6907 6896 6895 6894 ] final  -79.34 input  -60.11 | X-H torsion
[ 7974 7965 7964 7962 ] final  -93.25 input  175.53 | X-H torsion
[ 8008 7997 7996 7995 ] final -172.25 input   59.86 | X-H torsion
[ 10167 10162 10161 10158 ] final  -40.55 input  -65.29 | X-H torsion
[ 10718 10713 10712 10709 ] final -166.84 input   66.30 | X-H torsion
[ 10763 10752 10751 10750 ] final  -74.28 input  -60.55 | X-H torsion
[ 11005 11000 10999 10996 ] final   22.42 input  -57.11 | X-H torsion

> <Gold.Protein.ActiveResidues>
 VAL166  LYS551  ARG553  GLY616  TRP617  ASP618  TYR619  PRO620  LYS621  CYS622 
 ASP623  PHE694  ASN695  SER759  ASP760  ASP761  ALA762  ILE779  LEU786  VAL792 
 PHE793  MET794  SER795  GLU796  ALA797  LYS798  CYS799  TRP800  GLU811  SER814 

> <Gold.Protein.RotatedAtoms>
  150.6952  134.4136  159.5172 H   0  0  0  0  0  0  0  0  0  0  0  0  # atno 6907 bound_to 6896
  152.1890  134.8686  160.0528 H   0  0  0  0  0  0  0  0  0  0  0  0  # atno 6908 bound_to 6896
  151.9648  133.3672  159.4086 H   0  0  0  0  0  0  0  0  0  0  0  0  # atno 6909 bound_to 6896
  145.3890  140.9526  143.2351 H   0  0  0  0  0  0  0  0  0  0  0  0  # atno 7974 bound_to 7965
  155.9421  140.1110  157.1047 H   0  0  0  0  0  0  0  0  0  0  0  0  # atno 8008 bound_to 7997
  154.4091  140.1217  156.5007 H   0  0  0  0  0  0  0  0  0  0  0  0  # atno 8009 bound_to 7997
  155.6948  140.3472  155.4911 H   0  0  0  0  0  0  0  0  0  0  0  0  # atno 8010 bound_to 7997
  140.7031  143.3147  151.2940 H   0  0  0  0  0  0  0  0  0  0  0  0  # atno 10167 bound_to 10162
  156.6736  130.9094  151.3047 H   0  0  0  0  0  0  0  0  0  0  0  0  # atno 10718 bound_to 10713
  154.4709  135.5869  153.6321 H   0  0  0  0  0  0  0  0  0  0  0  0  # atno 10763 bound_to 10752
  152.9834  135.6066  154.3368 H   0  0  0  0  0  0  0  0  0  0  0  0  # atno 10764 bound_to 10752
  154.3249  135.2843  155.2480 H   0  0  0  0  0  0  0  0  0  0  0  0  # atno 10765 bound_to 10752
  140.3808  134.1923  155.7663 H   0  0  0  0  0  0  0  0  0  0  0  0  # atno 11005 bound_to 11000
  144.8454  139.5406  143.6881 LP  0  0  0  0  0  0  0  0  0  0  0  0  # atno 17320 bound_to 7965
  146.2806  139.6868  142.9231 LP  0  0  0  0  0  0  0  0  0  0  0  0  # atno 17321 bound_to 7965
  139.6581  144.0239  152.2674 LP  0  0  0  0  0  0  0  0  0  0  0  0  # atno 17342 bound_to 10162
  139.9797  144.6437  150.7912 LP  0  0  0  0  0  0  0  0  0  0  0  0  # atno 17343 bound_to 10162
  157.7068  130.9394  150.0958 LP  0  0  0  0  0  0  0  0  0  0  0  0  # atno 17370 bound_to 10713
  156.1920  130.3655  149.8898 LP  0  0  0  0  0  0  0  0  0  0  0  0  # atno 17371 bound_to 10713
  141.1924  133.8174  157.0840 LP  0  0  0  0  0  0  0  0  0  0  0  0  # atno 17394 bound_to 11000
  140.0480  134.9820  157.1085 LP  0  0  0  0  0  0  0  0  0  0  0  0  # atno 17395 bound_to 11000

$$$$
