#       Name:                AV-unprocessed.smi:1108
#       Creating user name   scv26
#       Creation time:       Fri Mar 27 03:33:20 2020


#       File generated by GOLD software.
#

@<TRIPOS>MOLECULE
AV-unprocessed.smi:1108
    34    35     1
SMALL
NO_CHARGES


@<TRIPOS>ATOM
      1 ****        -0.2933  -2.7712  -2.1495 C.3            1 S1                 0.0000
      2 ****         0.1521  -1.9810  -0.9114 C.3            1 S1                 0.0000
      3 ****         1.6888  -1.8377  -0.8610 C.3            1 S1                 0.0000
      4 ****         2.1577  -1.2319   0.3728 N.pl3          1 S1                 0.0000
      5 ****         2.6286   0.0487   0.5734 C.2            1 S1                 0.0000
      6 ****         2.9345   0.1658   1.8988 C.2            1 S1                 0.0000
      7 ****         2.6181  -1.1147   2.4327 C.2            1 S1                 0.0000
      8 ****         2.1584  -1.9509   1.5160 N.2            1 S1                 0.0000
      9 ****        -0.4931  -0.6682  -0.9284 N.am           1 S1                 0.0000
     10 ****        -1.0128  -0.0389   0.1361 C.2            1 S1                 0.0000
     11 ****        -1.0298  -0.5053   1.2753 O.2            1 S1                 0.0000
     12 ****        -1.4965   1.1670  -0.1891 N.am           1 S1                 0.0000
     13 ****        -2.0907   2.0905   0.7224 C.3            1 S1                 0.0000
     14 ****        -3.1671   3.0108   0.1887 C.3            1 S1                 0.0000
     15 ****        -1.8072   3.5626   0.5169 C.3            1 S1                 0.0000
     16 ****         0.1426  -3.7708  -2.1536 H              1 S1                 0.0000
     17 ****         0.0096  -2.2728  -3.0710 H              1 S1                 0.0000
     18 ****        -1.3774  -2.8866  -2.1729 H              1 S1                 0.0000
     19 ****        -0.1771  -2.5443  -0.0361 H              1 S1                 0.0000
     20 ****         2.1607  -2.8169  -0.9543 H              1 S1                 0.0000
     21 ****         2.0453  -1.2403  -1.7013 H              1 S1                 0.0000
     22 ****         2.6984   0.7636  -0.2332 H              1 S1                 0.0000
     23 ****         3.3235   1.0341   2.4093 H              1 S1                 0.0000
     24 ****         2.7089  -1.4597   3.4521 H              1 S1                 0.0000
     25 ****        -0.5323  -0.1969  -1.8201 H              1 S1                 0.0000
     26 ****        -1.4347   1.4582  -1.1536 H              1 S1                 0.0000
     27 ****        -2.2105   1.7662   1.7551 H              1 S1                 0.0000
     28 ****        -3.4343   2.9271  -0.8631 H              1 S1                 0.0000
     29 ****        -3.9870   3.2633   0.8582 H              1 S1                 0.0000
     30 ****        -1.7176   4.1836   1.4060 H              1 S1                 0.0000
     31 ****        -1.1652   3.8462  -0.3150 H              1 S1                 0.0000
     32 ****         1.8751  -2.9017   1.6415 LP             1 S1                 0.0000
     33 ****        -0.6392  -1.4088   1.4515 LP             1 S1                 0.0000
     34 ****        -1.4342   0.0194   2.0244 LP             1 S1                 0.0000
@<TRIPOS>BOND
    1    1    2 1     
    2    1   16 1     
    3    1   17 1     
    4    1   18 1     
    5    2    3 1     
    6    2    9 1     
    7    2   19 1     
    8    3    4 1     
    9    3   20 1     
   10    3   21 1     
   11    4    8 1     
   12    4    5 1     
   13    5    6 2     
   14    5   22 1     
   15    6    7 1     
   16    6   23 1     
   17    7    8 2     
   18    7   24 1     
   19    9   10 am    
   20    9   25 1     
   21   10   11 2     
   22   10   12 am    
   23   12   13 1     
   24   12   26 1     
   25   13   15 1     
   26   13   14 1     
   27   13   27 1     
   28   14   15 1     
   29   14   28 1     
   30   14   29 1     
   31   15   30 1     
   32   15   31 1     
   33    8   32 1     
   34   11   33 1     
   35   11   34 1     
@<TRIPOS>SUBSTRUCTURE
      1 S1             1
@<TRIPOS>SET
LONE_PAIRS      STATIC     ATOMS    <user>   **** ""
3 32 33 34
DONOR_HYDROGENS      STATIC     ATOMS    <user>   **** ""
2 25 26
ATOM$BLUE        STATIC     ATOMS    COLORGROUP SYSTEM
3 32 33 34
ATOM$RED        STATIC     ATOMS    COLORGROUP SYSTEM
2 25 26
