#       Name:                AV-unprocessed.smi:2279
#       Creating user name   scv26
#       Creation time:       Fri Mar 27 12:40:21 2020


#       File generated by GOLD software.
#

@<TRIPOS>MOLECULE
AV-unprocessed.smi:2279
    61    63     1
SMALL
NO_CHARGES


@<TRIPOS>ATOM
      1 ****        -7.5467   3.6084  -0.7059 C.3            1 S1                 0.0000
      2 ****        -6.8899   2.2536  -0.5435 C.ar           1 S1                 0.0000
      3 ****        -7.6460   1.0690  -0.6297 C.ar           1 S1                 0.0000
      4 ****        -6.9764  -0.1601  -0.4704 C.ar           1 S1                 0.0000
      5 ****        -7.7282  -1.4725  -0.5447 C.3            1 S1                 0.0000
      6 ****        -5.6482  -0.2516  -0.2462 N.ar           1 S1                 0.0000
      7 ****        -4.9092   0.8824  -0.1632 C.ar           1 S1                 0.0000
      8 ****        -3.5093   0.8925   0.0784 N.am           1 S1                 0.0000
      9 ****        -2.6717  -0.1583   0.1328 C.2            1 S1                 0.0000
     10 ****        -2.9866  -1.3310  -0.0722 O.2            1 S1                 0.0000
     11 ****        -1.4208   0.2274   0.4272 N.am           1 S1                 0.0000
     12 ****        -0.2742  -0.6706   0.5365 C.3            1 S1                 0.0000
     13 ****         0.7339  -0.1264   1.5626 C.3            1 S1                 0.0000
     14 ****         1.9911  -1.0151   1.6079 C.3            1 S1                 0.0000
     15 ****         2.6544  -1.1041   0.2750 N.4            1 S1                 1.0000
     16 ****         3.3680   0.1363  -0.1910 C.3            1 S1                 0.0000
     17 ****         4.2975  -0.1293  -1.4001 C.3            1 S1                 0.0000
     18 ****         5.5157  -0.9889  -1.0128 C.3            1 S1                 0.0000
     19 ****         6.2968  -0.3528   0.0775 N.4            1 S1                 1.0000
     20 ****         7.5143  -1.1197   0.4191 C.3            1 S1                 0.0000
     21 ****         5.4636  -0.0553   1.2693 C.3            1 S1                 0.0000
     22 ****         4.2473   0.8106   0.8911 C.3            1 S1                 0.0000
     23 ****         1.6983  -1.6845  -0.7133 C.3            1 S1                 0.0000
     24 ****         0.4051  -0.8531  -0.8340 C.3            1 S1                 0.0000
     25 ****        -5.5040   2.1565  -0.3042 C.ar           1 S1                 0.0000
     26 ****        -8.6332   3.5204  -0.7386 H              1 S1                 0.0000
     27 ****        -7.2137   4.0804  -1.6305 H              1 S1                 0.0000
     28 ****        -7.2834   4.2602   0.1275 H              1 S1                 0.0000
     29 ****        -8.7103   1.1013  -0.8119 H              1 S1                 0.0000
     30 ****        -8.8062  -1.3100  -0.5582 H              1 S1                 0.0000
     31 ****        -7.4913  -2.0974   0.3171 H              1 S1                 0.0000
     32 ****        -7.4525  -2.0148  -1.4495 H              1 S1                 0.0000
     33 ****        -3.1014   1.8036   0.2270 H              1 S1                 0.0000
     34 ****        -1.2505   1.2111   0.5788 H              1 S1                 0.0000
     35 ****        -0.6116  -1.6467   0.8910 H              1 S1                 0.0000
     36 ****         1.0092   0.9006   1.3195 H              1 S1                 0.0000
     37 ****         0.2732  -0.0945   2.5508 H              1 S1                 0.0000
     38 ****         2.6753  -0.6939   2.3905 H              1 S1                 0.0000
     39 ****         1.6975  -2.0232   1.9049 H              1 S1                 0.0000
     40 ****         2.6150   0.8638  -0.4929 H              1 S1                 0.0000
     41 ****         3.7708  -0.5772  -2.2401 H              1 S1                 0.0000
     42 ****         4.6578   0.8273  -1.7818 H              1 S1                 0.0000
     43 ****         5.1944  -1.9850  -0.7044 H              1 S1                 0.0000
     44 ****         6.1577  -1.1210  -1.8848 H              1 S1                 0.0000
     45 ****         7.2597  -2.1044   0.8138 H              1 S1                 0.0000
     46 ****         8.1042  -0.5925   1.1696 H              1 S1                 0.0000
     47 ****         8.1433  -1.2563  -0.4611 H              1 S1                 0.0000
     48 ****         5.1387  -0.9876   1.7335 H              1 S1                 0.0000
     49 ****         6.0681   0.4711   2.0089 H              1 S1                 0.0000
     50 ****         4.6135   1.7606   0.4988 H              1 S1                 0.0000
     51 ****         3.6755   1.0903   1.7745 H              1 S1                 0.0000
     52 ****         2.1516  -1.8249  -1.6918 H              1 S1                 0.0000
     53 ****         1.4384  -2.6899  -0.3789 H              1 S1                 0.0000
     54 ****        -0.2808  -1.3482  -1.5228 H              1 S1                 0.0000
     55 ****         0.6235   0.1187  -1.2775 H              1 S1                 0.0000
     56 ****        -4.9048   3.0531  -0.2346 H              1 S1                 0.0000
     57 ****         3.3815  -1.7958   0.3888 H              1 S1                 0.0000
     58 ****         6.6142   0.5377  -0.2792 H              1 S1                 0.0000
     59 ****        -5.2138  -1.1464  -0.1425 LP             1 S1                 0.0000
     60 ****        -3.9323  -1.5622  -0.3005 LP             1 S1                 0.0000
     61 ****        -2.2965  -2.0521  -0.0104 LP             1 S1                 0.0000
@<TRIPOS>BOND
    1    1    2 1     
    2    1   26 1     
    3    1   27 1     
    4    1   28 1     
    5    2   25 ar    
    6    2    3 ar    
    7    3    4 ar    
    8    3   29 1     
    9    4    5 1     
   10    4    6 ar    
   11    5   30 1     
   12    5   31 1     
   13    5   32 1     
   14    6    7 ar    
   15    7    8 1     
   16    7   25 ar    
   17    8    9 am    
   18    8   33 1     
   19    9   10 2     
   20    9   11 am    
   21   11   12 1     
   22   11   34 1     
   23   12   24 1     
   24   12   13 1     
   25   12   35 1     
   26   13   14 1     
   27   13   36 1     
   28   13   37 1     
   29   14   15 1     
   30   14   38 1     
   31   14   39 1     
   32   15   16 1     
   33   15   23 1     
   34   15   57 1     
   35   16   22 1     
   36   16   17 1     
   37   16   40 1     
   38   17   18 1     
   39   17   41 1     
   40   17   42 1     
   41   18   19 1     
   42   18   43 1     
   43   18   44 1     
   44   19   20 1     
   45   19   21 1     
   46   19   58 1     
   47   20   45 1     
   48   20   46 1     
   49   20   47 1     
   50   21   22 1     
   51   21   48 1     
   52   21   49 1     
   53   22   50 1     
   54   22   51 1     
   55   23   24 1     
   56   23   52 1     
   57   23   53 1     
   58   24   54 1     
   59   24   55 1     
   60   25   56 1     
   61    6   59 1     
   62   10   60 1     
   63   10   61 1     
@<TRIPOS>SUBSTRUCTURE
      1 S1             1
@<TRIPOS>SET
LONE_PAIRS      STATIC     ATOMS    <user>   **** ""
3 59 60 61
DONOR_HYDROGENS      STATIC     ATOMS    <user>   **** ""
4 33 34 57 58
ATOM$BLUE        STATIC     ATOMS    COLORGROUP SYSTEM
3 59 60 61
ATOM$RED        STATIC     ATOMS    COLORGROUP SYSTEM
4 33 34 57 58
