AV-unprocessed.smi:3349|AV-procd|sdf|12931|dock10
  -GOLD-   2272019363D 1   1.00000     0.00000
 Structure written by MMmdl.
 40 41  0  0  0  0  0  0  0  0  1 V2000
  153.5292  141.2826  160.8113 C   0  0  0  0  0  0  0  0  0  0  0  0
  152.5717  141.3490  159.5938 C   0  0  2  0  0  0  0  0  0  0  0  0
  153.1055  140.4021  158.4838 C   0  0  0  0  0  0  0  0  0  0  0  0
  152.0335  139.8387  157.6706 N   0  0  0  0  0  0  0  0  0  0  0  0
  152.2200  139.1270  156.5493 C   0  0  0  0  0  0  0  0  0  0  0  0
  153.3340  138.8883  156.0816 O   0  0  0  0  0  0  0  0  0  0  0  0
  150.9540  138.6166  155.8409 C   0  0  2  0  0  0  0  0  0  0  0  0
  151.3342  137.6547  154.6943 C   0  0  0  0  0  0  0  0  0  0  0  0
  150.1077  139.7276  155.3948 N   0  0  0  0  0  0  0  0  0  0  0  0
  149.6499  140.0478  154.1780 C   0  0  0  0  0  0  0  0  0  0  0  0
  148.9768  141.1887  154.1321 N   0  0  0  0  0  0  0  0  0  0  0  0
  149.0847  141.5672  155.4389 C   0  0  0  0  0  0  0  0  0  0  0  0
  149.7721  140.7441  156.2298 N   0  0  0  0  0  0  0  0  0  0  0  0
  152.3427  142.7352  159.1229 N   0  0  0  0  0  0  0  0  0  0  0  0
  151.3428  142.8155  158.0515 C   0  0  0  0  0  0  0  0  0  0  0  0
  151.0823  144.2581  157.5837 C   0  0  0  0  0  0  0  0  0  0  0  0
  150.6799  145.0561  158.6882 O   0  0  0  0  0  0  0  0  0  0  0  0
  151.6568  145.0702  159.7197 C   0  0  0  0  0  0  0  0  0  0  0  0
  151.9194  143.6338  160.2037 C   0  0  0  0  0  0  0  0  0  0  0  0
  153.7396  140.2607  161.1242 H   0  0  0  0  0  0  0  0  0  0  0  0
  153.1112  141.7666  161.6926 H   0  0  0  0  0  0  0  0  0  0  0  0
  154.4848  141.7577  160.5865 H   0  0  0  0  0  0  0  0  0  0  0  0
  151.6124  140.9442  159.9205 H   0  0  0  0  0  0  0  0  0  0  0  0
  153.7568  140.9275  157.7869 H   0  0  0  0  0  0  0  0  0  0  0  0
  153.6941  139.5995  158.9321 H   0  0  0  0  0  0  0  0  0  0  0  0
  151.0876  139.9942  157.9881 H   0  0  0  0  0  0  0  0  0  0  0  0
  150.3669  138.0495  156.5654 H   0  0  0  0  0  0  0  0  0  0  0  0
  152.0357  136.8914  155.0334 H   0  0  0  0  0  0  0  0  0  0  0  0
  151.7993  138.1855  153.8624 H   0  0  0  0  0  0  0  0  0  0  0  0
  150.4586  137.1320  154.3083 H   0  0  0  0  0  0  0  0  0  0  0  0
  149.8140  139.4382  153.3013 H   0  0  0  0  0  0  0  0  0  0  0  0
  148.6572  142.4847  155.8158 H   0  0  0  0  0  0  0  0  0  0  0  0
  151.6680  142.2560  157.1768 H   0  0  0  0  0  0  0  0  0  0  0  0
  150.4055  142.3679  158.3856 H   0  0  0  0  0  0  0  0  0  0  0  0
  151.9762  144.6826  157.1236 H   0  0  0  0  0  0  0  0  0  0  0  0
  150.2959  144.2743  156.8290 H   0  0  0  0  0  0  0  0  0  0  0  0
  152.5770  145.5306  159.3563 H   0  0  0  0  0  0  0  0  0  0  0  0
  151.2945  145.6860  160.5428 H   0  0  0  0  0  0  0  0  0  0  0  0
  151.0184  143.2424  160.6787 H   0  0  0  0  0  0  0  0  0  0  0  0
  152.6841  143.6941  160.9759 H   0  0  0  0  0  0  0  0  0  0  0  0
  1  2  1  0  0  0  0
  1 20  1  0  0  0  0
  1 21  1  0  0  0  0
  1 22  1  0  0  0  0
  2  3  1  0  0  0  0
  2 14  1  0  0  0  0
  2 23  1  0  0  0  0
  3  4  1  0  0  0  0
  3 24  1  0  0  0  0
  3 25  1  0  0  0  0
  4  5  1  0  0  0  0
  4 26  1  0  0  0  0
  5  6  2  0  0  0  0
  5  7  1  0  0  0  0
  7  8  1  0  0  0  0
  7  9  1  0  0  0  0
  7 27  1  0  0  0  0
  8 28  1  0  0  0  0
  8 29  1  0  0  0  0
  8 30  1  0  0  0  0
  9 13  1  0  0  0  0
  9 10  1  0  0  0  0
 10 11  2  0  0  0  0
 10 31  1  0  0  0  0
 11 12  1  0  0  0  0
 12 13  2  0  0  0  0
 12 32  1  0  0  0  0
 14 19  1  0  0  0  0
 14 15  1  0  0  0  0
 15 16  1  0  0  0  0
 15 33  1  0  0  0  0
 15 34  1  0  0  0  0
 16 17  1  0  0  0  0
 16 35  1  0  0  0  0
 16 36  1  0  0  0  0
 17 18  1  0  0  0  0
 18 19  1  0  0  0  0
 18 37  1  0  0  0  0
 18 38  1  0  0  0  0
 19 39  1  0  0  0  0
 19 40  1  0  0  0  0
M  END
> <s_m_source_file>
AV-unprocessed.smi

> <i_m_source_file_index>
3349

> <i_lp_mmshare_version>
43012

> <i_f3d_flags>
0

> <s_epik_input>
W0NIMl0xW0NIMl1PW0NIMl1bQ0gyXU4xW0NASF0oW0NIM10pW0NIMl1bTkhdQyg9TylbQ0BIXShbQ0gzXSluMltjSF1uW2NIXW4y

> <s_epik_cmdline>
J2VwaWtfcHl0aG9uJywgJy1waCcsICc3LjAnLCAnLXRuJywgJzgnLCAnLW1hJywgJzIwMCcsICctbWV0YWxfYmluZGluZycsICctaW1hZScsICc8aW5maWxlLm1hZT4nLCAnLW9tYWUnLCAnPG91dGZpbGUubWFlPic=

> <r_lp_tautomer_probability>
1

> <r_epik_Ionization_Penalty>
0.211373

> <r_epik_Ionization_Penalty_Charging>
0

> <r_epik_Ionization_Penalty_Neutral>
0.211373

> <r_epik_State_Penalty>
0.201459

> <r_epik_Charging_Adjusted_Penalty>
0.201459

> <i_epik_Tot_Q>
0

> <i_epik_Tot_abs_Q>
0

> <r_epik_Metal_State_Penalty>
0.201458

> <b_epik_Metal_Only>
0

> <s_lp_Force_Field>
OPLS_2005

> <r_lp_Energy>
36.462

> <b_lp_Chiralities_Consistent>
1

> <s_lp_Variant>
AV-unprocessed.smi:3349-1

> <Gold.Version>
5.8.1

> <Gold.Id.Protein>
6NUR|6NUR_protein|mol2

> <Gold.PLP.Fitness>
43.6657

> <Gold.PLP.PLP>
-34.0501

> <Gold.PLP.part.hbond>
-3.0000

> <Gold.PLP.part.metal>
0.0000

> <Gold.PLP.part.buried>
0.2612

> <Gold.PLP.part.nonpolar>
-31.6067

> <Gold.PLP.part.repulsive>
0.4415

> <Gold.PLP.ligand.clash>
0.0000

> <Gold.PLP.ligand.torsion>
0.5404

> <Gold.PLP.Chemscore.Hbond>
1.5700

> <Gold.PLP.Chemscore.CHOScore>
1.9338

> <Gold.PLP.Chemscore.Metal>
0.0000

> <Gold.Chemscore.Hbonds>
donor molecule, donor type, donor heavy atom, donor atom, acceptor molecule, acceptor atom, score
      P1  H  7997  8008       L1     6  1.00
      P1  H  8011  8017       L1    11  0.20
      L1  C    10    31       P1  7957  0.97
      L1  C    12    32       P1  8028  1.00

> <Gold.PLP.Chemscore.Internal.Correction>
0.1851

> <Gold.Rescore>
     Score         DG    S(hbond)    S(metal)    S(lipo)     H(rot)  DE(clash)    DE(int)     intcor
      7.28     -10.62       0.78        0.00      77.53       2.56       0.03       3.31       ----

> <Gold.Chemscore.Fitness>
7.2840

> <Gold.Chemscore.DG>
-10.6199

> <Gold.Chemscore.ZeroCoef>
-5.4800

> <Gold.Chemscore.Hbond>
0.7829

> <Gold.Chemscore.Metal>
0.0000

> <Gold.Chemscore.Lipo>
77.5282

> <Gold.Chemscore.Internal_Hbond>
0.0000

> <Gold.Chemscore.DEClash>
0.0275

> <Gold.Chemscore.DEInternal>
3.3084

> <Gold.Chemscore.Rot>
2.5570

> <Gold.Chemscore.Internal.Correction>
   9.000000E+99

> <Gold.Chemscore.Hbonds>
donor molecule, donor type, donor heavy atom, donor atom, acceptor molecule, acceptor atom, score
      P1  H  7997  8008       L1     6  0.74
      P1  H  8011  8017       L1    11  0.14

> <Gold.Chemscore.Hbond.Weighted>
-2.6150

> <Gold.Chemscore.Metal.Weighted>
-0.0000

> <Gold.Chemscore.Lipo.Weighted>
-9.0708

> <Gold.Chemscore.Internal_Hbond.Weighted>
0.0000

> <Gold.Chemscore.DEClash.Weighted>
0.0275

> <Gold.Chemscore.DEInternal.Weighted>
3.3084

> <Gold.Chemscore.Rot.Weighted>
6.5459

> <Gold.Chemscore.Internal.Correction.Weighted>
   9.000000E+99

> <Gold.Protein.RotatedTorsions>
[ 6907 6896 6895 6894 ] final  122.84 input  -60.11 | X-H torsion
[ 7974 7965 7964 7962 ] final  138.68 input  175.53 | X-H torsion
[ 8008 7997 7996 7995 ] final  -45.43 input   59.86 | X-H torsion
[ 10167 10162 10161 10158 ] final  125.39 input  -65.29 | X-H torsion
[ 10718 10713 10712 10709 ] final   25.45 input   66.30 | X-H torsion
[ 10763 10752 10751 10750 ] final    9.87 input  -60.55 | X-H torsion
[ 11005 11000 10999 10996 ] final  -54.21 input  -57.11 | X-H torsion

> <Gold.Protein.ActiveResidues>
 VAL166  LYS551  ARG553  GLY616  TRP617  ASP618  TYR619  PRO620  LYS621  CYS622 
 ASP623  PHE694  ASN695  SER759  ASP760  ASP761  ALA762  ILE779  LEU786  VAL792 
 PHE793  MET794  SER795  GLU796  ALA797  LYS798  CYS799  TRP800  GLU811  SER814 

> <Gold.Protein.RotatedAtoms>
  152.4210  133.7117  159.6482 H   0  0  0  0  0  0  0  0  0  0  0  0  # atno 6907 bound_to 6896
  150.8086  133.8452  159.3199 H   0  0  0  0  0  0  0  0  0  0  0  0  # atno 6908 bound_to 6896
  151.6169  135.1037  160.0145 H   0  0  0  0  0  0  0  0  0  0  0  0  # atno 6909 bound_to 6896
  144.9350  139.5001  143.5599 H   0  0  0  0  0  0  0  0  0  0  0  0  # atno 7974 bound_to 7965
  154.4001  140.1397  156.3846 H   0  0  0  0  0  0  0  0  0  0  0  0  # atno 8008 bound_to 7997
  155.7971  140.3477  155.5361 H   0  0  0  0  0  0  0  0  0  0  0  0  # atno 8009 bound_to 7997
  155.8520  140.0943  157.1659 H   0  0  0  0  0  0  0  0  0  0  0  0  # atno 8010 bound_to 7997
  139.5688  144.6927  151.3835 H   0  0  0  0  0  0  0  0  0  0  0  0  # atno 10167 bound_to 10162
  157.1935  130.6857  149.6159 H   0  0  0  0  0  0  0  0  0  0  0  0  # atno 10718 bound_to 10713
  153.2094  135.6867  153.8133 H   0  0  0  0  0  0  0  0  0  0  0  0  # atno 10763 bound_to 10752
  153.7371  135.3244  155.3298 H   0  0  0  0  0  0  0  0  0  0  0  0  # atno 10764 bound_to 10752
  154.8214  135.4649  154.0894 H   0  0  0  0  0  0  0  0  0  0  0  0  # atno 10765 bound_to 10752
  141.1014  133.6617  156.4287 H   0  0  0  0  0  0  0  0  0  0  0  0  # atno 11005 bound_to 11000
  146.3263  139.8327  142.8905 LP  0  0  0  0  0  0  0  0  0  0  0  0  # atno 17320 bound_to 7965
  145.3082  141.0212  143.3570 LP  0  0  0  0  0  0  0  0  0  0  0  0  # atno 17321 bound_to 7965
  140.6972  143.7719  150.7346 LP  0  0  0  0  0  0  0  0  0  0  0  0  # atno 17342 bound_to 10162
  140.1219  143.4604  152.2308 LP  0  0  0  0  0  0  0  0  0  0  0  0  # atno 17343 bound_to 10162
  155.9709  130.4607  150.6081 LP  0  0  0  0  0  0  0  0  0  0  0  0  # atno 17370 bound_to 10713
  157.3838  131.0785  151.1454 LP  0  0  0  0  0  0  0  0  0  0  0  0  # atno 17371 bound_to 10713
  140.5011  134.6485  157.5249 LP  0  0  0  0  0  0  0  0  0  0  0  0  # atno 17394 bound_to 11000
  139.9868  134.7049  155.9760 LP  0  0  0  0  0  0  0  0  0  0  0  0  # atno 17395 bound_to 11000

$$$$
