AV-unprocessed.smi:555|AV-procd|sdf|2911|dock5
  -GOLD-   2262023403D 1   1.00000     0.00000
 Structure written by MMmdl.
 50 51  0  0  0  0  0  0  0  0  2 V2000
  152.6883  142.4073  160.0641 C   0  0  0  0  0  0  0  0  0  0  0  0
  153.1139  141.1595  159.5450 O   0  0  0  0  0  0  0  0  0  0  0  0
  152.2451  140.6653  158.5402 C   0  0  0  0  0  0  0  0  0  0  0  0
  152.8221  139.3546  157.9845 C   0  0  0  0  0  0  0  0  0  0  0  0
  152.2239  139.0110  156.6908 N   0  0  0  0  0  0  0  0  0  0  0  0
  151.1731  139.8329  156.3205 N   0  0  0  0  0  0  0  0  0  0  0  0
  150.5494  139.6285  155.2054 C   0  0  0  0  0  0  0  0  0  0  0  0
  149.4103  140.4867  154.7771 C   0  0  0  0  0  0  0  0  0  0  0  0
  149.2989  141.6563  155.1471 O   0  0  0  0  0  0  0  0  0  0  0  0
  148.5231  139.8939  153.9579 N   0  0  0  0  0  0  0  0  0  0  0  0
  147.3302  140.5234  153.3948 C   0  0  2  0  0  0  0  0  0  0  0  0
  146.0925  140.1697  154.2287 C   0  0  0  0  0  0  0  0  0  0  0  0
  145.6985  138.6878  154.0872 C   0  0  0  0  0  0  0  0  0  0  0  0
  145.4825  138.2914  152.6637 N   0  3  2  0  0  0  0  0  0  0  0  0
  145.0137  136.8756  152.4983 C   0  0  0  0  0  0  0  0  0  0  0  0
  145.3831  136.2956  151.1163 C   0  0  0  0  0  0  0  0  0  0  0  0
  143.4908  136.7202  152.6990 C   0  0  0  0  0  0  0  0  0  0  0  0
  146.6850  138.6084  151.8377 C   0  0  0  0  0  0  0  0  0  0  0  0
  147.0876  140.0902  151.9404 C   0  0  0  0  0  0  0  0  0  0  0  0
  150.9377  138.5409  154.3236 C   0  0  0  0  0  0  0  0  0  0  0  0
  151.9624  137.7449  154.7008 C   0  0  0  0  0  0  0  0  0  0  0  0
  152.6807  137.9499  155.9598 C   0  0  0  0  0  0  0  0  0  0  0  0
  153.6079  137.2311  156.3308 O   0  0  0  0  0  0  0  0  0  0  0  0
  153.3860  142.7420  160.8317 H   0  0  0  0  0  0  0  0  0  0  0  0
  151.6999  142.3294  160.5190 H   0  0  0  0  0  0  0  0  0  0  0  0
  152.6561  143.1689  159.2840 H   0  0  0  0  0  0  0  0  0  0  0  0
  151.2510  140.4967  158.9574 H   0  0  0  0  0  0  0  0  0  0  0  0
  152.1472  141.4010  157.7402 H   0  0  0  0  0  0  0  0  0  0  0  0
  153.9040  139.4525  157.8768 H   0  0  0  0  0  0  0  0  0  0  0  0
  152.6750  138.5457  158.7022 H   0  0  0  0  0  0  0  0  0  0  0  0
  148.6901  138.9284  153.7123 H   0  0  0  0  0  0  0  0  0  0  0  0
  147.4674  141.6057  153.4270 H   0  0  0  0  0  0  0  0  0  0  0  0
  146.2650  140.4111  155.2784 H   0  0  0  0  0  0  0  0  0  0  0  0
  145.2555  140.7925  153.9100 H   0  0  0  0  0  0  0  0  0  0  0  0
  146.4610  138.0467  154.5325 H   0  0  0  0  0  0  0  0  0  0  0  0
  144.7897  138.5514  154.6703 H   0  0  0  0  0  0  0  0  0  0  0  0
  145.5078  136.2684  153.2588 H   0  0  0  0  0  0  0  0  0  0  0  0
  144.9271  135.3163  150.9668 H   0  0  0  0  0  0  0  0  0  0  0  0
  146.4554  136.1435  151.0004 H   0  0  0  0  0  0  0  0  0  0  0  0
  145.0396  136.9426  150.3085 H   0  0  0  0  0  0  0  0  0  0  0  0
  143.1626  135.7115  152.4465 H   0  0  0  0  0  0  0  0  0  0  0  0
  142.9319  137.4130  152.0688 H   0  0  0  0  0  0  0  0  0  0  0  0
  143.1917  136.8791  153.7349 H   0  0  0  0  0  0  0  0  0  0  0  0
  147.5150  137.9680  152.1406 H   0  0  0  0  0  0  0  0  0  0  0  0
  146.4990  138.4053  150.7850 H   0  0  0  0  0  0  0  0  0  0  0  0
  146.2950  140.7048  151.5116 H   0  0  0  0  0  0  0  0  0  0  0  0
  147.9736  140.2789  151.3329 H   0  0  0  0  0  0  0  0  0  0  0  0
  150.4257  138.3668  153.3880 H   0  0  0  0  0  0  0  0  0  0  0  0
  152.2621  136.9325  154.0552 H   0  0  0  0  0  0  0  0  0  0  0  0
  144.7366  138.8787  152.3182 H   0  0  0  0  0  0  0  0  0  0  0  0
  1  2  1  0  0  0  0
  1 24  1  0  0  0  0
  1 25  1  0  0  0  0
  1 26  1  0  0  0  0
  2  3  1  0  0  0  0
  3  4  1  0  0  0  0
  3 27  1  0  0  0  0
  3 28  1  0  0  0  0
  4  5  1  0  0  0  0
  4 29  1  0  0  0  0
  4 30  1  0  0  0  0
  5 22  1  0  0  0  0
  5  6  1  0  0  0  0
  6  7  2  0  0  0  0
  7  8  1  0  0  0  0
  7 20  1  0  0  0  0
  8  9  2  0  0  0  0
  8 10  1  0  0  0  0
 10 11  1  0  0  0  0
 10 31  1  0  0  0  0
 11 19  1  0  0  0  0
 11 12  1  0  0  0  0
 11 32  1  0  0  0  0
 12 13  1  0  0  0  0
 12 33  1  0  0  0  0
 12 34  1  0  0  0  0
 13 14  1  0  0  0  0
 13 35  1  0  0  0  0
 13 36  1  0  0  0  0
 14 15  1  0  0  0  0
 14 18  1  0  0  0  0
 14 50  1  0  0  0  0
 15 16  1  0  0  0  0
 15 17  1  0  0  0  0
 15 37  1  0  0  0  0
 16 38  1  0  0  0  0
 16 39  1  0  0  0  0
 16 40  1  0  0  0  0
 17 41  1  0  0  0  0
 17 42  1  0  0  0  0
 17 43  1  0  0  0  0
 18 19  1  0  0  0  0
 18 44  1  0  0  0  0
 18 45  1  0  0  0  0
 19 46  1  0  0  0  0
 19 47  1  0  0  0  0
 20 21  2  0  0  0  0
 20 48  1  0  0  0  0
 21 22  1  0  0  0  0
 21 49  1  0  0  0  0
 22 23  2  0  0  0  0
M  CHG  1  14   1
M  END
> <s_m_source_file>
AV-unprocessed.smi

> <i_m_source_file_index>
555

> <i_lp_mmshare_version>
43012

> <i_f3d_flags>
0

> <s_epik_input>
W0NIM11PW0NIMl1bQ0gyXW4xbmMoW2NIXVtjSF1jMT1PKUMoPU8pW05IXVtDSF0yW0NIMl1bQ0gyXU4oW0NIXShbQ0gzXSlbQ0gzXSlbQ0gyXVtDSDJdMg==

> <s_epik_cmdline>
J2VwaWtfcHl0aG9uJywgJy1waCcsICc3LjAnLCAnLXRuJywgJzgnLCAnLW1hJywgJzIwMCcsICctbWV0YWxfYmluZGluZycsICctaW1hZScsICc8aW5maWxlLm1hZT4nLCAnLW9tYWUnLCAnPG91dGZpbGUubWFlPic=

> <r_lp_tautomer_probability>
1

> <r_epik_Ionization_Penalty>
0.00560205

> <r_epik_Ionization_Penalty_Charging>
0.00559911

> <r_epik_Ionization_Penalty_Neutral>
2.94673e-06

> <r_epik_State_Penalty>
0.00410202

> <r_epik_Charging_Adjusted_Penalty>
0.00970113

> <i_epik_Tot_Q>
1

> <i_epik_Tot_abs_Q>
1

> <r_epik_Metal_State_Penalty>
-0

> <b_epik_Metal_Only>
0

> <s_lp_Force_Field>
OPLS_2005

> <r_lp_Energy>
41.3332

> <b_lp_Chiralities_Consistent>
1

> <s_lp_Variant>
AV-unprocessed.smi:555-2

> <Gold.Version>
5.8.1

> <Gold.Id.Protein>
6NUR|6NUR_protein|mol2

> <Gold.PLP.Fitness>
41.0677

> <Gold.PLP.PLP>
-36.1124

> <Gold.PLP.part.hbond>
-3.2334

> <Gold.PLP.part.metal>
0.0000

> <Gold.PLP.part.buried>
4.3262

> <Gold.PLP.part.nonpolar>
-38.3258

> <Gold.PLP.part.repulsive>
0.2292

> <Gold.PLP.ligand.clash>
0.0000

> <Gold.PLP.ligand.torsion>
1.3856

> <Gold.PLP.Chemscore.Hbond>
2.5148

> <Gold.PLP.Chemscore.CHOScore>
0.0000

> <Gold.PLP.Chemscore.Metal>
0.0000

> <Gold.Chemscore.Hbonds>
donor molecule, donor type, donor heavy atom, donor atom, acceptor molecule, acceptor atom, score
      L1  H    14    50       P1 10175  2.00
      P1  H 10752 10765       L1    23  0.49

> <Gold.PLP.Chemscore.Internal.Correction>
0.1820

> <Gold.Rescore>
     Score         DG    S(hbond)    S(metal)    S(lipo)     H(rot)  DE(clash)    DE(int)     intcor
     13.96     -16.75       1.51        0.00      91.43       1.74       1.54       1.25       ----

> <Gold.Chemscore.Fitness>
13.9570

> <Gold.Chemscore.DG>
-16.7473

> <Gold.Chemscore.ZeroCoef>
-5.4800

> <Gold.Chemscore.Hbond>
1.5073

> <Gold.Chemscore.Metal>
0.0000

> <Gold.Chemscore.Lipo>
91.4288

> <Gold.Chemscore.Internal_Hbond>
0.0000

> <Gold.Chemscore.DEClash>
1.5404

> <Gold.Chemscore.DEInternal>
1.2500

> <Gold.Chemscore.Rot>
1.7438

> <Gold.Chemscore.Internal.Correction>
   9.000000E+99

> <Gold.Chemscore.Hbonds>
donor molecule, donor type, donor heavy atom, donor atom, acceptor molecule, acceptor atom, score
      L1  H    14    50       P1 10175  0.95
      P1  H 10752 10765       L1    23  0.38

> <Gold.Chemscore.Hbond.Weighted>
-5.0343

> <Gold.Chemscore.Metal.Weighted>
-0.0000

> <Gold.Chemscore.Lipo.Weighted>
-10.6972

> <Gold.Chemscore.Internal_Hbond.Weighted>
0.0000

> <Gold.Chemscore.DEClash.Weighted>
1.5404

> <Gold.Chemscore.DEInternal.Weighted>
1.2500

> <Gold.Chemscore.Rot.Weighted>
4.4642

> <Gold.Chemscore.Internal.Correction.Weighted>
   9.000000E+99

> <Gold.Protein.RotatedTorsions>
[ 6907 6896 6895 6894 ] final  179.45 input  -60.11 | X-H torsion
[ 7974 7965 7964 7962 ] final  -52.69 input  175.53 | X-H torsion
[ 8008 7997 7996 7995 ] final  -93.07 input   59.86 | X-H torsion
[ 10167 10162 10161 10158 ] final  -99.05 input  -65.29 | X-H torsion
[ 10718 10713 10712 10709 ] final  100.23 input   66.30 | X-H torsion
[ 10763 10752 10751 10750 ] final -120.38 input  -60.55 | X-H torsion
[ 11005 11000 10999 10996 ] final -113.97 input  -57.11 | X-H torsion

> <Gold.Protein.ActiveResidues>
 VAL166  LYS551  ARG553  GLY616  TRP617  ASP618  TYR619  PRO620  LYS621  CYS622 
 ASP623  PHE694  ASN695  SER759  ASP760  ASP761  ALA762  ILE779  LEU786  VAL792 
 PHE793  MET794  SER795  GLU796  ALA797  LYS798  CYS799  TRP800  GLU811  SER814 

> <Gold.Protein.RotatedAtoms>
  151.6715  133.3314  159.3197 H   0  0  0  0  0  0  0  0  0  0  0  0  # atno 6907 bound_to 6896
  150.7865  134.6858  159.6479 H   0  0  0  0  0  0  0  0  0  0  0  0  # atno 6908 bound_to 6896
  152.3936  134.6405  160.0150 H   0  0  0  0  0  0  0  0  0  0  0  0  # atno 6909 bound_to 6896
  145.9052  140.7961  142.9723 H   0  0  0  0  0  0  0  0  0  0  0  0  # atno 7974 bound_to 7965
  154.7310  140.0502  157.0726 H   0  0  0  0  0  0  0  0  0  0  0  0  # atno 8008 bound_to 7997
  155.0302  140.3157  155.4742 H   0  0  0  0  0  0  0  0  0  0  0  0  # atno 8009 bound_to 7997
  156.2841  140.2151  156.5423 H   0  0  0  0  0  0  0  0  0  0  0  0  # atno 8010 bound_to 7997
  140.2665  143.3372  152.0576 H   0  0  0  0  0  0  0  0  0  0  0  0  # atno 10167 bound_to 10162
  157.6858  131.0692  150.5069 H   0  0  0  0  0  0  0  0  0  0  0  0  # atno 10718 bound_to 10713
  154.8642  135.4205  154.2450 H   0  0  0  0  0  0  0  0  0  0  0  0  # atno 10763 bound_to 10752
  153.3408  135.6993  153.6874 H   0  0  0  0  0  0  0  0  0  0  0  0  # atno 10764 bound_to 10752
  153.5853  135.3565  155.2863 H   0  0  0  0  0  0  0  0  0  0  0  0  # atno 10765 bound_to 10752
  141.0581  133.9580  157.2717 H   0  0  0  0  0  0  0  0  0  0  0  0  # atno 11005 bound_to 11000
  144.6739  140.1739  143.7412 LP  0  0  0  0  0  0  0  0  0  0  0  0  # atno 17320 bound_to 7965
  145.8741  139.2287  143.1644 LP  0  0  0  0  0  0  0  0  0  0  0  0  # atno 17321 bound_to 7965
  139.5001  144.6685  151.6300 LP  0  0  0  0  0  0  0  0  0  0  0  0  # atno 17342 bound_to 10162
  140.5924  143.9756  150.6333 LP  0  0  0  0  0  0  0  0  0  0  0  0  # atno 17343 bound_to 10162
  156.5388  130.4203  149.6164 LP  0  0  0  0  0  0  0  0  0  0  0  0  # atno 17370 bound_to 10713
  156.3003  130.7173  151.2043 LP  0  0  0  0  0  0  0  0  0  0  0  0  # atno 17371 bound_to 10713
  139.9408  135.0191  156.8701 LP  0  0  0  0  0  0  0  0  0  0  0  0  # atno 17394 bound_to 11000
  140.5924  134.0249  155.7505 LP  0  0  0  0  0  0  0  0  0  0  0  0  # atno 17395 bound_to 11000

$$$$
