AV-unprocessed.smi:1978|AV-procd|sdf|8000|dock6
  -GOLD-   2272010183D 1   1.00000     0.00000
 Structure written by MMmdl.
 44 45  0  0  0  0  0  0  0  0  3 V2000
  146.9947  136.0356  162.7018 C   0  0  0  0  0  0  0  0  0  0  0  0
  147.1113  136.3526  161.2500 C   0  0  0  0  0  0  0  0  0  0  0  0
  146.7594  135.6700  160.1202 C   0  0  0  0  0  0  0  0  0  0  0  0
  147.1463  136.5520  159.0742 C   0  0  0  0  0  0  0  0  0  0  0  0
  147.0145  136.3234  157.7584 N   0  5  0  0  0  0  0  0  0  0  0  0
  146.5553  135.1304  157.3178 C   0  0  0  0  0  0  0  0  0  0  0  0
  146.6519  134.0476  157.9005 O   0  0  0  0  0  0  0  0  0  0  0  0
  145.9491  135.1940  156.1235 N   0  0  0  0  0  0  0  0  0  0  0  0
  145.3722  134.0637  155.4017 C   0  0  0  0  0  0  0  0  0  0  0  0
  144.5852  134.4903  154.1277 C   0  0  2  0  0  0  0  0  0  0  0  0
  143.1841  135.0097  154.5369 C   0  0  0  0  0  0  0  0  0  0  0  0
  144.4837  133.3917  153.1049 N   0  3  1  0  0  0  0  0  0  0  0  0
  143.7484  133.7930  151.8661 C   0  0  0  0  0  0  0  0  0  0  0  0
  143.4752  132.5943  150.9431 C   0  0  0  0  0  0  0  0  0  0  0  0
  144.7698  131.8703  150.5717 C   0  0  0  0  0  0  0  0  0  0  0  0
  145.5145  131.4746  151.8503 C   0  0  0  0  0  0  0  0  0  0  0  0
  145.7666  132.6817  152.7785 C   0  0  1  0  0  0  0  0  0  0  0  0
  146.8643  133.6184  152.2251 C   0  0  0  0  0  0  0  0  0  0  0  0
  147.7011  137.6630  159.5289 N   0  0  0  0  0  0  0  0  0  0  0  0
  147.6771  137.5458  160.9237 O   0  0  0  0  0  0  0  0  0  0  0  0
  147.5554  135.1330  162.9447 H   0  0  0  0  0  0  0  0  0  0  0  0
  145.9530  135.8724  162.9781 H   0  0  0  0  0  0  0  0  0  0  0  0
  147.3832  136.8491  163.3148 H   0  0  0  0  0  0  0  0  0  0  0  0
  146.2954  134.6976  160.0518 H   0  0  0  0  0  0  0  0  0  0  0  0
  145.8854  136.1008  155.6839 H   0  0  0  0  0  0  0  0  0  0  0  0
  146.1985  133.3912  155.1754 H   0  0  0  0  0  0  0  0  0  0  0  0
  144.7139  133.5267  156.0850 H   0  0  0  0  0  0  0  0  0  0  0  0
  145.1190  135.3196  153.6619 H   0  0  0  0  0  0  0  0  0  0  0  0
  143.2346  135.7351  155.3481 H   0  0  0  0  0  0  0  0  0  0  0  0
  142.5428  134.1940  154.8716 H   0  0  0  0  0  0  0  0  0  0  0  0
  142.6768  135.5323  153.7280 H   0  0  0  0  0  0  0  0  0  0  0  0
  142.7788  134.2233  152.1029 H   0  0  0  0  0  0  0  0  0  0  0  0
  144.3053  134.5649  151.3341 H   0  0  0  0  0  0  0  0  0  0  0  0
  142.7962  131.8993  151.4395 H   0  0  0  0  0  0  0  0  0  0  0  0
  142.9658  132.9297  150.0391 H   0  0  0  0  0  0  0  0  0  0  0  0
  144.5477  130.9843  149.9762 H   0  0  0  0  0  0  0  0  0  0  0  0
  145.3944  132.5131  149.9508 H   0  0  0  0  0  0  0  0  0  0  0  0
  144.9271  130.7275  152.3865 H   0  0  0  0  0  0  0  0  0  0  0  0
  146.4576  130.9891  151.5966 H   0  0  0  0  0  0  0  0  0  0  0  0
  146.1508  132.2318  153.6923 H   0  0  0  0  0  0  0  0  0  0  0  0
  147.7814  133.0617  152.0313 H   0  0  0  0  0  0  0  0  0  0  0  0
  147.1213  134.4106  152.9274 H   0  0  0  0  0  0  0  0  0  0  0  0
  146.5718  134.0936  151.2897 H   0  0  0  0  0  0  0  0  0  0  0  0
  143.9058  132.6876  153.5408 H   0  0  0  0  0  0  0  0  0  0  0  0
  1  2  1  0  0  0  0
  1 21  1  0  0  0  0
  1 22  1  0  0  0  0
  1 23  1  0  0  0  0
  2 20  1  0  0  0  0
  2  3  2  0  0  0  0
  3  4  1  0  0  0  0
  3 24  1  0  0  0  0
  4  5  1  0  0  0  0
  4 19  2  0  0  0  0
  5  6  1  0  0  0  0
  6  7  2  0  0  0  0
  6  8  1  0  0  0  0
  8  9  1  0  0  0  0
  8 25  1  0  0  0  0
  9 10  1  0  0  0  0
  9 26  1  0  0  0  0
  9 27  1  0  0  0  0
 10 11  1  0  0  0  0
 10 12  1  0  0  0  0
 10 28  1  0  0  0  0
 11 29  1  0  0  0  0
 11 30  1  0  0  0  0
 11 31  1  0  0  0  0
 12 17  1  0  0  0  0
 12 13  1  0  0  0  0
 12 44  1  0  0  0  0
 13 14  1  0  0  0  0
 13 32  1  0  0  0  0
 13 33  1  0  0  0  0
 14 15  1  0  0  0  0
 14 34  1  0  0  0  0
 14 35  1  0  0  0  0
 15 16  1  0  0  0  0
 15 36  1  0  0  0  0
 15 37  1  0  0  0  0
 16 17  1  0  0  0  0
 16 38  1  0  0  0  0
 16 39  1  0  0  0  0
 17 18  1  0  0  0  0
 17 40  1  0  0  0  0
 18 41  1  0  0  0  0
 18 42  1  0  0  0  0
 18 43  1  0  0  0  0
 19 20  1  0  0  0  0
M  CHG  1   5  -1
M  CHG  1  12   1
M  END
> <s_m_source_file>
AV-unprocessed.smi

> <i_m_source_file_index>
1978

> <i_lp_mmshare_version>
43012

> <i_f3d_flags>
0

> <s_epik_input>
W0NIM11jMVtjSF1jKG5vMSlbTkhdQyg9TylbTkhdW0NIMl1bQ0BIXShbQ0gzXSlOMltDSDJdW0NIMl1bQ0gyXVtDSDJdW0NASF0yW0NIM10=

> <s_epik_cmdline>
J2VwaWtfcHl0aG9uJywgJy1waCcsICc3LjAnLCAnLXRuJywgJzgnLCAnLW1hJywgJzIwMCcsICctbWV0YWxfYmluZGluZycsICctaW1hZScsICc8aW5maWxlLm1hZT4nLCAnLW9tYWUnLCAnPG91dGZpbGUubWFlPic=

> <r_epik_Ionization_Penalty>
6.22372

> <r_epik_Ionization_Penalty_Charging>
6.22362

> <r_epik_Ionization_Penalty_Neutral>
9.65074e-05

> <r_epik_State_Penalty>
6.22363

> <r_epik_Charging_Adjusted_Penalty>
12.4472

> <i_epik_Tot_Q>
0

> <i_epik_Tot_abs_Q>
2

> <r_epik_Metal_State_Penalty>
2.16675

> <b_epik_Metal_Only>
1

> <s_lp_Force_Field>
OPLS_2005

> <r_lp_Energy>
12.8084

> <b_lp_Chiralities_Consistent>
1

> <s_lp_Variant>
AV-unprocessed.smi:1978-9

> <Gold.Version>
5.8.1

> <Gold.Id.Protein>
6NUR|6NUR_protein|mol2

> <Gold.PLP.Fitness>
38.1866

> <Gold.PLP.PLP>
-29.6843

> <Gold.PLP.part.hbond>
-3.8769

> <Gold.PLP.part.metal>
0.0000

> <Gold.PLP.part.buried>
-4.3337

> <Gold.PLP.part.nonpolar>
-21.3257

> <Gold.PLP.part.repulsive>
0.0000

> <Gold.PLP.ligand.clash>
0.0000

> <Gold.PLP.ligand.torsion>
0.4496

> <Gold.PLP.Chemscore.Hbond>
3.1022

> <Gold.PLP.Chemscore.CHOScore>
0.0000

> <Gold.PLP.Chemscore.Metal>
0.0000

> <Gold.Chemscore.Hbonds>
donor molecule, donor type, donor heavy atom, donor atom, acceptor molecule, acceptor atom, score
      L1  H    12    44       P1 10957  2.00
      P1  H  6931  6943       L1    20  0.69
      P1  H  6934  6947       L1    20  0.25

> <Gold.PLP.Chemscore.Internal.Correction>
0.0948

> <Gold.Rescore>
     Score         DG    S(hbond)    S(metal)    S(lipo)     H(rot)  DE(clash)    DE(int)     intcor
     13.36     -15.30       1.80        0.00      65.87       1.52       0.05       1.88       ----

> <Gold.Chemscore.Fitness>
13.3610

> <Gold.Chemscore.DG>
-15.2967

> <Gold.Chemscore.ZeroCoef>
-5.4800

> <Gold.Chemscore.Hbond>
1.7959

> <Gold.Chemscore.Metal>
0.0000

> <Gold.Chemscore.Lipo>
65.8733

> <Gold.Chemscore.Internal_Hbond>
0.0000

> <Gold.Chemscore.DEClash>
0.0529

> <Gold.Chemscore.DEInternal>
1.8828

> <Gold.Chemscore.Rot>
1.5190

> <Gold.Chemscore.Internal.Correction>
   9.000000E+99

> <Gold.Chemscore.Hbonds>
donor molecule, donor type, donor heavy atom, donor atom, acceptor molecule, acceptor atom, score
      L1  H    12    44       P1 10957  0.54
      P1  H  6931  6943       L1    20  0.65

> <Gold.Chemscore.Hbond.Weighted>
-5.9982

> <Gold.Chemscore.Metal.Weighted>
-0.0000

> <Gold.Chemscore.Lipo.Weighted>
-7.7072

> <Gold.Chemscore.Internal_Hbond.Weighted>
0.0000

> <Gold.Chemscore.DEClash.Weighted>
0.0529

> <Gold.Chemscore.DEInternal.Weighted>
1.8828

> <Gold.Chemscore.Rot.Weighted>
3.8886

> <Gold.Chemscore.Internal.Correction.Weighted>
   9.000000E+99

> <Gold.Protein.RotatedTorsions>
[ 6907 6896 6895 6894 ] final  -57.09 input  -60.11 | X-H torsion
[ 7974 7965 7964 7962 ] final   63.72 input  175.53 | X-H torsion
[ 8008 7997 7996 7995 ] final -150.86 input   59.86 | X-H torsion
[ 10167 10162 10161 10158 ] final  175.00 input  -65.29 | X-H torsion
[ 10718 10713 10712 10709 ] final -106.90 input   66.30 | X-H torsion
[ 10763 10752 10751 10750 ] final   81.87 input  -60.55 | X-H torsion
[ 11005 11000 10999 10996 ] final -115.07 input  -57.11 | X-H torsion

> <Gold.Protein.ActiveResidues>
 VAL166  LYS551  ARG553  GLY616  TRP617  ASP618  TYR619  PRO620  LYS621  CYS622 
 ASP623  PHE694  ASN695  SER759  ASP760  ASP761  ALA762  ILE779  LEU786  VAL792 
 PHE793  MET794  SER795  GLU796  ALA797  LYS798  CYS799  TRP800  GLU811  SER814 

> <Gold.Protein.RotatedAtoms>
  150.8114  134.7271  159.6691 H   0  0  0  0  0  0  0  0  0  0  0  0  # atno 6907 bound_to 6896
  152.4234  134.5910  159.9984 H   0  0  0  0  0  0  0  0  0  0  0  0  # atno 6908 bound_to 6896
  151.6119  133.3309  159.3105 H   0  0  0  0  0  0  0  0  0  0  0  0  # atno 6909 bound_to 6896
  145.8586  139.3300  143.0833 H   0  0  0  0  0  0  0  0  0  0  0  0  # atno 7974 bound_to 7965
  155.6302  140.0690  157.2651 H   0  0  0  0  0  0  0  0  0  0  0  0  # atno 8008 bound_to 7997
  154.4208  140.1769  156.1513 H   0  0  0  0  0  0  0  0  0  0  0  0  # atno 8009 bound_to 7997
  155.9939  140.3342  155.6783 H   0  0  0  0  0  0  0  0  0  0  0  0  # atno 8010 bound_to 7997
  139.5161  144.3082  152.0316 H   0  0  0  0  0  0  0  0  0  0  0  0  # atno 10167 bound_to 10162
  156.0411  130.5636  150.7746 H   0  0  0  0  0  0  0  0  0  0  0  0  # atno 10718 bound_to 10713
  153.1154  135.4749  154.9106 H   0  0  0  0  0  0  0  0  0  0  0  0  # atno 10763 bound_to 10752
  154.7523  135.3109  154.8538 H   0  0  0  0  0  0  0  0  0  0  0  0  # atno 10764 bound_to 10752
  153.9116  135.6864  153.4804 H   0  0  0  0  0  0  0  0  0  0  0  0  # atno 10765 bound_to 10752
  141.0511  133.9685  157.2834 H   0  0  0  0  0  0  0  0  0  0  0  0  # atno 11005 bound_to 11000
  145.9275  140.9072  143.0373 LP  0  0  0  0  0  0  0  0  0  0  0  0  # atno 17320 bound_to 7965
  144.6727  140.1373  143.7439 LP  0  0  0  0  0  0  0  0  0  0  0  0  # atno 17321 bound_to 7965
  140.2528  144.4151  150.6215 LP  0  0  0  0  0  0  0  0  0  0  0  0  # atno 17342 bound_to 10162
  140.6213  143.2176  151.6689 LP  0  0  0  0  0  0  0  0  0  0  0  0  # atno 17343 bound_to 10162
  157.5230  131.0932  151.0054 LP  0  0  0  0  0  0  0  0  0  0  0  0  # atno 17370 bound_to 10713
  157.0379  130.5737  149.5352 LP  0  0  0  0  0  0  0  0  0  0  0  0  # atno 17371 bound_to 10713
  139.9351  135.0197  156.8530 LP  0  0  0  0  0  0  0  0  0  0  0  0  # atno 17394 bound_to 11000
  140.6053  134.0134  155.7554 LP  0  0  0  0  0  0  0  0  0  0  0  0  # atno 17395 bound_to 11000

$$$$
