AV-unprocessed.smi:21|AV-procd|sdf|162|dock6
  -GOLD-   2262015403D 1   1.00000     0.00000
 Structure written by MMmdl.
 61 64  0  0  0  0  0  0  0  0  1 V2000
  151.2201  144.6900  160.3216 C   0  0  0  0  0  0  0  0  0  0  0  0
  151.3984  143.2826  160.3312 O   0  0  0  0  0  0  0  0  0  0  0  0
  152.2721  142.8170  159.3127 C   0  0  2  0  0  0  0  0  0  0  0  0
  151.5364  142.4504  158.0102 C   0  0  0  0  0  0  0  0  0  0  0  0
  151.8128  140.9511  157.8162 C   0  0  1  0  0  0  0  0  0  0  0  0
  151.8396  140.5134  156.3347 C   0  0  0  0  0  0  0  0  0  0  0  0
  152.1765  139.1008  156.1565 N   0  0  0  0  0  0  0  0  0  0  0  0
  153.3646  138.7750  155.3687 C   0  0  0  0  0  0  0  0  0  0  0  0
  151.2570  138.1203  156.4030 C   0  0  0  0  0  0  0  0  0  0  0  0
  150.3152  138.3490  157.3592 N   0  0  0  0  0  0  0  0  0  0  0  0
  149.3959  137.4285  157.6576 C   0  0  0  0  0  0  0  0  0  0  0  0
  149.2285  136.2182  157.1272 N   0  0  0  0  0  0  0  0  0  0  0  0
  150.1553  135.9746  156.1586 C   0  0  0  0  0  0  0  0  0  0  0  0
  151.1947  136.8559  155.7358 C   0  0  0  0  0  0  0  0  0  0  0  0
  151.9287  136.2407  154.7257 N   0  0  0  0  0  0  0  0  0  0  0  0
  151.3699  135.0733  154.5712 C   0  0  0  0  0  0  0  0  0  0  0  0
  150.2830  134.8382  155.3792 N   0  0  0  0  0  0  0  0  0  0  0  0
  149.4755  133.6319  155.4191 C   0  0  0  0  0  0  0  0  0  0  0  0
  149.8879  132.5433  154.3935 C   0  0  2  0  0  0  0  0  0  0  0  0
  148.6670  132.1809  153.5164 C   0  0  0  0  0  0  0  0  0  0  0  0
  148.1576  133.3110  152.8372 O   0  0  0  0  0  0  0  0  0  0  0  0
  150.5653  131.2904  155.0235 C   0  0  1  0  0  0  0  0  0  0  0  0
  151.0800  130.2719  154.0177 C   0  0  0  0  0  0  0  0  0  0  0  0
  152.0571  129.4598  154.8541 C   0  0  0  0  0  0  0  0  0  0  0  0
  152.6956  130.4246  155.6748 O   0  0  0  0  0  0  0  0  0  0  0  0
  151.8456  131.5568  155.8341 C   0  0  0  0  0  0  0  0  0  0  0  0
  153.0494  140.7039  158.5396 N   0  0  0  0  0  0  0  0  0  0  0  0
  153.2905  139.2966  158.8295 C   0  0  0  0  0  0  0  0  0  0  0  0
  152.9076  141.4935  159.7468 C   0  0  0  0  0  0  0  0  0  0  0  0
  153.0602  143.5449  159.1109 H   0  0  0  0  0  0  0  0  0  0  0  0
  151.0135  140.4120  158.3275 H   0  0  0  0  0  0  0  0  0  0  0  0
  150.5442  144.9765  161.1271 H   0  0  0  0  0  0  0  0  0  0  0  0
  150.7866  145.0364  159.3830 H   0  0  0  0  0  0  0  0  0  0  0  0
  152.1672  145.2072  160.4801 H   0  0  0  0  0  0  0  0  0  0  0  0
  150.4645  142.6456  158.0573 H   0  0  0  0  0  0  0  0  0  0  0  0
  151.9440  143.0352  157.1848 H   0  0  0  0  0  0  0  0  0  0  0  0
  150.8604  140.7036  155.8942 H   0  0  0  0  0  0  0  0  0  0  0  0
  152.5231  141.1243  155.7487 H   0  0  0  0  0  0  0  0  0  0  0  0
  153.9155  137.9511  155.8239 H   0  0  0  0  0  0  0  0  0  0  0  0
  154.0435  139.6252  155.3035 H   0  0  0  0  0  0  0  0  0  0  0  0
  153.0885  138.4900  154.3529 H   0  0  0  0  0  0  0  0  0  0  0  0
  148.6945  137.7019  158.4321 H   0  0  0  0  0  0  0  0  0  0  0  0
  151.7288  134.3548  153.8485 H   0  0  0  0  0  0  0  0  0  0  0  0
  149.5110  133.2278  156.4314 H   0  0  0  0  0  0  0  0  0  0  0  0
  148.4414  133.9322  155.2465 H   0  0  0  0  0  0  0  0  0  0  0  0
  150.6129  132.9922  153.7137 H   0  0  0  0  0  0  0  0  0  0  0  0
  148.9401  131.4262  152.7782 H   0  0  0  0  0  0  0  0  0  0  0  0
  147.8690  131.7409  154.1145 H   0  0  0  0  0  0  0  0  0  0  0  0
  148.8662  133.9187  152.6904 H   0  0  0  0  0  0  0  0  0  0  0  0
  149.8479  130.7838  155.6714 H   0  0  0  0  0  0  0  0  0  0  0  0
  150.2909  129.6545  153.5877 H   0  0  0  0  0  0  0  0  0  0  0  0
  151.6109  130.7688  153.2042 H   0  0  0  0  0  0  0  0  0  0  0  0
  151.5226  128.7508  155.4879 H   0  0  0  0  0  0  0  0  0  0  0  0
  152.7753  128.9066  154.2489 H   0  0  0  0  0  0  0  0  0  0  0  0
  152.3796  132.4319  155.4625 H   0  0  0  0  0  0  0  0  0  0  0  0
  151.6339  131.7137  156.8911 H   0  0  0  0  0  0  0  0  0  0  0  0
  154.2012  139.1779  159.4172 H   0  0  0  0  0  0  0  0  0  0  0  0
  153.4152  138.7231  157.9115 H   0  0  0  0  0  0  0  0  0  0  0  0
  152.4645  138.8609  159.3932 H   0  0  0  0  0  0  0  0  0  0  0  0
  153.8646  141.6377  160.2492 H   0  0  0  0  0  0  0  0  0  0  0  0
  152.2414  140.9831  160.4449 H   0  0  0  0  0  0  0  0  0  0  0  0
  1  2  1  0  0  0  0
  1 32  1  0  0  0  0
  1 33  1  0  0  0  0
  1 34  1  0  0  0  0
  2  3  1  0  0  0  0
  3 30  1  0  0  0  0
  3 29  1  0  0  0  0
  3  4  1  0  0  0  0
  4  5  1  0  0  0  0
  4 35  1  0  0  0  0
  4 36  1  0  0  0  0
  5 31  1  0  0  0  0
  5  6  1  0  0  0  0
  5 27  1  0  0  0  0
  6  7  1  0  0  0  0
  6 37  1  0  0  0  0
  6 38  1  0  0  0  0
  7  8  1  0  0  0  0
  7  9  1  0  0  0  0
  8 39  1  0  0  0  0
  8 40  1  0  0  0  0
  8 41  1  0  0  0  0
  9 14  1  0  0  0  0
  9 10  2  0  0  0  0
 10 11  1  0  0  0  0
 11 12  2  0  0  0  0
 11 42  1  0  0  0  0
 12 13  1  0  0  0  0
 13 17  1  0  0  0  0
 13 14  2  0  0  0  0
 14 15  1  0  0  0  0
 15 16  2  0  0  0  0
 16 17  1  0  0  0  0
 16 43  1  0  0  0  0
 17 18  1  0  0  0  0
 18 19  1  0  0  0  0
 18 44  1  0  0  0  0
 18 45  1  0  0  0  0
 19 20  1  0  0  0  0
 19 22  1  0  0  0  0
 19 46  1  0  0  0  0
 20 21  1  0  0  0  0
 20 47  1  0  0  0  0
 20 48  1  0  0  0  0
 21 49  1  0  0  0  0
 22 26  1  0  0  0  0
 22 23  1  0  0  0  0
 22 50  1  0  0  0  0
 23 24  1  0  0  0  0
 23 51  1  0  0  0  0
 23 52  1  0  0  0  0
 24 25  1  0  0  0  0
 24 53  1  0  0  0  0
 24 54  1  0  0  0  0
 25 26  1  0  0  0  0
 26 55  1  0  0  0  0
 26 56  1  0  0  0  0
 27 28  1  0  0  0  0
 27 29  1  0  0  0  0
 28 57  1  0  0  0  0
 28 58  1  0  0  0  0
 28 59  1  0  0  0  0
 29 60  1  0  0  0  0
 29 61  1  0  0  0  0
M  END
> <s_m_source_file>
AV-unprocessed.smi

> <i_m_source_file_index>
21

> <i_lp_mmshare_version>
43012

> <i_f3d_flags>
0

> <s_epik_input>
W0NIM11PW0NASF0xW0NIMl1bQ0BIXShOKFtDSDNdKVtDSDJdMSlbQ0gyXU4oW0NIM10pYyhuW2NIXW4yKWMoYzIzKW5bY0hdbjNbQ0gyXVtDQEhdKFtDSDJdW09IXSlbQ0BASF00W0NIMl1bQ0gyXU9bQ0gyXTQ=

> <s_epik_cmdline>
J2VwaWtfcHl0aG9uJywgJy1waCcsICc3LjAnLCAnLXRuJywgJzgnLCAnLW1hJywgJzIwMCcsICctbWV0YWxfYmluZGluZycsICctaW1hZScsICc8aW5maWxlLm1hZT4nLCAnLW9tYWUnLCAnPG91dGZpbGUubWFlPic=

> <r_lp_tautomer_probability>
1

> <r_epik_Ionization_Penalty>
2.17574

> <r_epik_Ionization_Penalty_Charging>
0

> <r_epik_Ionization_Penalty_Neutral>
2.17574

> <r_epik_State_Penalty>
2.31336

> <r_epik_Charging_Adjusted_Penalty>
2.31336

> <i_epik_Tot_Q>
0

> <i_epik_Tot_abs_Q>
0

> <r_epik_Metal_State_Penalty>
2.31025

> <b_epik_Metal_Only>
0

> <s_lp_Force_Field>
OPLS_2005

> <r_lp_Energy>
68.3176

> <b_lp_Chiralities_Consistent>
1

> <s_lp_Variant>
AV-unprocessed.smi:21-42

> <Gold.Version>
5.8.1

> <Gold.Id.Protein>
6NUR|6NUR_protein|mol2

> <Gold.PLP.Fitness>
46.1520

> <Gold.PLP.PLP>
-41.5558

> <Gold.PLP.part.hbond>
-2.6797

> <Gold.PLP.part.metal>
0.0000

> <Gold.PLP.part.buried>
-3.3044

> <Gold.PLP.part.nonpolar>
-34.4491

> <Gold.PLP.part.repulsive>
0.2404

> <Gold.PLP.ligand.clash>
0.0000

> <Gold.PLP.ligand.torsion>
1.4317

> <Gold.PLP.Chemscore.Hbond>
2.1298

> <Gold.PLP.Chemscore.CHOScore>
0.1224

> <Gold.PLP.Chemscore.Metal>
0.0000

> <Gold.Chemscore.Hbonds>
donor molecule, donor type, donor heavy atom, donor atom, acceptor molecule, acceptor atom, score
      L1  H    21    49       P1  7948  0.01
      P1  H 10752 10765       L1    15  0.03
      L1  C    16    43       P1  7949  0.04

> <Gold.PLP.Chemscore.Internal.Correction>
0.7030

> <Gold.Rescore>
     Score         DG    S(hbond)    S(metal)    S(lipo)     H(rot)  DE(clash)    DE(int)     intcor
     10.53     -15.44       1.81        0.00      99.17       3.00       0.29       4.63       ----

> <Gold.Chemscore.Fitness>
10.5265

> <Gold.Chemscore.DG>
-15.4431

> <Gold.Chemscore.ZeroCoef>
-5.4800

> <Gold.Chemscore.Hbond>
1.8108

> <Gold.Chemscore.Metal>
0.0000

> <Gold.Chemscore.Lipo>
99.1701

> <Gold.Chemscore.Internal_Hbond>
0.0000

> <Gold.Chemscore.DEClash>
0.2860

> <Gold.Chemscore.DEInternal>
4.6306

> <Gold.Chemscore.Rot>
3.0031

> <Gold.Chemscore.Internal.Correction>
   9.000000E+99

> <Gold.Chemscore.Hbond.Weighted>
-6.0482

> <Gold.Chemscore.Metal.Weighted>
-0.0000

> <Gold.Chemscore.Lipo.Weighted>
-11.6029

> <Gold.Chemscore.Internal_Hbond.Weighted>
0.0000

> <Gold.Chemscore.DEClash.Weighted>
0.2860

> <Gold.Chemscore.DEInternal.Weighted>
4.6306

> <Gold.Chemscore.Rot.Weighted>
7.6880

> <Gold.Chemscore.Internal.Correction.Weighted>
   9.000000E+99

> <Gold.Protein.RotatedTorsions>
[ 6907 6896 6895 6894 ] final  129.59 input  -60.11 | X-H torsion
[ 7974 7965 7964 7962 ] final -148.96 input  175.53 | X-H torsion
[ 8008 7997 7996 7995 ] final   38.41 input   59.86 | X-H torsion
[ 10167 10162 10161 10158 ] final -158.69 input  -65.29 | X-H torsion
[ 10718 10713 10712 10709 ] final   49.55 input   66.30 | X-H torsion
[ 10763 10752 10751 10750 ] final -176.16 input  -60.55 | X-H torsion
[ 11005 11000 10999 10996 ] final  171.51 input  -57.11 | X-H torsion

> <Gold.Protein.ActiveResidues>
 VAL166  LYS551  ARG553  GLY616  TRP617  ASP618  TYR619  PRO620  LYS621  CYS622 
 ASP623  PHE694  ASN695  SER759  ASP760  ASP761  ALA762  ILE779  LEU786  VAL792 
 PHE793  MET794  SER795  GLU796  ALA797  LYS798  CYS799  TRP800  GLU811  SER814 

> <Gold.Protein.RotatedAtoms>
  152.3609  133.6296  159.6014 H   0  0  0  0  0  0  0  0  0  0  0  0  # atno 6907 bound_to 6896
  150.7600  133.9425  159.3469 H   0  0  0  0  0  0  0  0  0  0  0  0  # atno 6908 bound_to 6896
  151.7263  135.0885  160.0344 H   0  0  0  0  0  0  0  0  0  0  0  0  # atno 6909 bound_to 6896
  144.7997  140.5128  143.5716 H   0  0  0  0  0  0  0  0  0  0  0  0  # atno 7974 bound_to 7965
  155.2197  140.3330  155.4317 H   0  0  0  0  0  0  0  0  0  0  0  0  # atno 8008 bound_to 7997
  156.2338  140.1862  156.7221 H   0  0  0  0  0  0  0  0  0  0  0  0  # atno 8009 bound_to 7997
  154.6023  140.0621  156.9370 H   0  0  0  0  0  0  0  0  0  0  0  0  # atno 8010 bound_to 7997
  139.6673  143.9807  152.2262 H   0  0  0  0  0  0  0  0  0  0  0  0  # atno 10167 bound_to 10162
  157.4797  130.8307  149.8080 H   0  0  0  0  0  0  0  0  0  0  0  0  # atno 10718 bound_to 10713
  154.5757  135.2832  155.0783 H   0  0  0  0  0  0  0  0  0  0  0  0  # atno 10763 bound_to 10752
  154.2138  135.6403  153.5127 H   0  0  0  0  0  0  0  0  0  0  0  0  # atno 10764 bound_to 10752
  153.0072  135.5498  154.6395 H   0  0  0  0  0  0  0  0  0  0  0  0  # atno 10765 bound_to 10752
  140.3197  134.7447  157.4055 H   0  0  0  0  0  0  0  0  0  0  0  0  # atno 11005 bound_to 11000
  145.5584  139.1478  143.3355 LP  0  0  0  0  0  0  0  0  0  0  0  0  # atno 17320 bound_to 7965
  146.2275  140.5720  142.8990 LP  0  0  0  0  0  0  0  0  0  0  0  0  # atno 17321 bound_to 7965
  139.9562  144.6588  150.8124 LP  0  0  0  0  0  0  0  0  0  0  0  0  # atno 17342 bound_to 10162
  140.7604  143.3151  151.2753 LP  0  0  0  0  0  0  0  0  0  0  0  0  # atno 17343 bound_to 10162
  156.0115  130.3831  150.2248 LP  0  0  0  0  0  0  0  0  0  0  0  0  # atno 17370 bound_to 10713
  157.0434  131.0042  151.3276 LP  0  0  0  0  0  0  0  0  0  0  0  0  # atno 17371 bound_to 10713
  140.0952  134.5547  155.8405 LP  0  0  0  0  0  0  0  0  0  0  0  0  # atno 17394 bound_to 11000
  141.2089  133.6678  156.6404 LP  0  0  0  0  0  0  0  0  0  0  0  0  # atno 17395 bound_to 11000

$$$$
