AV-unprocessed.smi:3349|AV-procd|sdf|12931|dock3
  -GOLD-   2272019363D 1   1.00000     0.00000
 Structure written by MMmdl.
 40 41  0  0  0  0  0  0  0  0  1 V2000
  153.9952  141.4438  160.1819 C   0  0  0  0  0  0  0  0  0  0  0  0
  153.3125  142.6675  160.8452 C   0  0  2  0  0  0  0  0  0  0  0  0
  152.7886  142.2505  162.2471 C   0  0  0  0  0  0  0  0  0  0  0  0
  153.2165  143.1691  163.2964 N   0  0  0  0  0  0  0  0  0  0  0  0
  154.3569  143.0538  163.9928 C   0  0  0  0  0  0  0  0  0  0  0  0
  155.1605  142.1367  163.8204 O   0  0  0  0  0  0  0  0  0  0  0  0
  154.6253  144.1331  165.0551 C   0  0  2  0  0  0  0  0  0  0  0  0
  154.5533  145.5384  164.4190 C   0  0  0  0  0  0  0  0  0  0  0  0
  155.8899  143.8894  165.7555 N   0  0  0  0  0  0  0  0  0  0  0  0
  156.1507  143.7028  167.0554 C   0  0  0  0  0  0  0  0  0  0  0  0
  157.4406  143.5997  167.3429 N   0  0  0  0  0  0  0  0  0  0  0  0
  157.9645  143.7708  166.0944 C   0  0  0  0  0  0  0  0  0  0  0  0
  157.0839  143.9737  165.1150 N   0  0  0  0  0  0  0  0  0  0  0  0
  152.2695  143.2745  159.9853 N   0  0  0  0  0  0  0  0  0  0  0  0
  151.7180  144.5135  160.5465 C   0  0  0  0  0  0  0  0  0  0  0  0
  150.6570  145.1605  159.6391 C   0  0  0  0  0  0  0  0  0  0  0  0
  151.2108  145.4101  158.3547 O   0  0  0  0  0  0  0  0  0  0  0  0
  151.6876  144.2215  157.7396 C   0  0  0  0  0  0  0  0  0  0  0  0
  152.7572  143.5695  158.6326 C   0  0  0  0  0  0  0  0  0  0  0  0
  154.7243  140.9653  160.8346 H   0  0  0  0  0  0  0  0  0  0  0  0
  154.5539  141.7166  159.2879 H   0  0  0  0  0  0  0  0  0  0  0  0
  153.2612  140.6869  159.9034 H   0  0  0  0  0  0  0  0  0  0  0  0
  154.0893  143.4164  161.0076 H   0  0  0  0  0  0  0  0  0  0  0  0
  151.7003  142.2490  162.2848 H   0  0  0  0  0  0  0  0  0  0  0  0
  153.1205  141.2373  162.4810 H   0  0  0  0  0  0  0  0  0  0  0  0
  152.6075  143.9486  163.4992 H   0  0  0  0  0  0  0  0  0  0  0  0
  153.8362  144.0711  165.8065 H   0  0  0  0  0  0  0  0  0  0  0  0
  153.6440  145.6606  163.8292 H   0  0  0  0  0  0  0  0  0  0  0  0
  155.4027  145.7250  163.7603 H   0  0  0  0  0  0  0  0  0  0  0  0
  154.5448  146.3185  165.1807 H   0  0  0  0  0  0  0  0  0  0  0  0
  155.3835  143.6450  167.8139 H   0  0  0  0  0  0  0  0  0  0  0  0
  159.0276  143.7613  165.9034 H   0  0  0  0  0  0  0  0  0  0  0  0
  151.2380  144.3237  161.5044 H   0  0  0  0  0  0  0  0  0  0  0  0
  152.5227  145.2273  160.7294 H   0  0  0  0  0  0  0  0  0  0  0  0
  149.7811  144.5158  159.5481 H   0  0  0  0  0  0  0  0  0  0  0  0
  150.3169  146.1030  160.0682 H   0  0  0  0  0  0  0  0  0  0  0  0
  150.8588  143.5339  157.5633 H   0  0  0  0  0  0  0  0  0  0  0  0
  152.1090  144.4706  156.7657 H   0  0  0  0  0  0  0  0  0  0  0  0
  153.6288  144.2234  158.6880 H   0  0  0  0  0  0  0  0  0  0  0  0
  153.0763  142.6578  158.1311 H   0  0  0  0  0  0  0  0  0  0  0  0
  1  2  1  0  0  0  0
  1 20  1  0  0  0  0
  1 21  1  0  0  0  0
  1 22  1  0  0  0  0
  2  3  1  0  0  0  0
  2 14  1  0  0  0  0
  2 23  1  0  0  0  0
  3  4  1  0  0  0  0
  3 24  1  0  0  0  0
  3 25  1  0  0  0  0
  4  5  1  0  0  0  0
  4 26  1  0  0  0  0
  5  6  2  0  0  0  0
  5  7  1  0  0  0  0
  7  8  1  0  0  0  0
  7  9  1  0  0  0  0
  7 27  1  0  0  0  0
  8 28  1  0  0  0  0
  8 29  1  0  0  0  0
  8 30  1  0  0  0  0
  9 13  1  0  0  0  0
  9 10  1  0  0  0  0
 10 11  2  0  0  0  0
 10 31  1  0  0  0  0
 11 12  1  0  0  0  0
 12 13  2  0  0  0  0
 12 32  1  0  0  0  0
 14 19  1  0  0  0  0
 14 15  1  0  0  0  0
 15 16  1  0  0  0  0
 15 33  1  0  0  0  0
 15 34  1  0  0  0  0
 16 17  1  0  0  0  0
 16 35  1  0  0  0  0
 16 36  1  0  0  0  0
 17 18  1  0  0  0  0
 18 19  1  0  0  0  0
 18 37  1  0  0  0  0
 18 38  1  0  0  0  0
 19 39  1  0  0  0  0
 19 40  1  0  0  0  0
M  END
> <s_m_source_file>
AV-unprocessed.smi

> <i_m_source_file_index>
3349

> <i_lp_mmshare_version>
43012

> <i_f3d_flags>
0

> <s_epik_input>
W0NIMl0xW0NIMl1PW0NIMl1bQ0gyXU4xW0NASF0oW0NIM10pW0NIMl1bTkhdQyg9TylbQ0BIXShbQ0gzXSluMltjSF1uW2NIXW4y

> <s_epik_cmdline>
J2VwaWtfcHl0aG9uJywgJy1waCcsICc3LjAnLCAnLXRuJywgJzgnLCAnLW1hJywgJzIwMCcsICctbWV0YWxfYmluZGluZycsICctaW1hZScsICc8aW5maWxlLm1hZT4nLCAnLW9tYWUnLCAnPG91dGZpbGUubWFlPic=

> <r_lp_tautomer_probability>
1

> <r_epik_Ionization_Penalty>
0.211373

> <r_epik_Ionization_Penalty_Charging>
0

> <r_epik_Ionization_Penalty_Neutral>
0.211373

> <r_epik_State_Penalty>
0.201459

> <r_epik_Charging_Adjusted_Penalty>
0.201459

> <i_epik_Tot_Q>
0

> <i_epik_Tot_abs_Q>
0

> <r_epik_Metal_State_Penalty>
0.201458

> <b_epik_Metal_Only>
0

> <s_lp_Force_Field>
OPLS_2005

> <r_lp_Energy>
36.462

> <b_lp_Chiralities_Consistent>
1

> <s_lp_Variant>
AV-unprocessed.smi:3349-1

> <Gold.Version>
5.8.1

> <Gold.Id.Protein>
6NUR|6NUR_protein|mol2

> <Gold.PLP.Fitness>
42.8971

> <Gold.PLP.PLP>
-44.6339

> <Gold.PLP.part.hbond>
-3.7650

> <Gold.PLP.part.metal>
0.0000

> <Gold.PLP.part.buried>
-4.0556

> <Gold.PLP.part.nonpolar>
-36.3788

> <Gold.PLP.part.repulsive>
0.2542

> <Gold.PLP.ligand.clash>
0.0000

> <Gold.PLP.ligand.torsion>
0.9635

> <Gold.PLP.Chemscore.Hbond>
0.0000

> <Gold.PLP.Chemscore.CHOScore>
0.0000

> <Gold.PLP.Chemscore.Metal>
0.0000

> <Gold.PLP.Chemscore.Internal.Correction>
0.1903

> <Gold.Rescore>
     Score         DG    S(hbond)    S(metal)    S(lipo)     H(rot)  DE(clash)    DE(int)     intcor
      9.97     -11.17       0.00        0.00     104.60       2.56       0.10       1.10       ----

> <Gold.Chemscore.Fitness>
9.9704

> <Gold.Chemscore.DG>
-11.1729

> <Gold.Chemscore.ZeroCoef>
-5.4800

> <Gold.Chemscore.Hbond>
0.0000

> <Gold.Chemscore.Metal>
0.0000

> <Gold.Chemscore.Lipo>
104.6047

> <Gold.Chemscore.Internal_Hbond>
0.0000

> <Gold.Chemscore.DEClash>
0.1003

> <Gold.Chemscore.DEInternal>
1.1022

> <Gold.Chemscore.Rot>
2.5570

> <Gold.Chemscore.Internal.Correction>
   9.000000E+99

> <Gold.Chemscore.Hbond.Weighted>
-0.0000

> <Gold.Chemscore.Metal.Weighted>
-0.0000

> <Gold.Chemscore.Lipo.Weighted>
-12.2387

> <Gold.Chemscore.Internal_Hbond.Weighted>
0.0000

> <Gold.Chemscore.DEClash.Weighted>
0.1003

> <Gold.Chemscore.DEInternal.Weighted>
1.1022

> <Gold.Chemscore.Rot.Weighted>
6.5459

> <Gold.Chemscore.Internal.Correction.Weighted>
   9.000000E+99

> <Gold.Protein.RotatedTorsions>
[ 6907 6896 6895 6894 ] final  -71.46 input  -60.11 | X-H torsion
[ 7974 7965 7964 7962 ] final -139.78 input  175.53 | X-H torsion
[ 8008 7997 7996 7995 ] final   17.38 input   59.86 | X-H torsion
[ 10167 10162 10161 10158 ] final   97.58 input  -65.29 | X-H torsion
[ 10718 10713 10712 10709 ] final   36.41 input   66.30 | X-H torsion
[ 10763 10752 10751 10750 ] final  172.33 input  -60.55 | X-H torsion
[ 11005 11000 10999 10996 ] final   34.25 input  -57.11 | X-H torsion

> <Gold.Protein.ActiveResidues>
 VAL166  LYS551  ARG553  GLY616  TRP617  ASP618  TYR619  PRO620  LYS621  CYS622 
 ASP623  PHE694  ASN695  SER759  ASP760  ASP761  ALA762  ILE779  LEU786  VAL792 
 PHE793  MET794  SER795  GLU796  ALA797  LYS798  CYS799  TRP800  GLU811  SER814 

> <Gold.Protein.RotatedAtoms>
  150.7212  134.5306  159.5697 H   0  0  0  0  0  0  0  0  0  0  0  0  # atno 6907 bound_to 6896
  152.2840  134.7794  160.0400 H   0  0  0  0  0  0  0  0  0  0  0  0  # atno 6908 bound_to 6896
  151.8431  133.3391  159.3686 H   0  0  0  0  0  0  0  0  0  0  0  0  # atno 6909 bound_to 6896
  144.8650  140.6278  143.5304 H   0  0  0  0  0  0  0  0  0  0  0  0  # atno 7974 bound_to 7965
  154.8906  140.2986  155.5373 H   0  0  0  0  0  0  0  0  0  0  0  0  # atno 8008 bound_to 7997
  156.3021  140.2425  156.3855 H   0  0  0  0  0  0  0  0  0  0  0  0  # atno 8009 bound_to 7997
  154.8622  140.0405  157.1661 H   0  0  0  0  0  0  0  0  0  0  0  0  # atno 8010 bound_to 7997
  139.7788  144.6896  151.0052 H   0  0  0  0  0  0  0  0  0  0  0  0  # atno 10167 bound_to 10162
  157.3345  130.7515  149.6870 H   0  0  0  0  0  0  0  0  0  0  0  0  # atno 10718 bound_to 10713
  154.4245  135.2758  155.1953 H   0  0  0  0  0  0  0  0  0  0  0  0  # atno 10763 bound_to 10752
  154.3885  135.6071  153.5833 H   0  0  0  0  0  0  0  0  0  0  0  0  # atno 10764 bound_to 10752
  152.9834  135.5897  154.4547 H   0  0  0  0  0  0  0  0  0  0  0  0  # atno 10765 bound_to 10752
  140.2548  134.3261  155.7877 H   0  0  0  0  0  0  0  0  0  0  0  0  # atno 11005 bound_to 11000
  145.4239  139.1559  143.4059 LP  0  0  0  0  0  0  0  0  0  0  0  0  # atno 17320 bound_to 7965
  146.2889  140.4352  142.8747 LP  0  0  0  0  0  0  0  0  0  0  0  0  # atno 17321 bound_to 7965
  140.7817  143.4506  151.0418 LP  0  0  0  0  0  0  0  0  0  0  0  0  # atno 17342 bound_to 10162
  139.8187  143.7849  152.3176 LP  0  0  0  0  0  0  0  0  0  0  0  0  # atno 17343 bound_to 10162
  155.9700  130.4185  150.4333 LP  0  0  0  0  0  0  0  0  0  0  0  0  # atno 17370 bound_to 10713
  157.2370  131.0517  151.2459 LP  0  0  0  0  0  0  0  0  0  0  0  0  # atno 17371 bound_to 10713
  141.2197  133.7375  156.9094 LP  0  0  0  0  0  0  0  0  0  0  0  0  # atno 17394 bound_to 11000
  140.1522  134.9222  157.2608 LP  0  0  0  0  0  0  0  0  0  0  0  0  # atno 17395 bound_to 11000

$$$$
