AV-unprocessed.smi:54|AV-procd|sdf|533|dock6
  -GOLD-   2262016413D 1   1.00000     0.00000
 Structure written by MMmdl.
 44 46  0  0  0  0  0  0  0  0  1 V2000
  152.9429  143.4999  158.9700 C   0  0  0  0  0  0  0  0  0  0  0  0
  151.8111  143.8833  158.0030 C   0  0  0  0  0  0  0  0  0  0  0  0
  150.7230  144.7043  158.7141 C   0  0  0  0  0  0  0  0  0  0  0  0
  151.2066  142.6320  157.3565 C   0  0  0  0  0  0  0  0  0  0  0  0
  151.5857  141.4985  157.6495 O   0  0  0  0  0  0  0  0  0  0  0  0
  150.1514  142.8763  156.3922 N   0  0  0  0  0  0  0  0  0  0  0  0
  149.4625  141.9533  155.6831 C   0  0  0  0  0  0  0  0  0  0  0  0
  149.8400  140.6864  155.5787 N   0  0  0  0  0  0  0  0  0  0  0  0
  149.0282  139.9121  154.7948 C   0  0  0  0  0  0  0  0  0  0  0  0
  147.8892  140.3291  154.1352 C   0  0  0  0  0  0  0  0  0  0  0  0
  147.3176  139.2695  153.4411 N   0  0  0  0  0  0  0  0  0  0  0  0
  148.1124  138.2669  153.6872 C   0  0  0  0  0  0  0  0  0  0  0  0
  149.1817  138.5721  154.4941 N   0  0  0  0  0  0  0  0  0  0  0  0
  150.2671  137.6512  154.9463 C   0  0  2  0  0  0  0  0  0  0  0  0
  150.3020  137.6609  156.3364 O   0  0  0  0  0  0  0  0  0  0  0  0
  151.6367  137.3977  156.7427 C   0  0  2  0  0  0  0  0  0  0  0  0
  151.8542  137.7468  158.2252 C   0  0  0  0  0  0  0  0  0  0  0  0
  151.5266  139.1003  158.4569 O   0  0  0  0  0  0  0  0  0  0  0  0
  152.4659  138.2040  155.7301 C   0  0  2  0  0  0  0  0  0  0  0  0
  152.6090  139.5539  156.1295 O   0  0  0  0  0  0  0  0  0  0  0  0
  151.6475  138.1098  154.4420 C   0  0  1  0  0  0  0  0  0  0  0  0
  152.2257  137.1373  153.5938 O   0  0  0  0  0  0  0  0  0  0  0  0
  147.4700  141.6969  154.2383 C   0  0  0  0  0  0  0  0  0  0  0  0
  146.4925  142.2353  153.7232 O   0  0  0  0  0  0  0  0  0  0  0  0
  148.3320  142.4542  155.0397 N   0  0  0  0  0  0  0  0  0  0  0  0
  149.9743  136.6644  154.5841 H   0  0  0  0  0  0  0  0  0  0  0  0
  151.8433  136.3380  156.5773 H   0  0  0  0  0  0  0  0  0  0  0  0
  153.4693  137.7891  155.6230 H   0  0  0  0  0  0  0  0  0  0  0  0
  151.5847  139.0635  153.9150 H   0  0  0  0  0  0  0  0  0  0  0  0
  153.7108  142.9097  158.4684 H   0  0  0  0  0  0  0  0  0  0  0  0
  152.5710  142.9153  159.8127 H   0  0  0  0  0  0  0  0  0  0  0  0
  153.4269  144.3893  159.3742 H   0  0  0  0  0  0  0  0  0  0  0  0
  152.2385  144.5021  157.2127 H   0  0  0  0  0  0  0  0  0  0  0  0
  149.9184  144.9736  158.0289 H   0  0  0  0  0  0  0  0  0  0  0  0
  151.1344  145.6312  159.1144 H   0  0  0  0  0  0  0  0  0  0  0  0
  150.2823  144.1535  159.5462 H   0  0  0  0  0  0  0  0  0  0  0  0
  149.8756  143.8396  156.2724 H   0  0  0  0  0  0  0  0  0  0  0  0
  147.9438  137.2803  153.2808 H   0  0  0  0  0  0  0  0  0  0  0  0
  151.2027  137.1417  158.8562 H   0  0  0  0  0  0  0  0  0  0  0  0
  152.8811  137.5542  158.5328 H   0  0  0  0  0  0  0  0  0  0  0  0
  150.9414  139.1454  159.1977 H   0  0  0  0  0  0  0  0  0  0  0  0
  152.3512  140.1113  155.4116 H   0  0  0  0  0  0  0  0  0  0  0  0
  151.5941  136.9033  152.9312 H   0  0  0  0  0  0  0  0  0  0  0  0
  148.1012  143.4302  155.1528 H   0  0  0  0  0  0  0  0  0  0  0  0
  1  2  1  0  0  0  0
  1 30  1  0  0  0  0
  1 31  1  0  0  0  0
  1 32  1  0  0  0  0
  2  3  1  0  0  0  0
  2  4  1  0  0  0  0
  2 33  1  0  0  0  0
  3 34  1  0  0  0  0
  3 35  1  0  0  0  0
  3 36  1  0  0  0  0
  4  5  2  0  0  0  0
  4  6  1  0  0  0  0
  6 37  1  0  0  0  0
  6  7  1  0  0  0  0
  7 25  1  0  0  0  0
  7  8  2  0  0  0  0
  8  9  1  0  0  0  0
  9 13  1  0  0  0  0
  9 10  2  0  0  0  0
 10 11  1  0  0  0  0
 10 23  1  0  0  0  0
 11 12  2  0  0  0  0
 12 13  1  0  0  0  0
 12 38  1  0  0  0  0
 13 14  1  0  0  0  0
 14 26  1  0  0  0  0
 14 21  1  0  0  0  0
 14 15  1  0  0  0  0
 15 16  1  0  0  0  0
 16 27  1  0  0  0  0
 16 17  1  0  0  0  0
 16 19  1  0  0  0  0
 17 18  1  0  0  0  0
 17 39  1  0  0  0  0
 17 40  1  0  0  0  0
 18 41  1  0  0  0  0
 19 28  1  0  0  0  0
 19 20  1  0  0  0  0
 19 21  1  0  0  0  0
 20 42  1  0  0  0  0
 21 29  1  0  0  0  0
 21 22  1  0  0  0  0
 22 43  1  0  0  0  0
 23 24  2  0  0  0  0
 23 25  1  0  0  0  0
 25 44  1  0  0  0  0
M  END
> <s_m_source_file>
AV-unprocessed.smi

> <i_m_source_file_index>
54

> <i_lp_mmshare_version>
43012

> <i_f3d_flags>
0

> <s_epik_input>
W0NIM11bQ0hdKFtDSDNdKUMoPU8pW05IXWMobjEpW25IXWMoPU8pYyhjMTIpbltjSF1uMltDQEBIXTNPW0NASF0oW0NIMl1bT0hdKVtDQEBIXShbT0hdKVtDQEhdM1tPSF0=

> <s_epik_cmdline>
J2VwaWtfcHl0aG9uJywgJy1waCcsICc3LjAnLCAnLXRuJywgJzgnLCAnLW1hJywgJzIwMCcsICctbWV0YWxfYmluZGluZycsICctaW1hZScsICc8aW5maWxlLm1hZT4nLCAnLW9tYWUnLCAnPG91dGZpbGUubWFlPic=

> <r_lp_tautomer_probability>
0.85571

> <r_epik_Ionization_Penalty>
0.0316551

> <r_epik_Ionization_Penalty_Charging>
0.0316043

> <r_epik_Ionization_Penalty_Neutral>
5.07097e-05

> <r_epik_State_Penalty>
3.15494e-07

> <r_epik_Charging_Adjusted_Penalty>
0.0316047

> <i_epik_Tot_Q>
0

> <i_epik_Tot_abs_Q>
0

> <r_epik_Metal_State_Penalty>
0.421206

> <b_epik_Metal_Only>
0

> <s_epik_Chemistry_Notes>
This compound contains an acetal/aminal-like group ( X-CH(R)-Y where X, Y are N, S, or O) that may be acid/base labile, releasing an aldehyde.

> <s_lp_Force_Field>
OPLS_2005

> <r_lp_Energy>
38.1022

> <b_lp_Chiralities_Consistent>
1

> <s_lp_Variant>
AV-unprocessed.smi:54-5

> <Gold.Version>
5.8.1

> <Gold.Id.Protein>
6NUR|6NUR_protein|mol2

> <Gold.PLP.Fitness>
52.3826

> <Gold.PLP.PLP>
-36.0220

> <Gold.PLP.part.hbond>
-3.9440

> <Gold.PLP.part.metal>
0.0000

> <Gold.PLP.part.buried>
-3.4683

> <Gold.PLP.part.nonpolar>
-31.1497

> <Gold.PLP.part.repulsive>
0.7727

> <Gold.PLP.ligand.clash>
0.0000

> <Gold.PLP.ligand.torsion>
0.0656

> <Gold.PLP.Chemscore.Hbond>
4.4850

> <Gold.PLP.Chemscore.CHOScore>
1.0000

> <Gold.PLP.Chemscore.Metal>
0.0000

> <Gold.Chemscore.Hbonds>
donor molecule, donor type, donor heavy atom, donor atom, acceptor molecule, acceptor atom, score
      L1  H     6    37       P1  8028  0.73
      L1  H    22    43       P1  7949  0.99
      L1  H    25    44       P1  8028  0.74
      P1  H  7997  8009       L1    20  1.00
      P1  H 10752 10765       L1    22  1.00
      L1  C    12    38       P1  7948  1.00

> <Gold.PLP.Chemscore.Internal.Correction>
0.0368

> <Gold.Rescore>
     Score         DG    S(hbond)    S(metal)    S(lipo)     H(rot)  DE(clash)    DE(int)     intcor
     13.08     -16.65       4.11        0.00      66.75       4.05       2.11       1.46       ----

> <Gold.Chemscore.Fitness>
13.0801

> <Gold.Chemscore.DG>
-16.6484

> <Gold.Chemscore.ZeroCoef>
-5.4800

> <Gold.Chemscore.Hbond>
4.1093

> <Gold.Chemscore.Metal>
0.0000

> <Gold.Chemscore.Lipo>
66.7476

> <Gold.Chemscore.Internal_Hbond>
0.0000

> <Gold.Chemscore.DEClash>
2.1082

> <Gold.Chemscore.DEInternal>
1.4601

> <Gold.Chemscore.Rot>
4.0493

> <Gold.Chemscore.Internal.Correction>
   9.000000E+99

> <Gold.Chemscore.Hbonds>
donor molecule, donor type, donor heavy atom, donor atom, acceptor molecule, acceptor atom, score
      L1  H     6    37       P1  8028  0.69
      L1  H    22    43       P1  7949  0.90
      L1  H    25    44       P1  8028  0.58
      P1  H  7997  8009       L1    20  0.23
      P1  H 10752 10765       L1    22  0.48

> <Gold.Chemscore.Hbond.Weighted>
-13.7252

> <Gold.Chemscore.Metal.Weighted>
-0.0000

> <Gold.Chemscore.Lipo.Weighted>
-7.8095

> <Gold.Chemscore.Internal_Hbond.Weighted>
0.0000

> <Gold.Chemscore.DEClash.Weighted>
2.1082

> <Gold.Chemscore.DEInternal.Weighted>
1.4601

> <Gold.Chemscore.Rot.Weighted>
10.3662

> <Gold.Chemscore.Internal.Correction.Weighted>
   9.000000E+99

> <Gold.Protein.RotatedTorsions>
[ 6907 6896 6895 6894 ] final  -71.38 input  -60.11 | X-H torsion
[ 7974 7965 7964 7962 ] final  -95.71 input  175.53 | X-H torsion
[ 8008 7997 7996 7995 ] final -165.38 input   59.86 | X-H torsion
[ 10167 10162 10161 10158 ] final  -30.58 input  -65.29 | X-H torsion
[ 10718 10713 10712 10709 ] final  -45.20 input   66.30 | X-H torsion
[ 10763 10752 10751 10750 ] final  129.81 input  -60.55 | X-H torsion
[ 11005 11000 10999 10996 ] final   24.13 input  -57.11 | X-H torsion

> <Gold.Protein.ActiveResidues>
 VAL166  LYS551  ARG553  GLY616  TRP617  ASP618  TYR619  PRO620  LYS621  CYS622 
 ASP623  PHE694  ASN695  SER759  ASP760  ASP761  ALA762  ILE779  LEU786  VAL792 
 PHE793  MET794  SER795  GLU796  ALA797  LYS798  CYS799  TRP800  GLU811  SER814 

> <Gold.Protein.RotatedAtoms>
  150.7215  134.5317  159.5703 H   0  0  0  0  0  0  0  0  0  0  0  0  # atno 6907 bound_to 6896
  152.2849  134.7784  160.0398 H   0  0  0  0  0  0  0  0  0  0  0  0  # atno 6908 bound_to 6896
  151.8418  133.3389  159.3682 H   0  0  0  0  0  0  0  0  0  0  0  0  # atno 6909 bound_to 6896
  145.3564  140.9485  143.2525 H   0  0  0  0  0  0  0  0  0  0  0  0  # atno 7974 bound_to 7965
  155.8490  140.0960  157.1687 H   0  0  0  0  0  0  0  0  0  0  0  0  # atno 8008 bound_to 7997
  154.3984  140.1387  156.3882 H   0  0  0  0  0  0  0  0  0  0  0  0  # atno 8009 bound_to 7997
  155.7982  140.3453  155.5390 H   0  0  0  0  0  0  0  0  0  0  0  0  # atno 8010 bound_to 7997
  140.7247  143.3838  151.1553 H   0  0  0  0  0  0  0  0  0  0  0  0  # atno 10167 bound_to 10162
  156.2308  130.4172  149.8877 H   0  0  0  0  0  0  0  0  0  0  0  0  # atno 10718 bound_to 10713
  153.7478  135.3214  155.3315 H   0  0  0  0  0  0  0  0  0  0  0  0  # atno 10763 bound_to 10752
  154.8273  135.4560  154.0962 H   0  0  0  0  0  0  0  0  0  0  0  0  # atno 10764 bound_to 10752
  153.2156  135.6941  153.8144 H   0  0  0  0  0  0  0  0  0  0  0  0  # atno 10765 bound_to 10752
  140.3621  134.2114  155.7671 H   0  0  0  0  0  0  0  0  0  0  0  0  # atno 11005 bound_to 11000
  144.8679  139.5081  143.6781 LP  0  0  0  0  0  0  0  0  0  0  0  0  # atno 17320 bound_to 7965
  146.2946  139.7239  142.9136 LP  0  0  0  0  0  0  0  0  0  0  0  0  # atno 17321 bound_to 7965
  139.7431  143.8894  152.3056 LP  0  0  0  0  0  0  0  0  0  0  0  0  # atno 17342 bound_to 10162
  139.8722  144.7062  150.8975 LP  0  0  0  0  0  0  0  0  0  0  0  0  # atno 17343 bound_to 10162
  156.6492  130.8736  151.3528 LP  0  0  0  0  0  0  0  0  0  0  0  0  # atno 17370 bound_to 10713
  157.7132  130.9465  150.1162 LP  0  0  0  0  0  0  0  0  0  0  0  0  # atno 17371 bound_to 10713
  141.1981  133.8044  157.0598 LP  0  0  0  0  0  0  0  0  0  0  0  0  # atno 17394 bound_to 11000
  140.0619  134.9750  157.1319 LP  0  0  0  0  0  0  0  0  0  0  0  0  # atno 17395 bound_to 11000

$$$$
