AV-unprocessed.smi:308|AV-procd|sdf|2290|dock9
  -GOLD-   2262022193D 1   1.00000     0.00000
 Structure written by MMmdl.
 50 51  0  0  0  0  0  0  0  0  4 V2000
  143.9960  134.2143  151.6935 C   0  0  0  0  0  0  0  0  0  0  0  0
  145.4589  134.5320  151.3379 C   0  0  2  0  0  0  0  0  0  0  0  0
  146.4436  134.1335  152.4527 C   0  0  0  0  0  0  0  0  0  0  0  0
  146.3812  135.0926  153.6547 C   0  0  0  0  0  0  0  0  0  0  0  0
  146.6110  136.5008  153.2293 N   0  3  2  0  0  0  0  0  0  0  0  0
  146.7227  137.4606  154.3613 C   0  0  0  0  0  0  0  0  0  0  0  0
  148.1899  137.7631  154.7245 C   0  0  0  0  0  0  0  0  0  0  0  0
  148.6762  138.8913  153.9263 N   0  5  0  0  0  0  0  0  0  0  0  0
  149.3059  139.9857  154.4316 C   0  0  0  0  0  0  0  0  0  0  0  0
  149.5331  141.0565  153.8574 O   0  0  0  0  0  0  0  0  0  0  0  0
  149.7122  139.7937  155.6994 N   0  0  0  0  0  0  0  0  0  0  0  0
  150.3674  140.6966  156.5801 C   0  0  0  0  0  0  0  0  0  0  0  0
  150.7285  140.2238  157.8582 C   0  0  0  0  0  0  0  0  0  0  0  0
  151.3607  141.0896  158.7741 C   0  0  0  0  0  0  0  0  0  0  0  0
  151.6200  142.4337  158.4093 C   0  0  0  0  0  0  0  0  0  0  0  0
  152.2467  143.3611  159.2696 N   0  0  0  0  0  0  0  0  0  0  0  0
  152.3694  144.7569  158.8643 C   0  0  0  0  0  0  0  0  0  0  0  0
  152.7330  142.9272  160.5727 C   0  0  0  0  0  0  0  0  0  0  0  0
  151.2408  142.8455  157.1749 N   0  3  0  0  0  0  0  0  0  0  0  0
  150.6343  142.0503  156.2674 C   0  0  0  0  0  0  0  0  0  0  0  0
  145.6277  136.9316  152.2030 C   0  0  0  0  0  0  0  0  0  0  0  0
  145.6734  136.0115  150.9699 C   0  0  0  0  0  0  0  0  0  0  0  0
  143.6544  134.7677  152.5678 H   0  0  0  0  0  0  0  0  0  0  0  0
  143.8675  133.1525  151.9050 H   0  0  0  0  0  0  0  0  0  0  0  0
  143.3316  134.4645  150.8659 H   0  0  0  0  0  0  0  0  0  0  0  0
  145.6987  133.9348  150.4572 H   0  0  0  0  0  0  0  0  0  0  0  0
  146.2525  133.1105  152.7787 H   0  0  0  0  0  0  0  0  0  0  0  0
  147.4582  134.1377  152.0517 H   0  0  0  0  0  0  0  0  0  0  0  0
  145.4165  135.0136  154.1570 H   0  0  0  0  0  0  0  0  0  0  0  0
  147.1354  134.7953  154.3838 H   0  0  0  0  0  0  0  0  0  0  0  0
  146.2361  138.4036  154.1064 H   0  0  0  0  0  0  0  0  0  0  0  0
  146.1854  137.0787  155.2305 H   0  0  0  0  0  0  0  0  0  0  0  0
  148.2515  137.9777  155.7914 H   0  0  0  0  0  0  0  0  0  0  0  0
  148.7784  136.8578  154.5703 H   0  0  0  0  0  0  0  0  0  0  0  0
  149.5782  138.8590  156.0566 H   0  0  0  0  0  0  0  0  0  0  0  0
  150.5282  139.1997  158.1380 H   0  0  0  0  0  0  0  0  0  0  0  0
  151.6357  140.7051  159.7447 H   0  0  0  0  0  0  0  0  0  0  0  0
  152.9597  144.8395  157.9511 H   0  0  0  0  0  0  0  0  0  0  0  0
  152.8604  145.3531  159.6337 H   0  0  0  0  0  0  0  0  0  0  0  0
  151.3859  145.1916  158.6831 H   0  0  0  0  0  0  0  0  0  0  0  0
  151.9154  142.5265  161.1727 H   0  0  0  0  0  0  0  0  0  0  0  0
  153.1772  143.7548  161.1262 H   0  0  0  0  0  0  0  0  0  0  0  0
  153.4949  142.1555  160.4599 H   0  0  0  0  0  0  0  0  0  0  0  0
  150.3776  142.5353  155.3377 H   0  0  0  0  0  0  0  0  0  0  0  0
  144.6274  136.9483  152.6375 H   0  0  0  0  0  0  0  0  0  0  0  0
  145.8523  137.9516  151.8886 H   0  0  0  0  0  0  0  0  0  0  0  0
  146.6450  136.1210  150.4855 H   0  0  0  0  0  0  0  0  0  0  0  0
  144.9328  136.3308  150.2355 H   0  0  0  0  0  0  0  0  0  0  0  0
  147.5138  136.5294  152.7755 H   0  0  0  0  0  0  0  0  0  0  0  0
  151.4201  143.8154  156.9148 H   0  0  0  0  0  0  0  0  0  0  0  0
  1  2  1  0  0  0  0
  1 23  1  0  0  0  0
  1 24  1  0  0  0  0
  1 25  1  0  0  0  0
  2 22  1  0  0  0  0
  2  3  1  0  0  0  0
  2 26  1  0  0  0  0
  3  4  1  0  0  0  0
  3 27  1  0  0  0  0
  3 28  1  0  0  0  0
  4  5  1  0  0  0  0
  4 29  1  0  0  0  0
  4 30  1  0  0  0  0
  5  6  1  0  0  0  0
  5 21  1  0  0  0  0
  5 49  1  0  0  0  0
  6  7  1  0  0  0  0
  6 31  1  0  0  0  0
  6 32  1  0  0  0  0
  7  8  1  0  0  0  0
  7 33  1  0  0  0  0
  7 34  1  0  0  0  0
  8  9  1  0  0  0  0
  9 10  2  0  0  0  0
  9 11  1  0  0  0  0
 11 12  1  0  0  0  0
 11 35  1  0  0  0  0
 12 20  1  0  0  0  0
 12 13  2  0  0  0  0
 13 14  1  0  0  0  0
 13 36  1  0  0  0  0
 14 15  2  0  0  0  0
 14 37  1  0  0  0  0
 15 16  1  0  0  0  0
 15 19  1  0  0  0  0
 16 17  1  0  0  0  0
 16 18  1  0  0  0  0
 17 38  1  0  0  0  0
 17 39  1  0  0  0  0
 17 40  1  0  0  0  0
 18 41  1  0  0  0  0
 18 42  1  0  0  0  0
 18 43  1  0  0  0  0
 19 20  2  0  0  0  0
 19 50  1  0  0  0  0
 20 44  1  0  0  0  0
 21 22  1  0  0  0  0
 21 45  1  0  0  0  0
 21 46  1  0  0  0  0
 22 47  1  0  0  0  0
 22 48  1  0  0  0  0
M  CHG  1   5   1
M  CHG  1   8  -1
M  CHG  1  19   1
M  END
> <s_m_source_file>
AV-unprocessed.smi

> <i_m_source_file_index>
308

> <i_lp_mmshare_version>
43012

> <i_f3d_flags>
0

> <s_epik_input>
W0NIM11bQ0hdMVtDSDJdW0NIMl1OKFtDSDJdW0NIMl0xKVtDSDJdW0NIMl1bTkhdQyg9TylbTkhdYzJbY0hdW2NIXWMoTihbQ0gzXSlbQ0gzXSluW2NIXTI=

> <s_epik_cmdline>
J2VwaWtfcHl0aG9uJywgJy1waCcsICc3LjAnLCAnLXRuJywgJzgnLCAnLW1hJywgJzIwMCcsICctbWV0YWxfYmluZGluZycsICctaW1hZScsICc8aW5maWxlLm1hZT4nLCAnLW9tYWUnLCAnPG91dGZpbGUubWFlPic=

> <r_lp_tautomer_probability>
0.999994

> <r_epik_Ionization_Penalty>
7.42107

> <r_epik_Ionization_Penalty_Charging>
7.42107

> <r_epik_Ionization_Penalty_Neutral>
3.68925e-06

> <r_epik_State_Penalty>
7.0982

> <r_epik_Charging_Adjusted_Penalty>
14.5193

> <i_epik_Tot_Q>
1

> <i_epik_Tot_abs_Q>
3

> <r_epik_Metal_State_Penalty>
3.28646

> <b_epik_Metal_Only>
1

> <s_lp_Force_Field>
OPLS_2005

> <r_lp_Energy>
21.4752

> <b_lp_Chiralities_Consistent>
1

> <s_lp_Variant>
AV-unprocessed.smi:308-6

> <Gold.Version>
5.8.1

> <Gold.Id.Protein>
6NUR|6NUR_protein|mol2

> <Gold.PLP.Fitness>
47.1777

> <Gold.PLP.PLP>
-40.6385

> <Gold.PLP.part.hbond>
-3.0000

> <Gold.PLP.part.metal>
0.0000

> <Gold.PLP.part.buried>
-3.4466

> <Gold.PLP.part.nonpolar>
-34.0901

> <Gold.PLP.part.repulsive>
2.0541

> <Gold.PLP.ligand.clash>
1.1314

> <Gold.PLP.ligand.torsion>
0.8634

> <Gold.PLP.Chemscore.Hbond>
3.0898

> <Gold.PLP.Chemscore.CHOScore>
0.0000

> <Gold.PLP.Chemscore.Metal>
0.0000

> <Gold.Chemscore.Hbonds>
donor molecule, donor type, donor heavy atom, donor atom, acceptor molecule, acceptor atom, score
      L1  H     5    49       P1  7948  2.00
      P1  H  7989  7998       L1    10  0.30
      P1  H  8011  8017       L1    10  0.84

> <Gold.PLP.Chemscore.Internal.Correction>
0.1280

> <Gold.Rescore>
     Score         DG    S(hbond)    S(metal)    S(lipo)     H(rot)  DE(clash)    DE(int)     intcor
     14.84     -17.54       1.88        0.00      80.52       1.42       0.48       2.22       ----

> <Gold.Chemscore.Fitness>
14.8421

> <Gold.Chemscore.DG>
-17.5354

> <Gold.Chemscore.ZeroCoef>
-5.4800

> <Gold.Chemscore.Hbond>
1.8803

> <Gold.Chemscore.Metal>
0.0000

> <Gold.Chemscore.Lipo>
80.5212

> <Gold.Chemscore.Internal_Hbond>
0.0000

> <Gold.Chemscore.DEClash>
0.4779

> <Gold.Chemscore.DEInternal>
2.2154

> <Gold.Chemscore.Rot>
1.4241

> <Gold.Chemscore.Internal.Correction>
   9.000000E+99

> <Gold.Chemscore.Hbonds>
donor molecule, donor type, donor heavy atom, donor atom, acceptor molecule, acceptor atom, score
      L1  H     5    49       P1  7948  1.00
      P1  H  7989  7998       L1    10  0.10
      P1  H  8011  8017       L1    10  0.79

> <Gold.Chemscore.Hbond.Weighted>
-6.2801

> <Gold.Chemscore.Metal.Weighted>
-0.0000

> <Gold.Chemscore.Lipo.Weighted>
-9.4210

> <Gold.Chemscore.Internal_Hbond.Weighted>
0.0000

> <Gold.Chemscore.DEClash.Weighted>
0.4779

> <Gold.Chemscore.DEInternal.Weighted>
2.2154

> <Gold.Chemscore.Rot.Weighted>
3.6456

> <Gold.Chemscore.Internal.Correction.Weighted>
   9.000000E+99

> <Gold.Protein.RotatedTorsions>
[ 6907 6896 6895 6894 ] final   20.70 input  -60.11 | X-H torsion
[ 7974 7965 7964 7962 ] final   87.06 input  175.53 | X-H torsion
[ 8008 7997 7996 7995 ] final  -50.37 input   59.86 | X-H torsion
[ 10167 10162 10161 10158 ] final   32.14 input  -65.29 | X-H torsion
[ 10718 10713 10712 10709 ] final   48.65 input   66.30 | X-H torsion
[ 10763 10752 10751 10750 ] final   43.85 input  -60.55 | X-H torsion
[ 11005 11000 10999 10996 ] final  -35.65 input  -57.11 | X-H torsion

> <Gold.Protein.ActiveResidues>
 VAL166  LYS551  ARG553  GLY616  TRP617  ASP618  TYR619  PRO620  LYS621  CYS622 
 ASP623  PHE694  ASN695  SER759  ASP760  ASP761  ALA762  ILE779  LEU786  VAL792 
 PHE793  MET794  SER795  GLU796  ALA797  LYS798  CYS799  TRP800  GLU811  SER814 

> <Gold.Protein.RotatedAtoms>
  151.9004  135.0380  160.0505 H   0  0  0  0  0  0  0  0  0  0  0  0  # atno 6907 bound_to 6896
  152.2363  133.5094  159.5252 H   0  0  0  0  0  0  0  0  0  0  0  0  # atno 6908 bound_to 6896
  150.7040  134.1066  159.4027 H   0  0  0  0  0  0  0  0  0  0  0  0  # atno 6909 bound_to 6896
  145.5640  139.2307  143.2443 H   0  0  0  0  0  0  0  0  0  0  0  0  # atno 7974 bound_to 7965
  154.4061  140.1274  156.4654 H   0  0  0  0  0  0  0  0  0  0  0  0  # atno 8008 bound_to 7997
  155.7232  140.3492  155.5005 H   0  0  0  0  0  0  0  0  0  0  0  0  # atno 8009 bound_to 7997
  155.9195  140.1050  157.1207 H   0  0  0  0  0  0  0  0  0  0  0  0  # atno 8010 bound_to 7997
  140.4525  144.1027  150.6195 H   0  0  0  0  0  0  0  0  0  0  0  0  # atno 10167 bound_to 10162
  157.4708  130.8254  149.7986 H   0  0  0  0  0  0  0  0  0  0  0  0  # atno 10718 bound_to 10713
  152.9852  135.6089  154.3178 H   0  0  0  0  0  0  0  0  0  0  0  0  # atno 10763 bound_to 10752
  154.2890  135.2775  155.2665 H   0  0  0  0  0  0  0  0  0  0  0  0  # atno 10764 bound_to 10752
  154.4969  135.5877  153.6558 H   0  0  0  0  0  0  0  0  0  0  0  0  # atno 10765 bound_to 10752
  140.9812  133.7055  156.1688 H   0  0  0  0  0  0  0  0  0  0  0  0  # atno 11005 bound_to 11000
  146.1831  140.6466  142.9180 LP  0  0  0  0  0  0  0  0  0  0  0  0  # atno 17320 bound_to 7965
  144.7469  140.5091  143.6829 LP  0  0  0  0  0  0  0  0  0  0  0  0  # atno 17321 bound_to 7965
  140.4190  143.2620  151.9739 LP  0  0  0  0  0  0  0  0  0  0  0  0  # atno 17342 bound_to 10162
  139.4798  144.5848  151.7872 LP  0  0  0  0  0  0  0  0  0  0  0  0  # atno 17343 bound_to 10162
  156.0072  130.3850  150.2388 LP  0  0  0  0  0  0  0  0  0  0  0  0  # atno 17370 bound_to 10713
  157.0570  131.0079  151.3235 LP  0  0  0  0  0  0  0  0  0  0  0  0  # atno 17371 bound_to 10713
  140.7183  134.4386  157.5577 LP  0  0  0  0  0  0  0  0  0  0  0  0  # atno 17394 bound_to 11000
  139.8951  134.8690  156.2146 LP  0  0  0  0  0  0  0  0  0  0  0  0  # atno 17395 bound_to 11000

$$$$
