AV-unprocessed.smi:614|AV-procd|sdf|3069|dock9
  -GOLD-   2262023593D 1   1.00000     0.00000
 Structure written by MMmdl.
 44 45  0  0  0  0  0  0  0  0  1 V2000
  143.8118  132.1614  149.7930 C   0  0  0  0  0  0  0  0  0  0  0  0
  144.4298  133.3386  150.3638 N   0  0  0  0  0  0  0  0  0  0  0  0
  144.0452  134.6584  150.2406 C   0  0  0  0  0  0  0  0  0  0  0  0
  144.9344  135.4126  150.9525 C   0  0  0  0  0  0  0  0  0  0  0  0
  145.8347  134.4458  151.4800 C   0  0  0  0  0  0  0  0  0  0  0  0
  146.9296  134.8436  152.2894 N   0  0  0  0  0  0  0  0  0  0  0  0
  147.2909  134.3461  153.4844 C   0  0  0  0  0  0  0  0  0  0  0  0
  146.6822  133.4675  154.0938 O   0  0  0  0  0  0  0  0  0  0  0  0
  148.4083  134.9438  153.9325 N   0  0  0  0  0  0  0  0  0  0  0  0
  149.1560  134.6955  155.1749 C   0  0  2  0  0  0  0  0  0  0  0  0
  148.1468  135.0367  156.2964 C   0  0  0  0  0  0  0  0  0  0  0  0
  150.3180  135.7294  155.2896 C   0  0  0  0  0  0  0  0  0  0  0  0
  151.2051  135.7327  154.1891 O   0  0  0  0  0  0  0  0  0  0  0  0
  149.6272  133.1991  155.2848 C   0  0  0  0  0  0  0  0  0  0  0  0
  150.7249  132.9515  156.3523 C   0  0  0  0  0  0  0  0  0  0  0  0
  151.0531  131.4560  156.4940 C   0  0  0  0  0  0  0  0  0  0  0  0
  151.4745  130.8461  155.1493 C   0  0  0  0  0  0  0  0  0  0  0  0
  150.4018  131.0850  154.0771 C   0  0  0  0  0  0  0  0  0  0  0  0
  150.0785  132.5814  153.9368 C   0  0  0  0  0  0  0  0  0  0  0  0
  145.5335  133.2031  151.1286 N   0  0  0  0  0  0  0  0  0  0  0  0
  142.9276  132.4429  149.2205 H   0  0  0  0  0  0  0  0  0  0  0  0
  143.5163  131.4772  150.5889 H   0  0  0  0  0  0  0  0  0  0  0  0
  144.5177  131.6589  149.1311 H   0  0  0  0  0  0  0  0  0  0  0  0
  143.1804  134.9478  149.6617 H   0  0  0  0  0  0  0  0  0  0  0  0
  144.9386  136.4855  151.0745 H   0  0  0  0  0  0  0  0  0  0  0  0
  147.5091  135.5778  151.9110 H   0  0  0  0  0  0  0  0  0  0  0  0
  148.8007  135.6575  153.3364 H   0  0  0  0  0  0  0  0  0  0  0  0
  148.5802  134.9284  157.2902 H   0  0  0  0  0  0  0  0  0  0  0  0
  147.2554  134.4109  156.2553 H   0  0  0  0  0  0  0  0  0  0  0  0
  147.8083  136.0708  156.2159 H   0  0  0  0  0  0  0  0  0  0  0  0
  149.9317  136.7384  155.4407 H   0  0  0  0  0  0  0  0  0  0  0  0
  150.9290  135.5092  156.1656 H   0  0  0  0  0  0  0  0  0  0  0  0
  150.8124  136.2278  153.4868 H   0  0  0  0  0  0  0  0  0  0  0  0
  148.7670  132.6134  155.6095 H   0  0  0  0  0  0  0  0  0  0  0  0
  151.6371  133.4869  156.0897 H   0  0  0  0  0  0  0  0  0  0  0  0
  150.4144  133.3304  157.3257 H   0  0  0  0  0  0  0  0  0  0  0  0
  151.8473  131.3180  157.2281 H   0  0  0  0  0  0  0  0  0  0  0  0
  150.1812  130.9260  156.8790 H   0  0  0  0  0  0  0  0  0  0  0  0
  152.4188  131.2867  154.8269 H   0  0  0  0  0  0  0  0  0  0  0  0
  151.6543  129.7769  155.2652 H   0  0  0  0  0  0  0  0  0  0  0  0
  150.7396  130.6869  153.1199 H   0  0  0  0  0  0  0  0  0  0  0  0
  149.4950  130.5373  154.3369 H   0  0  0  0  0  0  0  0  0  0  0  0
  149.3065  132.7028  153.1775 H   0  0  0  0  0  0  0  0  0  0  0  0
  150.9634  133.0943  153.5610 H   0  0  0  0  0  0  0  0  0  0  0  0
  1  2  1  0  0  0  0
  1 21  1  0  0  0  0
  1 22  1  0  0  0  0
  1 23  1  0  0  0  0
  2 20  1  0  0  0  0
  2  3  1  0  0  0  0
  3  4  2  0  0  0  0
  3 24  1  0  0  0  0
  4  5  1  0  0  0  0
  4 25  1  0  0  0  0
  5  6  1  0  0  0  0
  5 20  2  0  0  0  0
  6  7  1  0  0  0  0
  6 26  1  0  0  0  0
  7  8  2  0  0  0  0
  7  9  1  0  0  0  0
  9 10  1  0  0  0  0
  9 27  1  0  0  0  0
 10 11  1  0  0  0  0
 10 12  1  0  0  0  0
 10 14  1  0  0  0  0
 11 28  1  0  0  0  0
 11 29  1  0  0  0  0
 11 30  1  0  0  0  0
 12 13  1  0  0  0  0
 12 31  1  0  0  0  0
 12 32  1  0  0  0  0
 13 33  1  0  0  0  0
 14 19  1  0  0  0  0
 14 15  1  0  0  0  0
 14 34  1  0  0  0  0
 15 16  1  0  0  0  0
 15 35  1  0  0  0  0
 15 36  1  0  0  0  0
 16 17  1  0  0  0  0
 16 37  1  0  0  0  0
 16 38  1  0  0  0  0
 17 18  1  0  0  0  0
 17 39  1  0  0  0  0
 17 40  1  0  0  0  0
 18 19  1  0  0  0  0
 18 41  1  0  0  0  0
 18 42  1  0  0  0  0
 19 43  1  0  0  0  0
 19 44  1  0  0  0  0
M  END
> <s_m_source_file>
AV-unprocessed.smi

> <i_m_source_file_index>
614

> <i_lp_mmshare_version>
43012

> <i_f3d_flags>
0

> <s_epik_input>
W0NIM11uMVtjSF1bY0hdYyhuMSlbTkhdQyg9TylbTkhdW0NAQF0oW0NIM10pKFtDSDJdW09IXSlbQ0hdMltDSDJdW0NIMl1bQ0gyXVtDSDJdW0NIMl0y

> <s_epik_cmdline>
J2VwaWtfcHl0aG9uJywgJy1waCcsICc3LjAnLCAnLXRuJywgJzgnLCAnLW1hJywgJzIwMCcsICctbWV0YWxfYmluZGluZycsICctaW1hZScsICc8aW5maWxlLm1hZT4nLCAnLW9tYWUnLCAnPG91dGZpbGUubWFlPic=

> <r_lp_tautomer_probability>
1

> <r_epik_Ionization_Penalty>
3.66621e-05

> <r_epik_Ionization_Penalty_Charging>
0

> <r_epik_Ionization_Penalty_Neutral>
3.66621e-05

> <r_epik_State_Penalty>
-0

> <r_epik_Charging_Adjusted_Penalty>
0

> <i_epik_Tot_Q>
0

> <i_epik_Tot_abs_Q>
0

> <r_epik_Metal_State_Penalty>
-0

> <b_epik_Metal_Only>
0

> <s_lp_Force_Field>
OPLS_2005

> <r_lp_Energy>
19.716

> <b_lp_Chiralities_Consistent>
1

> <s_lp_Variant>
AV-unprocessed.smi:614-2

> <Gold.Version>
5.8.1

> <Gold.Id.Protein>
6NUR|6NUR_protein|mol2

> <Gold.PLP.Fitness>
40.2712

> <Gold.PLP.PLP>
-30.2786

> <Gold.PLP.part.hbond>
-4.0903

> <Gold.PLP.part.metal>
0.0000

> <Gold.PLP.part.buried>
-1.0974

> <Gold.PLP.part.nonpolar>
-25.3550

> <Gold.PLP.part.repulsive>
0.2141

> <Gold.PLP.ligand.clash>
0.0000

> <Gold.PLP.ligand.torsion>
1.1754

> <Gold.PLP.Chemscore.Hbond>
3.0785

> <Gold.PLP.Chemscore.CHOScore>
1.0000

> <Gold.PLP.Chemscore.Metal>
0.0000

> <Gold.Chemscore.Hbonds>
donor molecule, donor type, donor heavy atom, donor atom, acceptor molecule, acceptor atom, score
      L1  H     6    26       P1  7948  0.93
      L1  H     9    27       P1  7948  0.94
      L1  H    13    33       P1  7949  0.37
      P1  H 10752 10765       L1    13  1.00
      L1  C     3    24       P1 10186  1.00

> <Gold.PLP.Chemscore.Internal.Correction>
0.1080

> <Gold.Rescore>
     Score         DG    S(hbond)    S(metal)    S(lipo)     H(rot)  DE(clash)    DE(int)     intcor
     15.59     -16.87       2.86        0.00      61.13       2.07       0.45       0.83       ----

> <Gold.Chemscore.Fitness>
15.5912

> <Gold.Chemscore.DG>
-16.8744

> <Gold.Chemscore.ZeroCoef>
-5.4800

> <Gold.Chemscore.Hbond>
2.8573

> <Gold.Chemscore.Metal>
0.0000

> <Gold.Chemscore.Lipo>
61.1332

> <Gold.Chemscore.Internal_Hbond>
0.0000

> <Gold.Chemscore.DEClash>
0.4539

> <Gold.Chemscore.DEInternal>
0.8293

> <Gold.Chemscore.Rot>
2.0710

> <Gold.Chemscore.Internal.Correction>
   9.000000E+99

> <Gold.Chemscore.Hbonds>
donor molecule, donor type, donor heavy atom, donor atom, acceptor molecule, acceptor atom, score
      L1  H     6    26       P1  7948  0.87
      L1  H     9    27       P1  7948  0.83
      L1  H    13    33       P1  7949  0.04
      P1  H 10752 10765       L1    13  0.94

> <Gold.Chemscore.Hbond.Weighted>
-9.5435

> <Gold.Chemscore.Metal.Weighted>
-0.0000

> <Gold.Chemscore.Lipo.Weighted>
-7.1526

> <Gold.Chemscore.Internal_Hbond.Weighted>
0.0000

> <Gold.Chemscore.DEClash.Weighted>
0.4539

> <Gold.Chemscore.DEInternal.Weighted>
0.8293

> <Gold.Chemscore.Rot.Weighted>
5.3017

> <Gold.Chemscore.Internal.Correction.Weighted>
   9.000000E+99

> <Gold.Protein.RotatedTorsions>
[ 6907 6896 6895 6894 ] final  -81.44 input  -60.11 | X-H torsion
[ 7974 7965 7964 7962 ] final   10.95 input  175.53 | X-H torsion
[ 8008 7997 7996 7995 ] final   92.84 input   59.86 | X-H torsion
[ 10167 10162 10161 10158 ] final  171.60 input  -65.29 | X-H torsion
[ 10718 10713 10712 10709 ] final   96.53 input   66.30 | X-H torsion
[ 10763 10752 10751 10750 ] final  159.88 input  -60.55 | X-H torsion
[ 11005 11000 10999 10996 ] final  -85.36 input  -57.11 | X-H torsion

> <Gold.Protein.ActiveResidues>
 VAL166  LYS551  ARG553  GLY616  TRP617  ASP618  TYR619  PRO620  LYS621  CYS622 
 ASP623  PHE694  ASN695  SER759  ASP760  ASP761  ALA762  ILE779  LEU786  VAL792 
 PHE793  MET794  SER795  GLU796  ALA797  LYS798  CYS799  TRP800  GLU811  SER814 

> <Gold.Protein.RotatedAtoms>
  150.6912  134.3817  159.5036 H   0  0  0  0  0  0  0  0  0  0  0  0  # atno 6907 bound_to 6896
  152.1618  134.8903  160.0550 H   0  0  0  0  0  0  0  0  0  0  0  0  # atno 6908 bound_to 6896
  151.9962  133.3774  159.4200 H   0  0  0  0  0  0  0  0  0  0  0  0  # atno 6909 bound_to 6896
  146.2379  139.9558  142.8465 H   0  0  0  0  0  0  0  0  0  0  0  0  # atno 7974 bound_to 7965
  156.0399  140.3320  155.7232 H   0  0  0  0  0  0  0  0  0  0  0  0  # atno 8008 bound_to 7997
  155.5760  140.0632  157.2812 H   0  0  0  0  0  0  0  0  0  0  0  0  # atno 8009 bound_to 7997
  154.4388  140.1852  156.0916 H   0  0  0  0  0  0  0  0  0  0  0  0  # atno 8010 bound_to 7997
  139.5051  144.3468  151.9963 H   0  0  0  0  0  0  0  0  0  0  0  0  # atno 10167 bound_to 10162
  157.6925  131.0581  150.4505 H   0  0  0  0  0  0  0  0  0  0  0  0  # atno 10718 bound_to 10713
  154.2387  135.2775  155.2862 H   0  0  0  0  0  0  0  0  0  0  0  0  # atno 10763 bound_to 10752
  154.5563  135.5660  153.6971 H   0  0  0  0  0  0  0  0  0  0  0  0  # atno 10764 bound_to 10752
  153.0004  135.6287  154.2530 H   0  0  0  0  0  0  0  0  0  0  0  0  # atno 10765 bound_to 10752
  141.1642  133.7395  156.9003 H   0  0  0  0  0  0  0  0  0  0  0  0  # atno 11005 bound_to 11000
  145.1818  140.9771  143.4262 LP  0  0  0  0  0  0  0  0  0  0  0  0  # atno 17320 bound_to 7965
  144.9935  139.3666  143.6203 LP  0  0  0  0  0  0  0  0  0  0  0  0  # atno 17321 bound_to 7965
  140.2905  144.3759  150.6090 LP  0  0  0  0  0  0  0  0  0  0  0  0  # atno 17342 bound_to 10162
  140.5950  143.2167  151.7181 LP  0  0  0  0  0  0  0  0  0  0  0  0  # atno 17343 bound_to 10162
  156.4857  130.4084  149.6435 LP  0  0  0  0  0  0  0  0  0  0  0  0  # atno 17370 bound_to 10713
  156.3465  130.7409  151.2362 LP  0  0  0  0  0  0  0  0  0  0  0  0  # atno 17371 bound_to 10713
  140.1587  134.9180  157.2686 LP  0  0  0  0  0  0  0  0  0  0  0  0  # atno 17394 bound_to 11000
  140.2637  134.3541  155.7397 LP  0  0  0  0  0  0  0  0  0  0  0  0  # atno 17395 bound_to 11000

$$$$
