#       Name:                AV-unprocessed.smi:1209
#       Creating user name   scv26
#       Creation time:       Fri Mar 27 04:12:26 2020


#       File generated by GOLD software.
#

@<TRIPOS>MOLECULE
AV-unprocessed.smi:1209
    55    57     1
SMALL
NO_CHARGES


@<TRIPOS>ATOM
      1 ****         1.4448   3.1570  -0.4481 C.3            1 S1                 0.0000
      2 ****         0.0368   2.7841  -0.1340 C.2            1 S1                 0.0000
      3 ****        -0.9004   2.0396  -0.7923 C.2            1 S1                 0.0000
      4 ****        -2.0255   2.0697   0.0785 C.2            1 S1                 0.0000
      5 ****        -3.3578   1.3904  -0.0830 C.3            1 S1                 0.0000
      6 ****        -3.6334   0.4141   1.0084 N.4            1 S1                 1.0000
      7 ****        -5.0830   0.3086   1.2922 C.3            1 S1                 0.0000
      8 ****        -3.0143  -0.9274   0.8132 C.3            1 S1                 0.0000
      9 ****        -1.5310  -0.9788   1.2270 C.3            1 S1                 0.0000
     10 ****        -1.4225  -0.7520   2.6186 O.3            1 S1                 0.0000
     11 ****        -0.8668  -2.3230   0.8797 C.3            1 S1                 0.0000
     12 ****         0.5743  -2.2580   1.0339 N.pl3          1 S1                 0.0000
     13 ****         1.3170  -2.7425   2.0477 C.2            1 S1                 0.0000
     14 ****         2.6318  -2.5500   1.9830 N.2            1 S1                 0.0000
     15 ****         2.7563  -1.8620   0.7877 C.ar           1 S1                 0.0000
     16 ****         3.8997  -1.3521   0.1343 C.ar           1 S1                 0.0000
     17 ****         3.7874  -0.6735  -1.1005 C.ar           1 S1                 0.0000
     18 ****         5.0442  -0.1429  -1.7673 C.3            1 S1                 0.0000
     19 ****         2.5148  -0.4944  -1.7005 C.ar           1 S1                 0.0000
     20 ****         2.3678   0.2230  -3.0309 C.3            1 S1                 0.0000
     21 ****         1.3625  -0.9940  -1.0594 C.ar           1 S1                 0.0000
     22 ****         1.4879  -1.6678   0.1682 C.ar           1 S1                 0.0000
     23 ****        -1.7867   2.7901   1.1625 N.2            1 S1                 0.0000
     24 ****        -0.4715   3.2491   1.0359 O.3            1 S1                 0.0000
     25 ****         1.8836   2.4562  -1.1568 H              1 S1                 0.0000
     26 ****         2.0594   3.1507   0.4523 H              1 S1                 0.0000
     27 ****         1.4920   4.1546  -0.8848 H              1 S1                 0.0000
     28 ****        -0.7898   1.5366  -1.7414 H              1 S1                 0.0000
     29 ****        -4.1286   2.1623  -0.0876 H              1 S1                 0.0000
     30 ****        -3.4300   0.9002  -1.0547 H              1 S1                 0.0000
     31 ****        -5.6188  -0.1058   0.4371 H              1 S1                 0.0000
     32 ****        -5.5070   1.2867   1.5230 H              1 S1                 0.0000
     33 ****        -5.2647  -0.3324   2.1556 H              1 S1                 0.0000
     34 ****        -3.5523  -1.6734   1.4004 H              1 S1                 0.0000
     35 ****        -3.1323  -1.2311  -0.2279 H              1 S1                 0.0000
     36 ****        -0.9749  -0.1983   0.7172 H              1 S1                 0.0000
     37 ****        -1.8148  -1.4795   3.0774 H              1 S1                 0.0000
     38 ****        -1.2617  -3.1299   1.4990 H              1 S1                 0.0000
     39 ****        -1.0765  -2.5912  -0.1565 H              1 S1                 0.0000
     40 ****         0.8673  -3.2591   2.8831 H              1 S1                 0.0000
     41 ****         4.8689  -1.4877   0.5914 H              1 S1                 0.0000
     42 ****         5.0330   0.9470  -1.7830 H              1 S1                 0.0000
     43 ****         5.1185  -0.5045  -2.7932 H              1 S1                 0.0000
     44 ****         5.9415  -0.4618  -1.2361 H              1 S1                 0.0000
     45 ****         1.3203   0.4169  -3.2628 H              1 S1                 0.0000
     46 ****         2.7852  -0.3833  -3.8349 H              1 S1                 0.0000
     47 ****         2.8865   1.1813  -3.0165 H              1 S1                 0.0000
     48 ****         0.3874  -0.8646  -1.5046 H              1 S1                 0.0000
     49 ****        -3.2239   0.8009   1.8476 H              1 S1                 0.0000
     50 ****        -1.8990   0.0936   2.8595 LP             1 S1                 0.0000
     51 ****        -0.4583  -0.6751   2.8725 LP             1 S1                 0.0000
     52 ****         3.3432  -2.8288   2.6281 LP             1 S1                 0.0000
     53 ****        -2.4174   2.9696   1.9176 LP             1 S1                 0.0000
     54 ****        -0.4620   4.2491   1.0340 LP             1 S1                 0.0000
     55 ****         0.0783   2.9121   1.8002 LP             1 S1                 0.0000
@<TRIPOS>BOND
    1    1    2 1     
    2    1   25 1     
    3    1   26 1     
    4    1   27 1     
    5    2   24 1     
    6    2    3 2     
    7    3    4 1     
    8    3   28 1     
    9    4    5 1     
   10    4   23 2     
   11    5    6 1     
   12    5   29 1     
   13    5   30 1     
   14    6    7 1     
   15    6    8 1     
   16    6   49 1     
   17    7   31 1     
   18    7   32 1     
   19    7   33 1     
   20    8    9 1     
   21    8   34 1     
   22    8   35 1     
   23    9   10 1     
   24    9   11 1     
   25    9   36 1     
   26   10   37 1     
   27   11   12 1     
   28   11   38 1     
   29   11   39 1     
   30   12   22 1     
   31   12   13 1     
   32   13   14 2     
   33   13   40 1     
   34   14   15 1     
   35   15   22 ar    
   36   15   16 ar    
   37   16   17 ar    
   38   16   41 1     
   39   17   18 1     
   40   17   19 ar    
   41   18   42 1     
   42   18   43 1     
   43   18   44 1     
   44   19   20 1     
   45   19   21 ar    
   46   20   45 1     
   47   20   46 1     
   48   20   47 1     
   49   21   22 ar    
   50   21   48 1     
   51   23   24 1     
   52   10   50 1     
   53   10   51 1     
   54   14   52 1     
   55   23   53 1     
   56   24   54 1     
   57   24   55 1     
@<TRIPOS>SUBSTRUCTURE
      1 S1             1
@<TRIPOS>SET
LONE_PAIRS      STATIC     ATOMS    <user>   **** ""
6 50 51 52 53 54 55
DONOR_HYDROGENS      STATIC     ATOMS    <user>   **** ""
2 49 37
ATOM$BLUE        STATIC     ATOMS    COLORGROUP SYSTEM
6 50 51 52 53 54 55
ATOM$RED        STATIC     ATOMS    COLORGROUP SYSTEM
2 49 37
