AV-unprocessed.smi:1758|AV-procd|sdf|7079|dock3
  -GOLD-   22720 8303D 1   1.00000     0.00000
 Structure written by MMmdl.
 44 46  0  0  0  0  0  0  0  0  2 V2000
  143.8301  132.8340  148.3398 C   0  0  0  0  0  0  0  0  0  0  0  0
  143.5788  132.4224  149.7959 C   0  0  0  0  0  0  0  0  0  0  0  0
  144.0263  133.4368  150.7310 N   0  0  0  0  0  0  0  0  0  0  0  0
  145.2212  134.1290  150.7341 C   0  0  0  0  0  0  0  0  0  0  0  0
  145.1600  134.9718  151.8030 C   0  0  0  0  0  0  0  0  0  0  0  0
  146.1838  135.8766  152.1800 N   0  0  0  0  0  0  0  0  0  0  0  0
  146.0412  137.0273  152.8568 C   0  0  0  0  0  0  0  0  0  0  0  0
  144.9757  137.4695  153.2856 O   0  0  0  0  0  0  0  0  0  0  0  0
  147.2180  137.6498  153.0139 N   0  0  0  0  0  0  0  0  0  0  0  0
  147.4077  138.9340  153.6824 C   0  0  2  0  0  0  0  0  0  0  0  0
  146.8552  140.1095  152.8854 C   0  0  0  0  0  0  0  0  0  0  0  0
  147.5875  141.2972  153.5120 C   0  0  0  0  0  0  0  0  0  0  0  0
  148.9256  140.7934  153.8981 N   0  3  1  0  0  0  0  0  0  0  0  0
  149.4704  141.3860  155.1442 C   0  0  0  0  0  0  0  0  0  0  0  0
  150.8686  140.8188  155.4521 C   0  0  0  0  0  0  0  0  0  0  0  0
  150.9243  139.2778  155.3906 C   0  0  0  0  0  0  0  0  0  0  0  0
  149.5519  138.6533  155.0956 C   0  0  0  0  0  0  0  0  0  0  0  0
  148.8907  139.3032  153.8587 C   0  0  1  0  0  0  0  0  0  0  0  0
  143.8930  134.7392  152.4094 C   0  0  0  0  0  0  0  0  0  0  0  0
  143.2147  133.8116  151.7509 N   0  0  0  0  0  0  0  0  0  0  0  0
  143.4759  132.0652  147.6528 H   0  0  0  0  0  0  0  0  0  0  0  0
  144.8930  132.9848  148.1486 H   0  0  0  0  0  0  0  0  0  0  0  0
  143.3109  133.7619  148.0987 H   0  0  0  0  0  0  0  0  0  0  0  0
  142.5148  132.2439  149.9562 H   0  0  0  0  0  0  0  0  0  0  0  0
  144.0947  131.4881  150.0213 H   0  0  0  0  0  0  0  0  0  0  0  0
  145.9893  133.9654  149.9925 H   0  0  0  0  0  0  0  0  0  0  0  0
  147.1183  135.6303  151.8880 H   0  0  0  0  0  0  0  0  0  0  0  0
  148.0411  137.2103  152.6278 H   0  0  0  0  0  0  0  0  0  0  0  0
  146.9103  138.9303  154.6550 H   0  0  0  0  0  0  0  0  0  0  0  0
  147.1244  140.0188  151.8317 H   0  0  0  0  0  0  0  0  0  0  0  0
  145.7704  140.1980  152.9529 H   0  0  0  0  0  0  0  0  0  0  0  0
  147.6626  142.1470  152.8330 H   0  0  0  0  0  0  0  0  0  0  0  0
  147.0426  141.6259  154.3987 H   0  0  0  0  0  0  0  0  0  0  0  0
  149.5223  142.4701  155.0391 H   0  0  0  0  0  0  0  0  0  0  0  0
  148.7920  141.1835  155.9748 H   0  0  0  0  0  0  0  0  0  0  0  0
  151.5884  141.2288  154.7423 H   0  0  0  0  0  0  0  0  0  0  0  0
  151.1895  141.1629  156.4361 H   0  0  0  0  0  0  0  0  0  0  0  0
  151.6266  138.9768  154.6121 H   0  0  0  0  0  0  0  0  0  0  0  0
  151.3207  138.8778  156.3245 H   0  0  0  0  0  0  0  0  0  0  0  0
  149.6603  137.5791  154.9435 H   0  0  0  0  0  0  0  0  0  0  0  0
  148.9090  138.7696  155.9694 H   0  0  0  0  0  0  0  0  0  0  0  0
  149.4455  139.0131  152.9648 H   0  0  0  0  0  0  0  0  0  0  0  0
  143.4439  135.1950  153.2793 H   0  0  0  0  0  0  0  0  0  0  0  0
  149.5583  141.0653  153.1592 H   0  0  0  0  0  0  0  0  0  0  0  0
  1  2  1  0  0  0  0
  1 21  1  0  0  0  0
  1 22  1  0  0  0  0
  1 23  1  0  0  0  0
  2  3  1  0  0  0  0
  2 24  1  0  0  0  0
  2 25  1  0  0  0  0
  3 20  1  0  0  0  0
  3  4  1  0  0  0  0
  4  5  2  0  0  0  0
  4 26  1  0  0  0  0
  5  6  1  0  0  0  0
  5 19  1  0  0  0  0
  6  7  1  0  0  0  0
  6 27  1  0  0  0  0
  7  8  2  0  0  0  0
  7  9  1  0  0  0  0
  9 10  1  0  0  0  0
  9 28  1  0  0  0  0
 10 18  1  0  0  0  0
 10 11  1  0  0  0  0
 10 29  1  0  0  0  0
 11 12  1  0  0  0  0
 11 30  1  0  0  0  0
 11 31  1  0  0  0  0
 12 13  1  0  0  0  0
 12 32  1  0  0  0  0
 12 33  1  0  0  0  0
 13 18  1  0  0  0  0
 13 14  1  0  0  0  0
 13 44  1  0  0  0  0
 14 15  1  0  0  0  0
 14 34  1  0  0  0  0
 14 35  1  0  0  0  0
 15 16  1  0  0  0  0
 15 36  1  0  0  0  0
 15 37  1  0  0  0  0
 16 17  1  0  0  0  0
 16 38  1  0  0  0  0
 16 39  1  0  0  0  0
 17 18  1  0  0  0  0
 17 40  1  0  0  0  0
 17 41  1  0  0  0  0
 18 42  1  0  0  0  0
 19 20  2  0  0  0  0
 19 43  1  0  0  0  0
M  CHG  1  13   1
M  END
> <s_m_source_file>
AV-unprocessed.smi

> <i_m_source_file_index>
1758

> <i_lp_mmshare_version>
43012

> <i_f3d_flags>
0

> <s_epik_input>
W0NIM11bQ0gyXW4xW2NIXWMoW2NIXW4xKVtOSF1DKD1PKVtOSF1bQ0BIXShbQ0gyXVtDSDJdMilbQ0BASF0oTjIzKVtDSDJdW0NIMl1bQ0gyXVtDSDJdMw==

> <s_epik_cmdline>
J2VwaWtfcHl0aG9uJywgJy1waCcsICc3LjAnLCAnLXRuJywgJzgnLCAnLW1hJywgJzIwMCcsICctbWV0YWxfYmluZGluZycsICctaW1hZScsICc8aW5maWxlLm1hZT4nLCAnLW9tYWUnLCAnPG91dGZpbGUubWFlPic=

> <r_lp_tautomer_probability>
1

> <r_epik_Ionization_Penalty>
0.00111541

> <r_epik_Ionization_Penalty_Charging>
0.000974069

> <r_epik_Ionization_Penalty_Neutral>
0.000141346

> <r_epik_State_Penalty>
0.000633842

> <r_epik_Charging_Adjusted_Penalty>
0.00160791

> <i_epik_Tot_Q>
1

> <i_epik_Tot_abs_Q>
1

> <r_epik_Metal_State_Penalty>
-0

> <b_epik_Metal_Only>
0

> <s_lp_Force_Field>
OPLS_2005

> <r_lp_Energy>
44.0828

> <b_lp_Chiralities_Consistent>
1

> <s_lp_Variant>
AV-unprocessed.smi:1758-1

> <Gold.Version>
5.8.1

> <Gold.Id.Protein>
6NUR|6NUR_protein|mol2

> <Gold.PLP.Fitness>
43.5416

> <Gold.PLP.PLP>
-34.8703

> <Gold.PLP.part.hbond>
-2.9251

> <Gold.PLP.part.metal>
0.0000

> <Gold.PLP.part.buried>
0.1495

> <Gold.PLP.part.nonpolar>
-32.6564

> <Gold.PLP.part.repulsive>
0.6284

> <Gold.PLP.ligand.clash>
0.0000

> <Gold.PLP.ligand.torsion>
0.3900

> <Gold.PLP.Chemscore.Hbond>
2.1607

> <Gold.PLP.Chemscore.CHOScore>
0.9872

> <Gold.PLP.Chemscore.Metal>
0.0000

> <Gold.Chemscore.Hbonds>
donor molecule, donor type, donor heavy atom, donor atom, acceptor molecule, acceptor atom, score
      L1  H     6    27       P1  7948  0.91
      L1  H     9    28       P1  7948  1.00
      L1  H    13    44       P1  7957  0.23
      L1  C     4    26       P1  7921  0.98

> <Gold.PLP.Chemscore.Internal.Correction>
0.0077

> <Gold.Rescore>
     Score         DG    S(hbond)    S(metal)    S(lipo)     H(rot)  DE(clash)    DE(int)     intcor
     18.79     -19.99       2.07        0.00      90.83       1.19       0.33       0.88       ----

> <Gold.Chemscore.Fitness>
18.7861

> <Gold.Chemscore.DG>
-19.9923

> <Gold.Chemscore.ZeroCoef>
-5.4800

> <Gold.Chemscore.Hbond>
2.0742

> <Gold.Chemscore.Metal>
0.0000

> <Gold.Chemscore.Lipo>
90.8266

> <Gold.Chemscore.Internal_Hbond>
0.0000

> <Gold.Chemscore.DEClash>
0.3306

> <Gold.Chemscore.DEInternal>
0.8755

> <Gold.Chemscore.Rot>
1.1884

> <Gold.Chemscore.Internal.Correction>
   9.000000E+99

> <Gold.Chemscore.Hbonds>
donor molecule, donor type, donor heavy atom, donor atom, acceptor molecule, acceptor atom, score
      L1  H     6    27       P1  7948  0.88
      L1  H     9    28       P1  7948  0.93
      L1  H    13    44       P1  7957  0.23

> <Gold.Chemscore.Hbond.Weighted>
-6.9279

> <Gold.Chemscore.Metal.Weighted>
-0.0000

> <Gold.Chemscore.Lipo.Weighted>
-10.6267

> <Gold.Chemscore.Internal_Hbond.Weighted>
0.0000

> <Gold.Chemscore.DEClash.Weighted>
0.3306

> <Gold.Chemscore.DEInternal.Weighted>
0.8755

> <Gold.Chemscore.Rot.Weighted>
3.0423

> <Gold.Chemscore.Internal.Correction.Weighted>
   9.000000E+99

> <Gold.Protein.RotatedTorsions>
[ 6907 6896 6895 6894 ] final  -84.36 input  -60.11 | X-H torsion
[ 7974 7965 7964 7962 ] final  -18.66 input  175.53 | X-H torsion
[ 8008 7997 7996 7995 ] final  -68.31 input   59.86 | X-H torsion
[ 10167 10162 10161 10158 ] final  -40.57 input  -65.29 | X-H torsion
[ 10718 10713 10712 10709 ] final  -42.01 input   66.30 | X-H torsion
[ 10763 10752 10751 10750 ] final -164.22 input  -60.55 | X-H torsion
[ 11005 11000 10999 10996 ] final -179.18 input  -57.11 | X-H torsion

> <Gold.Protein.ActiveResidues>
 VAL166  LYS551  ARG553  GLY616  TRP617  ASP618  TYR619  PRO620  LYS621  CYS622 
 ASP623  PHE694  ASN695  SER759  ASP760  ASP761  ALA762  ILE779  LEU786  VAL792 
 PHE793  MET794  SER795  GLU796  ALA797  LYS798  CYS799  TRP800  GLU811  SER814 

> <Gold.Protein.RotatedAtoms>
  150.6877  134.3370  159.4851 H   0  0  0  0  0  0  0  0  0  0  0  0  # atno 6907 bound_to 6896
  152.1227  134.9190  160.0571 H   0  0  0  0  0  0  0  0  0  0  0  0  # atno 6908 bound_to 6896
  152.0390  133.3935  159.4366 H   0  0  0  0  0  0  0  0  0  0  0  0  # atno 6909 bound_to 6896
  146.1881  140.3953  142.8468 H   0  0  0  0  0  0  0  0  0  0  0  0  # atno 7974 bound_to 7965
  154.4859  140.0875  156.7485 H   0  0  0  0  0  0  0  0  0  0  0  0  # atno 8008 bound_to 7997
  155.4352  140.3451  155.4266 H   0  0  0  0  0  0  0  0  0  0  0  0  # atno 8009 bound_to 7997
  156.1260  140.1487  156.9123 H   0  0  0  0  0  0  0  0  0  0  0  0  # atno 8010 bound_to 7997
  140.7030  143.3146  151.2942 H   0  0  0  0  0  0  0  0  0  0  0  0  # atno 10167 bound_to 10162
  156.2642  130.4200  149.8509 H   0  0  0  0  0  0  0  0  0  0  0  0  # atno 10718 bound_to 10713
  154.7049  135.2995  154.9285 H   0  0  0  0  0  0  0  0  0  0  0  0  # atno 10763 bound_to 10752
  154.0205  135.6683  153.4776 H   0  0  0  0  0  0  0  0  0  0  0  0  # atno 10764 bound_to 10752
  153.0709  135.5061  154.8214 H   0  0  0  0  0  0  0  0  0  0  0  0  # atno 10765 bound_to 10752
  140.4215  134.6602  157.4666 H   0  0  0  0  0  0  0  0  0  0  0  0  # atno 11005 bound_to 11000
  144.8434  140.6892  143.6215 LP  0  0  0  0  0  0  0  0  0  0  0  0  # atno 17320 bound_to 7965
  145.3878  139.1623  143.4245 LP  0  0  0  0  0  0  0  0  0  0  0  0  # atno 17321 bound_to 7965
  139.6580  144.0241  152.2673 LP  0  0  0  0  0  0  0  0  0  0  0  0  # atno 17342 bound_to 10162
  139.9799  144.6435  150.7910 LP  0  0  0  0  0  0  0  0  0  0  0  0  # atno 17343 bound_to 10162
  156.6013  130.8548  151.3432 LP  0  0  0  0  0  0  0  0  0  0  0  0  # atno 17370 bound_to 10713
  157.7261  130.9625  150.1643 LP  0  0  0  0  0  0  0  0  0  0  0  0  # atno 17371 bound_to 10713
  140.0197  134.6566  155.9258 LP  0  0  0  0  0  0  0  0  0  0  0  0  # atno 17394 bound_to 11000
  141.1782  133.6543  156.4913 LP  0  0  0  0  0  0  0  0  0  0  0  0  # atno 17395 bound_to 11000

$$$$
