AV-unprocessed.smi:178|AV-procd|sdf|1448|dock10
  -GOLD-   2262019243D 1   1.00000     0.00000
 Structure written by MMmdl.
 50 52  0  0  0  0  0  0  0  0  1 V2000
  147.4651  136.5351  160.4607 C   0  0  0  0  0  0  0  0  0  0  0  0
  147.8619  137.7593  159.8633 O   0  0  0  0  0  0  0  0  0  0  0  0
  148.7916  137.6202  158.7950 C   0  0  0  0  0  0  0  0  0  0  0  0
  148.4490  136.4646  157.8274 C   0  0  0  0  0  0  0  0  0  0  0  0
  149.3651  136.3435  156.6919 N   0  0  0  0  0  0  0  0  0  0  0  0
  149.3726  137.4867  155.7819 C   0  0  0  0  0  0  0  0  0  0  0  0
  150.5356  137.4576  154.7773 C   0  0  0  0  0  0  0  0  0  0  0  0
  151.2196  138.7551  154.6774 C   0  0  0  0  0  0  0  0  0  0  0  0
  151.7583  139.7759  154.5990 N   0  0  0  0  0  0  0  0  0  0  0  0
  149.2726  135.1583  156.0479 C   0  0  0  0  0  0  0  0  0  0  0  0
  150.3279  134.3134  156.1503 N   0  0  0  0  0  0  0  0  0  0  0  0
  150.2810  133.1146  155.5617 C   0  0  0  0  0  0  0  0  0  0  0  0
  149.2951  132.5758  154.8408 N   0  0  0  0  0  0  0  0  0  0  0  0
  148.2352  133.4280  154.7324 C   0  0  0  0  0  0  0  0  0  0  0  0
  148.1435  134.7320  155.2932 C   0  0  0  0  0  0  0  0  0  0  0  0
  146.9194  135.3041  154.9689 N   0  0  0  0  0  0  0  0  0  0  0  0
  146.3181  134.3862  154.2625 C   0  0  0  0  0  0  0  0  0  0  0  0
  147.0319  133.2228  154.0808 N   0  0  0  0  0  0  0  0  0  0  0  0
  146.6004  132.0398  153.3520 C   0  0  0  0  0  0  0  0  0  0  0  0
  146.1923  132.3387  151.8853 C   0  0  2  0  0  0  0  0  0  0  0  0
  147.3137  132.9117  151.2328 O   0  0  0  0  0  0  0  0  0  0  0  0
  145.0285  133.3167  151.7571 C   0  0  0  0  0  0  0  0  0  0  0  0
  144.4117  132.9347  150.4204 C   0  0  0  0  0  0  0  0  0  0  0  0
  144.4921  131.5201  150.4357 O   0  0  0  0  0  0  0  0  0  0  0  0
  145.7249  131.1243  151.0342 C   0  0  2  0  0  0  0  0  0  0  0  0
  145.4636  129.8118  151.7896 C   0  0  0  0  0  0  0  0  0  0  0  0
  146.7325  136.7370  161.2420 H   0  0  0  0  0  0  0  0  0  0  0  0
  148.3030  136.0148  160.9234 H   0  0  0  0  0  0  0  0  0  0  0  0
  147.0008  135.8717  159.7303 H   0  0  0  0  0  0  0  0  0  0  0  0
  148.8528  138.5611  158.2462 H   0  0  0  0  0  0  0  0  0  0  0  0
  149.7823  137.4558  159.2203 H   0  0  0  0  0  0  0  0  0  0  0  0
  148.3624  135.5140  158.3525 H   0  0  0  0  0  0  0  0  0  0  0  0
  147.4585  136.6625  157.4165 H   0  0  0  0  0  0  0  0  0  0  0  0
  148.4220  137.5422  155.2500 H   0  0  0  0  0  0  0  0  0  0  0  0
  149.4444  138.3987  156.3755 H   0  0  0  0  0  0  0  0  0  0  0  0
  151.2759  136.7136  155.0718 H   0  0  0  0  0  0  0  0  0  0  0  0
  150.1884  137.1957  153.7776 H   0  0  0  0  0  0  0  0  0  0  0  0
  151.1570  132.4964  155.6909 H   0  0  0  0  0  0  0  0  0  0  0  0
  145.3260  134.5289  153.8591 H   0  0  0  0  0  0  0  0  0  0  0  0
  147.4082  131.3074  153.3817 H   0  0  0  0  0  0  0  0  0  0  0  0
  145.7666  131.6021  153.9010 H   0  0  0  0  0  0  0  0  0  0  0  0
  147.9642  132.2373  151.1099 H   0  0  0  0  0  0  0  0  0  0  0  0
  144.2966  133.1342  152.5449 H   0  0  0  0  0  0  0  0  0  0  0  0
  145.3229  134.3656  151.8129 H   0  0  0  0  0  0  0  0  0  0  0  0
  143.3825  133.2786  150.3153 H   0  0  0  0  0  0  0  0  0  0  0  0
  144.9966  133.3290  149.5880 H   0  0  0  0  0  0  0  0  0  0  0  0
  146.4376  130.9226  150.2324 H   0  0  0  0  0  0  0  0  0  0  0  0
  146.3699  129.4388  152.2669 H   0  0  0  0  0  0  0  0  0  0  0  0
  145.1143  129.0381  151.1054 H   0  0  0  0  0  0  0  0  0  0  0  0
  144.6989  129.9373  152.5566 H   0  0  0  0  0  0  0  0  0  0  0  0
  1  2  1  0  0  0  0
  1 27  1  0  0  0  0
  1 28  1  0  0  0  0
  1 29  1  0  0  0  0
  2  3  1  0  0  0  0
  3  4  1  0  0  0  0
  3 30  1  0  0  0  0
  3 31  1  0  0  0  0
  4  5  1  0  0  0  0
  4 32  1  0  0  0  0
  4 33  1  0  0  0  0
  5  6  1  0  0  0  0
  5 10  1  0  0  0  0
  6  7  1  0  0  0  0
  6 34  1  0  0  0  0
  6 35  1  0  0  0  0
  7  8  1  0  0  0  0
  7 36  1  0  0  0  0
  7 37  1  0  0  0  0
  8  9  3  0  0  0  0
 10 15  1  0  0  0  0
 10 11  2  0  0  0  0
 11 12  1  0  0  0  0
 12 13  2  0  0  0  0
 12 38  1  0  0  0  0
 13 14  1  0  0  0  0
 14 18  1  0  0  0  0
 14 15  2  0  0  0  0
 15 16  1  0  0  0  0
 16 17  2  0  0  0  0
 17 18  1  0  0  0  0
 17 39  1  0  0  0  0
 18 19  1  0  0  0  0
 19 20  1  0  0  0  0
 19 40  1  0  0  0  0
 19 41  1  0  0  0  0
 20 25  1  0  0  0  0
 20 21  1  0  0  0  0
 20 22  1  0  0  0  0
 21 42  1  0  0  0  0
 22 23  1  0  0  0  0
 22 43  1  0  0  0  0
 22 44  1  0  0  0  0
 23 24  1  0  0  0  0
 23 45  1  0  0  0  0
 23 46  1  0  0  0  0
 24 25  1  0  0  0  0
 25 26  1  0  0  0  0
 25 47  1  0  0  0  0
 26 48  1  0  0  0  0
 26 49  1  0  0  0  0
 26 50  1  0  0  0  0
M  END
> <s_m_source_file>
AV-unprocessed.smi

> <i_m_source_file_index>
178

> <i_lp_mmshare_version>
43012

> <i_f3d_flags>
0

> <s_epik_input>
W0NIM11PW0NIMl1bQ0gyXU4oW0NIMl1bQ0gyXUMjTiljKG5bY0hdbjEpYyhjMTIpbltjSF1uMltDSDJdW0NAQF0zKFtPSF0pW0NIMl1bQ0gyXU9bQ0BIXTNbQ0gzXQ==

> <s_epik_cmdline>
J2VwaWtfcHl0aG9uJywgJy1waCcsICc3LjAnLCAnLXRuJywgJzgnLCAnLW1hJywgJzIwMCcsICctbWV0YWxfYmluZGluZycsICctaW1hZScsICc8aW5maWxlLm1hZT4nLCAnLW9tYWUnLCAnPG91dGZpbGUubWFlPic=

> <r_lp_tautomer_probability>
1

> <r_epik_Ionization_Penalty>
0.000885317

> <r_epik_Ionization_Penalty_Charging>
0

> <r_epik_Ionization_Penalty_Neutral>
0.000885317

> <r_epik_State_Penalty>
0.00047273

> <r_epik_Charging_Adjusted_Penalty>
0.00047273

> <i_epik_Tot_Q>
0

> <i_epik_Tot_abs_Q>
0

> <r_epik_Metal_State_Penalty>
-0

> <b_epik_Metal_Only>
0

> <s_lp_Force_Field>
OPLS_2005

> <r_lp_Energy>
31.3349

> <b_lp_Chiralities_Consistent>
1

> <s_lp_Variant>
AV-unprocessed.smi:178-4

> <Gold.Version>
5.8.1

> <Gold.Id.Protein>
6NUR|6NUR_protein|mol2

> <Gold.PLP.Fitness>
43.3392

> <Gold.PLP.PLP>
-36.3037

> <Gold.PLP.part.hbond>
-4.1033

> <Gold.PLP.part.metal>
0.0000

> <Gold.PLP.part.buried>
-8.8396

> <Gold.PLP.part.nonpolar>
-24.4102

> <Gold.PLP.part.repulsive>
0.2969

> <Gold.PLP.ligand.clash>
0.0000

> <Gold.PLP.ligand.torsion>
0.6018

> <Gold.PLP.Chemscore.Hbond>
2.6287

> <Gold.PLP.Chemscore.CHOScore>
0.0000

> <Gold.PLP.Chemscore.Metal>
0.0000

> <Gold.Chemscore.Hbonds>
donor molecule, donor type, donor heavy atom, donor atom, acceptor molecule, acceptor atom, score
      L1  H    21    42       P1 10747  1.00
      P1  H  6931  6943       L1     2  0.02
      P1  H  6934  6947       L1     2  0.59
      P1  H  7989  7998       L1     9  1.00

> <Gold.PLP.Chemscore.Internal.Correction>
0.3531

> <Gold.Rescore>
     Score         DG    S(hbond)    S(metal)    S(lipo)     H(rot)  DE(clash)    DE(int)     intcor
     11.81     -13.40       2.88        0.00      66.16       3.69       0.01       1.58       ----

> <Gold.Chemscore.Fitness>
11.8078

> <Gold.Chemscore.DG>
-13.4000

> <Gold.Chemscore.ZeroCoef>
-5.4800

> <Gold.Chemscore.Hbond>
2.8836

> <Gold.Chemscore.Metal>
0.0000

> <Gold.Chemscore.Lipo>
66.1636

> <Gold.Chemscore.Internal_Hbond>
0.0000

> <Gold.Chemscore.DEClash>
0.0147

> <Gold.Chemscore.DEInternal>
1.5775

> <Gold.Chemscore.Rot>
3.6923

> <Gold.Chemscore.Internal.Correction>
   9.000000E+99

> <Gold.Chemscore.Hbonds>
donor molecule, donor type, donor heavy atom, donor atom, acceptor molecule, acceptor atom, score
      L1  H    21    42       P1 10747  0.99
      P1  H  6934  6947       L1     2  0.33
      P1  H  7989  7998       L1     9  0.92

> <Gold.Chemscore.Hbond.Weighted>
-9.6313

> <Gold.Chemscore.Metal.Weighted>
-0.0000

> <Gold.Chemscore.Lipo.Weighted>
-7.7411

> <Gold.Chemscore.Internal_Hbond.Weighted>
0.0000

> <Gold.Chemscore.DEClash.Weighted>
0.0147

> <Gold.Chemscore.DEInternal.Weighted>
1.5775

> <Gold.Chemscore.Rot.Weighted>
9.4524

> <Gold.Chemscore.Internal.Correction.Weighted>
   9.000000E+99

> <Gold.Protein.RotatedTorsions>
[ 6907 6896 6895 6894 ] final  -57.58 input  -60.11 | X-H torsion
[ 7974 7965 7964 7962 ] final  129.37 input  175.53 | X-H torsion
[ 8008 7997 7996 7995 ] final  115.92 input   59.86 | X-H torsion
[ 10167 10162 10161 10158 ] final  -82.28 input  -65.29 | X-H torsion
[ 10718 10713 10712 10709 ] final -137.20 input   66.30 | X-H torsion
[ 10763 10752 10751 10750 ] final  -65.55 input  -60.55 | X-H torsion
[ 11005 11000 10999 10996 ] final -172.85 input  -57.11 | X-H torsion

> <Gold.Protein.ActiveResidues>
 VAL166  LYS551  ARG553  GLY616  TRP617  ASP618  TYR619  PRO620  LYS621  CYS622 
 ASP623  PHE694  ASN695  SER759  ASP760  ASP761  ALA762  ILE779  LEU786  VAL792 
 PHE793  MET794  SER795  GLU796  ALA797  LYS798  CYS799  TRP800  GLU811  SER814 

> <Gold.Protein.RotatedAtoms>
  150.8075  134.7209  159.6656 H   0  0  0  0  0  0  0  0  0  0  0  0  # atno 6907 bound_to 6896
  152.4194  134.5979  160.0002 H   0  0  0  0  0  0  0  0  0  0  0  0  # atno 6908 bound_to 6896
  151.6198  133.3303  159.3121 H   0  0  0  0  0  0  0  0  0  0  0  0  # atno 6909 bound_to 6896
  145.0294  139.4060  143.5157 H   0  0  0  0  0  0  0  0  0  0  0  0  # atno 7974 bound_to 7965
  156.2409  140.2928  156.0443 H   0  0  0  0  0  0  0  0  0  0  0  0  # atno 8008 bound_to 7997
  155.1952  140.0408  157.2925 H   0  0  0  0  0  0  0  0  0  0  0  0  # atno 8009 bound_to 7997
  154.6167  140.2465  155.7607 H   0  0  0  0  0  0  0  0  0  0  0  0  # atno 8010 bound_to 7997
  140.4334  143.2540  151.8727 H   0  0  0  0  0  0  0  0  0  0  0  0  # atno 10167 bound_to 10162
  156.2855  130.7345  151.1355 H   0  0  0  0  0  0  0  0  0  0  0  0  # atno 10718 bound_to 10713
  154.3466  135.6145  153.5622 H   0  0  0  0  0  0  0  0  0  0  0  0  # atno 10763 bound_to 10752
  152.9801  135.5782  154.4791 H   0  0  0  0  0  0  0  0  0  0  0  0  # atno 10764 bound_to 10752
  154.4505  135.2852  155.1762 H   0  0  0  0  0  0  0  0  0  0  0  0  # atno 10765 bound_to 10752
  140.4924  134.5972  157.4959 H   0  0  0  0  0  0  0  0  0  0  0  0  # atno 11005 bound_to 11000
  146.3496  139.9835  142.8693 LP  0  0  0  0  0  0  0  0  0  0  0  0  # atno 17320 bound_to 7965
  145.1791  140.9758  143.4277 LP  0  0  0  0  0  0  0  0  0  0  0  0  # atno 17321 bound_to 7965
  139.4786  144.5309  151.8667 LP  0  0  0  0  0  0  0  0  0  0  0  0  # atno 17342 bound_to 10162
  140.4401  144.1998  150.5891 LP  0  0  0  0  0  0  0  0  0  0  0  0  # atno 17343 bound_to 10162
  157.7327  131.0597  150.5614 LP  0  0  0  0  0  0  0  0  0  0  0  0  # atno 17370 bound_to 10713
  156.5724  130.4283  149.6013 LP  0  0  0  0  0  0  0  0  0  0  0  0  # atno 17371 bound_to 10713
  139.9761  134.7213  155.9947 LP  0  0  0  0  0  0  0  0  0  0  0  0  # atno 17394 bound_to 11000
  141.1477  133.6553  156.3918 LP  0  0  0  0  0  0  0  0  0  0  0  0  # atno 17395 bound_to 11000

$$$$
