#       Name:                AV-unprocessed.smi:1936
#       Creating user name   scv26
#       Creation time:       Fri Mar 27 09:57:32 2020


#       File generated by GOLD software.
#

@<TRIPOS>MOLECULE
AV-unprocessed.smi:1936
    44    45     1
SMALL
NO_CHARGES


@<TRIPOS>ATOM
      1 ****        -1.9123  -1.9072   2.7448 C.3            1 S1                 0.0000
      2 ****        -1.4304  -0.9100   1.6831 C.3            1 S1                 0.0000
      3 ****        -1.4918  -1.5106   0.2622 C.3            1 S1                 0.0000
      4 ****        -0.8845  -0.6934  -0.7910 N.3            1 S1                 0.0000
      5 ****        -1.5949   0.5627  -1.0184 C.3            1 S1                 0.0000
      6 ****        -0.9330   1.3995  -2.1267 C.3            1 S1                 0.0000
      7 ****        -0.8501   0.6321  -3.3236 O.3            1 S1                 0.0000
      8 ****        -0.1276  -0.5826  -3.1501 C.3            1 S1                 0.0000
      9 ****        -0.7936  -1.4248  -2.0486 C.3            1 S1                 0.0000
     10 ****        -0.0604  -0.4977   1.9784 N.am           1 S1                 0.0000
     11 ****         0.3253   0.7321   2.3524 C.2            1 S1                 0.0000
     12 ****        -0.4565   1.6345   2.6506 O.2            1 S1                 0.0000
     13 ****         1.8307   0.9942   2.3460 C.3            1 S1                 0.0000
     14 ****         2.2878   1.2969   1.0000 N.pl3          1 S1                 0.0000
     15 ****         2.5756   0.4206  -0.0269 C.2            1 S1                 0.0000
     16 ****         2.9504   1.1669  -1.1069 C.2            1 S1                 0.0000
     17 ****         2.8586   2.5075  -0.6387 C.2            1 S1                 0.0000
     18 ****         2.4626   2.5822   0.6217 N.2            1 S1                 0.0000
     19 ****        -2.9371  -2.2230   2.5476 H              1 S1                 0.0000
     20 ****        -1.8909  -1.4616   3.7398 H              1 S1                 0.0000
     21 ****        -1.2868  -2.8004   2.7659 H              1 S1                 0.0000
     22 ****        -2.1003  -0.0499   1.7208 H              1 S1                 0.0000
     23 ****        -0.9814  -2.4745   0.2881 H              1 S1                 0.0000
     24 ****        -2.5289  -1.7315   0.0053 H              1 S1                 0.0000
     25 ****        -2.6321   0.3584  -1.2882 H              1 S1                 0.0000
     26 ****        -1.6195   1.1562  -0.1049 H              1 S1                 0.0000
     27 ****        -1.5150   2.3007  -2.3200 H              1 S1                 0.0000
     28 ****         0.0638   1.7218  -1.8224 H              1 S1                 0.0000
     29 ****        -0.1170  -1.1296  -4.0929 H              1 S1                 0.0000
     30 ****         0.9102  -0.3633  -2.8944 H              1 S1                 0.0000
     31 ****        -0.2224  -2.3425  -1.9036 H              1 S1                 0.0000
     32 ****        -1.7904  -1.7255  -2.3753 H              1 S1                 0.0000
     33 ****         0.6635  -1.1687   1.7666 H              1 S1                 0.0000
     34 ****         2.0708   1.8258   3.0107 H              1 S1                 0.0000
     35 ****         2.3690   0.1198   2.7145 H              1 S1                 0.0000
     36 ****         2.4841  -0.6491   0.0932 H              1 S1                 0.0000
     37 ****         3.2408   0.8102  -2.0837 H              1 S1                 0.0000
     38 ****         3.0646   3.4226  -1.1743 H              1 S1                 0.0000
     39 ****         0.0344  -0.4744  -0.4629 LP             1 S1                 0.0000
     40 ****        -0.3914   1.1798  -4.0234 LP             1 S1                 0.0000
     41 ****        -1.7772   0.4121  -3.6272 LP             1 S1                 0.0000
     42 ****        -1.4427   1.4715   2.6219 LP             1 S1                 0.0000
     43 ****        -0.1056   2.5309   2.9216 LP             1 S1                 0.0000
     44 ****         2.3237   3.4059   1.1714 LP             1 S1                 0.0000
@<TRIPOS>BOND
    1    1    2 1     
    2    1   19 1     
    3    1   20 1     
    4    1   21 1     
    5    2    3 1     
    6    2   10 1     
    7    2   22 1     
    8    3    4 1     
    9    3   23 1     
   10    3   24 1     
   11    4    9 1     
   12    4    5 1     
   13    5    6 1     
   14    5   25 1     
   15    5   26 1     
   16    6    7 1     
   17    6   27 1     
   18    6   28 1     
   19    7    8 1     
   20    8    9 1     
   21    8   29 1     
   22    8   30 1     
   23    9   31 1     
   24    9   32 1     
   25   10   11 am    
   26   10   33 1     
   27   11   12 2     
   28   11   13 1     
   29   13   14 1     
   30   13   34 1     
   31   13   35 1     
   32   14   18 1     
   33   14   15 1     
   34   15   16 2     
   35   15   36 1     
   36   16   17 1     
   37   16   37 1     
   38   17   18 2     
   39   17   38 1     
   40    4   39 1     
   41    7   40 1     
   42    7   41 1     
   43   12   42 1     
   44   12   43 1     
   45   18   44 1     
@<TRIPOS>SUBSTRUCTURE
      1 S1             1
@<TRIPOS>SET
LONE_PAIRS      STATIC     ATOMS    <user>   **** ""
6 39 40 41 42 43 44
DONOR_HYDROGENS      STATIC     ATOMS    <user>   **** ""
1 33
ATOM$BLUE        STATIC     ATOMS    COLORGROUP SYSTEM
6 39 40 41 42 43 44
ATOM$RED        STATIC     ATOMS    COLORGROUP SYSTEM
1 33
