AV-unprocessed.smi:72|AV-procd|sdf|757|dock3
  -GOLD-   2262017 93D 1   1.00000     0.00000
 Structure written by MMmdl.
 29 30  0  0  0  0  0  0  0  0  1 V2000
  154.4088  138.5438  154.0416 N   0  0  0  0  0  0  0  0  0  0  0  0
  153.0648  138.8133  154.1910 C   0  0  0  0  0  0  0  0  0  0  0  0
  152.1787  137.8131  153.7683 N   0  0  0  0  0  0  0  0  0  0  0  0
  150.9148  138.0608  153.9062 C   0  0  0  0  0  0  0  0  0  0  0  0
  150.4496  139.3163  154.4724 N   0  0  0  0  0  0  0  0  0  0  0  0
  148.9749  139.6371  154.6422 C   0  0  2  0  0  0  0  0  0  0  0  0
  148.1999  138.5291  154.2806 O   0  0  0  0  0  0  0  0  0  0  0  0
  147.5162  138.7825  153.0556 C   0  0  1  0  0  0  0  0  0  0  0  0
  146.2594  137.9028  152.9719 C   0  0  0  0  0  0  0  0  0  0  0  0
  145.4772  138.2818  151.8593 O   0  0  0  0  0  0  0  0  0  0  0  0
  147.2162  140.2764  153.1723 C   0  0  2  0  0  0  0  0  0  0  0  0
  146.8699  140.8732  151.9362 O   0  0  0  0  0  0  0  0  0  0  0  0
  148.5035  140.8300  153.7763 C   0  0  2  0  0  0  0  0  0  0  0  0
  149.4385  141.2161  152.7795 O   0  0  0  0  0  0  0  0  0  0  0  0
  151.4059  140.2877  154.8766 C   0  0  0  0  0  0  0  0  0  0  0  0
  151.0324  141.3634  155.3448 O   0  0  0  0  0  0  0  0  0  0  0  0
  152.7582  139.9684  154.7081 N   0  0  0  0  0  0  0  0  0  0  0  0
  148.8307  139.7973  155.7120 H   0  0  0  0  0  0  0  0  0  0  0  0
  148.1814  138.6065  152.2078 H   0  0  0  0  0  0  0  0  0  0  0  0
  146.3985  140.4280  153.8787 H   0  0  0  0  0  0  0  0  0  0  0  0
  148.3077  141.6908  154.4163 H   0  0  0  0  0  0  0  0  0  0  0  0
  155.1364  139.1900  154.3105 H   0  0  0  0  0  0  0  0  0  0  0  0
  154.7643  137.6811  153.6563 H   0  0  0  0  0  0  0  0  0  0  0  0
  150.1392  137.3546  153.6100 H   0  0  0  0  0  0  0  0  0  0  0  0
  146.5176  136.8450  152.9129 H   0  0  0  0  0  0  0  0  0  0  0  0
  145.6459  138.0377  153.8631 H   0  0  0  0  0  0  0  0  0  0  0  0
  145.0263  137.5177  151.5341 H   0  0  0  0  0  0  0  0  0  0  0  0
  147.4060  141.6418  151.8146 H   0  0  0  0  0  0  0  0  0  0  0  0
  150.0676  140.5189  152.6730 H   0  0  0  0  0  0  0  0  0  0  0  0
  1  2  1  0  0  0  0
  1 22  1  0  0  0  0
  1 23  1  0  0  0  0
  2 17  2  0  0  0  0
  2  3  1  0  0  0  0
  3  4  2  0  0  0  0
  4  5  1  0  0  0  0
  4 24  1  0  0  0  0
  5  6  1  0  0  0  0
  5 15  1  0  0  0  0
  6 18  1  0  0  0  0
  6 13  1  0  0  0  0
  6  7  1  0  0  0  0
  7  8  1  0  0  0  0
  8 19  1  0  0  0  0
  8  9  1  0  0  0  0
  8 11  1  0  0  0  0
  9 10  1  0  0  0  0
  9 25  1  0  0  0  0
  9 26  1  0  0  0  0
 10 27  1  0  0  0  0
 11 20  1  0  0  0  0
 11 12  1  0  0  0  0
 11 13  1  0  0  0  0
 12 28  1  0  0  0  0
 13 21  1  0  0  0  0
 13 14  1  0  0  0  0
 14 29  1  0  0  0  0
 15 16  2  0  0  0  0
 15 17  1  0  0  0  0
M  END
> <s_m_source_file>
AV-unprocessed.smi

> <i_m_source_file_index>
72

> <i_lp_mmshare_version>
43012

> <i_f3d_flags>
0

> <s_epik_input>
W05IMl1jMW5bY0hdbihjKD1PKW4xKVtDQEBIXTJPW0NASF0oW0NIMl1bT0hdKVtDQEBIXShbT0hdKVtDQEhdMltPSF0=

> <s_epik_cmdline>
J2VwaWtfcHl0aG9uJywgJy1waCcsICc3LjAnLCAnLXRuJywgJzgnLCAnLW1hJywgJzIwMCcsICctbWV0YWxfYmluZGluZycsICctaW1hZScsICc8aW5maWxlLm1hZT4nLCAnLW9tYWUnLCAnPG91dGZpbGUubWFlPic=

> <r_lp_tautomer_probability>
4.77166e-05

> <r_epik_Ionization_Penalty>
1.3546

> <r_epik_Ionization_Penalty_Charging>
1.46833e-10

> <r_epik_Ionization_Penalty_Neutral>
1.3546

> <r_epik_State_Penalty>
3.51908

> <r_epik_Charging_Adjusted_Penalty>
3.51908

> <i_epik_Tot_Q>
0

> <i_epik_Tot_abs_Q>
0

> <r_epik_Metal_State_Penalty>
3.44088

> <b_epik_Metal_Only>
1

> <s_epik_Chemistry_Notes>
This compound contains an acetal/aminal-like group ( X-CH(R)-Y where X, Y are N, S, or O) that may be acid/base labile, releasing an aldehyde.

> <s_lp_Force_Field>
OPLS_2005

> <r_lp_Energy>
34.5765

> <b_lp_Chiralities_Consistent>
1

> <s_lp_Variant>
AV-unprocessed.smi:72-95

> <Gold.Version>
5.8.1

> <Gold.Id.Protein>
6NUR|6NUR_protein|mol2

> <Gold.PLP.Fitness>
38.8902

> <Gold.PLP.PLP>
-27.4165

> <Gold.PLP.part.hbond>
-9.3562

> <Gold.PLP.part.metal>
0.0000

> <Gold.PLP.part.buried>
-1.3465

> <Gold.PLP.part.nonpolar>
-18.9806

> <Gold.PLP.part.repulsive>
1.1106

> <Gold.PLP.ligand.clash>
0.0000

> <Gold.PLP.ligand.torsion>
0.0584

> <Gold.PLP.Chemscore.Hbond>
2.8406

> <Gold.PLP.Chemscore.CHOScore>
1.0016

> <Gold.PLP.Chemscore.Metal>
0.0000

> <Gold.Chemscore.Hbonds>
donor molecule, donor type, donor heavy atom, donor atom, acceptor molecule, acceptor atom, score
      P1  H  7997  8010       L1    17  0.38
      P1  H  8011  8017       L1    14  0.47
      P1  H 10752 10763       L1     3  0.30
      L1  C     4    24       P1  7948  1.00
      L1  C     4    24       P1  7949  0.05

> <Gold.PLP.Chemscore.Internal.Correction>
0.0641

> <Gold.Rescore>
     Score         DG    S(hbond)    S(metal)    S(lipo)     H(rot)  DE(clash)    DE(int)     intcor
      3.49      -5.15       2.30        0.00      20.31       4.06       1.36       0.31       ----

> <Gold.Chemscore.Fitness>
3.4861

> <Gold.Chemscore.DG>
-5.1467

> <Gold.Chemscore.ZeroCoef>
-5.4800

> <Gold.Chemscore.Hbond>
2.3007

> <Gold.Chemscore.Metal>
0.0000

> <Gold.Chemscore.Lipo>
20.3065

> <Gold.Chemscore.Internal_Hbond>
0.0000

> <Gold.Chemscore.DEClash>
1.3553

> <Gold.Chemscore.DEInternal>
0.3053

> <Gold.Chemscore.Rot>
4.0600

> <Gold.Chemscore.Internal.Correction>
   9.000000E+99

> <Gold.Chemscore.Hbonds>
donor molecule, donor type, donor heavy atom, donor atom, acceptor molecule, acceptor atom, score
      L1  H    10    27       P1 10171  0.01
      L1  H    14    29       P1  7957  0.04
      P1  H  7997  8010       L1    17  0.10
      P1  H  8011  8017       L1    14  0.44
      P1  H 10752 10763       L1     3  0.25

> <Gold.Chemscore.Hbond.Weighted>
-7.6845

> <Gold.Chemscore.Metal.Weighted>
-0.0000

> <Gold.Chemscore.Lipo.Weighted>
-2.3759

> <Gold.Chemscore.Internal_Hbond.Weighted>
0.0000

> <Gold.Chemscore.DEClash.Weighted>
1.3553

> <Gold.Chemscore.DEInternal.Weighted>
0.3053

> <Gold.Chemscore.Rot.Weighted>
10.3936

> <Gold.Chemscore.Internal.Correction.Weighted>
   9.000000E+99

> <Gold.Protein.RotatedTorsions>
[ 6907 6896 6895 6894 ] final    9.35 input  -60.11 | X-H torsion
[ 7974 7965 7964 7962 ] final    8.07 input  175.53 | X-H torsion
[ 8008 7997 7996 7995 ] final   79.27 input   59.86 | X-H torsion
[ 10167 10162 10161 10158 ] final  -85.71 input  -65.29 | X-H torsion
[ 10718 10713 10712 10709 ] final   -2.40 input   66.30 | X-H torsion
[ 10763 10752 10751 10750 ] final   30.67 input  -60.55 | X-H torsion
[ 11005 11000 10999 10996 ] final  138.27 input  -57.11 | X-H torsion

> <Gold.Protein.ActiveResidues>
 VAL166  LYS551  ARG553  GLY616  TRP617  ASP618  TYR619  PRO620  LYS621  CYS622 
 ASP623  PHE694  ASN695  SER759  ASP760  ASP761  ALA762  ILE779  LEU786  VAL792 
 PHE793  MET794  SER795  GLU796  ALA797  LYS798  CYS799  TRP800  GLU811  SER814 

> <Gold.Protein.RotatedAtoms>
  151.7207  135.0895  160.0283 H   0  0  0  0  0  0  0  0  0  0  0  0  # atno 6907 bound_to 6896
  152.3603  133.6285  159.6019 H   0  0  0  0  0  0  0  0  0  0  0  0  # atno 6908 bound_to 6896
  150.7600  133.9350  159.3480 H   0  0  0  0  0  0  0  0  0  0  0  0  # atno 6909 bound_to 6896
  146.2420  139.9988  142.8418 H   0  0  0  0  0  0  0  0  0  0  0  0  # atno 7974 bound_to 7965
  155.8674  140.3451  155.5797 H   0  0  0  0  0  0  0  0  0  0  0  0  # atno 8008 bound_to 7997
  155.7866  140.0866  157.2051 H   0  0  0  0  0  0  0  0  0  0  0  0  # atno 8009 bound_to 7997
  154.4015  140.1491  156.3101 H   0  0  0  0  0  0  0  0  0  0  0  0  # atno 8010 bound_to 7997
  140.4011  143.2662  151.9141 H   0  0  0  0  0  0  0  0  0  0  0  0  # atno 10167 bound_to 10162
  156.7913  130.5362  149.5735 H   0  0  0  0  0  0  0  0  0  0  0  0  # atno 10718 bound_to 10713
  153.0358  135.6458  154.1081 H   0  0  0  0  0  0  0  0  0  0  0  0  # atno 10763 bound_to 10752
  154.0796  135.2874  155.3294 H   0  0  0  0  0  0  0  0  0  0  0  0  # atno 10764 bound_to 10752
  154.6539  135.5416  153.7999 H   0  0  0  0  0  0  0  0  0  0  0  0  # atno 10765 bound_to 10752
  140.0172  134.9413  157.0400 H   0  0  0  0  0  0  0  0  0  0  0  0  # atno 11005 bound_to 11000
  145.1434  140.9584  143.4475 LP  0  0  0  0  0  0  0  0  0  0  0  0  # atno 17320 bound_to 7965
  145.0273  139.3371  143.6042 LP  0  0  0  0  0  0  0  0  0  0  0  0  # atno 17321 bound_to 7965
  139.4785  144.5632  151.8206 LP  0  0  0  0  0  0  0  0  0  0  0  0  # atno 17342 bound_to 10162
  140.4738  144.1548  150.5922 LP  0  0  0  0  0  0  0  0  0  0  0  0  # atno 17343 bound_to 10162
  156.1157  130.6073  151.0117 LP  0  0  0  0  0  0  0  0  0  0  0  0  # atno 17370 bound_to 10713
  157.6599  131.0883  150.7862 LP  0  0  0  0  0  0  0  0  0  0  0  0  # atno 17371 bound_to 10713
  140.4450  134.1641  155.7177 LP  0  0  0  0  0  0  0  0  0  0  0  0  # atno 17394 bound_to 11000
  141.1750  133.8531  157.1449 LP  0  0  0  0  0  0  0  0  0  0  0  0  # atno 17395 bound_to 11000

$$$$
