AV-unprocessed.smi:562|AV-procd|sdf|2945|dock9
  -GOLD-   2262023443D 1   1.00000     0.00000
 Structure written by MMmdl.
 40 42  0  0  0  0  0  0  0  0  2 V2000
  147.6862  141.7625  153.6666 C   0  0  0  0  0  0  0  0  0  0  0  0
  149.0537  141.7776  154.0331 O   0  0  0  0  0  0  0  0  0  0  0  0
  149.2674  141.3363  155.3637 C   0  0  0  0  0  0  0  0  0  0  0  0
  150.4973  142.0449  155.9477 C   0  0  0  0  0  0  0  0  0  0  0  0
  151.2160  141.2010  156.8993 N   0  0  0  0  0  0  0  0  0  0  0  0
  151.5096  141.4664  158.1989 C   0  0  0  0  0  0  0  0  0  0  0  0
  151.1147  142.6712  158.8184 N   0  0  0  0  0  0  0  0  0  0  0  0
  149.8103  142.9085  159.0790 N   0  0  0  0  0  0  0  0  0  0  0  0
  149.7883  144.1070  159.6379 C   0  0  0  0  0  0  0  0  0  0  0  0
  148.4788  144.6922  160.0774 C   0  0  0  0  0  0  0  0  0  0  0  0
  151.0870  144.6805  159.7345 C   0  0  0  0  0  0  0  0  0  0  0  0
  151.9131  143.7375  159.1910 C   0  0  0  0  0  0  0  0  0  0  0  0
  153.3939  143.7523  158.9913 C   0  0  0  0  0  0  0  0  0  0  0  0
  152.1592  140.4933  158.8405 N   0  0  0  0  0  0  0  0  0  0  0  0
  152.2947  139.5209  157.8602 C   0  0  0  0  0  0  0  0  0  0  0  0
  151.7310  139.9191  156.6876 C   0  0  0  0  0  0  0  0  0  0  0  0
  151.6942  139.0865  155.4659 C   0  0  0  0  0  0  0  0  0  0  0  0
  151.1603  139.4938  154.4361 O   0  0  0  0  0  0  0  0  0  0  0  0
  152.3006  137.8712  155.6509 N   0  5  0  0  0  0  0  0  0  0  0  0
  152.8844  137.4264  156.8180 C   0  0  0  0  0  0  0  0  0  0  0  0
  153.4049  136.3130  156.9008 O   0  0  0  0  0  0  0  0  0  0  0  0
  152.8924  138.2326  157.9263 N   0  0  0  0  0  0  0  0  0  0  0  0
  153.5013  137.7834  159.1816 C   0  0  0  0  0  0  0  0  0  0  0  0
  147.5805  142.1055  152.6374 H   0  0  0  0  0  0  0  0  0  0  0  0
  147.1009  142.4263  154.3041 H   0  0  0  0  0  0  0  0  0  0  0  0
  147.2715  140.7558  153.7317 H   0  0  0  0  0  0  0  0  0  0  0  0
  148.3875  141.5455  155.9738 H   0  0  0  0  0  0  0  0  0  0  0  0
  149.4232  140.2566  155.3755 H   0  0  0  0  0  0  0  0  0  0  0  0
  151.1790  142.3474  155.1541 H   0  0  0  0  0  0  0  0  0  0  0  0
  150.1918  142.9716  156.4299 H   0  0  0  0  0  0  0  0  0  0  0  0
  148.6107  145.6992  160.4737 H   0  0  0  0  0  0  0  0  0  0  0  0
  148.0208  144.0856  160.8590 H   0  0  0  0  0  0  0  0  0  0  0  0
  147.7764  144.7531  159.2457 H   0  0  0  0  0  0  0  0  0  0  0  0
  151.3694  145.6416  160.1379 H   0  0  0  0  0  0  0  0  0  0  0  0
  153.8630  144.5132  159.6151 H   0  0  0  0  0  0  0  0  0  0  0  0
  153.6398  143.9689  157.9516 H   0  0  0  0  0  0  0  0  0  0  0  0
  153.8377  142.7905  159.2482 H   0  0  0  0  0  0  0  0  0  0  0  0
  154.5500  137.5252  159.0285 H   0  0  0  0  0  0  0  0  0  0  0  0
  152.9838  136.9013  159.5607 H   0  0  0  0  0  0  0  0  0  0  0  0
  153.4654  138.5428  159.9620 H   0  0  0  0  0  0  0  0  0  0  0  0
  1  2  1  0  0  0  0
  1 24  1  0  0  0  0
  1 25  1  0  0  0  0
  1 26  1  0  0  0  0
  2  3  1  0  0  0  0
  3  4  1  0  0  0  0
  3 27  1  0  0  0  0
  3 28  1  0  0  0  0
  4  5  1  0  0  0  0
  4 29  1  0  0  0  0
  4 30  1  0  0  0  0
  5 16  1  0  0  0  0
  5  6  1  0  0  0  0
  6  7  1  0  0  0  0
  6 14  2  0  0  0  0
  7 12  1  0  0  0  0
  7  8  1  0  0  0  0
  8  9  2  0  0  0  0
  9 10  1  0  0  0  0
  9 11  1  0  0  0  0
 10 31  1  0  0  0  0
 10 32  1  0  0  0  0
 10 33  1  0  0  0  0
 11 12  2  0  0  0  0
 11 34  1  0  0  0  0
 12 13  1  0  0  0  0
 13 35  1  0  0  0  0
 13 36  1  0  0  0  0
 13 37  1  0  0  0  0
 14 15  1  0  0  0  0
 15 22  1  0  0  0  0
 15 16  2  0  0  0  0
 16 17  1  0  0  0  0
 17 18  2  0  0  0  0
 17 19  1  0  0  0  0
 19 20  1  0  0  0  0
 20 21  2  0  0  0  0
 20 22  1  0  0  0  0
 22 23  1  0  0  0  0
 23 38  1  0  0  0  0
 23 39  1  0  0  0  0
 23 40  1  0  0  0  0
M  CHG  1  19  -1
M  END
> <s_m_source_file>
AV-unprocessed.smi

> <i_m_source_file_index>
562

> <i_lp_mmshare_version>
43012

> <i_f3d_flags>
0

> <s_epik_input>
W0NIM11uMWMoPU8pW25IXWMoPU8pYyhjMTIpbihbQ0gyXVtDSDJdT1tDSDNdKWMobjIpLW4zbmMoW0NIM10pW2NIXWMzW0NIM10=

> <s_epik_cmdline>
J2VwaWtfcHl0aG9uJywgJy1waCcsICc3LjAnLCAnLXRuJywgJzgnLCAnLW1hJywgJzIwMCcsICctbWV0YWxfYmluZGluZycsICctaW1hZScsICc8aW5maWxlLm1hZT4nLCAnLW9tYWUnLCAnPG91dGZpbGUubWFlPic=

> <r_lp_tautomer_probability>
1

> <r_epik_Ionization_Penalty>
3.9873

> <r_epik_Ionization_Penalty_Charging>
0.0180637

> <r_epik_Ionization_Penalty_Neutral>
3.96924

> <r_epik_State_Penalty>
3.96767

> <r_epik_Charging_Adjusted_Penalty>
3.98573

> <i_epik_Tot_Q>
-1

> <i_epik_Tot_abs_Q>
1

> <r_epik_Metal_State_Penalty>
0.612149

> <b_epik_Metal_Only>
1

> <s_lp_Force_Field>
OPLS_2005

> <r_lp_Energy>
28.5769

> <b_lp_Chiralities_Consistent>
1

> <s_lp_Variant>
AV-unprocessed.smi:562-2

> <Gold.Version>
5.8.1

> <Gold.Id.Protein>
6NUR|6NUR_protein|mol2

> <Gold.PLP.Fitness>
44.7879

> <Gold.PLP.PLP>
-40.2354

> <Gold.PLP.part.hbond>
-4.2035

> <Gold.PLP.part.metal>
0.0000

> <Gold.PLP.part.buried>
-6.3145

> <Gold.PLP.part.nonpolar>
-28.4942

> <Gold.PLP.part.repulsive>
0.4335

> <Gold.PLP.ligand.clash>
0.0000

> <Gold.PLP.ligand.torsion>
1.7682

> <Gold.PLP.Chemscore.Hbond>
2.5760

> <Gold.PLP.Chemscore.CHOScore>
0.0000

> <Gold.PLP.Chemscore.Metal>
0.0000

> <Gold.Chemscore.Hbonds>
donor molecule, donor type, donor heavy atom, donor atom, acceptor molecule, acceptor atom, score
      P1  H  7989  7998       L1    18  1.00
      P1  H  8011  8017       L1     2  0.49
      P1  H 10752 10765       L1    21  1.00

> <Gold.PLP.Chemscore.Internal.Correction>
0.3609

> <Gold.Rescore>
     Score         DG    S(hbond)    S(metal)    S(lipo)     H(rot)  DE(clash)    DE(int)     intcor
     15.01     -18.15       2.19        0.00      79.06       1.52       0.11       3.03       ----

> <Gold.Chemscore.Fitness>
15.0107

> <Gold.Chemscore.DG>
-18.1502

> <Gold.Chemscore.ZeroCoef>
-5.4800

> <Gold.Chemscore.Hbond>
2.1858

> <Gold.Chemscore.Metal>
0.0000

> <Gold.Chemscore.Lipo>
79.0633

> <Gold.Chemscore.Internal_Hbond>
0.0000

> <Gold.Chemscore.DEClash>
0.1089

> <Gold.Chemscore.DEInternal>
3.0306

> <Gold.Chemscore.Rot>
1.5159

> <Gold.Chemscore.Internal.Correction>
   9.000000E+99

> <Gold.Chemscore.Hbonds>
donor molecule, donor type, donor heavy atom, donor atom, acceptor molecule, acceptor atom, score
      P1  H  7989  7998       L1    18  1.00
      P1  H  8011  8017       L1     2  0.10
      P1  H 10752 10765       L1    21  0.93

> <Gold.Chemscore.Hbond.Weighted>
-7.3004

> <Gold.Chemscore.Metal.Weighted>
-0.0000

> <Gold.Chemscore.Lipo.Weighted>
-9.2504

> <Gold.Chemscore.Internal_Hbond.Weighted>
0.0000

> <Gold.Chemscore.DEClash.Weighted>
0.1089

> <Gold.Chemscore.DEInternal.Weighted>
3.0306

> <Gold.Chemscore.Rot.Weighted>
3.8806

> <Gold.Chemscore.Internal.Correction.Weighted>
   9.000000E+99

> <Gold.Protein.RotatedTorsions>
[ 6907 6896 6895 6894 ] final  114.26 input  -60.11 | X-H torsion
[ 7974 7965 7964 7962 ] final -137.31 input  175.53 | X-H torsion
[ 8008 7997 7996 7995 ] final  126.61 input   59.86 | X-H torsion
[ 10167 10162 10161 10158 ] final   34.38 input  -65.29 | X-H torsion
[ 10718 10713 10712 10709 ] final  168.76 input   66.30 | X-H torsion
[ 10763 10752 10751 10750 ] final  -99.66 input  -60.55 | X-H torsion
[ 11005 11000 10999 10996 ] final  110.13 input  -57.11 | X-H torsion

> <Gold.Protein.ActiveResidues>
 VAL166  LYS551  ARG553  GLY616  TRP617  ASP618  TYR619  PRO620  LYS621  CYS622 
 ASP623  PHE694  ASN695  SER759  ASP760  ASP761  ALA762  ILE779  LEU786  VAL792 
 PHE793  MET794  SER795  GLU796  ALA797  LYS798  CYS799  TRP800  GLU811  SER814 

> <Gold.Protein.RotatedAtoms>
  152.4813  133.8260  159.7078 H   0  0  0  0  0  0  0  0  0  0  0  0  # atno 6907 bound_to 6896
  150.8864  133.7292  159.2923 H   0  0  0  0  0  0  0  0  0  0  0  0  # atno 6908 bound_to 6896
  151.4779  135.1054  159.9822 H   0  0  0  0  0  0  0  0  0  0  0  0  # atno 6909 bound_to 6896
  144.8853  140.6565  143.5180 H   0  0  0  0  0  0  0  0  0  0  0  0  # atno 7974 bound_to 7965
  156.2868  140.2688  156.2138 H   0  0  0  0  0  0  0  0  0  0  0  0  # atno 8008 bound_to 7997
  155.0237  140.0386  157.2465 H   0  0  0  0  0  0  0  0  0  0  0  0  # atno 8009 bound_to 7997
  154.7414  140.2725  155.6375 H   0  0  0  0  0  0  0  0  0  0  0  0  # atno 8010 bound_to 7997
  140.4320  144.1311  150.6161 H   0  0  0  0  0  0  0  0  0  0  0  0  # atno 10167 bound_to 10162
  157.0325  131.0263  151.2740 H   0  0  0  0  0  0  0  0  0  0  0  0  # atno 10718 bound_to 10713
  154.7516  135.4964  153.9299 H   0  0  0  0  0  0  0  0  0  0  0  0  # atno 10763 bound_to 10752
  153.1150  135.6718  153.9442 H   0  0  0  0  0  0  0  0  0  0  0  0  # atno 10764 bound_to 10752
  153.9191  135.3090  155.3427 H   0  0  0  0  0  0  0  0  0  0  0  0  # atno 10765 bound_to 10752
  139.8875  134.9476  156.6232 H   0  0  0  0  0  0  0  0  0  0  0  0  # atno 11005 bound_to 11000
  145.3881  139.1622  143.4244 LP  0  0  0  0  0  0  0  0  0  0  0  0  # atno 17320 bound_to 7965
  146.3020  140.3967  142.8700 LP  0  0  0  0  0  0  0  0  0  0  0  0  # atno 17321 bound_to 7965
  140.4416  143.2524  151.9465 LP  0  0  0  0  0  0  0  0  0  0  0  0  # atno 17342 bound_to 10162
  139.4785  144.5648  151.8182 LP  0  0  0  0  0  0  0  0  0  0  0  0  # atno 17343 bound_to 10162
  157.5167  130.7972  149.7763 LP  0  0  0  0  0  0  0  0  0  0  0  0  # atno 17370 bound_to 10713
  156.0065  130.3853  150.2414 LP  0  0  0  0  0  0  0  0  0  0  0  0  # atno 17371 bound_to 10713
  140.7723  133.8728  155.8501 LP  0  0  0  0  0  0  0  0  0  0  0  0  # atno 17394 bound_to 11000
  140.9831  134.1379  157.4476 LP  0  0  0  0  0  0  0  0  0  0  0  0  # atno 17395 bound_to 11000

$$$$
