AV-unprocessed.smi:3113|AV-procd|sdf|11853|dock9
  -GOLD-   2272017233D 1   1.00000     0.00000
 Structure written by MMmdl.
 35 36  0  0  0  0  0  0  0  0  2 V2000
  153.3997  142.0742  161.1359 C   0  0  0  0  0  0  0  0  0  0  0  0
  152.5443  143.0369  161.7417 C   0  0  0  0  0  0  0  0  0  0  0  0
  152.0367  143.8904  160.8667 N   0  0  0  0  0  0  0  0  0  0  0  0
  152.5516  143.5044  159.6797 N   0  0  0  0  0  0  0  0  0  0  0  0
  152.1998  144.2306  158.4754 C   0  0  0  0  0  0  0  0  0  0  0  0
  151.7411  143.2842  157.3572 C   0  0  0  0  0  0  0  0  0  0  0  0
  150.2799  143.0856  157.3990 N   0  3  0  0  0  0  0  0  0  0  0  0
  149.8619  141.6727  157.3082 C   0  0  0  0  0  0  0  0  0  0  0  0
  150.5143  140.9806  156.1031 C   0  0  1  0  0  0  0  0  0  0  0  0
  151.7828  140.2020  156.5022 C   0  0  0  0  0  0  0  0  0  0  0  0
  152.3590  139.4564  155.2930 C   0  0  0  0  0  0  0  0  0  0  0  0
  151.2696  138.5920  154.6495 C   0  0  0  0  0  0  0  0  0  0  0  0
  150.0187  139.4361  154.3569 C   0  0  0  0  0  0  0  0  0  0  0  0
  149.5669  140.0685  155.5511 O   0  0  0  0  0  0  0  0  0  0  0  0
  153.3789  142.4089  159.8121 C   0  0  0  0  0  0  0  0  0  0  0  0
  153.9434  141.2652  161.6010 H   0  0  0  0  0  0  0  0  0  0  0  0
  152.2780  143.1391  162.7836 H   0  0  0  0  0  0  0  0  0  0  0  0
  151.4136  144.9475  158.7178 H   0  0  0  0  0  0  0  0  0  0  0  0
  153.0672  144.8085  158.1540 H   0  0  0  0  0  0  0  0  0  0  0  0
  152.0209  143.6932  156.3853 H   0  0  0  0  0  0  0  0  0  0  0  0
  152.2352  142.3166  157.4561 H   0  0  0  0  0  0  0  0  0  0  0  0
  149.9285  143.4655  158.2669 H   0  0  0  0  0  0  0  0  0  0  0  0
  150.1540  141.1643  158.2281 H   0  0  0  0  0  0  0  0  0  0  0  0
  148.7748  141.6124  157.2380 H   0  0  0  0  0  0  0  0  0  0  0  0
  150.7732  141.7341  155.3566 H   0  0  0  0  0  0  0  0  0  0  0  0
  152.5320  140.8810  156.9108 H   0  0  0  0  0  0  0  0  0  0  0  0
  151.5447  139.4876  157.2916 H   0  0  0  0  0  0  0  0  0  0  0  0
  152.7365  140.1749  154.5644 H   0  0  0  0  0  0  0  0  0  0  0  0
  153.2065  138.8398  155.5932 H   0  0  0  0  0  0  0  0  0  0  0  0
  151.6420  138.1374  153.7310 H   0  0  0  0  0  0  0  0  0  0  0  0
  151.0072  137.7727  155.3202 H   0  0  0  0  0  0  0  0  0  0  0  0
  150.2246  140.1862  153.5917 H   0  0  0  0  0  0  0  0  0  0  0  0
  149.2209  138.8010  153.9717 H   0  0  0  0  0  0  0  0  0  0  0  0
  153.8772  141.9624  158.9642 H   0  0  0  0  0  0  0  0  0  0  0  0
  149.8637  143.5939  156.6319 H   0  0  0  0  0  0  0  0  0  0  0  0
  1 15  2  0  0  0  0
  1  2  1  0  0  0  0
  1 16  1  0  0  0  0
  2  3  2  0  0  0  0
  2 17  1  0  0  0  0
  3  4  1  0  0  0  0
  4  5  1  0  0  0  0
  4 15  1  0  0  0  0
  5  6  1  0  0  0  0
  5 18  1  0  0  0  0
  5 19  1  0  0  0  0
  6  7  1  0  0  0  0
  6 20  1  0  0  0  0
  6 21  1  0  0  0  0
  7  8  1  0  0  0  0
  7 22  1  0  0  0  0
  7 35  1  0  0  0  0
  8  9  1  0  0  0  0
  8 23  1  0  0  0  0
  8 24  1  0  0  0  0
  9 14  1  0  0  0  0
  9 10  1  0  0  0  0
  9 25  1  0  0  0  0
 10 11  1  0  0  0  0
 10 26  1  0  0  0  0
 10 27  1  0  0  0  0
 11 12  1  0  0  0  0
 11 28  1  0  0  0  0
 11 29  1  0  0  0  0
 12 13  1  0  0  0  0
 12 30  1  0  0  0  0
 12 31  1  0  0  0  0
 13 14  1  0  0  0  0
 13 32  1  0  0  0  0
 13 33  1  0  0  0  0
 15 34  1  0  0  0  0
M  CHG  1   7   1
M  END
> <s_m_source_file>
AV-unprocessed.smi

> <i_m_source_file_index>
3113

> <i_lp_mmshare_version>
43012

> <i_f3d_flags>
0

> <s_epik_input>
W2NIXTFbY0hdW2NIXW5uMVtDSDJdW0NIMl1bTkhdW0NIMl1bQ0BASF0yW0NIMl1bQ0gyXVtDSDJdW0NIMl1PMg==

> <s_epik_cmdline>
J2VwaWtfcHl0aG9uJywgJy1waCcsICc3LjAnLCAnLXRuJywgJzgnLCAnLW1hJywgJzIwMCcsICctbWV0YWxfYmluZGluZycsICctaW1hZScsICc8aW5maWxlLm1hZT4nLCAnLW9tYWUnLCAnPG91dGZpbGUubWFlPic=

> <r_lp_tautomer_probability>
1

> <r_epik_Ionization_Penalty>
0.00849054

> <r_epik_Ionization_Penalty_Charging>
0.00848754

> <r_epik_Ionization_Penalty_Neutral>
3.00382e-06

> <r_epik_State_Penalty>
0.00639836

> <r_epik_Charging_Adjusted_Penalty>
0.0148859

> <i_epik_Tot_Q>
1

> <i_epik_Tot_abs_Q>
1

> <r_epik_Metal_State_Penalty>
0.00641155

> <b_epik_Metal_Only>
0

> <s_lp_Force_Field>
OPLS_2005

> <r_lp_Energy>
10.7636

> <b_lp_Chiralities_Consistent>
1

> <s_lp_Variant>
AV-unprocessed.smi:3113-2

> <Gold.Version>
5.8.1

> <Gold.Id.Protein>
6NUR|6NUR_protein|mol2

> <Gold.PLP.Fitness>
44.0777

> <Gold.PLP.PLP>
-40.3455

> <Gold.PLP.part.hbond>
-1.0000

> <Gold.PLP.part.metal>
0.0000

> <Gold.PLP.part.buried>
-4.1078

> <Gold.PLP.part.nonpolar>
-35.1200

> <Gold.PLP.part.repulsive>
0.1650

> <Gold.PLP.ligand.clash>
0.0000

> <Gold.PLP.ligand.torsion>
1.1528

> <Gold.PLP.Chemscore.Hbond>
2.0000

> <Gold.PLP.Chemscore.CHOScore>
0.0000

> <Gold.PLP.Chemscore.Metal>
0.0000

> <Gold.Chemscore.Hbonds>
donor molecule, donor type, donor heavy atom, donor atom, acceptor molecule, acceptor atom, score
      L1  H     7    35       P1  8028  2.00

> <Gold.PLP.Chemscore.Internal.Correction>
0.0378

> <Gold.Rescore>
     Score         DG    S(hbond)    S(metal)    S(lipo)     H(rot)  DE(clash)    DE(int)     intcor
     15.37     -16.55       1.00        0.00     103.38       1.70       0.19       0.99       ----

> <Gold.Chemscore.Fitness>
15.3684

> <Gold.Chemscore.DG>
-16.5510

> <Gold.Chemscore.ZeroCoef>
-5.4800

> <Gold.Chemscore.Hbond>
0.9952

> <Gold.Chemscore.Metal>
0.0000

> <Gold.Chemscore.Lipo>
103.3783

> <Gold.Chemscore.Internal_Hbond>
0.0000

> <Gold.Chemscore.DEClash>
0.1936

> <Gold.Chemscore.DEInternal>
0.9891

> <Gold.Chemscore.Rot>
1.6985

> <Gold.Chemscore.Internal.Correction>
   9.000000E+99

> <Gold.Chemscore.Hbonds>
donor molecule, donor type, donor heavy atom, donor atom, acceptor molecule, acceptor atom, score
      L1  H     7    35       P1  8028  1.00

> <Gold.Chemscore.Hbond.Weighted>
-3.3240

> <Gold.Chemscore.Metal.Weighted>
-0.0000

> <Gold.Chemscore.Lipo.Weighted>
-12.0953

> <Gold.Chemscore.Internal_Hbond.Weighted>
0.0000

> <Gold.Chemscore.DEClash.Weighted>
0.1936

> <Gold.Chemscore.DEInternal.Weighted>
0.9891

> <Gold.Chemscore.Rot.Weighted>
4.3482

> <Gold.Chemscore.Internal.Correction.Weighted>
   9.000000E+99

> <Gold.Protein.RotatedTorsions>
[ 6907 6896 6895 6894 ] final -147.89 input  -60.11 | X-H torsion
[ 7974 7965 7964 7962 ] final  -78.79 input  175.53 | X-H torsion
[ 8008 7997 7996 7995 ] final  -19.97 input   59.86 | X-H torsion
[ 10167 10162 10161 10158 ] final  -40.51 input  -65.29 | X-H torsion
[ 10718 10713 10712 10709 ] final -172.07 input   66.30 | X-H torsion
[ 10763 10752 10751 10750 ] final -136.06 input  -60.55 | X-H torsion
[ 11005 11000 10999 10996 ] final   83.31 input  -57.11 | X-H torsion

> <Gold.Protein.ActiveResidues>
 VAL166  LYS551  ARG553  GLY616  TRP617  ASP618  TYR619  PRO620  LYS621  CYS622 
 ASP623  PHE694  ASN695  SER759  ASP760  ASP761  ALA762  ILE779  LEU786  VAL792 
 PHE793  MET794  SER795  GLU796  ALA797  LYS798  CYS799  TRP800  GLU811  SER814 

> <Gold.Protein.RotatedAtoms>
  151.1621  133.4838  159.2593 H   0  0  0  0  0  0  0  0  0  0  0  0  # atno 6907 bound_to 6896
  151.1443  135.0195  159.8650 H   0  0  0  0  0  0  0  0  0  0  0  0  # atno 6908 bound_to 6896
  152.5463  134.1512  159.8572 H   0  0  0  0  0  0  0  0  0  0  0  0  # atno 6909 bound_to 6896
  145.5818  140.9447  143.1340 H   0  0  0  0  0  0  0  0  0  0  0  0  # atno 7974 bound_to 7965
  154.4801  140.2074  155.9784 H   0  0  0  0  0  0  0  0  0  0  0  0  # atno 8008 bound_to 7997
  156.1151  140.3222  155.8098 H   0  0  0  0  0  0  0  0  0  0  0  0  # atno 8009 bound_to 7997
  155.4566  140.0521  157.2986 H   0  0  0  0  0  0  0  0  0  0  0  0  # atno 8010 bound_to 7997
  140.7032  143.3149  151.2934 H   0  0  0  0  0  0  0  0  0  0  0  0  # atno 10167 bound_to 10162
  156.7501  130.9375  151.3114 H   0  0  0  0  0  0  0  0  0  0  0  0  # atno 10718 bound_to 10713
  154.8691  135.3684  154.4999 H   0  0  0  0  0  0  0  0  0  0  0  0  # atno 10763 bound_to 10752
  153.5641  135.7022  153.5539 H   0  0  0  0  0  0  0  0  0  0  0  0  # atno 10764 bound_to 10752
  153.3601  135.4048  155.1675 H   0  0  0  0  0  0  0  0  0  0  0  0  # atno 10765 bound_to 10752
  139.9035  134.8136  156.2293 H   0  0  0  0  0  0  0  0  0  0  0  0  # atno 11005 bound_to 11000
  144.7390  139.7502  143.7318 LP  0  0  0  0  0  0  0  0  0  0  0  0  # atno 17320 bound_to 7965
  146.1710  139.4861  142.9927 LP  0  0  0  0  0  0  0  0  0  0  0  0  # atno 17321 bound_to 7965
  139.6584  144.0233  152.2676 LP  0  0  0  0  0  0  0  0  0  0  0  0  # atno 17342 bound_to 10162
  139.9793  144.6440  150.7916 LP  0  0  0  0  0  0  0  0  0  0  0  0  # atno 17343 bound_to 10162
  157.6781  130.9113  150.0199 LP  0  0  0  0  0  0  0  0  0  0  0  0  # atno 17370 bound_to 10713
  156.1407  130.3642  149.9587 LP  0  0  0  0  0  0  0  0  0  0  0  0  # atno 17371 bound_to 10713
  141.0356  133.6965  156.1506 LP  0  0  0  0  0  0  0  0  0  0  0  0  # atno 17394 bound_to 11000
  140.7032  134.4541  157.5585 LP  0  0  0  0  0  0  0  0  0  0  0  0  # atno 17395 bound_to 11000

$$$$
