AV-unprocessed.smi:305|AV-procd|sdf|2281|dock5
  -GOLD-   2262022183D 1   1.00000     0.00000
 Structure written by MMmdl.
 46 48  0  0  0  0  0  0  0  0  2 V2000
  148.5124  142.7597  153.2635 C   0  0  0  0  0  0  0  0  0  0  0  0
  148.2630  141.7934  154.4235 C   0  0  0  0  0  0  0  0  0  0  0  0
  149.2923  141.9532  155.3846 O   0  0  0  0  0  0  0  0  0  0  0  0
  150.5761  141.6533  154.8639 C   0  0  0  0  0  0  0  0  0  0  0  0
  151.6370  142.0730  155.8893 C   0  0  0  0  0  0  0  0  0  0  0  0
  151.8370  141.0507  156.9109 N   0  0  0  0  0  0  0  0  0  0  0  0
  151.7174  141.1893  158.2558 C   0  0  0  0  0  0  0  0  0  0  0  0
  151.3680  142.4254  158.8398 N   0  0  0  0  0  0  0  0  0  0  0  0
  150.1065  142.8913  158.7333 N   0  0  0  0  0  0  0  0  0  0  0  0
  150.1161  144.0481  159.3731 C   0  0  0  0  0  0  0  0  0  0  0  0
  148.8470  144.8458  159.4620 C   0  0  0  0  0  0  0  0  0  0  0  0
  151.4019  144.3682  159.8984 C   0  0  0  0  0  0  0  0  0  0  0  0
  151.7961  145.5959  160.6724 C   0  0  0  0  0  0  0  0  0  0  0  0
  152.1792  143.3006  159.5377 C   0  0  0  0  0  0  0  0  0  0  0  0
  153.6254  143.0197  159.7938 C   0  0  0  0  0  0  0  0  0  0  0  0
  151.9373  140.0771  158.9595 N   0  0  0  0  0  0  0  0  0  0  0  0
  152.2384  139.1491  157.9722 C   0  0  0  0  0  0  0  0  0  0  0  0
  152.1865  139.7100  156.7336 C   0  0  0  0  0  0  0  0  0  0  0  0
  152.4605  138.9733  155.4815 C   0  0  0  0  0  0  0  0  0  0  0  0
  152.4032  139.5356  154.3898 O   0  0  0  0  0  0  0  0  0  0  0  0
  152.7692  137.6581  155.7141 N   0  5  0  0  0  0  0  0  0  0  0  0
  152.8334  137.0468  156.9483 C   0  0  0  0  0  0  0  0  0  0  0  0
  153.1213  135.8552  157.0692 O   0  0  0  0  0  0  0  0  0  0  0  0
  152.5726  137.7714  158.0821 N   0  0  0  0  0  0  0  0  0  0  0  0
  152.6365  137.1483  159.4069 C   0  0  0  0  0  0  0  0  0  0  0  0
  147.7389  142.6613  152.5016 H   0  0  0  0  0  0  0  0  0  0  0  0
  149.4750  142.5639  152.7911 H   0  0  0  0  0  0  0  0  0  0  0  0
  148.5120  143.7936  153.6094 H   0  0  0  0  0  0  0  0  0  0  0  0
  147.2910  141.9974  154.8751 H   0  0  0  0  0  0  0  0  0  0  0  0
  148.2482  140.7666  154.0550 H   0  0  0  0  0  0  0  0  0  0  0  0
  150.6540  140.5863  154.6513 H   0  0  0  0  0  0  0  0  0  0  0  0
  150.7284  142.1852  153.9239 H   0  0  0  0  0  0  0  0  0  0  0  0
  152.5839  142.2713  155.3868 H   0  0  0  0  0  0  0  0  0  0  0  0
  151.3605  143.0108  156.3702 H   0  0  0  0  0  0  0  0  0  0  0  0
  148.7823  145.3775  160.4114 H   0  0  0  0  0  0  0  0  0  0  0  0
  147.9660  144.2077  159.3831 H   0  0  0  0  0  0  0  0  0  0  0  0
  148.7958  145.5849  158.6625 H   0  0  0  0  0  0  0  0  0  0  0  0
  152.8224  145.8970  160.4622 H   0  0  0  0  0  0  0  0  0  0  0  0
  151.7210  145.4327  161.7476 H   0  0  0  0  0  0  0  0  0  0  0  0
  151.1615  146.4489  160.4319 H   0  0  0  0  0  0  0  0  0  0  0  0
  154.0320  143.6972  160.5444 H   0  0  0  0  0  0  0  0  0  0  0  0
  154.2090  143.1386  158.8809 H   0  0  0  0  0  0  0  0  0  0  0  0
  153.7668  142.0010  160.1561 H   0  0  0  0  0  0  0  0  0  0  0  0
  153.6419  136.7725  159.6025 H   0  0  0  0  0  0  0  0  0  0  0  0
  151.9404  136.3107  159.4705 H   0  0  0  0  0  0  0  0  0  0  0  0
  152.3851  137.8404  160.2102 H   0  0  0  0  0  0  0  0  0  0  0  0
  1  2  1  0  0  0  0
  1 26  1  0  0  0  0
  1 27  1  0  0  0  0
  1 28  1  0  0  0  0
  2  3  1  0  0  0  0
  2 29  1  0  0  0  0
  2 30  1  0  0  0  0
  3  4  1  0  0  0  0
  4  5  1  0  0  0  0
  4 31  1  0  0  0  0
  4 32  1  0  0  0  0
  5  6  1  0  0  0  0
  5 33  1  0  0  0  0
  5 34  1  0  0  0  0
  6 18  1  0  0  0  0
  6  7  1  0  0  0  0
  7  8  1  0  0  0  0
  7 16  2  0  0  0  0
  8 14  1  0  0  0  0
  8  9  1  0  0  0  0
  9 10  2  0  0  0  0
 10 11  1  0  0  0  0
 10 12  1  0  0  0  0
 11 35  1  0  0  0  0
 11 36  1  0  0  0  0
 11 37  1  0  0  0  0
 12 13  1  0  0  0  0
 12 14  2  0  0  0  0
 13 38  1  0  0  0  0
 13 39  1  0  0  0  0
 13 40  1  0  0  0  0
 14 15  1  0  0  0  0
 15 41  1  0  0  0  0
 15 42  1  0  0  0  0
 15 43  1  0  0  0  0
 16 17  1  0  0  0  0
 17 24  1  0  0  0  0
 17 18  2  0  0  0  0
 18 19  1  0  0  0  0
 19 20  2  0  0  0  0
 19 21  1  0  0  0  0
 21 22  1  0  0  0  0
 22 23  2  0  0  0  0
 22 24  1  0  0  0  0
 24 25  1  0  0  0  0
 25 44  1  0  0  0  0
 25 45  1  0  0  0  0
 25 46  1  0  0  0  0
M  CHG  1  21  -1
M  END
> <s_m_source_file>
AV-unprocessed.smi

> <i_m_source_file_index>
305

> <i_lp_mmshare_version>
43012

> <i_f3d_flags>
0

> <s_epik_input>
W0NIM11uMWMoPU8pW25IXWMoPU8pYyhjMTIpbihbQ0gyXVtDSDJdT1tDSDJdW0NIM10pYyhuMiktbjNuYyhbQ0gzXSljKFtDSDNdKWMzW0NIM10=

> <s_epik_cmdline>
J2VwaWtfcHl0aG9uJywgJy1waCcsICc3LjAnLCAnLXRuJywgJzgnLCAnLW1hJywgJzIwMCcsICctbWV0YWxfYmluZGluZycsICctaW1hZScsICc8aW5maWxlLm1hZT4nLCAnLW9tYWUnLCAnPG91dGZpbGUubWFlPic=

> <r_lp_tautomer_probability>
1

> <r_epik_Ionization_Penalty>
4

> <r_epik_Ionization_Penalty_Charging>
0.0169474

> <r_epik_Ionization_Penalty_Neutral>
3.98305

> <r_epik_State_Penalty>
3.98062

> <r_epik_Charging_Adjusted_Penalty>
3.99756

> <i_epik_Tot_Q>
-1

> <i_epik_Tot_abs_Q>
1

> <r_epik_Metal_State_Penalty>
0.616488

> <b_epik_Metal_Only>
1

> <s_lp_Force_Field>
OPLS_2005

> <r_lp_Energy>
29.8012

> <b_lp_Chiralities_Consistent>
1

> <s_lp_Variant>
AV-unprocessed.smi:305-2

> <Gold.Version>
5.8.1

> <Gold.Id.Protein>
6NUR|6NUR_protein|mol2

> <Gold.PLP.Fitness>
46.9027

> <Gold.PLP.PLP>
-43.3935

> <Gold.PLP.part.hbond>
-3.3182

> <Gold.PLP.part.metal>
0.0000

> <Gold.PLP.part.buried>
-6.3349

> <Gold.PLP.part.nonpolar>
-33.7070

> <Gold.PLP.part.repulsive>
0.3576

> <Gold.PLP.ligand.clash>
0.0000

> <Gold.PLP.ligand.torsion>
1.5322

> <Gold.PLP.Chemscore.Hbond>
2.0000

> <Gold.PLP.Chemscore.CHOScore>
0.0000

> <Gold.PLP.Chemscore.Metal>
0.0000

> <Gold.Chemscore.Hbonds>
donor molecule, donor type, donor heavy atom, donor atom, acceptor molecule, acceptor atom, score
      P1  H  7989  7998       L1    20  0.62
      P1  H 10752 10765       L1    23  1.00

> <Gold.PLP.Chemscore.Internal.Correction>
0.5737

> <Gold.Rescore>
     Score         DG    S(hbond)    S(metal)    S(lipo)     H(rot)  DE(clash)    DE(int)     intcor
     15.25     -18.35       1.82        0.00      93.54       1.62       0.38       2.72       ----

> <Gold.Chemscore.Fitness>
15.2451

> <Gold.Chemscore.DG>
-18.3452

> <Gold.Chemscore.ZeroCoef>
-5.4800

> <Gold.Chemscore.Hbond>
1.8170

> <Gold.Chemscore.Metal>
0.0000

> <Gold.Chemscore.Lipo>
93.5447

> <Gold.Chemscore.Internal_Hbond>
0.0000

> <Gold.Chemscore.DEClash>
0.3805

> <Gold.Chemscore.DEInternal>
2.7196

> <Gold.Chemscore.Rot>
1.6204

> <Gold.Chemscore.Internal.Correction>
   9.000000E+99

> <Gold.Chemscore.Hbonds>
donor molecule, donor type, donor heavy atom, donor atom, acceptor molecule, acceptor atom, score
      P1  H  7989  7998       L1    20  0.62
      P1  H 10752 10765       L1    23  0.50

> <Gold.Chemscore.Hbond.Weighted>
-6.0686

> <Gold.Chemscore.Metal.Weighted>
-0.0000

> <Gold.Chemscore.Lipo.Weighted>
-10.9447

> <Gold.Chemscore.Internal_Hbond.Weighted>
0.0000

> <Gold.Chemscore.DEClash.Weighted>
0.3805

> <Gold.Chemscore.DEInternal.Weighted>
2.7196

> <Gold.Chemscore.Rot.Weighted>
4.1481

> <Gold.Chemscore.Internal.Correction.Weighted>
   9.000000E+99

> <Gold.Protein.RotatedTorsions>
[ 6907 6896 6895 6894 ] final  171.20 input  -60.11 | X-H torsion
[ 7974 7965 7964 7962 ] final  -66.56 input  175.53 | X-H torsion
[ 8008 7997 7996 7995 ] final  110.98 input   59.86 | X-H torsion
[ 10167 10162 10161 10158 ] final  -81.53 input  -65.29 | X-H torsion
[ 10718 10713 10712 10709 ] final   78.93 input   66.30 | X-H torsion
[ 10763 10752 10751 10750 ] final -104.19 input  -60.55 | X-H torsion
[ 11005 11000 10999 10996 ] final  -29.80 input  -57.11 | X-H torsion

> <Gold.Protein.ActiveResidues>
 VAL166  LYS551  ARG553  GLY616  TRP617  ASP618  TYR619  PRO620  LYS621  CYS622 
 ASP623  PHE694  ASN695  SER759  ASP760  ASP761  ALA762  ILE779  LEU786  VAL792 
 PHE793  MET794  SER795  GLU796  ALA797  LYS798  CYS799  TRP800  GLU811  SER814 

> <Gold.Protein.RotatedAtoms>
  151.8040  133.3373  159.3535 H   0  0  0  0  0  0  0  0  0  0  0  0  # atno 6907 bound_to 6896
  150.7348  134.5726  159.5907 H   0  0  0  0  0  0  0  0  0  0  0  0  # atno 6908 bound_to 6896
  152.3122  134.7484  160.0385 H   0  0  0  0  0  0  0  0  0  0  0  0  # atno 6909 bound_to 6896
  145.7402  140.8957  143.0534 H   0  0  0  0  0  0  0  0  0  0  0  0  # atno 7974 bound_to 7965
  156.2092  140.3028  155.9694 H   0  0  0  0  0  0  0  0  0  0  0  0  # atno 8008 bound_to 7997
  155.2766  140.0436  157.3029 H   0  0  0  0  0  0  0  0  0  0  0  0  # atno 8009 bound_to 7997
  154.5675  140.2338  155.8250 H   0  0  0  0  0  0  0  0  0  0  0  0  # atno 8010 bound_to 7997
  140.4403  143.2517  151.8634 H   0  0  0  0  0  0  0  0  0  0  0  0  # atno 10167 bound_to 10162
  157.6761  130.9891  150.1858 H   0  0  0  0  0  0  0  0  0  0  0  0  # atno 10718 bound_to 10713
  154.7861  135.4795  153.9949 H   0  0  0  0  0  0  0  0  0  0  0  0  # atno 10763 bound_to 10752
  153.1562  135.6800  153.8816 H   0  0  0  0  0  0  0  0  0  0  0  0  # atno 10764 bound_to 10752
  153.8444  135.3175  155.3406 H   0  0  0  0  0  0  0  0  0  0  0  0  # atno 10765 bound_to 10752
  140.9328  133.7327  156.0961 H   0  0  0  0  0  0  0  0  0  0  0  0  # atno 11005 bound_to 11000
  144.6872  139.9450  143.7476 LP  0  0  0  0  0  0  0  0  0  0  0  0  # atno 17320 bound_to 7965
  146.0455  139.3461  143.0671 LP  0  0  0  0  0  0  0  0  0  0  0  0  # atno 17321 bound_to 7965
  139.4789  144.5236  151.8767 LP  0  0  0  0  0  0  0  0  0  0  0  0  # atno 17342 bound_to 10162
  140.4326  144.2096  150.5888 LP  0  0  0  0  0  0  0  0  0  0  0  0  # atno 17343 bound_to 10162
  156.2581  130.3708  149.8160 LP  0  0  0  0  0  0  0  0  0  0  0  0  # atno 17370 bound_to 10713
  156.5913  130.8507  151.3409 LP  0  0  0  0  0  0  0  0  0  0  0  0  # atno 17371 bound_to 10713
  140.7840  134.3693  157.5481 LP  0  0  0  0  0  0  0  0  0  0  0  0  # atno 17394 bound_to 11000
  139.8800  134.9099  156.3002 LP  0  0  0  0  0  0  0  0  0  0  0  0  # atno 17395 bound_to 11000

$$$$
