AV-unprocessed.smi:3003|AV-procd|sdf|11437|dock10
  -GOLD-   2272016363D 1   1.00000     0.00000
 Structure written by MMmdl.
 41 42  0  0  0  0  0  0  0  0  1 V2000
  144.6781  134.6110  151.7633 C   0  0  0  0  0  0  0  0  0  0  0  0
  145.6190  136.0197  151.1166 S   0  0  0  0  0  0  0  0  0  0  0  0
  145.6945  137.0910  152.5840 C   0  0  2  0  0  0  0  0  0  0  0  0
  144.2824  137.3205  153.1452 C   0  0  0  0  0  0  0  0  0  0  0  0
  146.3885  138.4255  152.2859 C   0  0  0  0  0  0  0  0  0  0  0  0
  146.7744  138.6840  151.1452 O   0  0  0  0  0  0  0  0  0  0  0  0
  146.5542  139.2602  153.3241 N   0  0  0  0  0  0  0  0  0  0  0  0
  147.2176  140.5572  153.2518 C   0  0  0  0  0  0  0  0  0  0  0  0
  148.0979  140.8489  154.4559 C   0  0  0  0  0  0  0  0  0  0  0  0
  147.5444  141.2423  155.6905 C   0  0  0  0  0  0  0  0  0  0  0  0
  148.4050  141.4963  156.7752 C   0  0  0  0  0  0  0  0  0  0  0  0
  149.8022  141.3569  156.5958 C   0  0  0  0  0  0  0  0  0  0  0  0
  150.6850  141.6061  157.6693 N   0  0  0  0  0  0  0  0  0  0  0  0
  150.8721  140.5021  158.6077 C   0  0  0  0  0  0  0  0  0  0  0  0
  152.0722  140.7803  159.5291 C   0  0  0  0  0  0  0  0  0  0  0  0
  151.9010  142.0349  160.1799 O   0  0  0  0  0  0  0  0  0  0  0  0
  151.8324  143.1092  159.2486 C   0  0  0  0  0  0  0  0  0  0  0  0
  150.6225  142.9138  158.3198 C   0  0  0  0  0  0  0  0  0  0  0  0
  150.3292  140.9785  155.4047 N   0  0  0  0  0  0  0  0  0  0  0  0
  149.4996  140.7354  154.3683 C   0  0  0  0  0  0  0  0  0  0  0  0
  144.4864  133.8926  150.9666 H   0  0  0  0  0  0  0  0  0  0  0  0
  143.7216  134.9420  152.1671 H   0  0  0  0  0  0  0  0  0  0  0  0
  145.2353  134.1054  152.5507 H   0  0  0  0  0  0  0  0  0  0  0  0
  146.2694  136.5569  153.3421 H   0  0  0  0  0  0  0  0  0  0  0  0
  144.3041  137.9630  154.0262 H   0  0  0  0  0  0  0  0  0  0  0  0
  143.8244  136.3762  153.4413 H   0  0  0  0  0  0  0  0  0  0  0  0
  143.6275  137.7866  152.4077 H   0  0  0  0  0  0  0  0  0  0  0  0
  146.2067  138.9722  154.2274 H   0  0  0  0  0  0  0  0  0  0  0  0
  147.7987  140.6291  152.3307 H   0  0  0  0  0  0  0  0  0  0  0  0
  146.4508  141.3299  153.1929 H   0  0  0  0  0  0  0  0  0  0  0  0
  146.4758  141.3441  155.8100 H   0  0  0  0  0  0  0  0  0  0  0  0
  147.9847  141.7783  157.7288 H   0  0  0  0  0  0  0  0  0  0  0  0
  149.9646  140.3893  159.2024 H   0  0  0  0  0  0  0  0  0  0  0  0
  151.0331  139.5555  158.0939 H   0  0  0  0  0  0  0  0  0  0  0  0
  152.1548  139.9979  160.2835 H   0  0  0  0  0  0  0  0  0  0  0  0
  153.0055  140.7760  158.9636 H   0  0  0  0  0  0  0  0  0  0  0  0
  151.7378  144.0475  159.7951 H   0  0  0  0  0  0  0  0  0  0  0  0
  152.7586  143.1672  158.6743 H   0  0  0  0  0  0  0  0  0  0  0  0
  150.6094  143.7083  157.5726 H   0  0  0  0  0  0  0  0  0  0  0  0
  149.6971  142.9881  158.8925 H   0  0  0  0  0  0  0  0  0  0  0  0
  149.9719  140.4379  153.4437 H   0  0  0  0  0  0  0  0  0  0  0  0
  1  2  1  0  0  0  0
  1 21  1  0  0  0  0
  1 22  1  0  0  0  0
  1 23  1  0  0  0  0
  2  3  1  0  0  0  0
  3  4  1  0  0  0  0
  3  5  1  0  0  0  0
  3 24  1  0  0  0  0
  4 25  1  0  0  0  0
  4 26  1  0  0  0  0
  4 27  1  0  0  0  0
  5  6  2  0  0  0  0
  5  7  1  0  0  0  0
  7  8  1  0  0  0  0
  7 28  1  0  0  0  0
  8  9  1  0  0  0  0
  8 29  1  0  0  0  0
  8 30  1  0  0  0  0
  9 20  1  0  0  0  0
  9 10  2  0  0  0  0
 10 11  1  0  0  0  0
 10 31  1  0  0  0  0
 11 12  2  0  0  0  0
 11 32  1  0  0  0  0
 12 13  1  0  0  0  0
 12 19  1  0  0  0  0
 13 18  1  0  0  0  0
 13 14  1  0  0  0  0
 14 15  1  0  0  0  0
 14 33  1  0  0  0  0
 14 34  1  0  0  0  0
 15 16  1  0  0  0  0
 15 35  1  0  0  0  0
 15 36  1  0  0  0  0
 16 17  1  0  0  0  0
 17 18  1  0  0  0  0
 17 37  1  0  0  0  0
 17 38  1  0  0  0  0
 18 39  1  0  0  0  0
 18 40  1  0  0  0  0
 19 20  2  0  0  0  0
 20 41  1  0  0  0  0
M  END
> <s_m_source_file>
AV-unprocessed.smi

> <i_m_source_file_index>
3003

> <i_lp_mmshare_version>
43012

> <i_f3d_flags>
0

> <s_epik_input>
W0NIM11TW0NASF0oW0NIM10pQyg9TylbTkhdW0NIMl1jMVtjSF1bY0hdYyhuW2NIXTEpTjJbQ0gyXVtDSDJdT1tDSDJdW0NIMl0y

> <s_epik_cmdline>
J2VwaWtfcHl0aG9uJywgJy1waCcsICc3LjAnLCAnLXRuJywgJzgnLCAnLW1hJywgJzIwMCcsICctbWV0YWxfYmluZGluZycsICctaW1hZScsICc8aW5maWxlLm1hZT4nLCAnLW9tYWUnLCAnPG91dGZpbGUubWFlPic=

> <r_lp_tautomer_probability>
1

> <r_epik_Ionization_Penalty>
0.00417642

> <r_epik_Ionization_Penalty_Charging>
0

> <r_epik_Ionization_Penalty_Neutral>
0.00417642

> <r_epik_State_Penalty>
0.00299889

> <r_epik_Charging_Adjusted_Penalty>
0.00299889

> <i_epik_Tot_Q>
0

> <i_epik_Tot_abs_Q>
0

> <r_epik_Metal_State_Penalty>
-0

> <b_epik_Metal_Only>
0

> <s_lp_Force_Field>
OPLS_2005

> <r_lp_Energy>
16.2796

> <b_lp_Chiralities_Consistent>
1

> <s_lp_Variant>
AV-unprocessed.smi:3003-1

> <Gold.Version>
5.8.1

> <Gold.Id.Protein>
6NUR|6NUR_protein|mol2

> <Gold.PLP.Fitness>
38.9509

> <Gold.PLP.PLP>
-34.0463

> <Gold.PLP.part.hbond>
-2.5027

> <Gold.PLP.part.metal>
0.0000

> <Gold.PLP.part.buried>
-4.5540

> <Gold.PLP.part.nonpolar>
-28.9937

> <Gold.PLP.part.repulsive>
0.9187

> <Gold.PLP.ligand.clash>
0.0000

> <Gold.PLP.ligand.torsion>
0.7250

> <Gold.PLP.Chemscore.Hbond>
0.9920

> <Gold.PLP.Chemscore.CHOScore>
1.0000

> <Gold.PLP.Chemscore.Metal>
0.0000

> <Gold.Chemscore.Hbonds>
donor molecule, donor type, donor heavy atom, donor atom, acceptor molecule, acceptor atom, score
      P1  H  7954  7966       L1     6  0.98
      L1  C    20    41       P1  7957  1.00

> <Gold.PLP.Chemscore.Internal.Correction>
0.3786

> <Gold.Rescore>
     Score         DG    S(hbond)    S(metal)    S(lipo)     H(rot)  DE(clash)    DE(int)     intcor
     12.20     -13.33       0.99        0.00      75.45       1.67       0.25       0.89       ----

> <Gold.Chemscore.Fitness>
12.2004

> <Gold.Chemscore.DG>
-13.3329

> <Gold.Chemscore.ZeroCoef>
-5.4800

> <Gold.Chemscore.Hbond>
0.9868

> <Gold.Chemscore.Metal>
0.0000

> <Gold.Chemscore.Lipo>
75.4492

> <Gold.Chemscore.Internal_Hbond>
0.0000

> <Gold.Chemscore.DEClash>
0.2466

> <Gold.Chemscore.DEInternal>
0.8859

> <Gold.Chemscore.Rot>
1.6682

> <Gold.Chemscore.Internal.Correction>
   9.000000E+99

> <Gold.Chemscore.Hbonds>
donor molecule, donor type, donor heavy atom, donor atom, acceptor molecule, acceptor atom, score
      P1  H  7954  7966       L1     6  0.87

> <Gold.Chemscore.Hbond.Weighted>
-3.2960

> <Gold.Chemscore.Metal.Weighted>
-0.0000

> <Gold.Chemscore.Lipo.Weighted>
-8.8276

> <Gold.Chemscore.Internal_Hbond.Weighted>
0.0000

> <Gold.Chemscore.DEClash.Weighted>
0.2466

> <Gold.Chemscore.DEInternal.Weighted>
0.8859

> <Gold.Chemscore.Rot.Weighted>
4.2707

> <Gold.Chemscore.Internal.Correction.Weighted>
   9.000000E+99

> <Gold.Protein.RotatedTorsions>
[ 6907 6896 6895 6894 ] final   67.28 input  -60.11 | X-H torsion
[ 7974 7965 7964 7962 ] final   -5.62 input  175.53 | X-H torsion
[ 8008 7997 7996 7995 ] final  -70.79 input   59.86 | X-H torsion
[ 10167 10162 10161 10158 ] final   65.38 input  -65.29 | X-H torsion
[ 10718 10713 10712 10709 ] final  -56.06 input   66.30 | X-H torsion
[ 10763 10752 10751 10750 ] final    2.25 input  -60.55 | X-H torsion
[ 11005 11000 10999 10996 ] final -173.92 input  -57.11 | X-H torsion

> <Gold.Protein.ActiveResidues>
 VAL166  LYS551  ARG553  GLY616  TRP617  ASP618  TYR619  PRO620  LYS621  CYS622 
 ASP623  PHE694  ASN695  SER759  ASP760  ASP761  ALA762  ILE779  LEU786  VAL792 
 PHE793  MET794  SER795  GLU796  ALA797  LYS798  CYS799  TRP800  GLU811  SER814 

> <Gold.Protein.RotatedAtoms>
  152.4540  134.5331  159.9816 H   0  0  0  0  0  0  0  0  0  0  0  0  # atno 6907 bound_to 6896
  151.5396  133.3429  159.2941 H   0  0  0  0  0  0  0  0  0  0  0  0  # atno 6908 bound_to 6896
  150.8479  134.7824  159.7048 H   0  0  0  0  0  0  0  0  0  0  0  0  # atno 6909 bound_to 6896
  146.2349  140.2047  142.8334 H   0  0  0  0  0  0  0  0  0  0  0  0  # atno 7974 bound_to 7965
  154.5038  140.0828  156.7853 H   0  0  0  0  0  0  0  0  0  0  0  0  # atno 8008 bound_to 7997
  155.3940  140.3434  155.4235 H   0  0  0  0  0  0  0  0  0  0  0  0  # atno 8009 bound_to 7997
  156.1490  140.1552  156.8787 H   0  0  0  0  0  0  0  0  0  0  0  0  # atno 8010 bound_to 7997
  140.1119  144.4810  150.6973 H   0  0  0  0  0  0  0  0  0  0  0  0  # atno 10167 bound_to 10162
  156.1319  130.4159  150.0254 H   0  0  0  0  0  0  0  0  0  0  0  0  # atno 10718 bound_to 10713
  153.2980  135.6953  153.7230 H   0  0  0  0  0  0  0  0  0  0  0  0  # atno 10763 bound_to 10752
  153.6155  135.3436  155.2994 H   0  0  0  0  0  0  0  0  0  0  0  0  # atno 10764 bound_to 10752
  154.8543  135.4374  154.2082 H   0  0  0  0  0  0  0  0  0  0  0  0  # atno 10765 bound_to 10752
  140.4803  134.6081  157.4917 H   0  0  0  0  0  0  0  0  0  0  0  0  # atno 11005 bound_to 11000
  144.9754  140.8408  143.5430 LP  0  0  0  0  0  0  0  0  0  0  0  0  # atno 17320 bound_to 7965
  145.2034  139.2240  143.5181 LP  0  0  0  0  0  0  0  0  0  0  0  0  # atno 17321 bound_to 7965
  140.6921  143.2382  151.5103 LP  0  0  0  0  0  0  0  0  0  0  0  0  # atno 17342 bound_to 10162
  139.5614  144.2146  152.1698 LP  0  0  0  0  0  0  0  0  0  0  0  0  # atno 17343 bound_to 10162
  156.8164  130.9343  151.3642 LP  0  0  0  0  0  0  0  0  0  0  0  0  # atno 17370 bound_to 10713
  157.6496  130.8873  149.9606 LP  0  0  0  0  0  0  0  0  0  0  0  0  # atno 17371 bound_to 10713
  139.9830  134.7106  155.9824 LP  0  0  0  0  0  0  0  0  0  0  0  0  # atno 17394 bound_to 11000
  141.1534  133.6545  156.4085 LP  0  0  0  0  0  0  0  0  0  0  0  0  # atno 17395 bound_to 11000

$$$$
