AV-unprocessed.smi:1047|AV-procd|sdf|4591|dock7
  -GOLD-   22720 3 73D 1   1.00000     0.00000
 Structure written by MMmdl.
 57 59  0  0  0  0  0  0  0  0  3 V2000
  145.9454  132.8438  161.7264 C   0  0  0  0  0  0  0  0  0  0  0  0
  147.4774  132.8431  161.8314 C   0  0  0  0  0  0  0  0  0  0  0  0
  148.0932  134.1683  161.8788 N   0  0  0  0  0  0  0  0  0  0  0  0
  147.5873  134.9394  163.0090 C   0  0  0  0  0  0  0  0  0  0  0  0
  148.2176  136.3406  163.0765 C   0  0  0  0  0  0  0  0  0  0  0  0
  147.9911  137.0228  161.8473 O   0  0  0  0  0  0  0  0  0  0  0  0
  148.5223  136.3305  160.7198 C   0  0  2  0  0  0  0  0  0  0  0  0
  148.2257  137.1606  159.4637 C   0  0  0  0  0  0  0  0  0  0  0  0
  148.9897  136.6618  158.3034 N   0  3  0  0  0  0  0  0  0  0  0  0
  149.5439  137.7273  157.4439 C   0  0  0  0  0  0  0  0  0  0  0  0
  150.6622  138.5016  158.1615 C   0  0  1  0  0  0  0  0  0  0  0  0
  151.4734  137.5832  158.8687 O   0  0  0  0  0  0  0  0  0  0  0  0
  151.5304  139.3085  157.1754 C   0  0  0  0  0  0  0  0  0  0  0  0
  151.1493  140.7272  157.1098 N   0  0  0  0  0  0  0  0  0  0  0  0
  150.4057  141.3816  156.1764 C   0  0  0  0  0  0  0  0  0  0  0  0
  150.3281  142.6875  156.5530 N   0  3  0  0  0  0  0  0  0  0  0  0
  151.0327  142.8718  157.7441 C   0  0  0  0  0  0  0  0  0  0  0  0
  151.2383  144.0126  158.5104 C   0  0  0  0  0  0  0  0  0  0  0  0
  152.0105  143.8701  159.6851 C   0  0  0  0  0  0  0  0  0  0  0  0
  152.2538  145.0978  160.5465 C   0  0  0  0  0  0  0  0  0  0  0  0
  152.5486  142.6108  160.0560 C   0  0  0  0  0  0  0  0  0  0  0  0
  153.3777  142.4696  161.3214 C   0  0  0  0  0  0  0  0  0  0  0  0
  152.3276  141.4617  159.2631 C   0  0  0  0  0  0  0  0  0  0  0  0
  151.5644  141.6187  158.1079 C   0  0  0  0  0  0  0  0  0  0  0  0
  147.8791  134.9305  160.6511 C   0  0  0  0  0  0  0  0  0  0  0  0
  145.5716  131.8295  161.5863 H   0  0  0  0  0  0  0  0  0  0  0  0
  145.6097  133.4394  160.8770 H   0  0  0  0  0  0  0  0  0  0  0  0
  145.4740  133.2396  162.6256 H   0  0  0  0  0  0  0  0  0  0  0  0
  147.7828  132.2600  162.7013 H   0  0  0  0  0  0  0  0  0  0  0  0
  147.8631  132.3080  160.9625 H   0  0  0  0  0  0  0  0  0  0  0  0
  146.5028  135.0363  162.9355 H   0  0  0  0  0  0  0  0  0  0  0  0
  147.7901  134.4086  163.9399 H   0  0  0  0  0  0  0  0  0  0  0  0
  147.7776  136.9164  163.8907 H   0  0  0  0  0  0  0  0  0  0  0  0
  149.2888  136.2744  163.2730 H   0  0  0  0  0  0  0  0  0  0  0  0
  149.6027  136.2245  160.8361 H   0  0  0  0  0  0  0  0  0  0  0  0
  147.1619  137.1062  159.2286 H   0  0  0  0  0  0  0  0  0  0  0  0
  148.4639  138.2106  159.6398 H   0  0  0  0  0  0  0  0  0  0  0  0
  149.7519  136.0934  158.6447 H   0  0  0  0  0  0  0  0  0  0  0  0
  149.9122  137.2991  156.5103 H   0  0  0  0  0  0  0  0  0  0  0  0
  148.7341  138.4102  157.1833 H   0  0  0  0  0  0  0  0  0  0  0  0
  150.2188  139.1895  158.8831 H   0  0  0  0  0  0  0  0  0  0  0  0
  151.6296  137.9213  159.7373 H   0  0  0  0  0  0  0  0  0  0  0  0
  152.5901  139.2269  157.4182 H   0  0  0  0  0  0  0  0  0  0  0  0
  151.4184  138.9041  156.1686 H   0  0  0  0  0  0  0  0  0  0  0  0
  149.9571  140.9448  155.2958 H   0  0  0  0  0  0  0  0  0  0  0  0
  150.8253  144.9683  158.2219 H   0  0  0  0  0  0  0  0  0  0  0  0
  153.3197  145.3201  160.6028 H   0  0  0  0  0  0  0  0  0  0  0  0
  151.8784  144.9379  161.5576 H   0  0  0  0  0  0  0  0  0  0  0  0
  151.7510  145.9761  160.1407 H   0  0  0  0  0  0  0  0  0  0  0  0
  153.7379  141.4489  161.4521 H   0  0  0  0  0  0  0  0  0  0  0  0
  152.7839  142.7281  162.1985 H   0  0  0  0  0  0  0  0  0  0  0  0
  154.2472  143.1265  161.2852 H   0  0  0  0  0  0  0  0  0  0  0  0
  152.7368  140.5053  159.5511 H   0  0  0  0  0  0  0  0  0  0  0  0
  148.3002  134.3956  159.8000 H   0  0  0  0  0  0  0  0  0  0  0  0
  146.8091  135.0288  160.4602 H   0  0  0  0  0  0  0  0  0  0  0  0
  148.3834  136.0805  157.7419 H   0  0  0  0  0  0  0  0  0  0  0  0
  149.8301  143.3993  156.0337 H   0  0  0  0  0  0  0  0  0  0  0  0
  1  2  1  0  0  0  0
  1 26  1  0  0  0  0
  1 27  1  0  0  0  0
  1 28  1  0  0  0  0
  2  3  1  0  0  0  0
  2 29  1  0  0  0  0
  2 30  1  0  0  0  0
  3 25  1  0  0  0  0
  3  4  1  0  0  0  0
  4  5  1  0  0  0  0
  4 31  1  0  0  0  0
  4 32  1  0  0  0  0
  5  6  1  0  0  0  0
  5 33  1  0  0  0  0
  5 34  1  0  0  0  0
  6  7  1  0  0  0  0
  7  8  1  0  0  0  0
  7 25  1  0  0  0  0
  7 35  1  0  0  0  0
  8  9  1  0  0  0  0
  8 36  1  0  0  0  0
  8 37  1  0  0  0  0
  9 10  1  0  0  0  0
  9 38  1  0  0  0  0
  9 56  1  0  0  0  0
 10 11  1  0  0  0  0
 10 39  1  0  0  0  0
 10 40  1  0  0  0  0
 11 12  1  0  0  0  0
 11 13  1  0  0  0  0
 11 41  1  0  0  0  0
 12 42  1  0  0  0  0
 13 14  1  0  0  0  0
 13 43  1  0  0  0  0
 13 44  1  0  0  0  0
 14 24  1  0  0  0  0
 14 15  1  0  0  0  0
 15 16  2  0  0  0  0
 15 45  1  0  0  0  0
 16 17  1  0  0  0  0
 16 57  1  0  0  0  0
 17 24  2  0  0  0  0
 17 18  1  0  0  0  0
 18 19  2  0  0  0  0
 18 46  1  0  0  0  0
 19 20  1  0  0  0  0
 19 21  1  0  0  0  0
 20 47  1  0  0  0  0
 20 48  1  0  0  0  0
 20 49  1  0  0  0  0
 21 22  1  0  0  0  0
 21 23  2  0  0  0  0
 22 50  1  0  0  0  0
 22 51  1  0  0  0  0
 22 52  1  0  0  0  0
 23 24  1  0  0  0  0
 23 53  1  0  0  0  0
 25 54  1  0  0  0  0
 25 55  1  0  0  0  0
M  CHG  1   9   1
M  CHG  1  16   1
M  END
> <s_m_source_file>
AV-unprocessed.smi

> <i_m_source_file_index>
1047

> <i_lp_mmshare_version>
43012

> <i_f3d_flags>
0

> <s_epik_input>
W0NIM11bQ0gyXU4xW0NIMl1bQ0gyXU9bQ0BIXShbQ0gyXTEpW0NIMl1bTkhdW0NIMl1bQ0BIXShbT0hdKVtDSDJdbihbY0hdbjIpYyhjMjMpW2NIXWMoW0NIM10pYyhbY0hdMylbQ0gzXQ==

> <s_epik_cmdline>
J2VwaWtfcHl0aG9uJywgJy1waCcsICc3LjAnLCAnLXRuJywgJzgnLCAnLW1hJywgJzIwMCcsICctbWV0YWxfYmluZGluZycsICctaW1hZScsICc8aW5maWxlLm1hZT4nLCAnLW9tYWUnLCAnPG91dGZpbGUubWFlPic=

> <r_epik_Ionization_Penalty>
1.75732

> <r_epik_Ionization_Penalty_Charging>
1.18089

> <r_epik_Ionization_Penalty_Neutral>
0.576429

> <r_epik_State_Penalty>
1.69377

> <r_epik_Charging_Adjusted_Penalty>
2.87466

> <i_epik_Tot_Q>
2

> <i_epik_Tot_abs_Q>
2

> <r_epik_Metal_State_Penalty>
5.70174

> <b_epik_Metal_Only>
0

> <s_lp_Force_Field>
OPLS_2005

> <r_lp_Energy>
38.6305

> <b_lp_Chiralities_Consistent>
1

> <s_lp_Variant>
AV-unprocessed.smi:1047-32

> <Gold.Version>
5.8.1

> <Gold.Id.Protein>
6NUR|6NUR_protein|mol2

> <Gold.PLP.Fitness>
62.4270

> <Gold.PLP.PLP>
-55.1250

> <Gold.PLP.part.hbond>
-3.0000

> <Gold.PLP.part.metal>
0.0000

> <Gold.PLP.part.buried>
-7.9613

> <Gold.PLP.part.nonpolar>
-44.9609

> <Gold.PLP.part.repulsive>
0.1769

> <Gold.PLP.ligand.clash>
0.0000

> <Gold.PLP.ligand.torsion>
1.3536

> <Gold.PLP.Chemscore.Hbond>
3.2960

> <Gold.PLP.Chemscore.CHOScore>
0.0000

> <Gold.PLP.Chemscore.Metal>
0.0000

> <Gold.Chemscore.Hbonds>
donor molecule, donor type, donor heavy atom, donor atom, acceptor molecule, acceptor atom, score
      L1  H    16    57       P1  8028  2.00
      P1  H  6931  6943       L1     6  1.00
      P1  H  6934  6947       L1     6  0.15

> <Gold.PLP.Chemscore.Internal.Correction>
0.1212

> <Gold.Rescore>
     Score         DG    S(hbond)    S(metal)    S(lipo)     H(rot)  DE(clash)    DE(int)     intcor
     19.86     -21.35       1.81        0.00     142.81       2.69       0.10       1.40       ----

> <Gold.Chemscore.Fitness>
19.8551

> <Gold.Chemscore.DG>
-21.3523

> <Gold.Chemscore.ZeroCoef>
-5.4800

> <Gold.Chemscore.Hbond>
1.8127

> <Gold.Chemscore.Metal>
0.0000

> <Gold.Chemscore.Lipo>
142.8068

> <Gold.Chemscore.Internal_Hbond>
0.0000

> <Gold.Chemscore.DEClash>
0.1013

> <Gold.Chemscore.DEInternal>
1.3959

> <Gold.Chemscore.Rot>
2.6917

> <Gold.Chemscore.Internal.Correction>
   9.000000E+99

> <Gold.Chemscore.Hbonds>
donor molecule, donor type, donor heavy atom, donor atom, acceptor molecule, acceptor atom, score
      L1  H    16    57       P1  8028  1.00
      P1  H  6931  6943       L1     6  0.10
      P1  H  6934  6947       L1     6  0.07

> <Gold.Chemscore.Hbond.Weighted>
-6.0545

> <Gold.Chemscore.Metal.Weighted>
-0.0000

> <Gold.Chemscore.Lipo.Weighted>
-16.7084

> <Gold.Chemscore.Internal_Hbond.Weighted>
0.0000

> <Gold.Chemscore.DEClash.Weighted>
0.1013

> <Gold.Chemscore.DEInternal.Weighted>
1.3959

> <Gold.Chemscore.Rot.Weighted>
6.8907

> <Gold.Chemscore.Internal.Correction.Weighted>
   9.000000E+99

> <Gold.Protein.RotatedTorsions>
[ 6907 6896 6895 6894 ] final    2.94 input  -60.11 | X-H torsion
[ 7974 7965 7964 7962 ] final   77.78 input  175.53 | X-H torsion
[ 8008 7997 7996 7995 ] final -146.93 input   59.86 | X-H torsion
[ 10167 10162 10161 10158 ] final  125.90 input  -65.29 | X-H torsion
[ 10718 10713 10712 10709 ] final   44.23 input   66.30 | X-H torsion
[ 10763 10752 10751 10750 ] final  -35.36 input  -60.55 | X-H torsion
[ 11005 11000 10999 10996 ] final -128.52 input  -57.11 | X-H torsion

> <Gold.Protein.ActiveResidues>
 VAL166  LYS551  ARG553  GLY616  TRP617  ASP618  TYR619  PRO620  LYS621  CYS622 
 ASP623  PHE694  ASN695  SER759  ASP760  ASP761  ALA762  ILE779  LEU786  VAL792 
 PHE793  MET794  SER795  GLU796  ALA797  LYS798  CYS799  TRP800  GLU811  SER814 

> <Gold.Protein.RotatedAtoms>
  151.6170  135.1035  160.0093 H   0  0  0  0  0  0  0  0  0  0  0  0  # atno 6907 bound_to 6896
  152.4178  133.7062  159.6463 H   0  0  0  0  0  0  0  0  0  0  0  0  # atno 6908 bound_to 6896
  150.8066  133.8425  159.3224 H   0  0  0  0  0  0  0  0  0  0  0  0  # atno 6909 bound_to 6896
  145.6856  139.2537  143.1789 H   0  0  0  0  0  0  0  0  0  0  0  0  # atno 7974 bound_to 7965
  155.5673  140.0631  157.2815 H   0  0  0  0  0  0  0  0  0  0  0  0  # atno 8008 bound_to 7997
  154.4372  140.1875  156.0889 H   0  0  0  0  0  0  0  0  0  0  0  0  # atno 8009 bound_to 7997
  156.0403  140.3296  155.7240 H   0  0  0  0  0  0  0  0  0  0  0  0  # atno 8010 bound_to 7997
  139.5660  144.6911  151.3908 H   0  0  0  0  0  0  0  0  0  0  0  0  # atno 10167 bound_to 10162
  157.4245  130.7989  149.7546 H   0  0  0  0  0  0  0  0  0  0  0  0  # atno 10718 bound_to 10713
  153.8619  135.6839  153.4782 H   0  0  0  0  0  0  0  0  0  0  0  0  # atno 10763 bound_to 10752
  153.1337  135.4687  154.9387 H   0  0  0  0  0  0  0  0  0  0  0  0  # atno 10764 bound_to 10752
  154.7755  135.3252  154.8051 H   0  0  0  0  0  0  0  0  0  0  0  0  # atno 10765 bound_to 10752
  140.9509  134.1066  157.4062 H   0  0  0  0  0  0  0  0  0  0  0  0  # atno 11005 bound_to 11000
  146.0926  140.7637  142.9587 LP  0  0  0  0  0  0  0  0  0  0  0  0  # atno 17320 bound_to 7965
  144.7012  140.3662  143.7154 LP  0  0  0  0  0  0  0  0  0  0  0  0  # atno 17321 bound_to 7965
  140.6944  143.7785  150.7303 LP  0  0  0  0  0  0  0  0  0  0  0  0  # atno 17342 bound_to 10162
  140.1277  143.4554  152.2274 LP  0  0  0  0  0  0  0  0  0  0  0  0  # atno 17343 bound_to 10162
  155.9892  130.3953  150.3084 LP  0  0  0  0  0  0  0  0  0  0  0  0  # atno 17370 bound_to 10713
  157.1236  131.0253  151.2999 LP  0  0  0  0  0  0  0  0  0  0  0  0  # atno 17371 bound_to 10713
  139.8847  135.0065  156.6388 LP  0  0  0  0  0  0  0  0  0  0  0  0  # atno 17394 bound_to 11000
  140.7603  133.8823  155.8413 LP  0  0  0  0  0  0  0  0  0  0  0  0  # atno 17395 bound_to 11000

$$$$
