AV-unprocessed.smi:1794|AV-procd|sdf|7232|dock3
  -GOLD-   22720 8473D 1   1.00000     0.00000
 Structure written by MMmdl.
 54 56  0  0  0  0  0  0  0  0  1 V2000
  148.1863  133.0261  152.9102 C   0  0  0  0  0  0  0  0  0  0  0  0
  146.7086  133.1739  153.3550 C   0  0  0  0  0  0  0  0  0  0  0  0
  146.3005  131.8457  154.0370 C   0  0  0  0  0  0  0  0  0  0  0  0
  146.6931  134.2789  154.4508 C   0  0  0  0  0  0  0  0  0  0  0  0
  147.5340  135.4213  154.0953 N   0  0  0  0  0  0  0  0  0  0  0  0
  147.3001  136.7011  154.4153 C   0  0  0  0  0  0  0  0  0  0  0  0
  146.3099  137.0795  155.0404 O   0  0  0  0  0  0  0  0  0  0  0  0
  148.2803  137.4954  153.9538 N   0  0  0  0  0  0  0  0  0  0  0  0
  148.3812  138.9152  154.0102 C   0  0  0  0  0  0  0  0  0  0  0  0
  147.2787  139.7798  153.8017 C   0  0  0  0  0  0  0  0  0  0  0  0
  147.4723  141.1704  153.8897 C   0  0  0  0  0  0  0  0  0  0  0  0
  148.7592  141.6492  154.1935 C   0  0  0  0  0  0  0  0  0  0  0  0
  149.8155  140.8398  154.4115 N   0  0  0  0  0  0  0  0  0  0  0  0
  149.6349  139.4991  154.3265 C   0  0  0  0  0  0  0  0  0  0  0  0
  150.7480  138.6741  154.5678 N   0  0  0  0  0  0  0  0  0  0  0  0
  152.0354  139.3438  154.6404 C   0  0  0  0  0  0  0  0  0  0  0  0
  152.9884  138.3105  155.2440 C   0  0  0  0  0  0  0  0  0  0  0  0
  152.0819  137.3541  156.0293 C   0  0  0  0  0  0  0  0  0  0  0  0
  150.6562  137.8444  155.7573 C   0  0  0  0  0  0  0  0  0  0  0  0
  145.8349  133.5287  152.2009 N   0  0  0  0  0  0  0  0  0  0  0  0
  144.4916  133.9969  152.5633 C   0  0  0  0  0  0  0  0  0  0  0  0
  143.6900  134.4607  151.3351 C   0  0  0  0  0  0  0  0  0  0  0  0
  143.6094  133.4026  150.3883 O   0  0  0  0  0  0  0  0  0  0  0  0
  144.8916  132.9571  149.9636 C   0  0  0  0  0  0  0  0  0  0  0  0
  145.7057  132.4827  151.1795 C   0  0  0  0  0  0  0  0  0  0  0  0
  148.8552  132.9413  153.7675 H   0  0  0  0  0  0  0  0  0  0  0  0
  148.5187  133.8840  152.3246 H   0  0  0  0  0  0  0  0  0  0  0  0
  148.3507  132.1326  152.3080 H   0  0  0  0  0  0  0  0  0  0  0  0
  146.9679  131.6115  154.8672 H   0  0  0  0  0  0  0  0  0  0  0  0
  146.3461  130.9993  153.3522 H   0  0  0  0  0  0  0  0  0  0  0  0
  145.2919  131.8868  154.4479 H   0  0  0  0  0  0  0  0  0  0  0  0
  145.6827  134.6456  154.6291 H   0  0  0  0  0  0  0  0  0  0  0  0
  147.0009  133.8538  155.4080 H   0  0  0  0  0  0  0  0  0  0  0  0
  148.3781  135.2105  153.5832 H   0  0  0  0  0  0  0  0  0  0  0  0
  148.9936  137.0395  153.4038 H   0  0  0  0  0  0  0  0  0  0  0  0
  146.2889  139.4065  153.5910 H   0  0  0  0  0  0  0  0  0  0  0  0
  146.6512  141.8541  153.7329 H   0  0  0  0  0  0  0  0  0  0  0  0
  148.9435  142.7103  154.2715 H   0  0  0  0  0  0  0  0  0  0  0  0
  152.3671  139.6682  153.6535 H   0  0  0  0  0  0  0  0  0  0  0  0
  151.9778  140.2224  155.2846 H   0  0  0  0  0  0  0  0  0  0  0  0
  153.5002  137.7645  154.4505 H   0  0  0  0  0  0  0  0  0  0  0  0
  153.7488  138.7771  155.8709 H   0  0  0  0  0  0  0  0  0  0  0  0
  152.2124  136.3336  155.6671 H   0  0  0  0  0  0  0  0  0  0  0  0
  152.3049  137.3588  157.0966 H   0  0  0  0  0  0  0  0  0  0  0  0
  150.2918  138.4291  156.6031 H   0  0  0  0  0  0  0  0  0  0  0  0
  149.9686  137.0126  155.6018 H   0  0  0  0  0  0  0  0  0  0  0  0
  143.9376  133.2034  153.0650 H   0  0  0  0  0  0  0  0  0  0  0  0
  144.5441  134.8341  153.2568 H   0  0  0  0  0  0  0  0  0  0  0  0
  142.6817  134.7529  151.6287 H   0  0  0  0  0  0  0  0  0  0  0  0
  144.1562  135.3349  150.8776 H   0  0  0  0  0  0  0  0  0  0  0  0
  144.7668  132.1420  149.2507 H   0  0  0  0  0  0  0  0  0  0  0  0
  145.4109  133.7627  149.4421 H   0  0  0  0  0  0  0  0  0  0  0  0
  146.6832  132.1669  150.8200 H   0  0  0  0  0  0  0  0  0  0  0  0
  145.2225  131.6010  151.6011 H   0  0  0  0  0  0  0  0  0  0  0  0
  1  2  1  0  0  0  0
  1 26  1  0  0  0  0
  1 27  1  0  0  0  0
  1 28  1  0  0  0  0
  2  3  1  0  0  0  0
  2  4  1  0  0  0  0
  2 20  1  0  0  0  0
  3 29  1  0  0  0  0
  3 30  1  0  0  0  0
  3 31  1  0  0  0  0
  4  5  1  0  0  0  0
  4 32  1  0  0  0  0
  4 33  1  0  0  0  0
  5  6  1  0  0  0  0
  5 34  1  0  0  0  0
  6  7  2  0  0  0  0
  6  8  1  0  0  0  0
  8  9  1  0  0  0  0
  8 35  1  0  0  0  0
  9 14  1  0  0  0  0
  9 10  2  0  0  0  0
 10 11  1  0  0  0  0
 10 36  1  0  0  0  0
 11 12  2  0  0  0  0
 11 37  1  0  0  0  0
 12 13  1  0  0  0  0
 12 38  1  0  0  0  0
 13 14  2  0  0  0  0
 14 15  1  0  0  0  0
 15 19  1  0  0  0  0
 15 16  1  0  0  0  0
 16 17  1  0  0  0  0
 16 39  1  0  0  0  0
 16 40  1  0  0  0  0
 17 18  1  0  0  0  0
 17 41  1  0  0  0  0
 17 42  1  0  0  0  0
 18 19  1  0  0  0  0
 18 43  1  0  0  0  0
 18 44  1  0  0  0  0
 19 45  1  0  0  0  0
 19 46  1  0  0  0  0
 20 25  1  0  0  0  0
 20 21  1  0  0  0  0
 21 22  1  0  0  0  0
 21 47  1  0  0  0  0
 21 48  1  0  0  0  0
 22 23  1  0  0  0  0
 22 49  1  0  0  0  0
 22 50  1  0  0  0  0
 23 24  1  0  0  0  0
 24 25  1  0  0  0  0
 24 51  1  0  0  0  0
 24 52  1  0  0  0  0
 25 53  1  0  0  0  0
 25 54  1  0  0  0  0
M  END
> <s_m_source_file>
AV-unprocessed.smi

> <i_m_source_file_index>
1794

> <i_lp_mmshare_version>
43012

> <i_f3d_flags>
0

> <s_epik_input>
W0NIMl0xW0NIMl1PW0NIMl1bQ0gyXU4xQyhbQ0gzXSkoW0NIM10pW0NIMl1bTkhdQyg9TylbTkhdYzJbY0hdW2NIXVtjSF1uYzJOM1tDSDJdW0NIMl1bQ0gyXVtDSDJdMw==

> <s_epik_cmdline>
J2VwaWtfcHl0aG9uJywgJy1waCcsICc3LjAnLCAnLXRuJywgJzgnLCAnLW1hJywgJzIwMCcsICctbWV0YWxfYmluZGluZycsICctaW1hZScsICc8aW5maWxlLm1hZT4nLCAnLW9tYWUnLCAnPG91dGZpbGUubWFlPic=

> <r_lp_tautomer_probability>
1

> <r_epik_Ionization_Penalty>
0.366523

> <r_epik_Ionization_Penalty_Charging>
0

> <r_epik_Ionization_Penalty_Neutral>
0.366523

> <r_epik_State_Penalty>
0.351681

> <r_epik_Charging_Adjusted_Penalty>
0.351681

> <i_epik_Tot_Q>
0

> <i_epik_Tot_abs_Q>
0

> <r_epik_Metal_State_Penalty>
0.334668

> <b_epik_Metal_Only>
0

> <s_lp_Force_Field>
OPLS_2005

> <r_lp_Energy>
72.3516

> <b_lp_Chiralities_Consistent>
1

> <s_lp_Variant>
AV-unprocessed.smi:1794-1

> <Gold.Version>
5.8.1

> <Gold.Id.Protein>
6NUR|6NUR_protein|mol2

> <Gold.PLP.Fitness>
39.5091

> <Gold.PLP.PLP>
-34.3398

> <Gold.PLP.part.hbond>
-2.8855

> <Gold.PLP.part.metal>
0.0000

> <Gold.PLP.part.buried>
-1.1238

> <Gold.PLP.part.nonpolar>
-30.4861

> <Gold.PLP.part.repulsive>
0.6268

> <Gold.PLP.ligand.clash>
0.0000

> <Gold.PLP.ligand.torsion>
1.0645

> <Gold.PLP.Chemscore.Hbond>
1.3942

> <Gold.PLP.Chemscore.CHOScore>
1.0000

> <Gold.PLP.Chemscore.Metal>
0.0000

> <Gold.Chemscore.Hbonds>
donor molecule, donor type, donor heavy atom, donor atom, acceptor molecule, acceptor atom, score
      L1  H     5    34       P1  7948  0.46
      L1  H     8    35       P1  7948  0.67
      P1  H  7989  7998       L1    13  0.54
      L1  C    12    38       P1  8028  1.00

> <Gold.PLP.Chemscore.Internal.Correction>
0.1156

> <Gold.Rescore>
     Score         DG    S(hbond)    S(metal)    S(lipo)     H(rot)  DE(clash)    DE(int)     intcor
     12.44     -15.87       1.04        0.00      92.97       1.55       1.33       2.10       ----

> <Gold.Chemscore.Fitness>
12.4447

> <Gold.Chemscore.DG>
-15.8705

> <Gold.Chemscore.ZeroCoef>
-5.4800

> <Gold.Chemscore.Hbond>
1.0417

> <Gold.Chemscore.Metal>
0.0000

> <Gold.Chemscore.Lipo>
92.9657

> <Gold.Chemscore.Internal_Hbond>
0.0000

> <Gold.Chemscore.DEClash>
1.3271

> <Gold.Chemscore.DEInternal>
2.0987

> <Gold.Chemscore.Rot>
1.5491

> <Gold.Chemscore.Internal.Correction>
   9.000000E+99

> <Gold.Chemscore.Hbonds>
donor molecule, donor type, donor heavy atom, donor atom, acceptor molecule, acceptor atom, score
      L1  H     5    34       P1  7948  0.41
      L1  H     8    35       P1  7948  0.68
      P1  H  7989  7998       L1    13  0.09

> <Gold.Chemscore.Hbond.Weighted>
-3.4792

> <Gold.Chemscore.Metal.Weighted>
-0.0000

> <Gold.Chemscore.Lipo.Weighted>
-10.8770

> <Gold.Chemscore.Internal_Hbond.Weighted>
0.0000

> <Gold.Chemscore.DEClash.Weighted>
1.3271

> <Gold.Chemscore.DEInternal.Weighted>
2.0987

> <Gold.Chemscore.Rot.Weighted>
3.9657

> <Gold.Chemscore.Internal.Correction.Weighted>
   9.000000E+99

> <Gold.Protein.RotatedTorsions>
[ 6907 6896 6895 6894 ] final   23.91 input  -60.11 | X-H torsion
[ 7974 7965 7964 7962 ] final -108.53 input  175.53 | X-H torsion
[ 8008 7997 7996 7995 ] final -174.73 input   59.86 | X-H torsion
[ 10167 10162 10161 10158 ] final   92.67 input  -65.29 | X-H torsion
[ 10718 10713 10712 10709 ] final -154.53 input   66.30 | X-H torsion
[ 10763 10752 10751 10750 ] final  -29.33 input  -60.55 | X-H torsion
[ 11005 11000 10999 10996 ] final  -88.62 input  -57.11 | X-H torsion

> <Gold.Protein.ActiveResidues>
 VAL166  LYS551  ARG553  GLY616  TRP617  ASP618  TYR619  PRO620  LYS621  CYS622 
 ASP623  PHE694  ASN695  SER759  ASP760  ASP761  ALA762  ILE779  LEU786  VAL792 
 PHE793  MET794  SER795  GLU796  ALA797  LYS798  CYS799  TRP800  GLU811  SER814 

> <Gold.Protein.RotatedAtoms>
  151.9495  135.0176  160.0540 H   0  0  0  0  0  0  0  0  0  0  0  0  # atno 6907 bound_to 6896
  152.1965  133.4806  159.5044 H   0  0  0  0  0  0  0  0  0  0  0  0  # atno 6908 bound_to 6896
  150.6946  134.1562  159.4202 H   0  0  0  0  0  0  0  0  0  0  0  0  # atno 6909 bound_to 6896
  145.1917  140.9017  143.3421 H   0  0  0  0  0  0  0  0  0  0  0  0  # atno 7974 bound_to 7965
  155.9738  140.1168  157.0788 H   0  0  0  0  0  0  0  0  0  0  0  0  # atno 8008 bound_to 7997
  154.4163  140.1158  156.5410 H   0  0  0  0  0  0  0  0  0  0  0  0  # atno 8009 bound_to 7997
  155.6561  140.3473  155.4768 H   0  0  0  0  0  0  0  0  0  0  0  0  # atno 8010 bound_to 7997
  139.8254  144.6712  150.9466 H   0  0  0  0  0  0  0  0  0  0  0  0  # atno 10167 bound_to 10162
  156.5005  130.8389  151.2607 H   0  0  0  0  0  0  0  0  0  0  0  0  # atno 10718 bound_to 10713
  153.7629  135.6918  153.4922 H   0  0  0  0  0  0  0  0  0  0  0  0  # atno 10763 bound_to 10752
  153.1926  135.4465  155.0167 H   0  0  0  0  0  0  0  0  0  0  0  0  # atno 10764 bound_to 10752
  154.8146  135.3393  154.7143 H   0  0  0  0  0  0  0  0  0  0  0  0  # atno 10765 bound_to 10752
  141.1599  133.7580  156.9477 H   0  0  0  0  0  0  0  0  0  0  0  0  # atno 11005 bound_to 11000
  145.0034  139.3576  143.6156 LP  0  0  0  0  0  0  0  0  0  0  0  0  # atno 17320 bound_to 7965
  146.3435  139.9267  142.8759 LP  0  0  0  0  0  0  0  0  0  0  0  0  # atno 17321 bound_to 7965
  140.7810  143.4052  151.1083 LP  0  0  0  0  0  0  0  0  0  0  0  0  # atno 17342 bound_to 10162
  139.7709  143.8495  152.3120 LP  0  0  0  0  0  0  0  0  0  0  0  0  # atno 17343 bound_to 10162
  157.7463  130.9983  150.2848 LP  0  0  0  0  0  0  0  0  0  0  0  0  # atno 17370 bound_to 10713
  156.3337  130.3804  149.7468 LP  0  0  0  0  0  0  0  0  0  0  0  0  # atno 17371 bound_to 10713
  140.1278  134.9375  157.2295 LP  0  0  0  0  0  0  0  0  0  0  0  0  # atno 17394 bound_to 11000
  140.2990  134.3153  155.7294 LP  0  0  0  0  0  0  0  0  0  0  0  0  # atno 17395 bound_to 11000

$$$$
