AV-unprocessed.smi:966|AV-procd|sdf|4284|dock4
  -GOLD-   22720 2193D 1   1.00000     0.00000
 Structure written by MMmdl.
 30 31  0  0  0  0  0  0  0  0  2 V2000
  147.9893  139.2465  153.7908 C   0  0  0  0  0  0  0  0  0  0  0  0
  148.9658  139.6409  154.8841 C   0  0  0  0  0  0  0  0  0  0  0  0
  150.3867  139.5410  154.6373 C   0  0  0  0  0  0  0  0  0  0  0  0
  151.2639  139.9135  155.6374 C   0  0  0  0  0  0  0  0  0  0  0  0
  152.5172  139.8922  155.6411 O   0  5  0  0  0  0  0  0  0  0  0  0
  150.7773  140.3965  156.8984 N   0  0  0  0  0  0  0  0  0  0  0  0
  151.7078  140.8209  157.9854 C   0  0  0  0  0  0  0  0  0  0  0  0
  151.3908  142.2416  158.4943 C   0  0  1  0  0  0  0  0  0  0  0  0
  152.4737  142.8177  159.4056 C   0  0  0  0  0  0  0  0  0  0  0  0
  152.2587  144.3039  159.2361 C   0  0  0  0  0  0  0  0  0  0  0  0
  151.9325  144.3963  157.7494 C   0  0  0  0  0  0  0  0  0  0  0  0
  151.2903  143.1692  157.4148 O   0  0  0  0  0  0  0  0  0  0  0  0
  149.4346  140.4696  157.1666 C   0  0  0  0  0  0  0  0  0  0  0  0
  149.0020  140.8465  158.2588 O   0  0  0  0  0  0  0  0  0  0  0  0
  148.5283  140.0770  156.0833 C   0  0  0  0  0  0  0  0  0  0  0  0
  147.1337  140.1856  156.3754 C   0  0  0  0  0  0  0  0  0  0  0  0
  146.0089  140.2810  156.6342 N   0  0  0  0  0  0  0  0  0  0  0  0
  148.5137  138.9302  152.8886 H   0  0  0  0  0  0  0  0  0  0  0  0
  147.3473  140.0883  153.5300 H   0  0  0  0  0  0  0  0  0  0  0  0
  147.3599  138.4200  154.1221 H   0  0  0  0  0  0  0  0  0  0  0  0
  150.7560  139.1723  153.6914 H   0  0  0  0  0  0  0  0  0  0  0  0
  151.6889  140.1166  158.8182 H   0  0  0  0  0  0  0  0  0  0  0  0
  152.7524  140.7779  157.6732 H   0  0  0  0  0  0  0  0  0  0  0  0
  150.4406  142.2549  159.0300 H   0  0  0  0  0  0  0  0  0  0  0  0
  152.3787  142.4851  160.4396 H   0  0  0  0  0  0  0  0  0  0  0  0
  153.4666  142.5429  159.0463 H   0  0  0  0  0  0  0  0  0  0  0  0
  151.4043  144.6297  159.8308 H   0  0  0  0  0  0  0  0  0  0  0  0
  153.1247  144.9009  159.5226 H   0  0  0  0  0  0  0  0  0  0  0  0
  151.3033  145.2547  157.5135 H   0  0  0  0  0  0  0  0  0  0  0  0
  152.8485  144.4764  157.1631 H   0  0  0  0  0  0  0  0  0  0  0  0
  1  2  1  0  0  0  0
  1 18  1  0  0  0  0
  1 19  1  0  0  0  0
  1 20  1  0  0  0  0
  2 15  2  0  0  0  0
  2  3  1  0  0  0  0
  3  4  2  0  0  0  0
  3 21  1  0  0  0  0
  4  5  1  0  0  0  0
  4  6  1  0  0  0  0
  6  7  1  0  0  0  0
  6 13  1  0  0  0  0
  7  8  1  0  0  0  0
  7 22  1  0  0  0  0
  7 23  1  0  0  0  0
  8 12  1  0  0  0  0
  8  9  1  0  0  0  0
  8 24  1  0  0  0  0
  9 10  1  0  0  0  0
  9 25  1  0  0  0  0
  9 26  1  0  0  0  0
 10 11  1  0  0  0  0
 10 27  1  0  0  0  0
 10 28  1  0  0  0  0
 11 12  1  0  0  0  0
 11 29  1  0  0  0  0
 11 30  1  0  0  0  0
 13 14  2  0  0  0  0
 13 15  1  0  0  0  0
 15 16  1  0  0  0  0
 16 17  3  0  0  0  0
M  CHG  1   5  -1
M  END
> <s_m_source_file>
AV-unprocessed.smi

> <i_m_source_file_index>
966

> <i_lp_mmshare_version>
43012

> <i_f3d_flags>
0

> <s_epik_input>
W0NIM11jMVtjSF1jKFtPSF0pbihjKD1PKWMxQyNOKVtDSDJdW0NAQEhdMltDSDJdW0NIMl1bQ0gyXU8y

> <s_epik_cmdline>
J2VwaWtfcHl0aG9uJywgJy1waCcsICc3LjAnLCAnLXRuJywgJzgnLCAnLW1hJywgJzIwMCcsICctbWV0YWxfYmluZGluZycsICctaW1hZScsICc8aW5maWxlLm1hZT4nLCAnLW9tYWUnLCAnPG91dGZpbGUubWFlPic=

> <r_lp_tautomer_probability>
1

> <r_epik_Ionization_Penalty>
3.48555e-06

> <r_epik_Ionization_Penalty_Charging>
3.48554e-06

> <r_epik_Ionization_Penalty_Neutral>
1.71861e-11

> <r_epik_State_Penalty>
-0

> <r_epik_Charging_Adjusted_Penalty>
3.48554e-06

> <i_epik_Tot_Q>
-1

> <i_epik_Tot_abs_Q>
1

> <r_epik_Metal_State_Penalty>
-0

> <b_epik_Metal_Only>
0

> <s_lp_Force_Field>
OPLS_2005

> <r_lp_Energy>
36.155

> <b_lp_Chiralities_Consistent>
1

> <s_lp_Variant>
AV-unprocessed.smi:966-2

> <Gold.Version>
5.8.1

> <Gold.Id.Protein>
6NUR|6NUR_protein|mol2

> <Gold.PLP.Fitness>
35.8469

> <Gold.PLP.PLP>
-30.0272

> <Gold.PLP.part.hbond>
-1.6800

> <Gold.PLP.part.metal>
0.0000

> <Gold.PLP.part.buried>
-1.6828

> <Gold.PLP.part.nonpolar>
-26.1323

> <Gold.PLP.part.repulsive>
0.1443

> <Gold.PLP.ligand.clash>
0.0000

> <Gold.PLP.ligand.torsion>
0.0911

> <Gold.PLP.Chemscore.Hbond>
2.0000

> <Gold.PLP.Chemscore.CHOScore>
0.0000

> <Gold.PLP.Chemscore.Metal>
0.0000

> <Gold.Chemscore.Hbonds>
donor molecule, donor type, donor heavy atom, donor atom, acceptor molecule, acceptor atom, score
      P1  H  7997  8008       L1     5  2.00

> <Gold.PLP.Chemscore.Internal.Correction>
0.0019

> <Gold.Rescore>
     Score         DG    S(hbond)    S(metal)    S(lipo)     H(rot)  DE(clash)    DE(int)     intcor
     13.09     -14.49       1.00        0.00      75.91       1.25       0.04       1.36       ----

> <Gold.Chemscore.Fitness>
13.0944

> <Gold.Chemscore.DG>
-14.4931

> <Gold.Chemscore.ZeroCoef>
-5.4800

> <Gold.Chemscore.Hbond>
0.9987

> <Gold.Chemscore.Metal>
0.0000

> <Gold.Chemscore.Lipo>
75.9065

> <Gold.Chemscore.Internal_Hbond>
0.0000

> <Gold.Chemscore.DEClash>
0.0433

> <Gold.Chemscore.DEInternal>
1.3554

> <Gold.Chemscore.Rot>
1.2514

> <Gold.Chemscore.Internal.Correction>
   9.000000E+99

> <Gold.Chemscore.Hbonds>
donor molecule, donor type, donor heavy atom, donor atom, acceptor molecule, acceptor atom, score
      P1  H  7997  8008       L1     5  0.99

> <Gold.Chemscore.Hbond.Weighted>
-3.3356

> <Gold.Chemscore.Metal.Weighted>
-0.0000

> <Gold.Chemscore.Lipo.Weighted>
-8.8811

> <Gold.Chemscore.Internal_Hbond.Weighted>
0.0000

> <Gold.Chemscore.DEClash.Weighted>
0.0433

> <Gold.Chemscore.DEInternal.Weighted>
1.3554

> <Gold.Chemscore.Rot.Weighted>
3.2036

> <Gold.Chemscore.Internal.Correction.Weighted>
   9.000000E+99

> <Gold.Protein.RotatedTorsions>
[ 6907 6896 6895 6894 ] final -123.26 input  -60.11 | X-H torsion
[ 7974 7965 7964 7962 ] final  -96.11 input  175.53 | X-H torsion
[ 8008 7997 7996 7995 ] final  -22.73 input   59.86 | X-H torsion
[ 10167 10162 10161 10158 ] final  176.65 input  -65.29 | X-H torsion
[ 10718 10713 10712 10709 ] final -171.17 input   66.30 | X-H torsion
[ 10763 10752 10751 10750 ] final  -94.14 input  -60.55 | X-H torsion
[ 11005 11000 10999 10996 ] final   94.42 input  -57.11 | X-H torsion

> <Gold.Protein.ActiveResidues>
 VAL166  LYS551  ARG553  GLY616  TRP617  ASP618  TYR619  PRO620  LYS621  CYS622 
 ASP623  PHE694  ASN695  SER759  ASP760  ASP761  ALA762  ILE779  LEU786  VAL792 
 PHE793  MET794  SER795  GLU796  ALA797  LYS798  CYS799  TRP800  GLU811  SER814 

> <Gold.Protein.RotatedAtoms>
  150.8653  133.7583  159.2978 H   0  0  0  0  0  0  0  0  0  0  0  0  # atno 6907 bound_to 6896
  151.5212  135.1065  159.9888 H   0  0  0  0  0  0  0  0  0  0  0  0  # atno 6908 bound_to 6896
  152.4657  133.7872  159.6938 H   0  0  0  0  0  0  0  0  0  0  0  0  # atno 6909 bound_to 6896
  145.3511  140.9477  143.2553 H   0  0  0  0  0  0  0  0  0  0  0  0  # atno 7974 bound_to 7965
  154.4626  140.2000  156.0203 H   0  0  0  0  0  0  0  0  0  0  0  0  # atno 8008 bound_to 7997
  156.0869  140.3263  155.7736 H   0  0  0  0  0  0  0  0  0  0  0  0  # atno 8009 bound_to 7997
  155.5021  140.0554  157.2928 H   0  0  0  0  0  0  0  0  0  0  0  0  # atno 8010 bound_to 7997
  139.5222  144.2891  152.0480 H   0  0  0  0  0  0  0  0  0  0  0  0  # atno 10167 bound_to 10162
  156.7369  130.9327  151.3108 H   0  0  0  0  0  0  0  0  0  0  0  0  # atno 10718 bound_to 10713
  154.7027  135.5168  153.8549 H   0  0  0  0  0  0  0  0  0  0  0  0  # atno 10763 bound_to 10752
  153.0716  135.6603  154.0244 H   0  0  0  0  0  0  0  0  0  0  0  0  # atno 10764 bound_to 10752
  154.0100  135.3003  155.3373 H   0  0  0  0  0  0  0  0  0  0  0  0  # atno 10765 bound_to 10752
  139.8799  134.8844  156.3861 H   0  0  0  0  0  0  0  0  0  0  0  0  # atno 11005 bound_to 11000
  144.8717  139.5029  143.6765 LP  0  0  0  0  0  0  0  0  0  0  0  0  # atno 17320 bound_to 7965
  146.2967  139.7300  142.9121 LP  0  0  0  0  0  0  0  0  0  0  0  0  # atno 17321 bound_to 7965
  140.2343  144.4336  150.6287 LP  0  0  0  0  0  0  0  0  0  0  0  0  # atno 17342 bound_to 10162
  140.6334  143.2191  151.6446 LP  0  0  0  0  0  0  0  0  0  0  0  0  # atno 17343 bound_to 10162
  157.6835  130.9163  150.0327 LP  0  0  0  0  0  0  0  0  0  0  0  0  # atno 17370 bound_to 10713
  156.1491  130.3642  149.9465 LP  0  0  0  0  0  0  0  0  0  0  0  0  # atno 17371 bound_to 10713
  140.9365  133.7543  156.0091 LP  0  0  0  0  0  0  0  0  0  0  0  0  # atno 17394 bound_to 11000
  140.8269  134.3223  157.5362 LP  0  0  0  0  0  0  0  0  0  0  0  0  # atno 17395 bound_to 11000

$$$$
