AV-unprocessed.smi:3258|AV-procd|sdf|12471|dock3
  -GOLD-   2272018373D 1   1.00000     0.00000
 Structure written by MMmdl.
 38 39  0  0  0  0  0  0  0  0  1 V2000
  145.9694  133.6016  154.6428 C   0  0  0  0  0  0  0  0  0  0  0  0
  147.2811  133.4533  153.8554 C   0  0  1  0  0  0  0  0  0  0  0  0
  147.0710  132.9017  152.4237 C   0  0  0  0  0  0  0  0  0  0  0  0
  146.0080  133.5680  151.6881 N   0  0  0  0  0  0  0  0  0  0  0  0
  145.9173  134.8951  151.3238 C   0  0  0  0  0  0  0  0  0  0  0  0
  144.7389  135.0532  150.6523 C   0  0  0  0  0  0  0  0  0  0  0  0
  144.1673  133.7502  150.6612 C   0  0  0  0  0  0  0  0  0  0  0  0
  144.9279  132.8643  151.2830 N   0  0  0  0  0  0  0  0  0  0  0  0
  147.9806  134.7365  153.8399 N   0  0  0  0  0  0  0  0  0  0  0  0
  148.2048  135.5128  154.9088 C   0  0  0  0  0  0  0  0  0  0  0  0
  147.8017  135.2581  156.0440 O   0  0  0  0  0  0  0  0  0  0  0  0
  148.9429  136.5862  154.5940 N   0  0  0  0  0  0  0  0  0  0  0  0
  149.4277  137.5837  155.5420 C   0  0  0  0  0  0  0  0  0  0  0  0
  150.9601  137.7251  155.4811 C   0  0  1  0  0  0  0  0  0  0  0  0
  151.4868  138.1108  154.1141 C   0  0  0  0  0  0  0  0  0  0  0  0
  152.8899  138.6112  154.4449 C   0  0  0  0  0  0  0  0  0  0  0  0
  152.8124  139.1515  155.7614 O   0  0  0  0  0  0  0  0  0  0  0  0
  151.5488  138.8443  156.3424 C   0  0  0  0  0  0  0  0  0  0  0  0
  145.4234  132.6585  154.6737 H   0  0  0  0  0  0  0  0  0  0  0  0
  145.3135  134.3523  154.2009 H   0  0  0  0  0  0  0  0  0  0  0  0
  146.1646  133.9016  155.6730 H   0  0  0  0  0  0  0  0  0  0  0  0
  147.9049  132.7405  154.3976 H   0  0  0  0  0  0  0  0  0  0  0  0
  147.9921  132.9666  151.8424 H   0  0  0  0  0  0  0  0  0  0  0  0
  146.8270  131.8402  152.4764 H   0  0  0  0  0  0  0  0  0  0  0  0
  146.6916  135.6076  151.5680 H   0  0  0  0  0  0  0  0  0  0  0  0
  144.3440  135.9614  150.2221 H   0  0  0  0  0  0  0  0  0  0  0  0
  143.2286  133.4240  150.2383 H   0  0  0  0  0  0  0  0  0  0  0  0
  148.3593  135.0338  152.9526 H   0  0  0  0  0  0  0  0  0  0  0  0
  149.2234  136.7019  153.6310 H   0  0  0  0  0  0  0  0  0  0  0  0
  148.9645  138.5369  155.2864 H   0  0  0  0  0  0  0  0  0  0  0  0
  149.1018  137.3493  156.5570 H   0  0  0  0  0  0  0  0  0  0  0  0
  151.4223  136.7805  155.7736 H   0  0  0  0  0  0  0  0  0  0  0  0
  151.4885  137.2830  153.4044 H   0  0  0  0  0  0  0  0  0  0  0  0
  150.8919  138.9220  153.6917 H   0  0  0  0  0  0  0  0  0  0  0  0
  153.5978  137.7815  154.4529 H   0  0  0  0  0  0  0  0  0  0  0  0
  153.2459  139.3528  153.7295 H   0  0  0  0  0  0  0  0  0  0  0  0
  150.9234  139.7371  156.2955 H   0  0  0  0  0  0  0  0  0  0  0  0
  151.6520  138.5588  157.3896 H   0  0  0  0  0  0  0  0  0  0  0  0
  1  2  1  0  0  0  0
  1 19  1  0  0  0  0
  1 20  1  0  0  0  0
  1 21  1  0  0  0  0
  2  3  1  0  0  0  0
  2  9  1  0  0  0  0
  2 22  1  0  0  0  0
  3  4  1  0  0  0  0
  3 23  1  0  0  0  0
  3 24  1  0  0  0  0
  4  8  1  0  0  0  0
  4  5  1  0  0  0  0
  5  6  2  0  0  0  0
  5 25  1  0  0  0  0
  6  7  1  0  0  0  0
  6 26  1  0  0  0  0
  7  8  2  0  0  0  0
  7 27  1  0  0  0  0
  9 10  1  0  0  0  0
  9 28  1  0  0  0  0
 10 11  2  0  0  0  0
 10 12  1  0  0  0  0
 12 13  1  0  0  0  0
 12 29  1  0  0  0  0
 13 14  1  0  0  0  0
 13 30  1  0  0  0  0
 13 31  1  0  0  0  0
 14 18  1  0  0  0  0
 14 15  1  0  0  0  0
 14 32  1  0  0  0  0
 15 16  1  0  0  0  0
 15 33  1  0  0  0  0
 15 34  1  0  0  0  0
 16 17  1  0  0  0  0
 16 35  1  0  0  0  0
 16 36  1  0  0  0  0
 17 18  1  0  0  0  0
 18 37  1  0  0  0  0
 18 38  1  0  0  0  0
M  END
> <s_m_source_file>
AV-unprocessed.smi

> <i_m_source_file_index>
3258

> <i_lp_mmshare_version>
43012

> <i_f3d_flags>
0

> <s_epik_input>
bjFbY0hdW2NIXVtjSF1uMVtDSDJdW0NAQEhdKFtDSDNdKVtOSF1DKD1PKVtOSF1bQ0gyXVtDQEBIXTJbQ0gyXVtDSDJdT1tDSDJdMg==

> <s_epik_cmdline>
J2VwaWtfcHl0aG9uJywgJy1waCcsICc3LjAnLCAnLXRuJywgJzgnLCAnLW1hJywgJzIwMCcsICctbWV0YWxfYmluZGluZycsICctaW1hZScsICc8aW5maWxlLm1hZT4nLCAnLW9tYWUnLCAnPG91dGZpbGUubWFlPic=

> <r_lp_tautomer_probability>
1

> <r_epik_Ionization_Penalty>
6.85079e-05

> <r_epik_Ionization_Penalty_Charging>
0

> <r_epik_Ionization_Penalty_Neutral>
6.85079e-05

> <r_epik_State_Penalty>
-0

> <r_epik_Charging_Adjusted_Penalty>
0

> <i_epik_Tot_Q>
0

> <i_epik_Tot_abs_Q>
0

> <r_epik_Metal_State_Penalty>
-0

> <b_epik_Metal_Only>
0

> <s_lp_Force_Field>
OPLS_2005

> <r_lp_Energy>
16.3591

> <b_lp_Chiralities_Consistent>
1

> <s_lp_Variant>
AV-unprocessed.smi:3258-4

> <Gold.Version>
5.8.1

> <Gold.Id.Protein>
6NUR|6NUR_protein|mol2

> <Gold.PLP.Fitness>
41.5352

> <Gold.PLP.PLP>
-26.9647

> <Gold.PLP.part.hbond>
-3.0000

> <Gold.PLP.part.metal>
0.0000

> <Gold.PLP.part.buried>
-5.4972

> <Gold.PLP.part.nonpolar>
-18.4066

> <Gold.PLP.part.repulsive>
0.1354

> <Gold.PLP.ligand.clash>
0.0000

> <Gold.PLP.ligand.torsion>
0.1992

> <Gold.PLP.Chemscore.Hbond>
2.9760

> <Gold.PLP.Chemscore.CHOScore>
2.0000

> <Gold.PLP.Chemscore.Metal>
0.0000

> <Gold.Chemscore.Hbonds>
donor molecule, donor type, donor heavy atom, donor atom, acceptor molecule, acceptor atom, score
      L1  H     9    28       P1  7948  1.00
      L1  H    12    29       P1  7948  0.98
      P1  H  7997  8008       L1    17  1.00
      L1  C     5    25       P1  7948  1.00
      L1  C     7    27       P1 10186  1.00

> <Gold.PLP.Chemscore.Internal.Correction>
0.0410

> <Gold.Rescore>
     Score         DG    S(hbond)    S(metal)    S(lipo)     H(rot)  DE(clash)    DE(int)     intcor
     15.75     -17.32       2.89        0.00      59.76       1.87       0.16       1.42       ----

> <Gold.Chemscore.Fitness>
15.7452

> <Gold.Chemscore.DG>
-17.3173

> <Gold.Chemscore.ZeroCoef>
-5.4800

> <Gold.Chemscore.Hbond>
2.8857

> <Gold.Chemscore.Metal>
0.0000

> <Gold.Chemscore.Lipo>
59.7636

> <Gold.Chemscore.Internal_Hbond>
0.0000

> <Gold.Chemscore.DEClash>
0.1565

> <Gold.Chemscore.DEInternal>
1.4156

> <Gold.Chemscore.Rot>
1.8724

> <Gold.Chemscore.Internal.Correction>
   9.000000E+99

> <Gold.Chemscore.Hbonds>
donor molecule, donor type, donor heavy atom, donor atom, acceptor molecule, acceptor atom, score
      L1  H     9    28       P1  7948  0.81
      L1  H    12    29       P1  7948  0.90
      P1  H  7997  8008       L1    17  0.37

> <Gold.Chemscore.Hbond.Weighted>
-9.6383

> <Gold.Chemscore.Metal.Weighted>
-0.0000

> <Gold.Chemscore.Lipo.Weighted>
-6.9923

> <Gold.Chemscore.Internal_Hbond.Weighted>
0.0000

> <Gold.Chemscore.DEClash.Weighted>
0.1565

> <Gold.Chemscore.DEInternal.Weighted>
1.4156

> <Gold.Chemscore.Rot.Weighted>
4.7933

> <Gold.Chemscore.Internal.Correction.Weighted>
   9.000000E+99

> <Gold.Protein.RotatedTorsions>
[ 6907 6896 6895 6894 ] final  -36.37 input  -60.11 | X-H torsion
[ 7974 7965 7964 7962 ] final  102.55 input  175.53 | X-H torsion
[ 8008 7997 7996 7995 ] final  -14.74 input   59.86 | X-H torsion
[ 10167 10162 10161 10158 ] final  137.43 input  -65.29 | X-H torsion
[ 10718 10713 10712 10709 ] final  -14.28 input   66.30 | X-H torsion
[ 10763 10752 10751 10750 ] final  136.06 input  -60.55 | X-H torsion
[ 11005 11000 10999 10996 ] final  -27.36 input  -57.11 | X-H torsion

> <Gold.Protein.ActiveResidues>
 VAL166  LYS551  ARG553  GLY616  TRP617  ASP618  TYR619  PRO620  LYS621  CYS622 
 ASP623  PHE694  ASN695  SER759  ASP760  ASP761  ALA762  ILE779  LEU786  VAL792 
 PHE793  MET794  SER795  GLU796  ALA797  LYS798  CYS799  TRP800  GLU811  SER814 

> <Gold.Protein.RotatedAtoms>
  151.0280  134.9518  159.8095 H   0  0  0  0  0  0  0  0  0  0  0  0  # atno 6907 bound_to 6896
  152.5339  134.2816  159.9020 H   0  0  0  0  0  0  0  0  0  0  0  0  # atno 6908 bound_to 6896
  151.2825  133.4160  159.2662 H   0  0  0  0  0  0  0  0  0  0  0  0  # atno 6909 bound_to 6896
  145.3577  139.2425  143.3524 H   0  0  0  0  0  0  0  0  0  0  0  0  # atno 7974 bound_to 7965
  154.5186  140.2215  155.9019 H   0  0  0  0  0  0  0  0  0  0  0  0  # atno 8008 bound_to 7997
  156.1636  140.3137  155.8815 H   0  0  0  0  0  0  0  0  0  0  0  0  # atno 8009 bound_to 7997
  155.3702  140.0466  157.3036 H   0  0  0  0  0  0  0  0  0  0  0  0  # atno 8010 bound_to 7997
  139.5144  144.6410  151.5569 H   0  0  0  0  0  0  0  0  0  0  0  0  # atno 10167 bound_to 10162
  156.6182  130.4868  149.6175 H   0  0  0  0  0  0  0  0  0  0  0  0  # atno 10718 bound_to 10713
  153.8503  135.3080  155.3432 H   0  0  0  0  0  0  0  0  0  0  0  0  # atno 10763 bound_to 10752
  154.7894  135.4791  154.0021 H   0  0  0  0  0  0  0  0  0  0  0  0  # atno 10764 bound_to 10752
  153.1522  135.6845  153.8958 H   0  0  0  0  0  0  0  0  0  0  0  0  # atno 10765 bound_to 10752
  140.9112  133.7459  156.0673 H   0  0  0  0  0  0  0  0  0  0  0  0  # atno 11005 bound_to 11000
  146.2941  140.4205  142.8728 LP  0  0  0  0  0  0  0  0  0  0  0  0  # atno 17320 bound_to 7965
  144.8670  140.7220  143.6071 LP  0  0  0  0  0  0  0  0  0  0  0  0  # atno 17321 bound_to 7965
  140.6177  143.9318  150.6501 LP  0  0  0  0  0  0  0  0  0  0  0  0  # atno 17342 bound_to 10162
  140.2581  143.3544  152.1347 LP  0  0  0  0  0  0  0  0  0  0  0  0  # atno 17343 bound_to 10162
  156.2334  130.6808  151.1485 LP  0  0  0  0  0  0  0  0  0  0  0  0  # atno 17370 bound_to 10713
  157.7235  131.0666  150.6033 LP  0  0  0  0  0  0  0  0  0  0  0  0  # atno 17371 bound_to 10713
  140.8108  134.3402  157.5412 LP  0  0  0  0  0  0  0  0  0  0  0  0  # atno 17394 bound_to 11000
  139.8758  134.9252  156.3370 LP  0  0  0  0  0  0  0  0  0  0  0  0  # atno 17395 bound_to 11000

$$$$
