AV-unprocessed.smi:2620|AV-procd|sdf|10223|dock4
  -GOLD-   2272014233D 1   1.00000     0.00000
 Structure written by MMmdl.
 36 37  0  0  0  0  0  0  0  0  1 V2000
  148.2468  135.6103  162.2705 C   0  0  0  0  0  0  0  0  0  0  0  0
  148.0520  136.7117  161.4009 O   0  0  0  0  0  0  0  0  0  0  0  0
  148.2844  136.3794  160.0429 C   0  0  0  0  0  0  0  0  0  0  0  0
  149.7885  136.4961  159.7530 C   0  0  0  0  0  0  0  0  0  0  0  0
  150.0487  136.6277  158.3134 N   0  0  0  0  0  0  0  0  0  0  0  0
  150.4097  137.9068  157.8471 C   0  0  0  0  0  0  0  0  0  0  0  0
  150.6592  138.1521  156.5472 C   0  0  0  0  0  0  0  0  0  0  0  0
  151.0280  139.5152  156.0950 C   0  0  0  0  0  0  0  0  0  0  0  0
  150.9226  139.8425  154.9121 O   0  0  0  0  0  0  0  0  0  0  0  0
  151.5121  140.4966  157.1097 C   0  0  0  0  0  0  0  0  0  0  0  0
  152.4905  140.0638  158.0336 C   0  0  0  0  0  0  0  0  0  0  0  0
  152.9980  140.9438  159.0081 C   0  0  0  0  0  0  0  0  0  0  0  0
  152.5263  142.2670  159.0743 C   0  0  0  0  0  0  0  0  0  0  0  0
  151.5414  142.7061  158.1705 C   0  0  0  0  0  0  0  0  0  0  0  0
  151.0269  141.8302  157.1928 C   0  0  0  0  0  0  0  0  0  0  0  0
  150.0428  142.2958  156.3652 O   0  0  0  0  0  0  0  0  0  0  0  0
  150.5600  137.0409  155.6212 C   0  0  0  0  0  0  0  0  0  0  0  0
  150.2063  135.8169  156.0600 C   0  0  0  0  0  0  0  0  0  0  0  0
  150.0982  134.7126  155.1651 C   0  0  0  0  0  0  0  0  0  0  0  0
  150.0036  133.8327  154.4192 N   0  0  0  0  0  0  0  0  0  0  0  0
  149.9157  135.5542  157.4765 C   0  0  0  0  0  0  0  0  0  0  0  0
  149.5747  134.4450  157.8909 O   0  0  0  0  0  0  0  0  0  0  0  0
  148.0500  135.9153  163.2981 H   0  0  0  0  0  0  0  0  0  0  0  0
  149.2728  135.2448  162.2188 H   0  0  0  0  0  0  0  0  0  0  0  0
  147.5701  134.7902  162.0280 H   0  0  0  0  0  0  0  0  0  0  0  0
  147.9372  135.3644  159.8433 H   0  0  0  0  0  0  0  0  0  0  0  0
  147.7229  137.0538  159.3940 H   0  0  0  0  0  0  0  0  0  0  0  0
  150.1963  137.3552  160.2875 H   0  0  0  0  0  0  0  0  0  0  0  0
  150.3153  135.6330  160.1639 H   0  0  0  0  0  0  0  0  0  0  0  0
  150.4535  138.6690  158.6126 H   0  0  0  0  0  0  0  0  0  0  0  0
  152.8684  139.0520  157.9947 H   0  0  0  0  0  0  0  0  0  0  0  0
  153.7502  140.6031  159.7042 H   0  0  0  0  0  0  0  0  0  0  0  0
  152.9142  142.9429  159.8219 H   0  0  0  0  0  0  0  0  0  0  0  0
  151.1750  143.7203  158.2352 H   0  0  0  0  0  0  0  0  0  0  0  0
  149.8729  143.2191  156.4749 H   0  0  0  0  0  0  0  0  0  0  0  0
  150.7716  137.1831  154.5712 H   0  0  0  0  0  0  0  0  0  0  0  0
  1  2  1  0  0  0  0
  1 23  1  0  0  0  0
  1 24  1  0  0  0  0
  1 25  1  0  0  0  0
  2  3  1  0  0  0  0
  3  4  1  0  0  0  0
  3 26  1  0  0  0  0
  3 27  1  0  0  0  0
  4  5  1  0  0  0  0
  4 28  1  0  0  0  0
  4 29  1  0  0  0  0
  5 21  1  0  0  0  0
  5  6  1  0  0  0  0
  6  7  2  0  0  0  0
  6 30  1  0  0  0  0
  7  8  1  0  0  0  0
  7 17  1  0  0  0  0
  8  9  2  0  0  0  0
  8 10  1  0  0  0  0
 10 15  1  0  0  0  0
 10 11  2  0  0  0  0
 11 12  1  0  0  0  0
 11 31  1  0  0  0  0
 12 13  2  0  0  0  0
 12 32  1  0  0  0  0
 13 14  1  0  0  0  0
 13 33  1  0  0  0  0
 14 15  2  0  0  0  0
 14 34  1  0  0  0  0
 15 16  1  0  0  0  0
 16 35  1  0  0  0  0
 17 18  2  0  0  0  0
 17 36  1  0  0  0  0
 18 19  1  0  0  0  0
 18 21  1  0  0  0  0
 19 20  3  0  0  0  0
 21 22  2  0  0  0  0
M  END
> <s_m_source_file>
AV-unprocessed.smi

> <i_m_source_file_index>
2620

> <i_lp_mmshare_version>
43012

> <i_f3d_flags>
0

> <s_epik_input>
W0NIM11PW0NIMl1bQ0gyXW4xW2NIXWMoW2NIXWMoQyNOKWMxPU8pQyg9TyljMltjSF1bY0hdW2NIXVtjSF1jMltPSF0=

> <s_epik_cmdline>
J2VwaWtfcHl0aG9uJywgJy1waCcsICc3LjAnLCAnLXRuJywgJzgnLCAnLW1hJywgJzIwMCcsICctbWV0YWxfYmluZGluZycsICctaW1hZScsICc8aW5maWxlLm1hZT4nLCAnLW9tYWUnLCAnPG91dGZpbGUubWFlPic=

> <r_epik_Ionization_Penalty>
0.219503

> <r_epik_Ionization_Penalty_Charging>
5.62591e-11

> <r_epik_Ionization_Penalty_Neutral>
0.219503

> <r_epik_State_Penalty>
0.209817

> <r_epik_Charging_Adjusted_Penalty>
0.209817

> <i_epik_Tot_Q>
0

> <i_epik_Tot_abs_Q>
0

> <r_epik_Metal_State_Penalty>
0.209817

> <b_epik_Metal_Only>
0

> <s_lp_Force_Field>
OPLS_2005

> <r_lp_Energy>
23.6774

> <b_lp_Chiralities_Consistent>
1

> <s_lp_Variant>
AV-unprocessed.smi:2620-1

> <Gold.Version>
5.8.1

> <Gold.Id.Protein>
6NUR|6NUR_protein|mol2

> <Gold.PLP.Fitness>
48.9711

> <Gold.PLP.PLP>
-35.4106

> <Gold.PLP.part.hbond>
-5.0000

> <Gold.PLP.part.metal>
0.0000

> <Gold.PLP.part.buried>
-5.4787

> <Gold.PLP.part.nonpolar>
-26.4587

> <Gold.PLP.part.repulsive>
0.1754

> <Gold.PLP.ligand.clash>
0.0000

> <Gold.PLP.ligand.torsion>
1.3374

> <Gold.PLP.Chemscore.Hbond>
4.8320

> <Gold.PLP.Chemscore.CHOScore>
0.0000

> <Gold.PLP.Chemscore.Metal>
0.0000

> <Gold.Chemscore.Hbonds>
donor molecule, donor type, donor heavy atom, donor atom, acceptor molecule, acceptor atom, score
      L1  H    16    35       P1  8028  0.85
      P1  H  6896  6907       L1    22  1.00
      P1  H  6931  6943       L1     2  1.00
      P1  H  7989  7998       L1     9  1.00

> <Gold.PLP.Chemscore.Internal.Correction>
1.7393

> <Gold.Rescore>
     Score         DG    S(hbond)    S(metal)    S(lipo)     H(rot)  DE(clash)    DE(int)     intcor
     19.96     -22.27       3.71        0.00      80.86       1.98       0.12       2.20       ----

> <Gold.Chemscore.Fitness>
19.9555

> <Gold.Chemscore.DG>
-22.2658

> <Gold.Chemscore.ZeroCoef>
-5.4800

> <Gold.Chemscore.Hbond>
3.7137

> <Gold.Chemscore.Metal>
0.0000

> <Gold.Chemscore.Lipo>
80.8567

> <Gold.Chemscore.Internal_Hbond>
0.0000

> <Gold.Chemscore.DEClash>
0.1151

> <Gold.Chemscore.DEInternal>
2.1952

> <Gold.Chemscore.Rot>
1.9836

> <Gold.Chemscore.Internal.Correction>
   9.000000E+99

> <Gold.Chemscore.Hbonds>
donor molecule, donor type, donor heavy atom, donor atom, acceptor molecule, acceptor atom, score
      L1  H    16    35       P1  8028  0.82
      P1  H  6896  6907       L1    22  0.64
      P1  H  6931  6943       L1     2  0.67
      P1  H  7989  7998       L1     9  1.00

> <Gold.Chemscore.Hbond.Weighted>
-12.4036

> <Gold.Chemscore.Metal.Weighted>
-0.0000

> <Gold.Chemscore.Lipo.Weighted>
-9.4602

> <Gold.Chemscore.Internal_Hbond.Weighted>
0.0000

> <Gold.Chemscore.DEClash.Weighted>
0.1151

> <Gold.Chemscore.DEInternal.Weighted>
2.1952

> <Gold.Chemscore.Rot.Weighted>
5.0780

> <Gold.Chemscore.Internal.Correction.Weighted>
   9.000000E+99

> <Gold.Protein.RotatedTorsions>
[ 6907 6896 6895 6894 ] final -107.06 input  -60.11 | X-H torsion
[ 7974 7965 7964 7962 ] final   30.41 input  175.53 | X-H torsion
[ 8008 7997 7996 7995 ] final  -34.61 input   59.86 | X-H torsion
[ 10167 10162 10161 10158 ] final  138.29 input  -65.29 | X-H torsion
[ 10718 10713 10712 10709 ] final -106.08 input   66.30 | X-H torsion
[ 10763 10752 10751 10750 ] final   74.44 input  -60.55 | X-H torsion
[ 11005 11000 10999 10996 ] final -129.25 input  -57.11 | X-H torsion

> <Gold.Protein.ActiveResidues>
 VAL166  LYS551  ARG553  GLY616  TRP617  ASP618  TYR619  PRO620  LYS621  CYS622 
 ASP623  PHE694  ASN695  SER759  ASP760  ASP761  ALA762  ILE779  LEU786  VAL792 
 PHE793  MET794  SER795  GLU796  ALA797  LYS798  CYS799  TRP800  GLU811  SER814 

> <Gold.Protein.RotatedAtoms>
  150.7423  133.9884  159.3598 H   0  0  0  0  0  0  0  0  0  0  0  0  # atno 6907 bound_to 6896
  151.7830  135.0754  160.0386 H   0  0  0  0  0  0  0  0  0  0  0  0  # atno 6908 bound_to 6896
  152.3261  133.5870  159.5813 H   0  0  0  0  0  0  0  0  0  0  0  0  # atno 6909 bound_to 6896
  146.1613  139.6792  142.9031 H   0  0  0  0  0  0  0  0  0  0  0  0  # atno 7974 bound_to 7965
  154.4116  140.1679  156.2077 H   0  0  0  0  0  0  0  0  0  0  0  0  # atno 8008 bound_to 7997
  155.9470  140.3404  155.6352 H   0  0  0  0  0  0  0  0  0  0  0  0  # atno 8009 bound_to 7997
  155.6917  140.0734  157.2436 H   0  0  0  0  0  0  0  0  0  0  0  0  # atno 8010 bound_to 7997
  139.5115  144.6361  151.5692 H   0  0  0  0  0  0  0  0  0  0  0  0  # atno 10167 bound_to 10162
  156.0374  130.5595  150.7630 H   0  0  0  0  0  0  0  0  0  0  0  0  # atno 10718 bound_to 10713
  153.0587  135.5025  154.8043 H   0  0  0  0  0  0  0  0  0  0  0  0  # atno 10763 bound_to 10752
  154.6849  135.2974  154.9564 H   0  0  0  0  0  0  0  0  0  0  0  0  # atno 10764 bound_to 10752
  154.0338  135.6726  153.4836 H   0  0  0  0  0  0  0  0  0  0  0  0  # atno 10765 bound_to 10752
  140.9447  134.1146  157.4118 H   0  0  0  0  0  0  0  0  0  0  0  0  # atno 11005 bound_to 11000
  145.4580  141.0431  143.2767 LP  0  0  0  0  0  0  0  0  0  0  0  0  # atno 17320 bound_to 7965
  144.8031  139.6103  143.7063 LP  0  0  0  0  0  0  0  0  0  0  0  0  # atno 17321 bound_to 7965
  140.6111  143.9434  150.6454 LP  0  0  0  0  0  0  0  0  0  0  0  0  # atno 17342 bound_to 10162
  140.2677  143.3478  152.1266 LP  0  0  0  0  0  0  0  0  0  0  0  0  # atno 17343 bound_to 10162
  157.5144  131.0927  151.0158 LP  0  0  0  0  0  0  0  0  0  0  0  0  # atno 17370 bound_to 10713
  157.0504  130.5785  149.5369 LP  0  0  0  0  0  0  0  0  0  0  0  0  # atno 17371 bound_to 10713
  139.8830  135.0047  156.6269 LP  0  0  0  0  0  0  0  0  0  0  0  0  # atno 17394 bound_to 11000
  140.7686  133.8757  155.8474 LP  0  0  0  0  0  0  0  0  0  0  0  0  # atno 17395 bound_to 11000

$$$$
