AV-unprocessed.smi:283|AV-procd|sdf|2135|dock9
  -GOLD-   2262021453D 1   1.00000     0.00000
 Structure written by MMmdl.
 48 51  0  0  0  0  0  0  0  0  1 V2000
  147.5629  136.2600  158.2549 C   0  0  0  0  0  0  0  0  0  0  0  0
  148.2879  135.1522  159.0308 C   0  0  2  0  0  0  0  0  0  0  0  0
  148.1648  133.8808  158.3197 N   0  0  0  0  0  0  0  0  0  0  0  0
  148.4606  133.7935  157.0036 C   0  0  0  0  0  0  0  0  0  0  0  0
  149.6868  134.1429  156.5345 N   0  0  0  0  0  0  0  0  0  0  0  0
  149.9550  134.0448  155.2298 C   0  0  0  0  0  0  0  0  0  0  0  0
  149.1553  133.6345  154.2436 N   0  0  0  0  0  0  0  0  0  0  0  0
  147.9194  133.2869  154.7060 C   0  0  0  0  0  0  0  0  0  0  0  0
  147.4989  133.3393  156.0648 C   0  0  0  0  0  0  0  0  0  0  0  0
  146.1832  132.9091  156.1688 N   0  0  0  0  0  0  0  0  0  0  0  0
  145.8487  132.6207  154.9403 C   0  0  0  0  0  0  0  0  0  0  0  0
  146.8318  132.8152  153.9952 N   0  0  0  0  0  0  0  0  0  0  0  0
  146.7243  132.5632  152.5202 C   0  0  1  0  0  0  0  0  0  0  0  0
  145.4772  132.0058  152.2260 O   0  0  0  0  0  0  0  0  0  0  0  0
  144.7370  132.8624  151.3572 C   0  0  2  0  0  0  0  0  0  0  0  0
  143.7662  132.0548  150.4787 C   0  0  0  0  0  0  0  0  0  0  0  0
  143.3853  132.8182  149.3542 O   0  0  0  0  0  0  0  0  0  0  0  0
  145.8204  133.6448  150.6035 C   0  0  2  0  0  0  0  0  0  0  0  0
  146.3315  132.8943  149.5165 O   0  0  0  0  0  0  0  0  0  0  0  0
  146.8881  133.8388  151.6687 C   0  0  1  0  0  0  0  0  0  0  0  0
  146.6640  135.0408  152.3846 O   0  0  0  0  0  0  0  0  0  0  0  0
  147.8008  135.1069  160.4808 C   0  0  0  0  0  0  0  0  0  0  0  0
  147.8462  136.2800  161.2693 C   0  0  0  0  0  0  0  0  0  0  0  0
  147.4023  136.2655  162.6047 C   0  0  0  0  0  0  0  0  0  0  0  0
  146.9120  135.0742  163.1689 C   0  0  0  0  0  0  0  0  0  0  0  0
  146.8715  133.8985  162.3969 C   0  0  0  0  0  0  0  0  0  0  0  0
  147.3156  133.9067  161.0591 C   0  0  0  0  0  0  0  0  0  0  0  0
  147.2521  132.4292  160.1631 Cl  0  0  0  0  0  0  0  0  0  0  0  0
  147.4950  131.8195  152.3142 H   0  0  0  0  0  0  0  0  0  0  0  0
  144.1771  133.5784  151.9601 H   0  0  0  0  0  0  0  0  0  0  0  0
  145.4429  134.5905  150.2120 H   0  0  0  0  0  0  0  0  0  0  0  0
  147.8953  133.8769  151.2516 H   0  0  0  0  0  0  0  0  0  0  0  0
  147.7116  137.2306  158.7289 H   0  0  0  0  0  0  0  0  0  0  0  0
  146.4894  136.0745  158.2054 H   0  0  0  0  0  0  0  0  0  0  0  0
  147.9362  136.3332  157.2330 H   0  0  0  0  0  0  0  0  0  0  0  0
  149.3489  135.3986  159.0196 H   0  0  0  0  0  0  0  0  0  0  0  0
  148.0272  133.0670  158.9017 H   0  0  0  0  0  0  0  0  0  0  0  0
  150.9519  134.3364  154.9339 H   0  0  0  0  0  0  0  0  0  0  0  0
  144.8656  132.2514  154.6868 H   0  0  0  0  0  0  0  0  0  0  0  0
  144.2542  131.1521  150.1101 H   0  0  0  0  0  0  0  0  0  0  0  0
  142.8845  131.7439  151.0399 H   0  0  0  0  0  0  0  0  0  0  0  0
  142.8179  133.5159  149.6452 H   0  0  0  0  0  0  0  0  0  0  0  0
  146.2290  133.4023  148.7263 H   0  0  0  0  0  0  0  0  0  0  0  0
  147.3945  135.6207  152.2328 H   0  0  0  0  0  0  0  0  0  0  0  0
  148.2224  137.2021  160.8510 H   0  0  0  0  0  0  0  0  0  0  0  0
  147.4384  137.1686  163.1960 H   0  0  0  0  0  0  0  0  0  0  0  0
  146.5698  135.0615  164.1931 H   0  0  0  0  0  0  0  0  0  0  0  0
  146.4983  132.9843  162.8346 H   0  0  0  0  0  0  0  0  0  0  0  0
  1  2  1  0  0  0  0
  1 33  1  0  0  0  0
  1 34  1  0  0  0  0
  1 35  1  0  0  0  0
  2  3  1  0  0  0  0
  2 22  1  0  0  0  0
  2 36  1  0  0  0  0
  3  4  1  0  0  0  0
  3 37  1  0  0  0  0
  4  9  1  0  0  0  0
  4  5  2  0  0  0  0
  5  6  1  0  0  0  0
  6  7  2  0  0  0  0
  6 38  1  0  0  0  0
  7  8  1  0  0  0  0
  8 12  1  0  0  0  0
  8  9  2  0  0  0  0
  9 10  1  0  0  0  0
 10 11  2  0  0  0  0
 11 12  1  0  0  0  0
 11 39  1  0  0  0  0
 12 13  1  0  0  0  0
 13 29  1  0  0  0  0
 13 20  1  0  0  0  0
 13 14  1  0  0  0  0
 14 15  1  0  0  0  0
 15 30  1  0  0  0  0
 15 16  1  0  0  0  0
 15 18  1  0  0  0  0
 16 17  1  0  0  0  0
 16 40  1  0  0  0  0
 16 41  1  0  0  0  0
 17 42  1  0  0  0  0
 18 31  1  0  0  0  0
 18 19  1  0  0  0  0
 18 20  1  0  0  0  0
 19 43  1  0  0  0  0
 20 32  1  0  0  0  0
 20 21  1  0  0  0  0
 21 44  1  0  0  0  0
 22 27  1  0  0  0  0
 22 23  2  0  0  0  0
 23 24  1  0  0  0  0
 23 45  1  0  0  0  0
 24 25  2  0  0  0  0
 24 46  1  0  0  0  0
 25 26  1  0  0  0  0
 25 47  1  0  0  0  0
 26 27  2  0  0  0  0
 26 48  1  0  0  0  0
 27 28  1  0  0  0  0
M  END
> <s_m_source_file>
AV-unprocessed.smi

> <i_m_source_file_index>
283

> <i_lp_mmshare_version>
43012

> <i_f3d_flags>
0

> <s_epik_input>
Q2xjMVtjSF1bY0hdW2NIXVtjSF1jMVtDQEhdKFtDSDNdKVtOSF1jKG5bY0hdbjIpYyhjMjMpbltjSF1uM1tDQEBIXTRPW0NASF0oW0NIMl1bT0hdKVtDQEBIXShbT0hdKVtDQEhdNFtPSF0=

> <s_epik_cmdline>
J2VwaWtfcHl0aG9uJywgJy1waCcsICc3LjAnLCAnLXRuJywgJzgnLCAnLW1hJywgJzIwMCcsICctbWV0YWxfYmluZGluZycsICctaW1hZScsICc8aW5maWxlLm1hZT4nLCAnLW9tYWUnLCAnPG91dGZpbGUubWFlPic=

> <r_lp_tautomer_probability>
1

> <r_epik_Ionization_Penalty>
0.000266407

> <r_epik_Ionization_Penalty_Charging>
0

> <r_epik_Ionization_Penalty_Neutral>
0.000266407

> <r_epik_State_Penalty>
-0

> <r_epik_Charging_Adjusted_Penalty>
0

> <i_epik_Tot_Q>
0

> <i_epik_Tot_abs_Q>
0

> <r_epik_Metal_State_Penalty>
-0

> <b_epik_Metal_Only>
0

> <s_epik_Chemistry_Notes>
This compound contains an acetal/aminal-like group ( X-CH(R)-Y where X, Y are N, S, or O) that may be acid/base labile, releasing an aldehyde.

> <s_lp_Force_Field>
OPLS_2005

> <r_lp_Energy>
46.2986

> <b_lp_Chiralities_Consistent>
1

> <s_lp_Variant>
AV-unprocessed.smi:283-11

> <Gold.Version>
5.8.1

> <Gold.Id.Protein>
6NUR|6NUR_protein|mol2

> <Gold.PLP.Fitness>
49.8228

> <Gold.PLP.PLP>
-41.3534

> <Gold.PLP.part.hbond>
-3.9656

> <Gold.PLP.part.metal>
0.0000

> <Gold.PLP.part.buried>
-4.0605

> <Gold.PLP.part.nonpolar>
-33.9994

> <Gold.PLP.part.repulsive>
0.4838

> <Gold.PLP.ligand.clash>
0.0000

> <Gold.PLP.ligand.torsion>
0.8140

> <Gold.PLP.Chemscore.Hbond>
2.3500

> <Gold.PLP.Chemscore.CHOScore>
1.0000

> <Gold.PLP.Chemscore.Metal>
0.0000

> <Gold.Chemscore.Hbonds>
donor molecule, donor type, donor heavy atom, donor atom, acceptor molecule, acceptor atom, score
      L1  H    17    42       P1 10186  0.96
      L1  H    21    44       P1  7948  1.00
      L1  C    11    39       P1 10957  1.00

> <Gold.PLP.Chemscore.Internal.Correction>
0.0473

> <Gold.Rescore>
     Score         DG    S(hbond)    S(metal)    S(lipo)     H(rot)  DE(clash)    DE(int)     intcor
      9.68     -12.16       1.94        0.00      91.30       4.10       0.05       2.43       ----

> <Gold.Chemscore.Fitness>
9.6772

> <Gold.Chemscore.DG>
-12.1572

> <Gold.Chemscore.ZeroCoef>
-5.4800

> <Gold.Chemscore.Hbond>
1.9411

> <Gold.Chemscore.Metal>
0.0000

> <Gold.Chemscore.Lipo>
91.2993

> <Gold.Chemscore.Internal_Hbond>
0.0000

> <Gold.Chemscore.DEClash>
0.0458

> <Gold.Chemscore.DEInternal>
2.4343

> <Gold.Chemscore.Rot>
4.0968

> <Gold.Chemscore.Internal.Correction>
   9.000000E+99

> <Gold.Chemscore.Hbonds>
donor molecule, donor type, donor heavy atom, donor atom, acceptor molecule, acceptor atom, score
      L1  H    17    42       P1 10186  0.86
      L1  H    21    44       P1  7948  1.00

> <Gold.Chemscore.Hbond.Weighted>
-6.4832

> <Gold.Chemscore.Metal.Weighted>
-0.0000

> <Gold.Chemscore.Lipo.Weighted>
-10.6820

> <Gold.Chemscore.Internal_Hbond.Weighted>
0.0000

> <Gold.Chemscore.DEClash.Weighted>
0.0458

> <Gold.Chemscore.DEInternal.Weighted>
2.4343

> <Gold.Chemscore.Rot.Weighted>
10.4879

> <Gold.Chemscore.Internal.Correction.Weighted>
   9.000000E+99

> <Gold.Protein.RotatedTorsions>
[ 6907 6896 6895 6894 ] final  127.50 input  -60.11 | X-H torsion
[ 7974 7965 7964 7962 ] final   24.22 input  175.53 | X-H torsion
[ 8008 7997 7996 7995 ] final  -22.60 input   59.86 | X-H torsion
[ 10167 10162 10161 10158 ] final -102.86 input  -65.29 | X-H torsion
[ 10718 10713 10712 10709 ] final -136.41 input   66.30 | X-H torsion
[ 10763 10752 10751 10750 ] final   92.85 input  -60.55 | X-H torsion
[ 11005 11000 10999 10996 ] final  -25.75 input  -57.11 | X-H torsion

> <Gold.Protein.ActiveResidues>
 VAL166  LYS551  ARG553  GLY616  TRP617  ASP618  TYR619  PRO620  LYS621  CYS622 
 ASP623  PHE694  ASN695  SER759  ASP760  ASP761  ALA762  ILE779  LEU786  VAL792 
 PHE793  MET794  SER795  GLU796  ALA797  LYS798  CYS799  TRP800  GLU811  SER814 

> <Gold.Protein.RotatedAtoms>
  152.3807  133.6542  159.6158 H   0  0  0  0  0  0  0  0  0  0  0  0  # atno 6907 bound_to 6896
  150.7739  133.9118  159.3380 H   0  0  0  0  0  0  0  0  0  0  0  0  # atno 6908 bound_to 6896
  151.6924  135.0945  160.0287 H   0  0  0  0  0  0  0  0  0  0  0  0  # atno 6909 bound_to 6896
  146.1948  139.7635  142.8805 H   0  0  0  0  0  0  0  0  0  0  0  0  # atno 7974 bound_to 7965
  154.4634  140.2003  156.0182 H   0  0  0  0  0  0  0  0  0  0  0  0  # atno 8008 bound_to 7997
  156.0883  140.3262  155.7754 H   0  0  0  0  0  0  0  0  0  0  0  0  # atno 8009 bound_to 7997
  155.4999  140.0553  157.2931 H   0  0  0  0  0  0  0  0  0  0  0  0  # atno 8010 bound_to 7997
  140.2262  143.3640  152.0927 H   0  0  0  0  0  0  0  0  0  0  0  0  # atno 10167 bound_to 10162
  156.2768  130.7297  151.1282 H   0  0  0  0  0  0  0  0  0  0  0  0  # atno 10718 bound_to 10713
  153.2238  135.4346  155.0519 H   0  0  0  0  0  0  0  0  0  0  0  0  # atno 10763 bound_to 10752
  154.8263  135.3362  154.6888 H   0  0  0  0  0  0  0  0  0  0  0  0  # atno 10764 bound_to 10752
  153.7319  135.7010  153.5043 H   0  0  0  0  0  0  0  0  0  0  0  0  # atno 10765 bound_to 10752
  140.8966  133.7552  156.0490 H   0  0  0  0  0  0  0  0  0  0  0  0  # atno 11005 bound_to 11000
  145.3680  141.0337  143.3247 LP  0  0  0  0  0  0  0  0  0  0  0  0  # atno 17320 bound_to 7965
  144.8557  139.5253  143.6835 LP  0  0  0  0  0  0  0  0  0  0  0  0  # atno 17321 bound_to 7965
  139.5126  144.6920  151.5735 LP  0  0  0  0  0  0  0  0  0  0  0  0  # atno 17342 bound_to 10162
  140.6219  143.9242  150.6533 LP  0  0  0  0  0  0  0  0  0  0  0  0  # atno 17343 bound_to 10162
  157.7302  131.0618  150.5739 LP  0  0  0  0  0  0  0  0  0  0  0  0  # atno 17370 bound_to 10713
  156.5841  130.4312  149.5964 LP  0  0  0  0  0  0  0  0  0  0  0  0  # atno 17371 bound_to 10713
  140.8281  134.3210  157.5358 LP  0  0  0  0  0  0  0  0  0  0  0  0  # atno 17394 bound_to 11000
  139.8736  134.9348  156.3616 LP  0  0  0  0  0  0  0  0  0  0  0  0  # atno 17395 bound_to 11000

$$$$
