#       Name:                AV-unprocessed.smi:1712
#       Creating user name   scv26
#       Creation time:       Fri Mar 27 08:10:30 2020


#       File generated by GOLD software.
#

@<TRIPOS>MOLECULE
AV-unprocessed.smi:1712
    43    44     1
SMALL
NO_CHARGES


@<TRIPOS>ATOM
      1 ****        -1.5308   0.7682   1.7115 C.3            1 S1                 0.0000
      2 ****        -1.0033  -0.6771   1.5650 C.3            1 S1                 0.0000
      3 ****         0.5422  -0.6499   1.6930 C.3            1 S1                 0.0000
      4 ****         1.1840  -0.0464   0.5265 N.am           1 S1                 0.0000
      5 ****         1.7437   1.1708   0.4846 C.2            1 S1                 0.0000
      6 ****         1.7999   1.9315   1.4512 O.2            1 S1                 0.0000
      7 ****         2.2197   1.4452  -0.7408 N.am           1 S1                 0.0000
      8 ****         2.8870   2.6232  -1.1614 C.2            1 S1                 0.0000
      9 ****         3.3307   2.8714  -2.4886 C.2            1 S1                 0.0000
     10 ****         3.9264   4.0514  -2.5871 N.2            1 S1                 0.0000
     11 ****         3.8679   4.5584  -1.3348 N.pl3          1 S1                 0.0000
     12 ****         3.2437   3.7239  -0.4338 C.2            1 S1                 0.0000
     13 ****        -1.4959  -1.3639   0.3506 N.3            1 S1                 0.0000
     14 ****        -1.0139  -2.7446   0.2481 C.3            1 S1                 0.0000
     15 ****        -1.5386  -3.4614  -1.0079 C.3            1 S1                 0.0000
     16 ****        -2.9598  -3.4364  -1.0146 O.3            1 S1                 0.0000
     17 ****        -3.4736  -2.1113  -0.9830 C.3            1 S1                 0.0000
     18 ****        -2.9596  -1.3857   0.2725 C.3            1 S1                 0.0000
     19 ****         4.2547   5.4648  -1.1127 H              1 S1                 0.0000
     20 ****        -1.0538   1.2798   2.5478 H              1 S1                 0.0000
     21 ****        -2.6016   0.7954   1.9107 H              1 S1                 0.0000
     22 ****        -1.3406   1.3576   0.8139 H              1 S1                 0.0000
     23 ****        -1.3708  -1.2270   2.4327 H              1 S1                 0.0000
     24 ****         0.8296  -0.1294   2.6081 H              1 S1                 0.0000
     25 ****         0.9417  -1.6553   1.8205 H              1 S1                 0.0000
     26 ****         1.1788  -0.5940  -0.3216 H              1 S1                 0.0000
     27 ****         2.0904   0.7370  -1.4485 H              1 S1                 0.0000
     28 ****         3.2423   2.2470  -3.3656 H              1 S1                 0.0000
     29 ****         3.1190   3.9851   0.6064 H              1 S1                 0.0000
     30 ****         0.0738  -2.7693   0.2070 H              1 S1                 0.0000
     31 ****        -1.3095  -3.3065   1.1354 H              1 S1                 0.0000
     32 ****        -1.1540  -2.9870  -1.9123 H              1 S1                 0.0000
     33 ****        -1.2011  -4.4978  -1.0219 H              1 S1                 0.0000
     34 ****        -3.1775  -1.5763  -1.8869 H              1 S1                 0.0000
     35 ****        -4.5630  -2.1520  -0.9772 H              1 S1                 0.0000
     36 ****        -3.3700  -1.8666   1.1618 H              1 S1                 0.0000
     37 ****        -3.3569  -0.3721   0.2499 H              1 S1                 0.0000
     38 ****         1.4142   1.6520   2.3305 LP             1 S1                 0.0000
     39 ****         2.2312   2.8287   1.3570 LP             1 S1                 0.0000
     40 ****         4.3274   4.4709  -3.4014 LP             1 S1                 0.0000
     41 ****        -1.1291  -0.8274  -0.4093 LP             1 S1                 0.0000
     42 ****        -3.2944  -3.9308  -0.2123 LP             1 S1                 0.0000
     43 ****        -3.2860  -3.8886  -1.8447 LP             1 S1                 0.0000
@<TRIPOS>BOND
    1    1    2 1     
    2    1   20 1     
    3    1   21 1     
    4    1   22 1     
    5    2    3 1     
    6    2   13 1     
    7    2   23 1     
    8    3    4 1     
    9    3   24 1     
   10    3   25 1     
   11    4    5 am    
   12    4   26 1     
   13    5    6 2     
   14    5    7 am    
   15    7    8 1     
   16    7   27 1     
   17    8   12 2     
   18    8    9 1     
   19    9   10 2     
   20    9   28 1     
   21   10   11 1     
   22   11   19 1     
   23   11   12 1     
   24   12   29 1     
   25   13   18 1     
   26   13   14 1     
   27   14   15 1     
   28   14   30 1     
   29   14   31 1     
   30   15   16 1     
   31   15   32 1     
   32   15   33 1     
   33   16   17 1     
   34   17   18 1     
   35   17   34 1     
   36   17   35 1     
   37   18   36 1     
   38   18   37 1     
   39    6   38 1     
   40    6   39 1     
   41   10   40 1     
   42   13   41 1     
   43   16   42 1     
   44   16   43 1     
@<TRIPOS>SUBSTRUCTURE
      1 S1             1
@<TRIPOS>SET
LONE_PAIRS      STATIC     ATOMS    <user>   **** ""
6 38 39 40 41 42 43
DONOR_HYDROGENS      STATIC     ATOMS    <user>   **** ""
3 26 27 19
ATOM$BLUE        STATIC     ATOMS    COLORGROUP SYSTEM
6 38 39 40 41 42 43
ATOM$RED        STATIC     ATOMS    COLORGROUP SYSTEM
3 26 27 19
