AV-unprocessed.smi:1417|AV-procd|sdf|5767|dock8
  -GOLD-   22720 5413D 1   1.00000     0.00000
 Structure written by MMmdl.
 40 41  0  0  0  0  0  0  0  0  2 V2000
  153.7946  141.5745  159.8684 C   0  0  0  0  0  0  0  0  0  0  0  0
  152.7869  141.5129  158.7720 C   0  0  0  0  0  0  0  0  0  0  0  0
  151.7980  142.3650  158.3684 C   0  0  0  0  0  0  0  0  0  0  0  0
  151.2211  141.6811  157.2588 C   0  0  0  0  0  0  0  0  0  0  0  0
  150.1373  142.1326  156.4624 N   0  0  0  0  0  0  0  0  0  0  0  0
  149.5417  141.5101  155.4316 C   0  0  0  0  0  0  0  0  0  0  0  0
  149.8465  140.4009  154.9941 O   0  0  0  0  0  0  0  0  0  0  0  0
  148.5526  142.2580  154.9207 N   0  0  0  0  0  0  0  0  0  0  0  0
  147.6944  141.8766  153.7992 C   0  0  2  0  0  0  0  0  0  0  0  0
  146.5231  142.8616  153.6109 C   0  0  0  0  0  0  0  0  0  0  0  0
  145.4863  142.7461  154.7420 C   0  0  0  0  0  0  0  0  0  0  0  0
  144.9825  141.3522  154.8650 N   0  3  2  0  0  0  0  0  0  0  0  0
  143.8769  141.2167  155.8484 C   0  0  0  0  0  0  0  0  0  0  0  0
  143.2734  139.8086  155.8834 C   0  0  0  0  0  0  0  0  0  0  0  0
  142.7961  139.3288  154.7327 N   0  0  0  0  0  0  0  0  0  0  0  0
  143.2225  139.1675  156.9316 O   0  0  0  0  0  0  0  0  0  0  0  0
  146.0875  140.3925  155.1180 C   0  0  0  0  0  0  0  0  0  0  0  0
  147.1463  140.4533  154.0015 C   0  0  0  0  0  0  0  0  0  0  0  0
  151.8041  140.5218  157.0163 N   0  0  0  0  0  0  0  0  0  0  0  0
  152.8110  140.4062  157.9818 O   0  0  0  0  0  0  0  0  0  0  0  0
  153.6216  142.4400  160.5082 H   0  0  0  0  0  0  0  0  0  0  0  0
  154.8031  141.6505  159.4617 H   0  0  0  0  0  0  0  0  0  0  0  0
  153.7458  140.6801  160.4896 H   0  0  0  0  0  0  0  0  0  0  0  0
  151.5444  143.3179  158.8078 H   0  0  0  0  0  0  0  0  0  0  0  0
  149.7701  143.0386  156.7130 H   0  0  0  0  0  0  0  0  0  0  0  0
  148.3693  143.1531  155.3501 H   0  0  0  0  0  0  0  0  0  0  0  0
  148.3053  141.8782  152.8943 H   0  0  0  0  0  0  0  0  0  0  0  0
  146.8880  143.8869  153.5413 H   0  0  0  0  0  0  0  0  0  0  0  0
  146.0324  142.6542  152.6589 H   0  0  0  0  0  0  0  0  0  0  0  0
  145.9243  143.0629  155.6896 H   0  0  0  0  0  0  0  0  0  0  0  0
  144.6605  143.4274  154.5367 H   0  0  0  0  0  0  0  0  0  0  0  0
  144.2523  141.4182  156.8526 H   0  0  0  0  0  0  0  0  0  0  0  0
  143.1040  141.9607  155.6478 H   0  0  0  0  0  0  0  0  0  0  0  0
  142.3906  138.4047  154.6950 H   0  0  0  0  0  0  0  0  0  0  0  0
  142.8459  139.8936  153.8964 H   0  0  0  0  0  0  0  0  0  0  0  0
  146.5414  140.6051  156.0870 H   0  0  0  0  0  0  0  0  0  0  0  0
  145.6887  139.3789  155.1723 H   0  0  0  0  0  0  0  0  0  0  0  0
  146.6971  140.1084  153.0689 H   0  0  0  0  0  0  0  0  0  0  0  0
  147.9606  139.7606  154.2182 H   0  0  0  0  0  0  0  0  0  0  0  0
  144.5895  141.1019  153.9682 H   0  0  0  0  0  0  0  0  0  0  0  0
  1  2  1  0  0  0  0
  1 21  1  0  0  0  0
  1 22  1  0  0  0  0
  1 23  1  0  0  0  0
  2 20  1  0  0  0  0
  2  3  2  0  0  0  0
  3  4  1  0  0  0  0
  3 24  1  0  0  0  0
  4  5  1  0  0  0  0
  4 19  2  0  0  0  0
  5  6  1  0  0  0  0
  5 25  1  0  0  0  0
  6  7  2  0  0  0  0
  6  8  1  0  0  0  0
  8  9  1  0  0  0  0
  8 26  1  0  0  0  0
  9 18  1  0  0  0  0
  9 10  1  0  0  0  0
  9 27  1  0  0  0  0
 10 11  1  0  0  0  0
 10 28  1  0  0  0  0
 10 29  1  0  0  0  0
 11 12  1  0  0  0  0
 11 30  1  0  0  0  0
 11 31  1  0  0  0  0
 12 13  1  0  0  0  0
 12 17  1  0  0  0  0
 12 40  1  0  0  0  0
 13 14  1  0  0  0  0
 13 32  1  0  0  0  0
 13 33  1  0  0  0  0
 14 15  1  0  0  0  0
 14 16  2  0  0  0  0
 15 34  1  0  0  0  0
 15 35  1  0  0  0  0
 17 18  1  0  0  0  0
 17 36  1  0  0  0  0
 17 37  1  0  0  0  0
 18 38  1  0  0  0  0
 18 39  1  0  0  0  0
 19 20  1  0  0  0  0
M  CHG  1  12   1
M  END
> <s_m_source_file>
AV-unprocessed.smi

> <i_m_source_file_index>
1417

> <i_lp_mmshare_version>
43012

> <i_f3d_flags>
0

> <s_epik_input>
W0NIM11jMVtjSF1jKG5vMSlbTkhdQyg9TylbTkhdW0NIXTJbQ0gyXVtDSDJdTihbQ0gyXVtDSDJdMilbQ0gyXUMoPU8pW05IMl0=

> <s_epik_cmdline>
J2VwaWtfcHl0aG9uJywgJy1waCcsICc3LjAnLCAnLXRuJywgJzgnLCAnLW1hJywgJzIwMCcsICctbWV0YWxfYmluZGluZycsICctaW1hZScsICc8aW5maWxlLm1hZT4nLCAnLW9tYWUnLCAnPG91dGZpbGUubWFlPic=

> <r_epik_Ionization_Penalty>
0.867698

> <r_epik_Ionization_Penalty_Charging>
0.867623

> <r_epik_Ionization_Penalty_Neutral>
7.46743e-05

> <r_epik_State_Penalty>
0.904669

> <r_epik_Charging_Adjusted_Penalty>
1.77229

> <i_epik_Tot_Q>
1

> <i_epik_Tot_abs_Q>
1

> <r_epik_Metal_State_Penalty>
0.930696

> <b_epik_Metal_Only>
0

> <s_lp_Force_Field>
OPLS_2005

> <r_lp_Energy>
12.5471

> <b_lp_Chiralities_Consistent>
1

> <s_lp_Variant>
AV-unprocessed.smi:1417-3

> <Gold.Version>
5.8.1

> <Gold.Id.Protein>
6NUR|6NUR_protein|mol2

> <Gold.PLP.Fitness>
45.9105

> <Gold.PLP.PLP>
-29.6570

> <Gold.PLP.part.hbond>
-5.2068

> <Gold.PLP.part.metal>
0.0000

> <Gold.PLP.part.buried>
-4.8905

> <Gold.PLP.part.nonpolar>
-18.0766

> <Gold.PLP.part.repulsive>
0.3652

> <Gold.PLP.ligand.clash>
0.0000

> <Gold.PLP.ligand.torsion>
0.1188

> <Gold.PLP.Chemscore.Hbond>
5.4885

> <Gold.PLP.Chemscore.CHOScore>
0.0000

> <Gold.PLP.Chemscore.Metal>
0.0000

> <Gold.Chemscore.Hbonds>
donor molecule, donor type, donor heavy atom, donor atom, acceptor molecule, acceptor atom, score
      L1  H     5    25       P1  8028  0.48
      L1  H     8    26       P1  8028  0.98
      L1  H    12    40       P1 10175  2.00
      L1  H    15    35       P1 10175  1.00
      P1  H  7989  7998       L1     7  0.14
      P1  H  7997  8010       L1    20  0.88

> <Gold.PLP.Chemscore.Internal.Correction>
0.0257

> <Gold.Rescore>
     Score         DG    S(hbond)    S(metal)    S(lipo)     H(rot)  DE(clash)    DE(int)     intcor
     17.26     -21.02       4.16        0.00      58.70       2.05       1.04       2.72       ----

> <Gold.Chemscore.Fitness>
17.2635

> <Gold.Chemscore.DG>
-21.0167

> <Gold.Chemscore.ZeroCoef>
-5.4800

> <Gold.Chemscore.Hbond>
4.1635

> <Gold.Chemscore.Metal>
0.0000

> <Gold.Chemscore.Lipo>
58.6973

> <Gold.Chemscore.Internal_Hbond>
0.0000

> <Gold.Chemscore.DEClash>
1.0371

> <Gold.Chemscore.DEInternal>
2.7161

> <Gold.Chemscore.Rot>
2.0457

> <Gold.Chemscore.Internal.Correction>
   9.000000E+99

> <Gold.Chemscore.Hbonds>
donor molecule, donor type, donor heavy atom, donor atom, acceptor molecule, acceptor atom, score
      L1  H     5    25       P1  8028  0.48
      L1  H     8    26       P1  8028  0.92
      L1  H    12    40       P1 10175  0.74
      L1  H    15    35       P1 10175  0.98
      P1  H  7989  7998       L1     7  0.06
      P1  H  7997  8010       L1    20  0.34

> <Gold.Chemscore.Hbond.Weighted>
-13.9061

> <Gold.Chemscore.Metal.Weighted>
-0.0000

> <Gold.Chemscore.Lipo.Weighted>
-6.8676

> <Gold.Chemscore.Internal_Hbond.Weighted>
0.0000

> <Gold.Chemscore.DEClash.Weighted>
1.0371

> <Gold.Chemscore.DEInternal.Weighted>
2.7161

> <Gold.Chemscore.Rot.Weighted>
5.2371

> <Gold.Chemscore.Internal.Correction.Weighted>
   9.000000E+99

> <Gold.Protein.RotatedTorsions>
[ 6907 6896 6895 6894 ] final   19.56 input  -60.11 | X-H torsion
[ 7974 7965 7964 7962 ] final   58.44 input  175.53 | X-H torsion
[ 8008 7997 7996 7995 ] final   43.58 input   59.86 | X-H torsion
[ 10167 10162 10161 10158 ] final   88.95 input  -65.29 | X-H torsion
[ 10718 10713 10712 10709 ] final   -9.79 input   66.30 | X-H torsion
[ 10763 10752 10751 10750 ] final  -28.95 input  -60.55 | X-H torsion
[ 11005 11000 10999 10996 ] final -139.23 input  -57.11 | X-H torsion

> <Gold.Protein.ActiveResidues>
 VAL166  LYS551  ARG553  GLY616  TRP617  ASP618  TYR619  PRO620  LYS621  CYS622 
 ASP623  PHE694  ASN695  SER759  ASP760  ASP761  ALA762  ILE779  LEU786  VAL792 
 PHE793  MET794  SER795  GLU796  ALA797  LYS798  CYS799  TRP800  GLU811  SER814 

> <Gold.Protein.RotatedAtoms>
  151.8828  135.0447  160.0490 H   0  0  0  0  0  0  0  0  0  0  0  0  # atno 6907 bound_to 6896
  152.2499  133.5201  159.5327 H   0  0  0  0  0  0  0  0  0  0  0  0  # atno 6908 bound_to 6896
  150.7080  134.0891  159.3967 H   0  0  0  0  0  0  0  0  0  0  0  0  # atno 6909 bound_to 6896
  145.9181  139.3707  143.0495 H   0  0  0  0  0  0  0  0  0  0  0  0  # atno 7974 bound_to 7965
  155.3051  140.3387  155.4246 H   0  0  0  0  0  0  0  0  0  0  0  0  # atno 8008 bound_to 7997
  156.1982  140.1723  156.7992 H   0  0  0  0  0  0  0  0  0  0  0  0  # atno 8009 bound_to 7997
  154.5526  140.0702  156.8676 H   0  0  0  0  0  0  0  0  0  0  0  0  # atno 8010 bound_to 7997
  139.8621  144.6538  150.9046 H   0  0  0  0  0  0  0  0  0  0  0  0  # atno 10167 bound_to 10162
  156.6829  130.5042  149.5966 H   0  0  0  0  0  0  0  0  0  0  0  0  # atno 10718 bound_to 10713
  153.7567  135.6922  153.4934 H   0  0  0  0  0  0  0  0  0  0  0  0  # atno 10763 bound_to 10752
  153.1966  135.4451  155.0214 H   0  0  0  0  0  0  0  0  0  0  0  0  # atno 10764 bound_to 10752
  154.8168  135.3402  154.7084 H   0  0  0  0  0  0  0  0  0  0  0  0  # atno 10765 bound_to 10752
  140.8540  134.2251  157.4745 H   0  0  0  0  0  0  0  0  0  0  0  0  # atno 11005 bound_to 11000
  145.8585  140.9489  143.0712 LP  0  0  0  0  0  0  0  0  0  0  0  0  # atno 17320 bound_to 7965
  144.6750  140.0499  143.7479 LP  0  0  0  0  0  0  0  0  0  0  0  0  # atno 17321 bound_to 7965
  140.7773  143.3735  151.1606 LP  0  0  0  0  0  0  0  0  0  0  0  0  # atno 17342 bound_to 10162
  139.7363  143.8993  152.3036 LP  0  0  0  0  0  0  0  0  0  0  0  0  # atno 17343 bound_to 10162
  156.1854  130.6526  151.1000 LP  0  0  0  0  0  0  0  0  0  0  0  0  # atno 17370 bound_to 10713
  157.7037  131.0765  150.6737 LP  0  0  0  0  0  0  0  0  0  0  0  0  # atno 17371 bound_to 10713
  139.8705  134.9697  156.4676 LP  0  0  0  0  0  0  0  0  0  0  0  0  # atno 17394 bound_to 11000
  140.8758  133.7954  155.9413 LP  0  0  0  0  0  0  0  0  0  0  0  0  # atno 17395 bound_to 11000

$$$$
