AV-unprocessed.smi:1410|AV-procd|sdf|5733|dock5
  -GOLD-   22720 5363D 1   1.00000     0.00000
 Structure written by MMmdl.
 41 42  0  0  0  0  0  0  0  0  3 V2000
  142.2838  132.2301  148.0175 N   0  0  0  0  0  0  0  0  0  0  0  0
  143.4792  132.6809  148.4041 C   0  0  0  0  0  0  0  0  0  0  0  0
  144.1869  133.3713  147.6730 O   0  0  0  0  0  0  0  0  0  0  0  0
  143.9314  132.3141  149.8217 C   0  0  0  0  0  0  0  0  0  0  0  0
  144.8298  133.3304  150.4277 N   0  3  2  0  0  0  0  0  0  0  0  0
  145.6099  132.8062  151.5810 C   0  0  0  0  0  0  0  0  0  0  0  0
  146.6239  133.8475  152.0823 C   0  0  0  0  0  0  0  0  0  0  0  0
  145.9239  135.1613  152.4643 C   0  0  1  0  0  0  0  0  0  0  0  0
  146.9161  136.1568  152.8602 N   0  0  0  0  0  0  0  0  0  0  0  0
  146.6519  137.4433  153.1316 C   0  0  0  0  0  0  0  0  0  0  0  0
  145.5252  137.9329  153.0584 O   0  0  0  0  0  0  0  0  0  0  0  0
  147.7700  138.1113  153.4651 N   0  0  0  0  0  0  0  0  0  0  0  0
  147.9083  139.4699  153.8616 C   0  0  0  0  0  0  0  0  0  0  0  0
  146.7842  140.3117  153.7078 C   0  0  0  0  0  0  0  0  0  0  0  0
  146.8784  141.6718  154.0673 C   0  0  0  0  0  0  0  0  0  0  0  0
  148.0416  142.1613  154.5468 N   0  3  0  0  0  0  0  0  0  0  0  0
  149.1462  141.3999  154.6994 C   0  0  0  0  0  0  0  0  0  0  0  0
  149.1126  140.0327  154.3569 C   0  0  0  0  0  0  0  0  0  0  0  0
  145.0883  135.6648  151.2733 C   0  0  0  0  0  0  0  0  0  0  0  0
  144.1126  134.5830  150.7791 C   0  0  0  0  0  0  0  0  0  0  0  0
  141.9418  132.4488  147.0924 H   0  0  0  0  0  0  0  0  0  0  0  0
  141.7214  131.6753  148.6465 H   0  0  0  0  0  0  0  0  0  0  0  0
  143.0256  132.2217  150.4223 H   0  0  0  0  0  0  0  0  0  0  0  0
  144.4145  131.3354  149.8295 H   0  0  0  0  0  0  0  0  0  0  0  0
  144.9286  132.5286  152.3871 H   0  0  0  0  0  0  0  0  0  0  0  0
  146.1429  131.8992  151.2951 H   0  0  0  0  0  0  0  0  0  0  0  0
  147.1662  133.4486  152.9403 H   0  0  0  0  0  0  0  0  0  0  0  0
  147.3667  134.0320  151.3044 H   0  0  0  0  0  0  0  0  0  0  0  0
  145.2588  134.9600  153.3067 H   0  0  0  0  0  0  0  0  0  0  0  0
  147.8718  135.8403  152.9385 H   0  0  0  0  0  0  0  0  0  0  0  0
  148.6335  137.5936  153.3901 H   0  0  0  0  0  0  0  0  0  0  0  0
  145.8532  139.9218  153.3218 H   0  0  0  0  0  0  0  0  0  0  0  0
  146.0645  142.3774  153.9838 H   0  0  0  0  0  0  0  0  0  0  0  0
  150.0208  141.9055  155.0820 H   0  0  0  0  0  0  0  0  0  0  0  0
  150.0137  139.4498  154.4691 H   0  0  0  0  0  0  0  0  0  0  0  0
  144.5298  136.5586  151.5549 H   0  0  0  0  0  0  0  0  0  0  0  0
  145.7478  135.9581  150.4549 H   0  0  0  0  0  0  0  0  0  0  0  0
  143.5779  134.9589  149.9061 H   0  0  0  0  0  0  0  0  0  0  0  0
  143.3636  134.3728  151.5443 H   0  0  0  0  0  0  0  0  0  0  0  0
  145.4959  133.5765  149.7090 H   0  0  0  0  0  0  0  0  0  0  0  0
  148.0898  143.1489  154.7996 H   0  0  0  0  0  0  0  0  0  0  0  0
  1  2  1  0  0  0  0
  1 21  1  0  0  0  0
  1 22  1  0  0  0  0
  2  3  2  0  0  0  0
  2  4  1  0  0  0  0
  4  5  1  0  0  0  0
  4 23  1  0  0  0  0
  4 24  1  0  0  0  0
  5 20  1  0  0  0  0
  5  6  1  0  0  0  0
  5 40  1  0  0  0  0
  6  7  1  0  0  0  0
  6 25  1  0  0  0  0
  6 26  1  0  0  0  0
  7  8  1  0  0  0  0
  7 27  1  0  0  0  0
  7 28  1  0  0  0  0
  8  9  1  0  0  0  0
  8 19  1  0  0  0  0
  8 29  1  0  0  0  0
  9 10  1  0  0  0  0
  9 30  1  0  0  0  0
 10 11  2  0  0  0  0
 10 12  1  0  0  0  0
 12 13  1  0  0  0  0
 12 31  1  0  0  0  0
 13 18  1  0  0  0  0
 13 14  2  0  0  0  0
 14 15  1  0  0  0  0
 14 32  1  0  0  0  0
 15 16  2  0  0  0  0
 15 33  1  0  0  0  0
 16 17  1  0  0  0  0
 16 41  1  0  0  0  0
 17 18  2  0  0  0  0
 17 34  1  0  0  0  0
 18 35  1  0  0  0  0
 19 20  1  0  0  0  0
 19 36  1  0  0  0  0
 19 37  1  0  0  0  0
 20 38  1  0  0  0  0
 20 39  1  0  0  0  0
M  CHG  1   5   1
M  CHG  1  16   1
M  END
> <s_m_source_file>
AV-unprocessed.smi

> <i_m_source_file_index>
1410

> <i_lp_mmshare_version>
43012

> <i_f3d_flags>
0

> <s_epik_input>
W05IMl1DKD1PKVtDSDJdTjFbQ0gyXVtDSDJdW0NIXShbQ0gyXVtDSDJdMSlbTkhdQyg9TylbTkhdYzJbY0hdW2NIXW5bY0hdW2NIXTI=

> <s_epik_cmdline>
J2VwaWtfcHl0aG9uJywgJy1waCcsICc3LjAnLCAnLXRuJywgJzgnLCAnLW1hJywgJzIwMCcsICctbWV0YWxfYmluZGluZycsICctaW1hZScsICc8aW5maWxlLm1hZT4nLCAnLW9tYWUnLCAnPG91dGZpbGUubWFlPic=

> <r_epik_Ionization_Penalty>
1.97414

> <r_epik_Ionization_Penalty_Charging>
1.97408

> <r_epik_Ionization_Penalty_Neutral>
5.94508e-05

> <r_epik_State_Penalty>
2.00676

> <r_epik_Charging_Adjusted_Penalty>
3.98084

> <i_epik_Tot_Q>
2

> <i_epik_Tot_abs_Q>
2

> <r_epik_Metal_State_Penalty>
2.12108

> <b_epik_Metal_Only>
0

> <s_lp_Force_Field>
OPLS_2005

> <r_lp_Energy>
24.418

> <b_lp_Chiralities_Consistent>
1

> <s_lp_Variant>
AV-unprocessed.smi:1410-5

> <Gold.Version>
5.8.1

> <Gold.Id.Protein>
6NUR|6NUR_protein|mol2

> <Gold.PLP.Fitness>
49.9814

> <Gold.PLP.PLP>
-34.1116

> <Gold.PLP.part.hbond>
-6.0732

> <Gold.PLP.part.metal>
0.0000

> <Gold.PLP.part.buried>
-3.7315

> <Gold.PLP.part.nonpolar>
-29.9407

> <Gold.PLP.part.repulsive>
5.2623

> <Gold.PLP.ligand.clash>
0.0000

> <Gold.PLP.ligand.torsion>
0.5586

> <Gold.PLP.Chemscore.Hbond>
5.6559

> <Gold.PLP.Chemscore.CHOScore>
0.0000

> <Gold.PLP.Chemscore.Metal>
0.0000

> <Gold.Chemscore.Hbonds>
donor molecule, donor type, donor heavy atom, donor atom, acceptor molecule, acceptor atom, score
      L1  H     1    21       P1 10195  1.00
      L1  H     1    22       P1 10952  1.00
      L1  H     9    30       P1  7948  0.43
      L1  H    12    31       P1  7948  0.41
      L1  H    16    41       P1  8028  2.00
      P1  H  7918  7932       L1     3  0.62

> <Gold.PLP.Chemscore.Internal.Correction>
0.0195

> <Gold.Rescore>
     Score         DG    S(hbond)    S(metal)    S(lipo)     H(rot)  DE(clash)    DE(int)     intcor
     18.28     -23.85       4.72        0.00      65.91       1.99       2.68       2.89       ----

> <Gold.Chemscore.Fitness>
18.2762

> <Gold.Chemscore.DG>
-23.8511

> <Gold.Chemscore.ZeroCoef>
-5.4800

> <Gold.Chemscore.Hbond>
4.7164

> <Gold.Chemscore.Metal>
0.0000

> <Gold.Chemscore.Lipo>
65.9077

> <Gold.Chemscore.Internal_Hbond>
0.0000

> <Gold.Chemscore.DEClash>
2.6813

> <Gold.Chemscore.DEInternal>
2.8936

> <Gold.Chemscore.Rot>
1.9894

> <Gold.Chemscore.Internal.Correction>
   9.000000E+99

> <Gold.Chemscore.Hbonds>
donor molecule, donor type, donor heavy atom, donor atom, acceptor molecule, acceptor atom, score
      L1  H     1    21       P1 10195  1.00
      L1  H     1    22       P1 10952  1.00
      L1  H     5    40       P1  7921  0.01
      L1  H     9    30       P1  7948  0.43
      L1  H    12    31       P1  7948  0.39
      L1  H    16    41       P1  8028  0.93
      P1  H  7918  7932       L1     3  0.62

> <Gold.Chemscore.Hbond.Weighted>
-15.7526

> <Gold.Chemscore.Metal.Weighted>
-0.0000

> <Gold.Chemscore.Lipo.Weighted>
-7.7112

> <Gold.Chemscore.Internal_Hbond.Weighted>
0.0000

> <Gold.Chemscore.DEClash.Weighted>
2.6813

> <Gold.Chemscore.DEInternal.Weighted>
2.8936

> <Gold.Chemscore.Rot.Weighted>
5.0927

> <Gold.Chemscore.Internal.Correction.Weighted>
   9.000000E+99

> <Gold.Protein.RotatedTorsions>
[ 6907 6896 6895 6894 ] final -120.25 input  -60.11 | X-H torsion
[ 7974 7965 7964 7962 ] final   18.22 input  175.53 | X-H torsion
[ 8008 7997 7996 7995 ] final   -5.52 input   59.86 | X-H torsion
[ 10167 10162 10161 10158 ] final  150.72 input  -65.29 | X-H torsion
[ 10718 10713 10712 10709 ] final  -65.01 input   66.30 | X-H torsion
[ 10763 10752 10751 10750 ] final  -67.07 input  -60.55 | X-H torsion
[ 11005 11000 10999 10996 ] final  -61.52 input  -57.11 | X-H torsion

> <Gold.Protein.ActiveResidues>
 VAL166  LYS551  ARG553  GLY616  TRP617  ASP618  TYR619  PRO620  LYS621  CYS622 
 ASP623  PHE694  ASN695  SER759  ASP760  ASP761  ALA762  ILE779  LEU786  VAL792 
 PHE793  MET794  SER795  GLU796  ALA797  LYS798  CYS799  TRP800  GLU811  SER814 

> <Gold.Protein.RotatedAtoms>
  150.8376  133.7987  159.3073 H   0  0  0  0  0  0  0  0  0  0  0  0  # atno 6907 bound_to 6896
  151.5698  135.1061  160.0002 H   0  0  0  0  0  0  0  0  0  0  0  0  # atno 6908 bound_to 6896
  152.4446  133.7470  159.6729 H   0  0  0  0  0  0  0  0  0  0  0  0  # atno 6909 bound_to 6896
  146.2192  139.8489  142.8626 H   0  0  0  0  0  0  0  0  0  0  0  0  # atno 7974 bound_to 7965
  154.6031  140.2456  155.7766 H   0  0  0  0  0  0  0  0  0  0  0  0  # atno 8008 bound_to 7997
  156.2323  140.2962  156.0174 H   0  0  0  0  0  0  0  0  0  0  0  0  # atno 8009 bound_to 7997
  155.2178  140.0399  157.2934 H   0  0  0  0  0  0  0  0  0  0  0  0  # atno 8010 bound_to 7997
  139.4847  144.5499  151.7419 H   0  0  0  0  0  0  0  0  0  0  0  0  # atno 10167 bound_to 10162
  156.0694  130.4241  150.1503 H   0  0  0  0  0  0  0  0  0  0  0  0  # atno 10718 bound_to 10713
  154.3691  135.6099  153.5730 H   0  0  0  0  0  0  0  0  0  0  0  0  # atno 10763 bound_to 10752
  152.9791  135.5833  154.4543 H   0  0  0  0  0  0  0  0  0  0  0  0  # atno 10764 bound_to 10752
  154.4294  135.2847  155.1900 H   0  0  0  0  0  0  0  0  0  0  0  0  # atno 10765 bound_to 10752
  141.1327  133.6631  156.5387 H   0  0  0  0  0  0  0  0  0  0  0  0  # atno 11005 bound_to 11000
  145.2822  141.0142  143.3711 LP  0  0  0  0  0  0  0  0  0  0  0  0  # atno 17320 bound_to 7965
  144.9141  139.4492  143.6573 LP  0  0  0  0  0  0  0  0  0  0  0  0  # atno 17321 bound_to 7965
  140.5051  144.1110  150.5980 LP  0  0  0  0  0  0  0  0  0  0  0  0  # atno 17342 bound_to 10162
  140.4016  143.2701  151.9940 LP  0  0  0  0  0  0  0  0  0  0  0  0  # atno 17343 bound_to 10162
  156.9557  130.9789  151.3489 LP  0  0  0  0  0  0  0  0  0  0  0  0  # atno 17370 bound_to 10713
  157.5757  130.8341  149.8452 LP  0  0  0  0  0  0  0  0  0  0  0  0  # atno 17371 bound_to 10713
  140.4157  134.7233  157.4861 LP  0  0  0  0  0  0  0  0  0  0  0  0  # atno 17394 bound_to 11000
  140.0396  134.6287  155.8999 LP  0  0  0  0  0  0  0  0  0  0  0  0  # atno 17395 bound_to 11000

$$$$
