#       Name:                AV-unprocessed.smi:635
#       Creating user name   scv26
#       Creation time:       Fri Mar 27 00:06:27 2020


#       File generated by GOLD software.
#

@<TRIPOS>MOLECULE
AV-unprocessed.smi:635
    43    44     1
SMALL
NO_CHARGES


@<TRIPOS>ATOM
      1 ****        -1.6570   4.2415   4.1416 C.3            1 S1                 0.0000
      2 ****        -1.1216   2.8056   4.1604 C.3            1 S1                 0.0000
      3 ****        -1.4856   2.0231   2.8891 C.3            1 S1                 0.0000
      4 ****        -0.9688   0.5790   2.9049 C.3            1 S1                 0.0000
      5 ****         0.4539   0.5925   2.8787 O.3            1 S1                 0.0000
      6 ****         1.0676  -0.6917   2.9439 C.3            1 S1                 0.0000
      7 ****         0.9247  -1.4497   1.6193 C.2            1 S1                 0.0000
      8 ****         0.6666  -2.6528   1.6387 O.2            1 S1                 0.0000
      9 ****         1.1087  -0.7219   0.5017 N.am           1 S1                 0.0000
     10 ****         1.0535  -1.1568  -0.8480 C.ar           1 S1                 0.0000
     11 ****         1.2240  -0.1455  -1.8164 C.ar           1 S1                 0.0000
     12 ****         1.1862  -0.5087  -3.1733 C.ar           1 S1                 0.0000
     13 ****         0.9780  -1.8674  -3.4750 C.ar           1 S1                 0.0000
     14 ****         0.9325  -2.3789  -4.8811 C.3            1 S1                 0.0000
     15 ****         0.1827  -1.6358  -5.9645 C.3            1 S1                 0.0000
     16 ****        -0.3425  -2.9545  -5.4538 C.3            1 S1                 0.0000
     17 ****         0.8263  -2.8013  -2.5098 N.ar           1 S1                 0.0000
     18 ****         0.8605  -2.4486  -1.2206 N.ar           1 S1                 0.0000
     19 ****        -1.3806   4.7707   5.0538 H              1 S1                 0.0000
     20 ****        -2.7446   4.2554   4.0651 H              1 S1                 0.0000
     21 ****        -1.2535   4.8012   3.2972 H              1 S1                 0.0000
     22 ****        -0.0380   2.8307   4.2799 H              1 S1                 0.0000
     23 ****        -1.5159   2.2871   5.0349 H              1 S1                 0.0000
     24 ****        -2.5704   2.0087   2.7779 H              1 S1                 0.0000
     25 ****        -1.0944   2.5388   2.0113 H              1 S1                 0.0000
     26 ****        -1.3273   0.0604   3.7952 H              1 S1                 0.0000
     27 ****        -1.3632   0.0469   2.0386 H              1 S1                 0.0000
     28 ****         2.1301  -0.5561   3.1470 H              1 S1                 0.0000
     29 ****         0.6578  -1.2747   3.7704 H              1 S1                 0.0000
     30 ****         1.3006   0.2600   0.6373 H              1 S1                 0.0000
     31 ****         1.3813   0.8842  -1.5299 H              1 S1                 0.0000
     32 ****         1.3145   0.2286  -3.9519 H              1 S1                 0.0000
     33 ****         1.8719  -2.8559  -5.1543 H              1 S1                 0.0000
     34 ****        -0.3717  -0.7413  -5.6876 H              1 S1                 0.0000
     35 ****         0.6073  -1.6324  -6.9664 H              1 S1                 0.0000
     36 ****        -0.2581  -3.8103  -6.1204 H              1 S1                 0.0000
     37 ****        -1.2361  -2.9293  -4.8330 H              1 S1                 0.0000
     38 ****         0.7738   1.1296   3.6592 LP             1 S1                 0.0000
     39 ****         0.7447   1.0329   2.0293 LP             1 S1                 0.0000
     40 ****         0.5524  -3.1257   2.5124 LP             1 S1                 0.0000
     41 ****         0.5711  -3.1576   0.7807 LP             1 S1                 0.0000
     42 ****         0.6880  -3.7594  -2.7608 LP             1 S1                 0.0000
     43 ****         0.7417  -3.1494  -0.5172 LP             1 S1                 0.0000
@<TRIPOS>BOND
    1    1    2 1     
    2    1   19 1     
    3    1   20 1     
    4    1   21 1     
    5    2    3 1     
    6    2   22 1     
    7    2   23 1     
    8    3    4 1     
    9    3   24 1     
   10    3   25 1     
   11    4    5 1     
   12    4   26 1     
   13    4   27 1     
   14    5    6 1     
   15    6    7 1     
   16    6   28 1     
   17    6   29 1     
   18    7    8 2     
   19    7    9 am    
   20    9   10 1     
   21    9   30 1     
   22   10   18 ar    
   23   10   11 ar    
   24   11   12 ar    
   25   11   31 1     
   26   12   13 ar    
   27   12   32 1     
   28   13   14 1     
   29   13   17 ar    
   30   14   16 1     
   31   14   15 1     
   32   14   33 1     
   33   15   16 1     
   34   15   34 1     
   35   15   35 1     
   36   16   36 1     
   37   16   37 1     
   38   17   18 ar    
   39    5   38 1     
   40    5   39 1     
   41    8   40 1     
   42    8   41 1     
   43   17   42 1     
   44   18   43 1     
@<TRIPOS>SUBSTRUCTURE
      1 S1             1
@<TRIPOS>SET
LONE_PAIRS      STATIC     ATOMS    <user>   **** ""
6 38 39 40 41 42 43
DONOR_HYDROGENS      STATIC     ATOMS    <user>   **** ""
1 30
ATOM$BLUE        STATIC     ATOMS    COLORGROUP SYSTEM
6 38 39 40 41 42 43
ATOM$RED        STATIC     ATOMS    COLORGROUP SYSTEM
1 30
