AV-unprocessed.smi:1154|AV-procd|sdf|4903|dock3
  -GOLD-   22720 3483D 1   1.00000     0.00000
 Structure written by MMmdl.
 42 43  0  0  0  0  0  0  0  0  2 V2000
  145.9742  132.3133  149.6589 C   0  0  0  0  0  0  0  0  0  0  0  0
  146.2559  133.4023  150.7038 C   0  0  1  0  0  0  0  0  0  0  0  0
  144.9490  133.9974  151.2588 C   0  0  0  0  0  0  0  0  0  0  0  0
  145.2197  135.0445  152.3549 C   0  0  2  0  0  0  0  0  0  0  0  0
  145.7500  136.3759  151.7940 C   0  0  0  0  0  0  0  0  0  0  0  0
  146.1428  134.4612  153.4431 C   0  0  0  0  0  0  0  0  0  0  0  0
  147.4016  133.9227  152.8649 N   0  3  1  0  0  0  0  0  0  0  0  0
  148.3651  133.4977  153.9116 C   0  0  0  0  0  0  0  0  0  0  0  0
  148.3938  134.4654  155.1059 C   0  0  0  0  0  0  0  0  0  0  0  0
  148.8303  135.7876  154.6801 N   0  0  0  0  0  0  0  0  0  0  0  0
  149.3232  136.7246  155.5046 C   0  0  0  0  0  0  0  0  0  0  0  0
  149.4265  136.5634  156.7198 O   0  0  0  0  0  0  0  0  0  0  0  0
  149.7575  138.0493  154.8706 C   0  0  0  0  0  0  0  0  0  0  0  0
  151.1351  138.3758  155.1932 N   0  0  0  0  0  0  0  0  0  0  0  0
  151.6631  139.4352  155.8095 C   0  0  0  0  0  0  0  0  0  0  0  0
  152.9820  139.3483  155.8881 N   0  0  0  0  0  0  0  0  0  0  0  0
  153.2546  138.1370  155.2744 N   0  0  0  0  0  0  0  0  0  0  0  0
  152.1625  137.5549  154.8608 N   0  0  0  0  0  0  0  0  0  0  0  0
  147.1298  132.8663  151.8541 C   0  0  0  0  0  0  0  0  0  0  0  0
  145.4209  131.4796  150.0924 H   0  0  0  0  0  0  0  0  0  0  0  0
  146.9016  131.9176  149.2438 H   0  0  0  0  0  0  0  0  0  0  0  0
  145.3859  132.7081  148.8300 H   0  0  0  0  0  0  0  0  0  0  0  0
  146.8097  134.1951  150.2000 H   0  0  0  0  0  0  0  0  0  0  0  0
  144.3593  134.4379  150.4538 H   0  0  0  0  0  0  0  0  0  0  0  0
  144.3392  133.1955  151.6778 H   0  0  0  0  0  0  0  0  0  0  0  0
  144.2629  135.2724  152.8267 H   0  0  0  0  0  0  0  0  0  0  0  0
  146.7283  136.2624  151.3269 H   0  0  0  0  0  0  0  0  0  0  0  0
  145.8490  137.1201  152.5847 H   0  0  0  0  0  0  0  0  0  0  0  0
  145.0704  136.7843  151.0455 H   0  0  0  0  0  0  0  0  0  0  0  0
  146.3681  135.2347  154.1787 H   0  0  0  0  0  0  0  0  0  0  0  0
  145.6275  133.6624  153.9793 H   0  0  0  0  0  0  0  0  0  0  0  0
  148.0786  132.5137  154.2858 H   0  0  0  0  0  0  0  0  0  0  0  0
  149.3593  133.3837  153.4762 H   0  0  0  0  0  0  0  0  0  0  0  0
  147.4091  134.5604  155.5632 H   0  0  0  0  0  0  0  0  0  0  0  0
  149.0712  134.0850  155.8725 H   0  0  0  0  0  0  0  0  0  0  0  0
  148.7714  135.9997  153.6947 H   0  0  0  0  0  0  0  0  0  0  0  0
  149.6516  137.9876  153.7870 H   0  0  0  0  0  0  0  0  0  0  0  0
  149.1135  138.8610  155.2128 H   0  0  0  0  0  0  0  0  0  0  0  0
  151.0877  140.2663  156.1897 H   0  0  0  0  0  0  0  0  0  0  0  0
  146.6416  132.0184  152.3377 H   0  0  0  0  0  0  0  0  0  0  0  0
  148.0663  132.4935  151.4404 H   0  0  0  0  0  0  0  0  0  0  0  0
  147.8349  134.6937  152.3768 H   0  0  0  0  0  0  0  0  0  0  0  0
  1  2  1  0  0  0  0
  1 20  1  0  0  0  0
  1 21  1  0  0  0  0
  1 22  1  0  0  0  0
  2 19  1  0  0  0  0
  2  3  1  0  0  0  0
  2 23  1  0  0  0  0
  3  4  1  0  0  0  0
  3 24  1  0  0  0  0
  3 25  1  0  0  0  0
  4  5  1  0  0  0  0
  4  6  1  0  0  0  0
  4 26  1  0  0  0  0
  5 27  1  0  0  0  0
  5 28  1  0  0  0  0
  5 29  1  0  0  0  0
  6  7  1  0  0  0  0
  6 30  1  0  0  0  0
  6 31  1  0  0  0  0
  7  8  1  0  0  0  0
  7 19  1  0  0  0  0
  7 42  1  0  0  0  0
  8  9  1  0  0  0  0
  8 32  1  0  0  0  0
  8 33  1  0  0  0  0
  9 10  1  0  0  0  0
  9 34  1  0  0  0  0
  9 35  1  0  0  0  0
 10 11  1  0  0  0  0
 10 36  1  0  0  0  0
 11 12  2  0  0  0  0
 11 13  1  0  0  0  0
 13 14  1  0  0  0  0
 13 37  1  0  0  0  0
 13 38  1  0  0  0  0
 14 18  1  0  0  0  0
 14 15  1  0  0  0  0
 15 16  2  0  0  0  0
 15 39  1  0  0  0  0
 16 17  1  0  0  0  0
 17 18  2  0  0  0  0
 19 40  1  0  0  0  0
 19 41  1  0  0  0  0
M  CHG  1   7   1
M  END
> <s_m_source_file>
AV-unprocessed.smi

> <i_m_source_file_index>
1154

> <i_lp_mmshare_version>
43012

> <i_f3d_flags>
0

> <s_epik_input>
W0NIM11bQ0BASF0xW0NIMl1bQ0BASF0oW0NIM10pW0NIMl1OKFtDSDJdMSlbQ0gyXVtDSDJdW05IXUMoPU8pW0NIMl1uMltjSF1ubm4y

> <s_epik_cmdline>
J2VwaWtfcHl0aG9uJywgJy1waCcsICc3LjAnLCAnLXRuJywgJzgnLCAnLW1hJywgJzIwMCcsICctbWV0YWxfYmluZGluZycsICctaW1hZScsICc8aW5maWxlLm1hZT4nLCAnLW9tYWUnLCAnPG91dGZpbGUubWFlPic=

> <r_lp_tautomer_probability>
1

> <r_epik_Ionization_Penalty>
0.00217773

> <r_epik_Ionization_Penalty_Charging>
0.00217329

> <r_epik_Ionization_Penalty_Neutral>
4.43997e-06

> <r_epik_State_Penalty>
0.00149294

> <r_epik_Charging_Adjusted_Penalty>
0.00366623

> <i_epik_Tot_Q>
1

> <i_epik_Tot_abs_Q>
1

> <r_epik_Metal_State_Penalty>
-0

> <b_epik_Metal_Only>
0

> <s_lp_Force_Field>
OPLS_2005

> <r_lp_Energy>
22.3383

> <b_lp_Chiralities_Consistent>
1

> <s_lp_Variant>
AV-unprocessed.smi:1154-4

> <Gold.Version>
5.8.1

> <Gold.Id.Protein>
6NUR|6NUR_protein|mol2

> <Gold.PLP.Fitness>
47.1694

> <Gold.PLP.PLP>
-33.7191

> <Gold.PLP.part.hbond>
-5.0000

> <Gold.PLP.part.metal>
0.0000

> <Gold.PLP.part.buried>
-3.7917

> <Gold.PLP.part.nonpolar>
-25.0042

> <Gold.PLP.part.repulsive>
0.1988

> <Gold.PLP.ligand.clash>
0.0000

> <Gold.PLP.ligand.torsion>
0.3043

> <Gold.PLP.Chemscore.Hbond>
4.6720

> <Gold.PLP.Chemscore.CHOScore>
0.0000

> <Gold.PLP.Chemscore.Metal>
0.0000

> <Gold.Chemscore.Hbonds>
donor molecule, donor type, donor heavy atom, donor atom, acceptor molecule, acceptor atom, score
      L1  H     7    42       P1  7948  2.00
      L1  H    10    36       P1  7948  1.00
      P1  H  7997  8008       L1    16  1.00
      P1  H 10752 10764       L1    18  0.51

> <Gold.PLP.Chemscore.Internal.Correction>
0.0428

> <Gold.Rescore>
     Score         DG    S(hbond)    S(metal)    S(lipo)     H(rot)  DE(clash)    DE(int)     intcor
     14.39     -14.68       2.95        0.00      52.82       2.67       0.03       0.26       ----

> <Gold.Chemscore.Fitness>
14.3900

> <Gold.Chemscore.DG>
-14.6840

> <Gold.Chemscore.ZeroCoef>
-5.4800

> <Gold.Chemscore.Hbond>
2.9500

> <Gold.Chemscore.Metal>
0.0000

> <Gold.Chemscore.Lipo>
52.8173

> <Gold.Chemscore.Internal_Hbond>
0.0000

> <Gold.Chemscore.DEClash>
0.0310

> <Gold.Chemscore.DEInternal>
0.2630

> <Gold.Chemscore.Rot>
2.6674

> <Gold.Chemscore.Internal.Correction>
   9.000000E+99

> <Gold.Chemscore.Hbonds>
donor molecule, donor type, donor heavy atom, donor atom, acceptor molecule, acceptor atom, score
      L1  H     7    42       P1  7948  0.70
      L1  H    10    36       P1  7948  1.00
      P1  H  7997  8008       L1    16  0.59
      P1  H 10752 10764       L1    18  0.12

> <Gold.Chemscore.Hbond.Weighted>
-9.8529

> <Gold.Chemscore.Metal.Weighted>
-0.0000

> <Gold.Chemscore.Lipo.Weighted>
-6.1796

> <Gold.Chemscore.Internal_Hbond.Weighted>
0.0000

> <Gold.Chemscore.DEClash.Weighted>
0.0310

> <Gold.Chemscore.DEInternal.Weighted>
0.2630

> <Gold.Chemscore.Rot.Weighted>
6.8286

> <Gold.Chemscore.Internal.Correction.Weighted>
   9.000000E+99

> <Gold.Protein.RotatedTorsions>
[ 6907 6896 6895 6894 ] final   54.18 input  -60.11 | X-H torsion
[ 7974 7965 7964 7962 ] final  -78.97 input  175.53 | X-H torsion
[ 8008 7997 7996 7995 ] final  -20.01 input   59.86 | X-H torsion
[ 10167 10162 10161 10158 ] final  -89.69 input  -65.29 | X-H torsion
[ 10718 10713 10712 10709 ] final  169.21 input   66.30 | X-H torsion
[ 10763 10752 10751 10750 ] final  -80.53 input  -60.55 | X-H torsion
[ 11005 11000 10999 10996 ] final -160.32 input  -57.11 | X-H torsion

> <Gold.Protein.ActiveResidues>
 VAL166  LYS551  ARG553  GLY616  TRP617  ASP618  TYR619  PRO620  LYS621  CYS622 
 ASP623  PHE694  ASN695  SER759  ASP760  ASP761  ALA762  ILE779  LEU786  VAL792 
 PHE793  MET794  SER795  GLU796  ALA797  LYS798  CYS799  TRP800  GLU811  SER814 

> <Gold.Protein.RotatedAtoms>
  152.3412  134.7131  160.0262 H   0  0  0  0  0  0  0  0  0  0  0  0  # atno 6907 bound_to 6896
  151.7516  133.3322  159.3401 H   0  0  0  0  0  0  0  0  0  0  0  0  # atno 6908 bound_to 6896
  150.7481  134.6120  159.6135 H   0  0  0  0  0  0  0  0  0  0  0  0  # atno 6909 bound_to 6896
  145.5795  140.9451  143.1352 H   0  0  0  0  0  0  0  0  0  0  0  0  # atno 7974 bound_to 7965
  154.4798  140.2073  155.9791 H   0  0  0  0  0  0  0  0  0  0  0  0  # atno 8008 bound_to 7997
  156.1147  140.3223  155.8091 H   0  0  0  0  0  0  0  0  0  0  0  0  # atno 8009 bound_to 7997
  155.4574  140.0521  157.2985 H   0  0  0  0  0  0  0  0  0  0  0  0  # atno 8010 bound_to 7997
  140.3623  143.2835  151.9599 H   0  0  0  0  0  0  0  0  0  0  0  0  # atno 10167 bound_to 10162
  157.0260  131.0245  151.2760 H   0  0  0  0  0  0  0  0  0  0  0  0  # atno 10718 bound_to 10713
  154.5524  135.5658  153.6934 H   0  0  0  0  0  0  0  0  0  0  0  0  # atno 10763 bound_to 10752
  152.9993  135.6254  154.2356 H   0  0  0  0  0  0  0  0  0  0  0  0  # atno 10764 bound_to 10752
  154.2291  135.2866  155.2876 H   0  0  0  0  0  0  0  0  0  0  0  0  # atno 10765 bound_to 10752
  140.6328  134.4633  157.5230 H   0  0  0  0  0  0  0  0  0  0  0  0  # atno 11005 bound_to 11000
  144.7400  139.7474  143.7314 LP  0  0  0  0  0  0  0  0  0  0  0  0  # atno 17320 bound_to 7965
  146.1727  139.4884  142.9917 LP  0  0  0  0  0  0  0  0  0  0  0  0  # atno 17321 bound_to 7965
  139.4812  144.5981  151.7654 LP  0  0  0  0  0  0  0  0  0  0  0  0  # atno 17342 bound_to 10162
  140.5115  144.1018  150.5996 LP  0  0  0  0  0  0  0  0  0  0  0  0  # atno 17343 bound_to 10162
  157.5214  130.8000  149.7813 LP  0  0  0  0  0  0  0  0  0  0  0  0  # atno 17370 bound_to 10713
  156.0086  130.3844  150.2344 LP  0  0  0  0  0  0  0  0  0  0  0  0  # atno 17371 bound_to 10713
  139.9109  134.8346  156.1531 LP  0  0  0  0  0  0  0  0  0  0  0  0  # atno 17394 bound_to 11000
  141.0663  133.6818  156.2051 LP  0  0  0  0  0  0  0  0  0  0  0  0  # atno 17395 bound_to 11000

$$$$
