AV-unprocessed.smi:148|AV-procd|sdf|1211|dock4
  -GOLD-   2262018383D 1   1.00000     0.00000
 Structure written by MMmdl.
 63 67  0  0  0  0  0  0  0  0  1 V2000
  150.7526  144.5647  157.9651 O   0  0  0  0  0  0  0  0  0  0  0  0
  150.1933  143.7173  158.9469 C   0  0  0  0  0  0  0  0  0  0  0  0
  150.9136  142.3482  158.9605 C   0  0  1  0  0  0  0  0  0  0  0  0
  150.7827  141.6546  157.5817 C   0  0  0  0  0  0  0  0  0  0  0  0
  149.9553  140.4617  157.6127 N   0  0  0  0  0  0  0  0  0  0  0  0
  148.6562  140.3443  157.1721 C   0  0  0  0  0  0  0  0  0  0  0  0
  148.1283  139.1587  157.3089 N   0  0  0  0  0  0  0  0  0  0  0  0
  149.1376  138.4046  157.8956 C   0  0  0  0  0  0  0  0  0  0  0  0
  149.2511  137.0509  158.3210 C   0  0  0  0  0  0  0  0  0  0  0  0
  148.2700  136.1263  158.2209 N   0  0  0  0  0  0  0  0  0  0  0  0
  147.8256  136.0182  156.8316 C   0  0  0  0  0  0  0  0  0  0  0  0
  146.9041  134.8088  156.6323 C   0  0  0  0  0  0  0  0  0  0  0  0
  145.7230  134.8774  157.6048 C   0  0  0  0  0  0  0  0  0  0  0  0
  146.2374  134.9786  159.0470 C   0  0  0  0  0  0  0  0  0  0  0  0
  147.2009  136.1818  159.2361 C   0  0  1  0  0  0  0  0  0  0  0  0
  147.7549  136.3116  160.6963 C   0  0  2  0  0  0  0  0  0  0  0  0
  148.1774  134.9646  161.3285 C   0  0  0  0  0  0  0  0  0  0  0  0
  147.3981  134.8168  162.6432 C   0  0  0  0  0  0  0  0  0  0  0  0
  146.2290  135.7945  162.5392 C   0  0  0  0  0  0  0  0  0  0  0  0
  146.8152  136.9562  161.7396 C   0  0  2  0  0  0  0  0  0  0  0  0
  145.8321  137.8251  161.2138 O   0  0  0  0  0  0  0  0  0  0  0  0
  150.4283  136.6480  158.8589 N   0  0  0  0  0  0  0  0  0  0  0  0
  151.4348  137.5176  158.9887 C   0  0  0  0  0  0  0  0  0  0  0  0
  151.4738  138.8074  158.6463 N   0  0  0  0  0  0  0  0  0  0  0  0
  150.2928  139.2104  158.0955 C   0  0  0  0  0  0  0  0  0  0  0  0
  152.3862  142.4275  159.4520 C   0  0  2  0  0  0  0  0  0  0  0  0
  153.1802  141.1226  159.3645 C   0  0  0  0  0  0  0  0  0  0  0  0
  153.7301  140.9246  160.7759 C   0  0  0  0  0  0  0  0  0  0  0  0
  153.7785  142.2388  161.3059 O   0  0  0  0  0  0  0  0  0  0  0  0
  152.5774  142.8784  160.9074 C   0  0  0  0  0  0  0  0  0  0  0  0
  150.2160  144.5217  157.1884 H   0  0  0  0  0  0  0  0  0  0  0  0
  150.2640  144.2115  159.9155 H   0  0  0  0  0  0  0  0  0  0  0  0
  149.1331  143.6123  158.7217 H   0  0  0  0  0  0  0  0  0  0  0  0
  150.3925  141.7228  159.6873 H   0  0  0  0  0  0  0  0  0  0  0  0
  150.3494  142.3370  156.8496 H   0  0  0  0  0  0  0  0  0  0  0  0
  151.7677  141.3813  157.2012 H   0  0  0  0  0  0  0  0  0  0  0  0
  148.1106  141.1688  156.7365 H   0  0  0  0  0  0  0  0  0  0  0  0
  147.3008  136.9313  156.5465 H   0  0  0  0  0  0  0  0  0  0  0  0
  148.6887  135.9283  156.1699 H   0  0  0  0  0  0  0  0  0  0  0  0
  146.5439  134.7778  155.6040 H   0  0  0  0  0  0  0  0  0  0  0  0
  147.4652  133.8878  156.7962 H   0  0  0  0  0  0  0  0  0  0  0  0
  145.1014  135.7429  157.3724 H   0  0  0  0  0  0  0  0  0  0  0  0
  145.0900  133.9969  157.4919 H   0  0  0  0  0  0  0  0  0  0  0  0
  145.3780  135.0610  159.7098 H   0  0  0  0  0  0  0  0  0  0  0  0
  146.7332  134.0439  159.3068 H   0  0  0  0  0  0  0  0  0  0  0  0
  146.6221  137.0813  159.0258 H   0  0  0  0  0  0  0  0  0  0  0  0
  148.6303  136.9609  160.6656 H   0  0  0  0  0  0  0  0  0  0  0  0
  147.9627  134.1247  160.6688 H   0  0  0  0  0  0  0  0  0  0  0  0
  149.2521  134.9388  161.5131 H   0  0  0  0  0  0  0  0  0  0  0  0
  147.0676  133.7927  162.8190 H   0  0  0  0  0  0  0  0  0  0  0  0
  148.0378  135.1032  163.4789 H   0  0  0  0  0  0  0  0  0  0  0  0
  145.4038  135.3280  162.0014 H   0  0  0  0  0  0  0  0  0  0  0  0
  145.8552  136.1042  163.5157 H   0  0  0  0  0  0  0  0  0  0  0  0
  147.4258  137.5494  162.4228 H   0  0  0  0  0  0  0  0  0  0  0  0
  144.9843  137.5368  161.5151 H   0  0  0  0  0  0  0  0  0  0  0  0
  152.3386  137.1234  159.4294 H   0  0  0  0  0  0  0  0  0  0  0  0
  152.9258  143.1356  158.8222 H   0  0  0  0  0  0  0  0  0  0  0  0
  152.5966  140.2652  159.0304 H   0  0  0  0  0  0  0  0  0  0  0  0
  154.0033  141.2415  158.6585 H   0  0  0  0  0  0  0  0  0  0  0  0
  153.0489  140.3169  161.3741 H   0  0  0  0  0  0  0  0  0  0  0  0
  154.7109  140.4488  160.7840 H   0  0  0  0  0  0  0  0  0  0  0  0
  152.6541  143.9617  161.0026 H   0  0  0  0  0  0  0  0  0  0  0  0
  151.7708  142.5398  161.5572 H   0  0  0  0  0  0  0  0  0  0  0  0
  1  2  1  0  0  0  0
  1 31  1  0  0  0  0
  2  3  1  0  0  0  0
  2 32  1  0  0  0  0
  2 33  1  0  0  0  0
  3  4  1  0  0  0  0
  3 26  1  0  0  0  0
  3 34  1  0  0  0  0
  4  5  1  0  0  0  0
  4 35  1  0  0  0  0
  4 36  1  0  0  0  0
  5 25  1  0  0  0  0
  5  6  1  0  0  0  0
  6  7  2  0  0  0  0
  6 37  1  0  0  0  0
  7  8  1  0  0  0  0
  8 25  2  0  0  0  0
  8  9  1  0  0  0  0
  9 10  1  0  0  0  0
  9 22  2  0  0  0  0
 10 15  1  0  0  0  0
 10 11  1  0  0  0  0
 11 12  1  0  0  0  0
 11 38  1  0  0  0  0
 11 39  1  0  0  0  0
 12 13  1  0  0  0  0
 12 40  1  0  0  0  0
 12 41  1  0  0  0  0
 13 14  1  0  0  0  0
 13 42  1  0  0  0  0
 13 43  1  0  0  0  0
 14 15  1  0  0  0  0
 14 44  1  0  0  0  0
 14 45  1  0  0  0  0
 15 16  1  0  0  0  0
 15 46  1  0  0  0  0
 16 20  1  0  0  0  0
 16 17  1  0  0  0  0
 16 47  1  0  0  0  0
 17 18  1  0  0  0  0
 17 48  1  0  0  0  0
 17 49  1  0  0  0  0
 18 19  1  0  0  0  0
 18 50  1  0  0  0  0
 18 51  1  0  0  0  0
 19 20  1  0  0  0  0
 19 52  1  0  0  0  0
 19 53  1  0  0  0  0
 20 21  1  0  0  0  0
 20 54  1  0  0  0  0
 21 55  1  0  0  0  0
 22 23  1  0  0  0  0
 23 24  2  0  0  0  0
 23 56  1  0  0  0  0
 24 25  1  0  0  0  0
 26 30  1  0  0  0  0
 26 27  1  0  0  0  0
 26 57  1  0  0  0  0
 27 28  1  0  0  0  0
 27 58  1  0  0  0  0
 27 59  1  0  0  0  0
 28 29  1  0  0  0  0
 28 60  1  0  0  0  0
 28 61  1  0  0  0  0
 29 30  1  0  0  0  0
 30 62  1  0  0  0  0
 30 63  1  0  0  0  0
M  END
> <s_m_source_file>
AV-unprocessed.smi

> <i_m_source_file_index>
148

> <i_lp_mmshare_version>
43012

> <i_f3d_flags>
0

> <s_epik_input>
W0NIMl0xT1tDSDJdW0NIMl1bQ0BIXTFbQ0BIXShbQ0gyXVtPSF0pW0NIMl1uKFtjSF1uMiljKGMyMyluW2NIXW5jM040W0NIMl1bQ0gyXVtDSDJdW0NIMl1bQ0BIXTRbQ0BASF01W0NIMl1bQ0gyXVtDSDJdW0NASF01W09IXQ==

> <s_epik_cmdline>
J2VwaWtfcHl0aG9uJywgJy1waCcsICc3LjAnLCAnLXRuJywgJzgnLCAnLW1hJywgJzIwMCcsICctbWV0YWxfYmluZGluZycsICctaW1hZScsICc8aW5maWxlLm1hZT4nLCAnLW9tYWUnLCAnPG91dGZpbGUubWFlPic=

> <r_lp_tautomer_probability>
1

> <r_epik_Ionization_Penalty>
0.00556303

> <r_epik_Ionization_Penalty_Charging>
0

> <r_epik_Ionization_Penalty_Neutral>
0.00556303

> <r_epik_State_Penalty>
0.00401767

> <r_epik_Charging_Adjusted_Penalty>
0.00401767

> <i_epik_Tot_Q>
0

> <i_epik_Tot_abs_Q>
0

> <r_epik_Metal_State_Penalty>
-0

> <b_epik_Metal_Only>
0

> <s_lp_Force_Field>
OPLS_2005

> <r_lp_Energy>
71.509

> <b_lp_Chiralities_Consistent>
1

> <s_lp_Variant>
AV-unprocessed.smi:148-10

> <Gold.Version>
5.8.1

> <Gold.Id.Protein>
6NUR|6NUR_protein|mol2

> <Gold.PLP.Fitness>
45.5849

> <Gold.PLP.PLP>
-41.3260

> <Gold.PLP.part.hbond>
-3.5478

> <Gold.PLP.part.metal>
0.0000

> <Gold.PLP.part.buried>
-6.3541

> <Gold.PLP.part.nonpolar>
-30.8076

> <Gold.PLP.part.repulsive>
0.0066

> <Gold.PLP.ligand.clash>
0.0000

> <Gold.PLP.ligand.torsion>
1.7284

> <Gold.PLP.Chemscore.Hbond>
2.3968

> <Gold.PLP.Chemscore.CHOScore>
0.0000

> <Gold.PLP.Chemscore.Metal>
0.0000

> <Gold.Chemscore.Hbonds>
donor molecule, donor type, donor heavy atom, donor atom, acceptor molecule, acceptor atom, score
      L1  H     1    31       P1  8028  1.00
      P1  H  6896  6907       L1    22  1.00
      P1  H  6934  6947       L1    21  0.38

> <Gold.PLP.Chemscore.Internal.Correction>
0.5252

> <Gold.Rescore>
     Score         DG    S(hbond)    S(metal)    S(lipo)     H(rot)  DE(clash)    DE(int)     intcor
     12.79     -14.65       1.64        0.00     104.32       3.32       0.16       1.70       ----

> <Gold.Chemscore.Fitness>
12.7902

> <Gold.Chemscore.DG>
-14.6506

> <Gold.Chemscore.ZeroCoef>
-5.4800

> <Gold.Chemscore.Hbond>
1.6364

> <Gold.Chemscore.Metal>
0.0000

> <Gold.Chemscore.Lipo>
104.3172

> <Gold.Chemscore.Internal_Hbond>
0.0000

> <Gold.Chemscore.DEClash>
0.1602

> <Gold.Chemscore.DEInternal>
1.7003

> <Gold.Chemscore.Rot>
3.3203

> <Gold.Chemscore.Internal.Correction>
   9.000000E+99

> <Gold.Chemscore.Hbonds>
donor molecule, donor type, donor heavy atom, donor atom, acceptor molecule, acceptor atom, score
      L1  H     1    31       P1  8028  0.53
      P1  H  6896  6907       L1    22  0.63
      P1  H  6934  6947       L1    21  0.01

> <Gold.Chemscore.Hbond.Weighted>
-5.4655

> <Gold.Chemscore.Metal.Weighted>
-0.0000

> <Gold.Chemscore.Lipo.Weighted>
-12.2051

> <Gold.Chemscore.Internal_Hbond.Weighted>
0.0000

> <Gold.Chemscore.DEClash.Weighted>
0.1602

> <Gold.Chemscore.DEInternal.Weighted>
1.7003

> <Gold.Chemscore.Rot.Weighted>
8.5000

> <Gold.Chemscore.Internal.Correction.Weighted>
   9.000000E+99

> <Gold.Protein.RotatedTorsions>
[ 6907 6896 6895 6894 ] final  -40.67 input  -60.11 | X-H torsion
[ 7974 7965 7964 7962 ] final  -26.94 input  175.53 | X-H torsion
[ 8008 7997 7996 7995 ] final  -55.83 input   59.86 | X-H torsion
[ 10167 10162 10161 10158 ] final -120.52 input  -65.29 | X-H torsion
[ 10718 10713 10712 10709 ] final  111.86 input   66.30 | X-H torsion
[ 10763 10752 10751 10750 ] final   34.48 input  -60.55 | X-H torsion
[ 11005 11000 10999 10996 ] final -175.82 input  -57.11 | X-H torsion

> <Gold.Protein.ActiveResidues>
 VAL166  LYS551  ARG553  GLY616  TRP617  ASP618  TYR619  PRO620  LYS621  CYS622 
 ASP623  PHE694  ASN695  SER759  ASP760  ASP761  ALA762  ILE779  LEU786  VAL792 
 PHE793  MET794  SER795  GLU796  ALA797  LYS798  CYS799  TRP800  GLU811  SER814 

> <Gold.Protein.RotatedAtoms>
  150.9757  134.9122  159.7814 H   0  0  0  0  0  0  0  0  0  0  0  0  # atno 6907 bound_to 6896
  152.5205  134.3479  159.9250 H   0  0  0  0  0  0  0  0  0  0  0  0  # atno 6908 bound_to 6896
  151.3487  133.3893  159.2712 H   0  0  0  0  0  0  0  0  0  0  0  0  # atno 6909 bound_to 6896
  146.1392  140.5086  142.8659 H   0  0  0  0  0  0  0  0  0  0  0  0  # atno 7974 bound_to 7965
  154.4208  140.1144  156.5539 H   0  0  0  0  0  0  0  0  0  0  0  0  # atno 8008 bound_to 7997
  155.6381  140.3496  155.4686 H   0  0  0  0  0  0  0  0  0  0  0  0  # atno 8009 bound_to 7997
  155.9893  140.1176  157.0643 H   0  0  0  0  0  0  0  0  0  0  0  0  # atno 8010 bound_to 7997
  140.0349  143.5211  152.2158 H   0  0  0  0  0  0  0  0  0  0  0  0  # atno 10167 bound_to 10162
  157.6423  131.0958  150.6810 H   0  0  0  0  0  0  0  0  0  0  0  0  # atno 10718 bound_to 10713
  153.0162  135.6359  154.1675 H   0  0  0  0  0  0  0  0  0  0  0  0  # atno 10763 bound_to 10752
  154.1414  135.2834  155.3161 H   0  0  0  0  0  0  0  0  0  0  0  0  # atno 10764 bound_to 10752
  154.6121  135.5553  153.7546 H   0  0  0  0  0  0  0  0  0  0  0  0  # atno 10765 bound_to 10752
  140.4590  134.6272  157.4834 H   0  0  0  0  0  0  0  0  0  0  0  0  # atno 11005 bound_to 11000
  144.7773  140.5766  143.6629 LP  0  0  0  0  0  0  0  0  0  0  0  0  # atno 17320 bound_to 7965
  145.5087  139.1480  143.3617 LP  0  0  0  0  0  0  0  0  0  0  0  0  # atno 17321 bound_to 7965
  139.6052  144.7594  151.3079 LP  0  0  0  0  0  0  0  0  0  0  0  0  # atno 17342 bound_to 10162
  140.7286  143.6932  150.7905 LP  0  0  0  0  0  0  0  0  0  0  0  0  # atno 17343 bound_to 10162
  156.7132  130.4658  149.5542 LP  0  0  0  0  0  0  0  0  0  0  0  0  # atno 17370 bound_to 10713
  156.1715  130.6440  151.0843 LP  0  0  0  0  0  0  0  0  0  0  0  0  # atno 17371 bound_to 10713
  139.9958  134.6914  155.9613 LP  0  0  0  0  0  0  0  0  0  0  0  0  # atno 17394 bound_to 11000
  141.1630  133.6538  156.4383 LP  0  0  0  0  0  0  0  0  0  0  0  0  # atno 17395 bound_to 11000

$$$$
