AV-unprocessed.smi:2226|AV-procd|sdf|9009|dock10
  -GOLD-   2272012213D 1   1.00000     0.00000
 Structure written by MMmdl.
 40 42  0  0  0  0  0  0  0  0  2 V2000
  146.4361  140.9010  154.9906 C   0  0  0  0  0  0  0  0  0  0  0  0
  146.0853  139.8065  154.0545 N   0  3  2  0  0  0  0  0  0  0  0  0
  145.5818  138.5714  154.7011 C   0  0  2  0  0  0  0  0  0  0  0  0
  146.7092  137.8305  155.4633 C   0  0  0  0  0  0  0  0  0  0  0  0
  147.9778  137.5807  154.6276 C   0  0  0  0  0  0  0  0  0  0  0  0
  148.3497  138.7808  153.7389 C   0  0  0  0  0  0  0  0  0  0  0  0
  147.1371  139.4707  153.0653 C   0  0  1  0  0  0  0  0  0  0  0  0
  146.4983  138.6848  151.8964 C   0  0  0  0  0  0  0  0  0  0  0  0
  145.5630  137.5122  152.3020 C   0  0  1  0  0  0  0  0  0  0  0  0
  146.2250  136.2109  152.2527 N   0  0  0  0  0  0  0  0  0  0  0  0
  145.6400  135.0138  152.4134 C   0  0  0  0  0  0  0  0  0  0  0  0
  144.4282  134.9095  152.6277 O   0  0  0  0  0  0  0  0  0  0  0  0
  146.5825  134.0055  152.2779 N   0  0  0  0  0  0  0  0  0  0  0  0
  146.1890  132.7877  152.0667 C   0  0  0  0  0  0  0  0  0  0  0  0
  146.9766  131.6571  151.9197 N   0  0  0  0  0  0  0  0  0  0  0  0
  146.1507  130.5876  151.7080 C   0  0  0  0  0  0  0  0  0  0  0  0
  144.8951  131.0256  151.7189 C   0  0  0  0  0  0  0  0  0  0  0  0
  144.8843  132.3704  151.9353 O   0  0  0  0  0  0  0  0  0  0  0  0
  144.8272  137.7245  153.6498 C   0  0  0  0  0  0  0  0  0  0  0  0
  147.2711  140.6385  155.6396 H   0  0  0  0  0  0  0  0  0  0  0  0
  145.5826  141.1483  155.6224 H   0  0  0  0  0  0  0  0  0  0  0  0
  146.7076  141.8010  154.4384 H   0  0  0  0  0  0  0  0  0  0  0  0
  144.8382  138.8652  155.4437 H   0  0  0  0  0  0  0  0  0  0  0  0
  146.9867  138.4220  156.3363 H   0  0  0  0  0  0  0  0  0  0  0  0
  146.3368  136.8861  155.8613 H   0  0  0  0  0  0  0  0  0  0  0  0
  148.8104  137.3513  155.2932 H   0  0  0  0  0  0  0  0  0  0  0  0
  147.8639  136.6865  154.0242 H   0  0  0  0  0  0  0  0  0  0  0  0
  148.8721  139.5137  154.3543 H   0  0  0  0  0  0  0  0  0  0  0  0
  149.0726  138.4704  152.9836 H   0  0  0  0  0  0  0  0  0  0  0  0
  147.5019  140.4063  152.6387 H   0  0  0  0  0  0  0  0  0  0  0  0
  145.8911  139.3948  151.3332 H   0  0  0  0  0  0  0  0  0  0  0  0
  147.2663  138.3571  151.1948 H   0  0  0  0  0  0  0  0  0  0  0  0
  144.7798  137.4555  151.5431 H   0  0  0  0  0  0  0  0  0  0  0  0
  147.2196  136.2180  152.0775 H   0  0  0  0  0  0  0  0  0  0  0  0
  147.9833  131.5863  151.9534 H   0  0  0  0  0  0  0  0  0  0  0  0
  146.5615  129.5986  151.5679 H   0  0  0  0  0  0  0  0  0  0  0  0
  143.9435  130.5307  151.5933 H   0  0  0  0  0  0  0  0  0  0  0  0
  144.5142  136.7712  154.0782 H   0  0  0  0  0  0  0  0  0  0  0  0
  143.8980  138.2515  153.4280 H   0  0  0  0  0  0  0  0  0  0  0  0
  145.3108  140.1681  153.5165 H   0  0  0  0  0  0  0  0  0  0  0  0
  1  2  1  0  0  0  0
  1 20  1  0  0  0  0
  1 21  1  0  0  0  0
  1 22  1  0  0  0  0
  2  7  1  0  0  0  0
  2  3  1  0  0  0  0
  2 40  1  0  0  0  0
  3 19  1  0  0  0  0
  3  4  1  0  0  0  0
  3 23  1  0  0  0  0
  4  5  1  0  0  0  0
  4 24  1  0  0  0  0
  4 25  1  0  0  0  0
  5  6  1  0  0  0  0
  5 26  1  0  0  0  0
  5 27  1  0  0  0  0
  6  7  1  0  0  0  0
  6 28  1  0  0  0  0
  6 29  1  0  0  0  0
  7  8  1  0  0  0  0
  7 30  1  0  0  0  0
  8  9  1  0  0  0  0
  8 31  1  0  0  0  0
  8 32  1  0  0  0  0
  9 10  1  0  0  0  0
  9 19  1  0  0  0  0
  9 33  1  0  0  0  0
 10 34  1  0  0  0  0
 10 11  1  0  0  0  0
 11 13  1  0  0  0  0
 11 12  2  0  0  0  0
 13 14  2  0  0  0  0
 14 18  1  0  0  0  0
 14 15  1  0  0  0  0
 15 35  1  0  0  0  0
 15 16  1  0  0  0  0
 16 36  1  0  0  0  0
 16 17  2  0  0  0  0
 17 37  1  0  0  0  0
 17 18  1  0  0  0  0
 19 38  1  0  0  0  0
 19 39  1  0  0  0  0
M  CHG  1   2   1
M  END
> <s_m_source_file>
AV-unprocessed.smi

> <i_m_source_file_index>
2226

> <i_lp_mmshare_version>
43012

> <i_f3d_flags>
0

> <s_epik_input>
W0NIMl0xW0NIMl1bQ0gyXVtDQEhdKE4oW0NIM10pW0NIXTEyKVtDSDJdW0NASF0oW0NIMl0yKVtOSF1DKD1PKVtOSF1jM25bY0hdW2NIXW8z

> <s_epik_cmdline>
J2VwaWtfcHl0aG9uJywgJy1waCcsICc3LjAnLCAnLXRuJywgJzgnLCAnLW1hJywgJzIwMCcsICctbWV0YWxfYmluZGluZycsICctaW1hZScsICc8aW5maWxlLm1hZT4nLCAnLW9tYWUnLCAnPG91dGZpbGUubWFlPic=

> <r_lp_tautomer_probability>
0.107061

> <r_epik_Ionization_Penalty>
1.08307

> <r_epik_Ionization_Penalty_Charging>
1.08272

> <r_epik_Ionization_Penalty_Neutral>
0.000345913

> <r_epik_State_Penalty>
2.5744

> <r_epik_Charging_Adjusted_Penalty>
3.65713

> <i_epik_Tot_Q>
1

> <i_epik_Tot_abs_Q>
1

> <r_epik_Metal_State_Penalty>
3.72133

> <b_epik_Metal_Only>
0

> <s_lp_Force_Field>
OPLS_2005

> <r_lp_Energy>
58.5529

> <b_lp_Chiralities_Consistent>
1

> <s_lp_Variant>
AV-unprocessed.smi:2226-9

> <Gold.Version>
5.8.1

> <Gold.Id.Protein>
6NUR|6NUR_protein|mol2

> <Gold.PLP.Fitness>
33.4291

> <Gold.PLP.PLP>
-23.2802

> <Gold.PLP.part.hbond>
-3.0000

> <Gold.PLP.part.metal>
0.0000

> <Gold.PLP.part.buried>
-0.9892

> <Gold.PLP.part.nonpolar>
-19.8249

> <Gold.PLP.part.repulsive>
0.3881

> <Gold.PLP.ligand.clash>
0.0000

> <Gold.PLP.ligand.torsion>
0.0900

> <Gold.PLP.Chemscore.Hbond>
3.3840

> <Gold.PLP.Chemscore.CHOScore>
0.0416

> <Gold.PLP.Chemscore.Metal>
0.0000

> <Gold.Chemscore.Hbonds>
donor molecule, donor type, donor heavy atom, donor atom, acceptor molecule, acceptor atom, score
      L1  H     2    40       P1 10175  2.00
      L1  H    10    34       P1  7948  1.00
      L1  H    15    35       P1 10747  0.34

> <Gold.PLP.Chemscore.Internal.Correction>
0.0522

> <Gold.Rescore>
     Score         DG    S(hbond)    S(metal)    S(lipo)     H(rot)  DE(clash)    DE(int)     intcor
     16.18     -17.92       2.52        0.00      56.22       1.00       0.06       1.68       ----

> <Gold.Chemscore.Fitness>
16.1781

> <Gold.Chemscore.DG>
-17.9180

> <Gold.Chemscore.ZeroCoef>
-5.4800

> <Gold.Chemscore.Hbond>
2.5211

> <Gold.Chemscore.Metal>
0.0000

> <Gold.Chemscore.Lipo>
56.2190

> <Gold.Chemscore.Internal_Hbond>
0.0000

> <Gold.Chemscore.DEClash>
0.0620

> <Gold.Chemscore.DEInternal>
1.6779

> <Gold.Chemscore.Rot>
1.0000

> <Gold.Chemscore.Internal.Correction>
   9.000000E+99

> <Gold.Chemscore.Hbonds>
donor molecule, donor type, donor heavy atom, donor atom, acceptor molecule, acceptor atom, score
      L1  H     2    40       P1 10175  0.99
      L1  H    10    34       P1  7948  1.00
      L1  H    15    35       P1 10747  0.33

> <Gold.Chemscore.Hbond.Weighted>
-8.4204

> <Gold.Chemscore.Metal.Weighted>
-0.0000

> <Gold.Chemscore.Lipo.Weighted>
-6.5776

> <Gold.Chemscore.Internal_Hbond.Weighted>
0.0000

> <Gold.Chemscore.DEClash.Weighted>
0.0620

> <Gold.Chemscore.DEInternal.Weighted>
1.6779

> <Gold.Chemscore.Rot.Weighted>
2.5600

> <Gold.Chemscore.Internal.Correction.Weighted>
   9.000000E+99

> <Gold.Protein.RotatedTorsions>
[ 6907 6896 6895 6894 ] final  127.46 input  -60.11 | X-H torsion
[ 7974 7965 7964 7962 ] final   70.13 input  175.53 | X-H torsion
[ 8008 7997 7996 7995 ] final -150.19 input   59.86 | X-H torsion
[ 10167 10162 10161 10158 ] final   76.47 input  -65.29 | X-H torsion
[ 10718 10713 10712 10709 ] final -148.22 input   66.30 | X-H torsion
[ 10763 10752 10751 10750 ] final  -37.63 input  -60.55 | X-H torsion
[ 11005 11000 10999 10996 ] final -138.12 input  -57.11 | X-H torsion

> <Gold.Protein.ActiveResidues>
 VAL166  LYS551  ARG553  GLY616  TRP617  ASP618  TYR619  PRO620  LYS621  CYS622 
 ASP623  PHE694  ASN695  SER759  ASP760  ASP761  ALA762  ILE779  LEU786  VAL792 
 PHE793  MET794  SER795  GLU796  ALA797  LYS798  CYS799  TRP800  GLU811  SER814 

> <Gold.Protein.RotatedAtoms>
  152.3811  133.6547  159.6161 H   0  0  0  0  0  0  0  0  0  0  0  0  # atno 6907 bound_to 6896
  150.7741  133.9113  159.3379 H   0  0  0  0  0  0  0  0  0  0  0  0  # atno 6908 bound_to 6896
  151.6918  135.0946  160.0286 H   0  0  0  0  0  0  0  0  0  0  0  0  # atno 6909 bound_to 6896
  145.7819  139.2892  143.1261 H   0  0  0  0  0  0  0  0  0  0  0  0  # atno 7974 bound_to 7965
  155.6196  140.0680  157.2682 H   0  0  0  0  0  0  0  0  0  0  0  0  # atno 8008 bound_to 7997
  154.4232  140.1787  156.1407 H   0  0  0  0  0  0  0  0  0  0  0  0  # atno 8009 bound_to 7997
  156.0019  140.3335  155.6858 H   0  0  0  0  0  0  0  0  0  0  0  0  # atno 8010 bound_to 7997
  139.9919  144.5750  150.7810 H   0  0  0  0  0  0  0  0  0  0  0  0  # atno 10167 bound_to 10162
  156.4175  130.8012  151.2233 H   0  0  0  0  0  0  0  0  0  0  0  0  # atno 10718 bound_to 10713
  153.8995  135.6804  153.4756 H   0  0  0  0  0  0  0  0  0  0  0  0  # atno 10763 bound_to 10752
  153.1137  135.4771  154.9076 H   0  0  0  0  0  0  0  0  0  0  0  0  # atno 10764 bound_to 10752
  154.7582  135.3203  154.8383 H   0  0  0  0  0  0  0  0  0  0  0  0  # atno 10765 bound_to 10752
  140.8646  134.2126  157.4687 H   0  0  0  0  0  0  0  0  0  0  0  0  # atno 11005 bound_to 11000
  146.0065  140.8473  142.9992 LP  0  0  0  0  0  0  0  0  0  0  0  0  # atno 17320 bound_to 7965
  144.6795  140.2428  143.7341 LP  0  0  0  0  0  0  0  0  0  0  0  0  # atno 17321 bound_to 7965
  140.7451  143.2871  151.3433 LP  0  0  0  0  0  0  0  0  0  0  0  0  # atno 17342 bound_to 10162
  139.6334  144.0678  152.2495 LP  0  0  0  0  0  0  0  0  0  0  0  0  # atno 17343 bound_to 10162
  157.7508  131.0238  150.3851 LP  0  0  0  0  0  0  0  0  0  0  0  0  # atno 17370 bound_to 10713
  156.4162  130.3944  149.6857 LP  0  0  0  0  0  0  0  0  0  0  0  0  # atno 17371 bound_to 10713
  139.8708  134.9746  156.4851 LP  0  0  0  0  0  0  0  0  0  0  0  0  # atno 17394 bound_to 11000
  140.8643  133.8036  155.9298 LP  0  0  0  0  0  0  0  0  0  0  0  0  # atno 17395 bound_to 11000

$$$$
