#       Name:                AV-unprocessed.smi:527
#       Creating user name   scv26
#       Creation time:       Thu Mar 26 23:30:52 2020


#       File generated by GOLD software.
#

@<TRIPOS>MOLECULE
AV-unprocessed.smi:527
    47    48     1
SMALL
NO_CHARGES


@<TRIPOS>ATOM
      1 ****        -2.9678  -1.7740  -3.0743 C.3            1 S1                 0.0000
      2 ****        -2.3983  -1.2390  -1.7482 C.3            1 S1                 0.0000
      3 ****        -2.9052  -2.1060  -0.5768 C.3            1 S1                 0.0000
      4 ****        -2.3625  -1.6271   0.7762 C.3            1 S1                 0.0000
      5 ****        -2.7114  -0.1515   1.0144 C.3            1 S1                 0.0000
      6 ****        -2.2057   0.7483  -0.1316 C.3            1 S1                 0.0000
      7 ****        -0.7440   0.8332  -0.1252 N.am           1 S1                 0.0000
      8 ****        -0.0119   1.6244   0.6723 C.2            1 S1                 0.0000
      9 ****        -0.5032   2.3886   1.5056 O.2            1 S1                 0.0000
     10 ****         1.3041   1.4576   0.4392 N.am           1 S1                 0.0000
     11 ****         2.3312   2.0744   1.0587 C.2            1 S1                 0.0000
     12 ****         2.2225   2.9180   1.9505 O.2            1 S1                 0.0000
     13 ****         3.7292   1.6543   0.6031 C.3            1 S1                 0.0000
     14 ****         4.2663   0.5944   1.4619 N.pl3          1 S1                 0.0000
     15 ****         4.2251  -0.7587   1.2395 C.2            1 S1                 0.0000
     16 ****         4.8412  -1.3500   2.3125 C.2            1 S1                 0.0000
     17 ****         5.2309  -0.3345   3.1445 N.pl3          1 S1                 1.0000
     18 ****         4.8813   0.8470   2.6255 C.2            1 S1                 0.0000
     19 ****        -2.7313   0.2606  -1.5070 C.3            1 S1                 0.0000
     20 ****        -2.2474   1.1793  -2.6475 C.3            1 S1                 0.0000
     21 ****        -4.0482  -1.6359  -3.1269 H              1 S1                 0.0000
     22 ****        -2.7652  -2.8396  -3.1847 H              1 S1                 0.0000
     23 ****        -2.5227  -1.2773  -3.9360 H              1 S1                 0.0000
     24 ****        -1.3137  -1.3467  -1.7949 H              1 S1                 0.0000
     25 ****        -3.9957  -2.0897  -0.5530 H              1 S1                 0.0000
     26 ****        -2.6184  -3.1467  -0.7314 H              1 S1                 0.0000
     27 ****        -2.7762  -2.2387   1.5785 H              1 S1                 0.0000
     28 ****        -1.2813  -1.7653   0.8104 H              1 S1                 0.0000
     29 ****        -3.7943  -0.0501   1.0971 H              1 S1                 0.0000
     30 ****        -2.3056   0.1787   1.9713 H              1 S1                 0.0000
     31 ****        -2.6000   1.7528   0.0336 H              1 S1                 0.0000
     32 ****        -0.2586   0.2395  -0.7814 H              1 S1                 0.0000
     33 ****         1.5485   0.7901  -0.2772 H              1 S1                 0.0000
     34 ****         3.7126   1.2914  -0.4260 H              1 S1                 0.0000
     35 ****         4.4092   2.5072   0.6371 H              1 S1                 0.0000
     36 ****         3.7717  -1.1897   0.3584 H              1 S1                 0.0000
     37 ****         5.0259  -2.3898   2.5410 H              1 S1                 0.0000
     38 ****         5.0565   1.8144   3.0625 H              1 S1                 0.0000
     39 ****        -3.8184   0.3493  -1.4757 H              1 S1                 0.0000
     40 ****        -1.1820   1.0545  -2.8427 H              1 S1                 0.0000
     41 ****        -2.4196   2.2280  -2.4032 H              1 S1                 0.0000
     42 ****        -2.7811   0.9810  -3.5766 H              1 S1                 0.0000
     43 ****         5.7119  -0.4573   4.0269 H              1 S1                 0.0000
     44 ****        -1.4961   2.4403   1.6124 LP             1 S1                 0.0000
     45 ****         0.0912   2.9568   2.0747 LP             1 S1                 0.0000
     46 ****         1.3160   3.1950   2.2689 LP             1 S1                 0.0000
     47 ****         3.0409   3.3255   2.3557 LP             1 S1                 0.0000
@<TRIPOS>BOND
    1    1    2 1     
    2    1   21 1     
    3    1   22 1     
    4    1   23 1     
    5    2   19 1     
    6    2    3 1     
    7    2   24 1     
    8    3    4 1     
    9    3   25 1     
   10    3   26 1     
   11    4    5 1     
   12    4   27 1     
   13    4   28 1     
   14    5    6 1     
   15    5   29 1     
   16    5   30 1     
   17    6    7 1     
   18    6   19 1     
   19    6   31 1     
   20    7    8 1     
   21    7   32 1     
   22    8    9 2     
   23    8   10 1     
   24   10   11 1     
   25   10   33 1     
   26   11   12 2     
   27   11   13 1     
   28   13   14 1     
   29   13   34 1     
   30   13   35 1     
   31   14   18 1     
   32   14   15 1     
   33   15   16 2     
   34   15   36 1     
   35   16   17 1     
   36   16   37 1     
   37   17   18 2     
   38   17   43 1     
   39   18   38 1     
   40   19   20 1     
   41   19   39 1     
   42   20   40 1     
   43   20   41 1     
   44   20   42 1     
   45    9   44 1     
   46    9   45 1     
   47   12   46 1     
   48   12   47 1     
@<TRIPOS>SUBSTRUCTURE
      1 S1             1
@<TRIPOS>SET
LONE_PAIRS      STATIC     ATOMS    <user>   **** ""
4 44 45 46 47
DONOR_HYDROGENS      STATIC     ATOMS    <user>   **** ""
3 32 33 43
ATOM$BLUE        STATIC     ATOMS    COLORGROUP SYSTEM
4 44 45 46 47
ATOM$RED        STATIC     ATOMS    COLORGROUP SYSTEM
3 32 33 43
