AV-unprocessed.smi:1345|AV-procd|sdf|5511|dock1
  -GOLD-   22720 5 93D 1   1.00000     0.00000
 Structure written by MMmdl.
 40 41  0  0  0  0  0  0  0  0  1 V2000
  151.9800  144.7034  158.3453 C   0  0  0  0  0  0  0  0  0  0  0  0
  151.8190  143.7566  159.5509 C   0  0  0  0  0  0  0  0  0  0  0  0
  151.5213  144.5840  160.8145 C   0  0  0  0  0  0  0  0  0  0  0  0
  153.0440  142.8209  159.7301 C   0  0  1  0  0  0  0  0  0  0  0  0
  153.5646  142.7698  161.1793 C   0  0  0  0  0  0  0  0  0  0  0  0
  152.7050  141.4634  159.3067 N   0  0  0  0  0  0  0  0  0  0  0  0
  151.9502  141.1360  158.2452 C   0  0  0  0  0  0  0  0  0  0  0  0
  151.4292  141.9648  157.4992 O   0  0  0  0  0  0  0  0  0  0  0  0
  151.7553  139.6415  157.9844 C   0  0  0  0  0  0  0  0  0  0  0  0
  150.9652  139.4336  156.7246 C   0  0  0  0  0  0  0  0  0  0  0  0
  151.3671  138.7479  155.6044 C   0  0  0  0  0  0  0  0  0  0  0  0
  150.1364  138.7319  154.3716 S   0  0  0  0  0  0  0  0  0  0  0  0
  149.0997  139.6806  155.4414 C   0  0  0  0  0  0  0  0  0  0  0  0
  147.7765  140.1312  155.1574 N   0  0  0  0  0  0  0  0  0  0  0  0
  147.2822  141.4155  155.6446 C   0  0  0  0  0  0  0  0  0  0  0  0
  145.8514  141.4804  155.1192 C   0  0  0  0  0  0  0  0  0  0  0  0
  145.7318  140.2290  154.4090 N   0  0  0  0  0  0  0  0  0  0  0  0
  146.8360  139.4794  154.4448 C   0  0  0  0  0  0  0  0  0  0  0  0
  146.9382  138.3799  153.9037 O   0  0  0  0  0  0  0  0  0  0  0  0
  149.6753  139.9644  156.6146 N   0  0  0  0  0  0  0  0  0  0  0  0
  152.8667  145.3291  158.4511 H   0  0  0  0  0  0  0  0  0  0  0  0
  151.1187  145.3649  158.2472 H   0  0  0  0  0  0  0  0  0  0  0  0
  152.0677  144.1575  157.4060 H   0  0  0  0  0  0  0  0  0  0  0  0
  150.9443  143.1340  159.3569 H   0  0  0  0  0  0  0  0  0  0  0  0
  152.3843  145.1821  161.1090 H   0  0  0  0  0  0  0  0  0  0  0  0
  151.2458  143.9524  161.6583 H   0  0  0  0  0  0  0  0  0  0  0  0
  150.6875  145.2666  160.6484 H   0  0  0  0  0  0  0  0  0  0  0  0
  153.8466  143.1956  159.0920 H   0  0  0  0  0  0  0  0  0  0  0  0
  153.9441  143.7368  161.5075 H   0  0  0  0  0  0  0  0  0  0  0  0
  154.3877  142.0613  161.2775 H   0  0  0  0  0  0  0  0  0  0  0  0
  152.7807  142.4627  161.8722 H   0  0  0  0  0  0  0  0  0  0  0  0
  153.0899  140.7094  159.8574 H   0  0  0  0  0  0  0  0  0  0  0  0
  152.7314  139.1588  157.9196 H   0  0  0  0  0  0  0  0  0  0  0  0
  151.2442  139.1892  158.8352 H   0  0  0  0  0  0  0  0  0  0  0  0
  152.3084  138.2464  155.4339 H   0  0  0  0  0  0  0  0  0  0  0  0
  147.3088  141.4506  156.7348 H   0  0  0  0  0  0  0  0  0  0  0  0
  147.8876  142.2350  155.2542 H   0  0  0  0  0  0  0  0  0  0  0  0
  145.1197  141.5360  155.9261 H   0  0  0  0  0  0  0  0  0  0  0  0
  145.7002  142.3219  154.4420 H   0  0  0  0  0  0  0  0  0  0  0  0
  144.8842  139.9566  153.9322 H   0  0  0  0  0  0  0  0  0  0  0  0
  1  2  1  0  0  0  0
  1 21  1  0  0  0  0
  1 22  1  0  0  0  0
  1 23  1  0  0  0  0
  2  3  1  0  0  0  0
  2  4  1  0  0  0  0
  2 24  1  0  0  0  0
  3 25  1  0  0  0  0
  3 26  1  0  0  0  0
  3 27  1  0  0  0  0
  4  5  1  0  0  0  0
  4  6  1  0  0  0  0
  4 28  1  0  0  0  0
  5 29  1  0  0  0  0
  5 30  1  0  0  0  0
  5 31  1  0  0  0  0
  6  7  1  0  0  0  0
  6 32  1  0  0  0  0
  7  8  2  0  0  0  0
  7  9  1  0  0  0  0
  9 10  1  0  0  0  0
  9 33  1  0  0  0  0
  9 34  1  0  0  0  0
 10 20  1  0  0  0  0
 10 11  2  0  0  0  0
 11 12  1  0  0  0  0
 11 35  1  0  0  0  0
 12 13  1  0  0  0  0
 13 14  1  0  0  0  0
 13 20  2  0  0  0  0
 14 18  1  0  0  0  0
 14 15  1  0  0  0  0
 15 16  1  0  0  0  0
 15 36  1  0  0  0  0
 15 37  1  0  0  0  0
 16 17  1  0  0  0  0
 16 38  1  0  0  0  0
 16 39  1  0  0  0  0
 17 18  1  0  0  0  0
 17 40  1  0  0  0  0
 18 19  2  0  0  0  0
M  END
> <s_m_source_file>
AV-unprocessed.smi

> <i_m_source_file_index>
1345

> <i_lp_mmshare_version>
43012

> <i_f3d_flags>
0

> <s_epik_input>
W0NIM11bQ0hdKFtDSDNdKVtDQEhdKFtDSDNdKVtOSF1DKD1PKVtDSDJdYzFbY0hdc2MobjEpTjJbQ0gyXVtDSDJdW05IXUMyPU8=

> <s_epik_cmdline>
J2VwaWtfcHl0aG9uJywgJy1waCcsICc3LjAnLCAnLXRuJywgJzgnLCAnLW1hJywgJzIwMCcsICctbWV0YWxfYmluZGluZycsICctaW1hZScsICc8aW5maWxlLm1hZT4nLCAnLW9tYWUnLCAnPG91dGZpbGUubWFlPic=

> <r_lp_tautomer_probability>
1

> <r_epik_Ionization_Penalty>
0.000122034

> <r_epik_Ionization_Penalty_Charging>
0

> <r_epik_Ionization_Penalty_Neutral>
0.000122034

> <r_epik_State_Penalty>
-0

> <r_epik_Charging_Adjusted_Penalty>
0

> <i_epik_Tot_Q>
0

> <i_epik_Tot_abs_Q>
0

> <r_epik_Metal_State_Penalty>
-0

> <b_epik_Metal_Only>
0

> <s_lp_Force_Field>
OPLS_2005

> <r_lp_Energy>
32.8432

> <b_lp_Chiralities_Consistent>
1

> <s_lp_Variant>
AV-unprocessed.smi:1345-2

> <Gold.Version>
5.8.1

> <Gold.Id.Protein>
6NUR|6NUR_protein|mol2

> <Gold.PLP.Fitness>
41.4689

> <Gold.PLP.PLP>
-42.9697

> <Gold.PLP.part.hbond>
-1.0000

> <Gold.PLP.part.metal>
0.0000

> <Gold.PLP.part.buried>
-4.2340

> <Gold.PLP.part.nonpolar>
-37.5265

> <Gold.PLP.part.repulsive>
0.4520

> <Gold.PLP.ligand.clash>
0.0000

> <Gold.PLP.ligand.torsion>
2.1276

> <Gold.PLP.Chemscore.Hbond>
0.8800

> <Gold.PLP.Chemscore.CHOScore>
0.0000

> <Gold.PLP.Chemscore.Metal>
0.0000

> <Gold.Chemscore.Hbonds>
donor molecule, donor type, donor heavy atom, donor atom, acceptor molecule, acceptor atom, score
      L1  H    17    40       P1 10175  0.86

> <Gold.PLP.Chemscore.Internal.Correction>
0.1144

> <Gold.Rescore>
     Score         DG    S(hbond)    S(metal)    S(lipo)     H(rot)  DE(clash)    DE(int)     intcor
     10.54     -15.68       0.96        0.00      97.65       1.74       0.10       5.05       ----

> <Gold.Chemscore.Fitness>
10.5387

> <Gold.Chemscore.DG>
-15.6848

> <Gold.Chemscore.ZeroCoef>
-5.4800

> <Gold.Chemscore.Hbond>
0.9645

> <Gold.Chemscore.Metal>
0.0000

> <Gold.Chemscore.Lipo>
97.6550

> <Gold.Chemscore.Internal_Hbond>
0.0000

> <Gold.Chemscore.DEClash>
0.0977

> <Gold.Chemscore.DEInternal>
5.0485

> <Gold.Chemscore.Rot>
1.7353

> <Gold.Chemscore.Internal.Correction>
   9.000000E+99

> <Gold.Chemscore.Hbonds>
donor molecule, donor type, donor heavy atom, donor atom, acceptor molecule, acceptor atom, score
      L1  H    17    40       P1 10175  0.84

> <Gold.Chemscore.Hbond.Weighted>
-3.2214

> <Gold.Chemscore.Metal.Weighted>
-0.0000

> <Gold.Chemscore.Lipo.Weighted>
-11.4256

> <Gold.Chemscore.Internal_Hbond.Weighted>
0.0000

> <Gold.Chemscore.DEClash.Weighted>
0.0977

> <Gold.Chemscore.DEInternal.Weighted>
5.0485

> <Gold.Chemscore.Rot.Weighted>
4.4423

> <Gold.Chemscore.Internal.Correction.Weighted>
   9.000000E+99

> <Gold.Protein.RotatedTorsions>
[ 6907 6896 6895 6894 ] final  117.88 input  -60.11 | X-H torsion
[ 7974 7965 7964 7962 ] final  -20.27 input  175.53 | X-H torsion
[ 8008 7997 7996 7995 ] final   27.39 input   59.86 | X-H torsion
[ 10167 10162 10161 10158 ] final    4.86 input  -65.29 | X-H torsion
[ 10718 10713 10712 10709 ] final   97.64 input   66.30 | X-H torsion
[ 10763 10752 10751 10750 ] final  -94.92 input  -60.55 | X-H torsion
[ 11005 11000 10999 10996 ] final   73.57 input  -57.11 | X-H torsion

> <Gold.Protein.ActiveResidues>
 VAL166  LYS551  ARG553  GLY616  TRP617  ASP618  TYR619  PRO620  LYS621  CYS622 
 ASP623  PHE694  ASN695  SER759  ASP760  ASP761  ALA762  ILE779  LEU786  VAL792 
 PHE793  MET794  SER795  GLU796  ALA797  LYS798  CYS799  TRP800  GLU811  SER814 

> <Gold.Protein.RotatedAtoms>
  152.4582  133.7766  159.6827 H   0  0  0  0  0  0  0  0  0  0  0  0  # atno 6907 bound_to 6896
  150.8515  133.7769  159.3030 H   0  0  0  0  0  0  0  0  0  0  0  0  # atno 6908 bound_to 6896
  151.5363  135.1071  159.9967 H   0  0  0  0  0  0  0  0  0  0  0  0  # atno 6909 bound_to 6896
  146.1797  140.4178  142.8499 H   0  0  0  0  0  0  0  0  0  0  0  0  # atno 7974 bound_to 7965
  155.0422  140.3170  155.4720 H   0  0  0  0  0  0  0  0  0  0  0  0  # atno 8008 bound_to 7997
  156.2852  140.2161  156.5489 H   0  0  0  0  0  0  0  0  0  0  0  0  # atno 8009 bound_to 7997
  154.7280  140.0484  157.0688 H   0  0  0  0  0  0  0  0  0  0  0  0  # atno 8010 bound_to 7997
  140.6513  143.7539  150.7579 H   0  0  0  0  0  0  0  0  0  0  0  0  # atno 10167 bound_to 10162
  157.6909  131.0615  150.4674 H   0  0  0  0  0  0  0  0  0  0  0  0  # atno 10718 bound_to 10713
  154.7100  135.5139  153.8653 H   0  0  0  0  0  0  0  0  0  0  0  0  # atno 10763 bound_to 10752
  153.0773  135.6620  154.0128 H   0  0  0  0  0  0  0  0  0  0  0  0  # atno 10764 bound_to 10752
  153.9971  135.3014  155.3386 H   0  0  0  0  0  0  0  0  0  0  0  0  # atno 10765 bound_to 10752
  139.9434  134.7358  156.1042 H   0  0  0  0  0  0  0  0  0  0  0  0  # atno 11005 bound_to 11000
  144.8295  140.6683  143.6300 LP  0  0  0  0  0  0  0  0  0  0  0  0  # atno 17320 bound_to 7965
  145.4111  139.1580  143.4125 LP  0  0  0  0  0  0  0  0  0  0  0  0  # atno 17321 bound_to 7965
  140.1190  143.4629  152.2325 LP  0  0  0  0  0  0  0  0  0  0  0  0  # atno 17342 bound_to 10162
  139.5728  144.7472  151.3845 LP  0  0  0  0  0  0  0  0  0  0  0  0  # atno 17343 bound_to 10162
  156.5014  130.4118  149.6351 LP  0  0  0  0  0  0  0  0  0  0  0  0  # atno 17370 bound_to 10713
  156.3324  130.7339  151.2270 LP  0  0  0  0  0  0  0  0  0  0  0  0  # atno 17371 bound_to 10713
  141.1076  133.6654  156.2901 LP  0  0  0  0  0  0  0  0  0  0  0  0  # atno 17394 bound_to 11000
  140.5896  134.5664  157.5496 LP  0  0  0  0  0  0  0  0  0  0  0  0  # atno 17395 bound_to 11000

$$$$
