AV-unprocessed.smi:1007|AV-procd|sdf|4401|dock5
  -GOLD-   22720 2343D 1   1.00000     0.00000
 Structure written by MMmdl.
 56 58  0  0  0  0  0  0  0  0  2 V2000
  145.5393  135.6236  150.9168 C   0  0  0  0  0  0  0  0  0  0  0  0
  146.2581  136.8473  150.9311 O   0  0  0  0  0  0  0  0  0  0  0  0
  145.9779  137.6799  152.0492 C   0  0  0  0  0  0  0  0  0  0  0  0
  146.8517  138.9495  152.0603 C   0  0  0  0  0  0  0  0  0  0  0  0
  146.5631  139.8336  153.2178 N   0  3  0  0  0  0  0  0  0  0  0  0
  147.4100  141.0560  153.2651 C   0  0  0  0  0  0  0  0  0  0  0  0
  147.0096  141.9341  154.4675 C   0  0  0  0  0  0  0  0  0  0  0  0
  147.1032  141.2339  155.7486 N   0  0  0  0  0  0  0  0  0  0  0  0
  148.4686  140.9341  156.2007 C   0  0  0  0  0  0  0  0  0  0  0  0
  149.1128  141.9841  157.1330 C   0  0  1  0  0  0  0  0  0  0  0  0
  149.0643  141.4833  158.4548 O   0  0  0  0  0  0  0  0  0  0  0  0
  150.5940  142.2685  156.7994 C   0  0  0  0  0  0  0  0  0  0  0  0
  151.5020  141.4049  157.5324 N   0  0  0  0  0  0  0  0  0  0  0  0
  152.0036  140.2204  157.1325 C   0  0  0  0  0  0  0  0  0  0  0  0
  152.8279  139.5956  157.9685 N   0  0  0  0  0  0  0  0  0  0  0  0
  152.8697  140.4798  159.0328 C   0  0  0  0  0  0  0  0  0  0  0  0
  153.5712  140.4106  160.2563 C   0  0  0  0  0  0  0  0  0  0  0  0
  153.4639  141.4453  161.2129 C   0  0  0  0  0  0  0  0  0  0  0  0
  154.2349  141.3290  162.5160 C   0  0  0  0  0  0  0  0  0  0  0  0
  152.6437  142.5724  160.9517 C   0  0  0  0  0  0  0  0  0  0  0  0
  152.5101  143.6943  161.9662 C   0  0  0  0  0  0  0  0  0  0  0  0
  151.9371  142.6581  159.7340 C   0  0  0  0  0  0  0  0  0  0  0  0
  152.0520  141.6219  158.7907 C   0  0  0  0  0  0  0  0  0  0  0  0
  146.2584  140.0415  155.6820 C   0  0  0  0  0  0  0  0  0  0  0  0
  146.6200  139.1034  154.5112 C   0  0  0  0  0  0  0  0  0  0  0  0
  145.8642  135.0245  150.0662 H   0  0  0  0  0  0  0  0  0  0  0  0
  144.4662  135.7840  150.8153 H   0  0  0  0  0  0  0  0  0  0  0  0
  145.7239  135.0439  151.8222 H   0  0  0  0  0  0  0  0  0  0  0  0
  144.9199  137.9465  152.0654 H   0  0  0  0  0  0  0  0  0  0  0  0
  146.1474  137.0971  152.9539 H   0  0  0  0  0  0  0  0  0  0  0  0
  147.9021  138.6584  152.0772 H   0  0  0  0  0  0  0  0  0  0  0  0
  146.7138  139.5076  151.1331 H   0  0  0  0  0  0  0  0  0  0  0  0
  148.4638  140.7798  153.3178 H   0  0  0  0  0  0  0  0  0  0  0  0
  147.2836  141.6368  152.3522 H   0  0  0  0  0  0  0  0  0  0  0  0
  147.5976  142.8496  154.4896 H   0  0  0  0  0  0  0  0  0  0  0  0
  145.9803  142.2660  154.3248 H   0  0  0  0  0  0  0  0  0  0  0  0
  148.4230  139.9904  156.7469 H   0  0  0  0  0  0  0  0  0  0  0  0
  149.1292  140.7383  155.3565 H   0  0  0  0  0  0  0  0  0  0  0  0
  148.5292  142.9054  157.1137 H   0  0  0  0  0  0  0  0  0  0  0  0
  149.9472  141.3014  158.7396 H   0  0  0  0  0  0  0  0  0  0  0  0
  150.7739  142.1391  155.7310 H   0  0  0  0  0  0  0  0  0  0  0  0
  150.8638  143.2978  157.0282 H   0  0  0  0  0  0  0  0  0  0  0  0
  151.7469  139.7909  156.1751 H   0  0  0  0  0  0  0  0  0  0  0  0
  154.1949  139.5516  160.4550 H   0  0  0  0  0  0  0  0  0  0  0  0
  154.9159  142.1720  162.6341 H   0  0  0  0  0  0  0  0  0  0  0  0
  154.8271  140.4140  162.5484 H   0  0  0  0  0  0  0  0  0  0  0  0
  153.5499  141.3146  163.3641 H   0  0  0  0  0  0  0  0  0  0  0  0
  151.8314  144.4714  161.6129 H   0  0  0  0  0  0  0  0  0  0  0  0
  153.4794  144.1564  162.1547 H   0  0  0  0  0  0  0  0  0  0  0  0
  152.1185  143.3122  162.9091 H   0  0  0  0  0  0  0  0  0  0  0  0
  151.3081  143.5099  159.5227 H   0  0  0  0  0  0  0  0  0  0  0  0
  146.3114  139.4951  156.6244 H   0  0  0  0  0  0  0  0  0  0  0  0
  145.2171  140.3495  155.5778 H   0  0  0  0  0  0  0  0  0  0  0  0
  145.9151  138.2715  154.4897 H   0  0  0  0  0  0  0  0  0  0  0  0
  147.6109  138.6695  154.6504 H   0  0  0  0  0  0  0  0  0  0  0  0
  145.6071  140.1430  153.1129 H   0  0  0  0  0  0  0  0  0  0  0  0
  1  2  1  0  0  0  0
  1 26  1  0  0  0  0
  1 27  1  0  0  0  0
  1 28  1  0  0  0  0
  2  3  1  0  0  0  0
  3  4  1  0  0  0  0
  3 29  1  0  0  0  0
  3 30  1  0  0  0  0
  4  5  1  0  0  0  0
  4 31  1  0  0  0  0
  4 32  1  0  0  0  0
  5 25  1  0  0  0  0
  5  6  1  0  0  0  0
  5 56  1  0  0  0  0
  6  7  1  0  0  0  0
  6 33  1  0  0  0  0
  6 34  1  0  0  0  0
  7  8  1  0  0  0  0
  7 35  1  0  0  0  0
  7 36  1  0  0  0  0
  8  9  1  0  0  0  0
  8 24  1  0  0  0  0
  9 10  1  0  0  0  0
  9 37  1  0  0  0  0
  9 38  1  0  0  0  0
 10 11  1  0  0  0  0
 10 12  1  0  0  0  0
 10 39  1  0  0  0  0
 11 40  1  0  0  0  0
 12 13  1  0  0  0  0
 12 41  1  0  0  0  0
 12 42  1  0  0  0  0
 13 23  1  0  0  0  0
 13 14  1  0  0  0  0
 14 15  2  0  0  0  0
 14 43  1  0  0  0  0
 15 16  1  0  0  0  0
 16 23  2  0  0  0  0
 16 17  1  0  0  0  0
 17 18  2  0  0  0  0
 17 44  1  0  0  0  0
 18 19  1  0  0  0  0
 18 20  1  0  0  0  0
 19 45  1  0  0  0  0
 19 46  1  0  0  0  0
 19 47  1  0  0  0  0
 20 21  1  0  0  0  0
 20 22  2  0  0  0  0
 21 48  1  0  0  0  0
 21 49  1  0  0  0  0
 21 50  1  0  0  0  0
 22 23  1  0  0  0  0
 22 51  1  0  0  0  0
 24 25  1  0  0  0  0
 24 52  1  0  0  0  0
 24 53  1  0  0  0  0
 25 54  1  0  0  0  0
 25 55  1  0  0  0  0
M  CHG  1   5   1
M  END
> <s_m_source_file>
AV-unprocessed.smi

> <i_m_source_file_index>
1007

> <i_lp_mmshare_version>
43012

> <i_f3d_flags>
0

> <s_epik_input>
W0NIM11PW0NIMl1bQ0gyXU4xW0NIMl1bQ0gyXU4oW0NIMl1bQ0gyXTEpW0NIMl1bQ0BIXShbT0hdKVtDSDJdbihbY0hdbjIpYyhjMjMpW2NIXWMoW0NIM10pYyhbY0hdMylbQ0gzXQ==

> <s_epik_cmdline>
J2VwaWtfcHl0aG9uJywgJy1waCcsICc3LjAnLCAnLXRuJywgJzgnLCAnLW1hJywgJzIwMCcsICctbWV0YWxfYmluZGluZycsICctaW1hZScsICc8aW5maWxlLm1hZT4nLCAnLW9tYWUnLCAnPG91dGZpbGUubWFlPic=

> <r_epik_Ionization_Penalty>
0.186009

> <r_epik_Ionization_Penalty_Charging>
0.0613973

> <r_epik_Ionization_Penalty_Neutral>
0.124612

> <r_epik_State_Penalty>
1.21927

> <r_epik_Charging_Adjusted_Penalty>
1.28067

> <i_epik_Tot_Q>
1

> <i_epik_Tot_abs_Q>
1

> <r_epik_Metal_State_Penalty>
1.13901

> <b_epik_Metal_Only>
0

> <s_lp_Force_Field>
OPLS_2005

> <r_lp_Energy>
38.7105

> <b_lp_Chiralities_Consistent>
1

> <s_lp_Variant>
AV-unprocessed.smi:1007-4

> <Gold.Version>
5.8.1

> <Gold.Id.Protein>
6NUR|6NUR_protein|mol2

> <Gold.PLP.Fitness>
52.7326

> <Gold.PLP.PLP>
-46.4365

> <Gold.PLP.part.hbond>
-2.2741

> <Gold.PLP.part.metal>
0.0000

> <Gold.PLP.part.buried>
-0.4396

> <Gold.PLP.part.nonpolar>
-44.1410

> <Gold.PLP.part.repulsive>
1.9391

> <Gold.PLP.ligand.clash>
0.0000

> <Gold.PLP.ligand.torsion>
1.8725

> <Gold.PLP.Chemscore.Hbond>
3.2028

> <Gold.PLP.Chemscore.CHOScore>
0.0000

> <Gold.PLP.Chemscore.Metal>
0.0000

> <Gold.Chemscore.Hbonds>
donor molecule, donor type, donor heavy atom, donor atom, acceptor molecule, acceptor atom, score
      L1  H     5    56       P1 10175  1.89
      P1  H  7954  7966       L1     2  0.11
      P1  H  7997  8008       L1    15  0.83

> <Gold.PLP.Chemscore.Internal.Correction>
0.4328

> <Gold.Rescore>
     Score         DG    S(hbond)    S(metal)    S(lipo)     H(rot)  DE(clash)    DE(int)     intcor
     14.47     -17.82       1.01        0.00     132.54       2.56       0.48       2.87       ----

> <Gold.Chemscore.Fitness>
14.4742

> <Gold.Chemscore.DG>
-17.8225

> <Gold.Chemscore.ZeroCoef>
-5.4800

> <Gold.Chemscore.Hbond>
1.0143

> <Gold.Chemscore.Metal>
0.0000

> <Gold.Chemscore.Lipo>
132.5375

> <Gold.Chemscore.Internal_Hbond>
0.0000

> <Gold.Chemscore.DEClash>
0.4781

> <Gold.Chemscore.DEInternal>
2.8702

> <Gold.Chemscore.Rot>
2.5594

> <Gold.Chemscore.Internal.Correction>
   9.000000E+99

> <Gold.Chemscore.Hbonds>
donor molecule, donor type, donor heavy atom, donor atom, acceptor molecule, acceptor atom, score
      L1  H     5    56       P1 10175  0.89
      P1  H  7954  7966       L1     2  0.07
      P1  H  7997  8008       L1    15  0.04

> <Gold.Chemscore.Hbond.Weighted>
-3.3878

> <Gold.Chemscore.Metal.Weighted>
-0.0000

> <Gold.Chemscore.Lipo.Weighted>
-15.5069

> <Gold.Chemscore.Internal_Hbond.Weighted>
0.0000

> <Gold.Chemscore.DEClash.Weighted>
0.4781

> <Gold.Chemscore.DEInternal.Weighted>
2.8702

> <Gold.Chemscore.Rot.Weighted>
6.5522

> <Gold.Chemscore.Internal.Correction.Weighted>
   9.000000E+99

> <Gold.Protein.RotatedTorsions>
[ 6907 6896 6895 6894 ] final  -74.38 input  -60.11 | X-H torsion
[ 7974 7965 7964 7962 ] final  -92.03 input  175.53 | X-H torsion
[ 8008 7997 7996 7995 ] final  -84.42 input   59.86 | X-H torsion
[ 10167 10162 10161 10158 ] final -108.93 input  -65.29 | X-H torsion
[ 10718 10713 10712 10709 ] final  -22.66 input   66.30 | X-H torsion
[ 10763 10752 10751 10750 ] final   58.56 input  -60.55 | X-H torsion
[ 11005 11000 10999 10996 ] final -144.56 input  -57.11 | X-H torsion

> <Gold.Protein.ActiveResidues>
 VAL166  LYS551  ARG553  GLY616  TRP617  ASP618  TYR619  PRO620  LYS621  CYS622 
 ASP623  PHE694  ASN695  SER759  ASP760  ASP761  ALA762  ILE779  LEU786  VAL792 
 PHE793  MET794  SER795  GLU796  ALA797  LYS798  CYS799  TRP800  GLU811  SER814 

> <Gold.Protein.RotatedAtoms>
  150.7095  134.4877  159.5500 H   0  0  0  0  0  0  0  0  0  0  0  0  # atno 6907 bound_to 6896
  152.2501  134.8138  160.0456 H   0  0  0  0  0  0  0  0  0  0  0  0  # atno 6908 bound_to 6896
  151.8888  133.3476  159.3828 H   0  0  0  0  0  0  0  0  0  0  0  0  # atno 6909 bound_to 6896
  145.4053  140.9541  143.2264 H   0  0  0  0  0  0  0  0  0  0  0  0  # atno 7974 bound_to 7965
  154.6296  140.0605  156.9715 H   0  0  0  0  0  0  0  0  0  0  0  0  # atno 8008 bound_to 7997
  155.1687  140.3289  155.4378 H   0  0  0  0  0  0  0  0  0  0  0  0  # atno 8009 bound_to 7997
  156.2476  140.1918  156.6790 H   0  0  0  0  0  0  0  0  0  0  0  0  # atno 8010 bound_to 7997
  140.1608  143.4122  152.1427 H   0  0  0  0  0  0  0  0  0  0  0  0  # atno 10167 bound_to 10162
  156.5015  130.4589  149.6698 H   0  0  0  0  0  0  0  0  0  0  0  0  # atno 10718 bound_to 10713
  152.9874  135.5602  154.5573 H   0  0  0  0  0  0  0  0  0  0  0  0  # atno 10763 bound_to 10752
  154.4998  135.2797  155.1432 H   0  0  0  0  0  0  0  0  0  0  0  0  # atno 10764 bound_to 10752
  154.2867  135.6334  153.5421 H   0  0  0  0  0  0  0  0  0  0  0  0  # atno 10765 bound_to 10752
  140.8012  134.2854  157.4977 H   0  0  0  0  0  0  0  0  0  0  0  0  # atno 11005 bound_to 11000
  144.8346  139.5572  143.6928 LP  0  0  0  0  0  0  0  0  0  0  0  0  # atno 17320 bound_to 7965
  146.2732  139.6686  142.9281 LP  0  0  0  0  0  0  0  0  0  0  0  0  # atno 17321 bound_to 7965
  139.5382  144.7231  151.4822 LP  0  0  0  0  0  0  0  0  0  0  0  0  # atno 17342 bound_to 10162
  140.6644  143.8429  150.6925 LP  0  0  0  0  0  0  0  0  0  0  0  0  # atno 17343 bound_to 10162
  156.3328  130.7340  151.2273 LP  0  0  0  0  0  0  0  0  0  0  0  0  # atno 17370 bound_to 10713
  157.7462  131.0425  150.4698 LP  0  0  0  0  0  0  0  0  0  0  0  0  # atno 17371 bound_to 10713
  139.8721  134.9431  156.3842 LP  0  0  0  0  0  0  0  0  0  0  0  0  # atno 17394 bound_to 11000
  140.9292  133.7591  156.0003 LP  0  0  0  0  0  0  0  0  0  0  0  0  # atno 17395 bound_to 11000

$$$$
