#       Name:                AV-unprocessed.smi:290
#       Creating user name   scv26
#       Creation time:       Thu Mar 26 22:05:43 2020


#       File generated by GOLD software.
#

@<TRIPOS>MOLECULE
AV-unprocessed.smi:290
    69    72     1
SMALL
NO_CHARGES


@<TRIPOS>ATOM
      1 ****        -3.6496  -0.1636   2.1937 C.3            1 S1                 0.0000
      2 ****        -4.5671  -0.8623   1.1771 C.3            1 S1                 0.0000
      3 ****        -5.8997  -0.9242   1.6649 O.3            1 S1                 0.0000
      4 ****        -6.5787  -1.8954   0.8904 C.3            1 S1                 0.0000
      5 ****        -5.5678  -3.0333   0.8179 C.3            1 S1                 0.0000
      6 ****        -4.2110  -2.3224   0.7892 C.3            1 S1                 0.0000
      7 ****        -3.3724  -2.9343   1.7560 O.3            1 S1                 0.0000
      8 ****        -3.5216  -2.4369  -0.5929 C.3            1 S1                 0.0000
      9 ****        -2.2844  -1.6765  -0.6883 N.pl3          1 S1                 0.0000
     10 ****        -1.0462  -2.0555  -0.2213 C.2            1 S1                 0.0000
     11 ****        -0.0874  -1.1935  -0.4217 N.2            1 S1                 0.0000
     12 ****        -0.7097  -0.1393  -1.0802 C.ar           1 S1                 0.0000
     13 ****        -0.2727   1.1162  -1.5923 C.ar           1 S1                 0.0000
     14 ****         0.9916   1.5891  -1.5292 N.3            1 S1                 0.0000
     15 ****         1.8404   1.1980  -2.6535 C.3            1 S1                 0.0000
     16 ****         3.2497   1.0008  -2.0855 C.3            1 S1                 0.0000
     17 ****         2.9417   0.5953  -0.6413 C.3            1 S1                 0.0000
     18 ****         4.0701   0.5780   0.3414 N.4            1 S1                 1.0000
     19 ****         4.6352  -0.7855   0.4969 C.3            1 S1                 0.0000
     20 ****         5.1242   1.6103   0.1314 C.3            1 S1                 0.0000
     21 ****         5.9386   1.9074   1.4037 C.3            1 S1                 0.0000
     22 ****         5.1019   2.4510   2.4024 O.3            1 S1                 0.0000
     23 ****         1.7270   1.4677  -0.2711 C.3            1 S1                 0.0000
     24 ****         2.0416   2.8719   0.2716 C.3            1 S1                 0.0000
     25 ****        -1.1826   1.8950  -2.2265 N.ar           1 S1                 0.0000
     26 ****        -2.4513   1.4892  -2.3349 C.ar           1 S1                 0.0000
     27 ****        -3.0056   0.3576  -1.8954 N.ar           1 S1                 0.0000
     28 ****        -2.0892  -0.4355  -1.2699 C.ar           1 S1                 0.0000
     29 ****         2.5485  -0.4214  -0.6955 H              1 S1                 0.0000
     30 ****         1.1365   0.9561   0.4892 H              1 S1                 0.0000
     31 ****        -2.6207  -0.1256   1.8352 H              1 S1                 0.0000
     32 ****        -3.6545  -0.6751   3.1566 H              1 S1                 0.0000
     33 ****        -3.9767   0.8618   2.3661 H              1 S1                 0.0000
     34 ****        -4.6101  -0.2504   0.2754 H              1 S1                 0.0000
     35 ****        -7.5197  -2.1953   1.3522 H              1 S1                 0.0000
     36 ****        -6.7914  -1.4949  -0.1023 H              1 S1                 0.0000
     37 ****        -5.6702  -3.6486   1.7136 H              1 S1                 0.0000
     38 ****        -5.7384  -3.6821  -0.0420 H              1 S1                 0.0000
     39 ****        -3.2819  -3.8494   1.5389 H              1 S1                 0.0000
     40 ****        -3.2993  -3.4799  -0.8226 H              1 S1                 0.0000
     41 ****        -4.1971  -2.0915  -1.3767 H              1 S1                 0.0000
     42 ****        -0.8768  -2.9964   0.2818 H              1 S1                 0.0000
     43 ****         1.4808   0.2648  -3.0911 H              1 S1                 0.0000
     44 ****         1.8264   1.9587  -3.4347 H              1 S1                 0.0000
     45 ****         3.8213   0.2483  -2.6292 H              1 S1                 0.0000
     46 ****         3.7875   1.9463  -2.1462 H              1 S1                 0.0000
     47 ****         5.1049  -1.1188  -0.4293 H              1 S1                 0.0000
     48 ****         3.8556  -1.5014   0.7591 H              1 S1                 0.0000
     49 ****         5.3780  -0.8316   1.2914 H              1 S1                 0.0000
     50 ****         5.7898   1.2892  -0.6712 H              1 S1                 0.0000
     51 ****         4.6845   2.5497  -0.1972 H              1 S1                 0.0000
     52 ****         6.4486   1.0259   1.7895 H              1 S1                 0.0000
     53 ****         6.7142   2.6395   1.1771 H              1 S1                 0.0000
     54 ****         5.6332   2.6779   3.1511 H              1 S1                 0.0000
     55 ****         2.6024   2.8245   1.2042 H              1 S1                 0.0000
     56 ****         1.1199   3.4155   0.4806 H              1 S1                 0.0000
     57 ****         2.6104   3.4667  -0.4431 H              1 S1                 0.0000
     58 ****        -3.1175   2.1686  -2.8464 H              1 S1                 0.0000
     59 ****         3.6458   0.7976   1.2316 H              1 S1                 0.0000
     60 ****        -6.3436  -0.0337   1.5654 LP             1 S1                 0.0000
     61 ****        -5.9007  -1.1912   2.6286 LP             1 S1                 0.0000
     62 ****        -3.7813  -2.8419   2.6639 LP             1 S1                 0.0000
     63 ****        -2.4738  -2.4956   1.7490 LP             1 S1                 0.0000
     64 ****         0.8748  -1.2730  -0.1612 LP             1 S1                 0.0000
     65 ****         0.7855   2.5657  -1.5914 LP             1 S1                 0.0000
     66 ****         4.4141   1.7761   2.6696 LP             1 S1                 0.0000
     67 ****         4.6470   3.2696   2.0518 LP             1 S1                 0.0000
     68 ****        -0.9044   2.7741  -2.6137 LP             1 S1                 0.0000
     69 ****        -3.9704   0.1212  -2.0101 LP             1 S1                 0.0000
@<TRIPOS>BOND
    1    1    2 1     
    2    1   31 1     
    3    1   32 1     
    4    1   33 1     
    5    2    6 1     
    6    2    3 1     
    7    2   34 1     
    8    3    4 1     
    9    4    5 1     
   10    4   35 1     
   11    4   36 1     
   12    5    6 1     
   13    5   37 1     
   14    5   38 1     
   15    6    7 1     
   16    6    8 1     
   17    7   39 1     
   18    8    9 1     
   19    8   40 1     
   20    8   41 1     
   21    9   28 1     
   22    9   10 1     
   23   10   11 2     
   24   10   42 1     
   25   11   12 1     
   26   12   28 ar    
   27   12   13 ar    
   28   13   14 1     
   29   13   25 ar    
   30   14   23 1     
   31   14   15 1     
   32   15   16 1     
   33   15   43 1     
   34   15   44 1     
   35   16   17 1     
   36   16   45 1     
   37   16   46 1     
   38   17   29 1     
   39   17   18 1     
   40   17   23 1     
   41   18   19 1     
   42   18   20 1     
   43   18   59 1     
   44   19   47 1     
   45   19   48 1     
   46   19   49 1     
   47   20   21 1     
   48   20   50 1     
   49   20   51 1     
   50   21   22 1     
   51   21   52 1     
   52   21   53 1     
   53   22   54 1     
   54   23   30 1     
   55   23   24 1     
   56   24   55 1     
   57   24   56 1     
   58   24   57 1     
   59   25   26 ar    
   60   26   27 ar    
   61   26   58 1     
   62   27   28 ar    
   63    3   60 1     
   64    3   61 1     
   65    7   62 1     
   66    7   63 1     
   67   11   64 1     
   68   14   65 1     
   69   22   66 1     
   70   22   67 1     
   71   25   68 1     
   72   27   69 1     
@<TRIPOS>SUBSTRUCTURE
      1 S1             1
@<TRIPOS>SET
LONE_PAIRS      STATIC     ATOMS    <user>   **** ""
10 60 61 62 63 64 65 66 67 68 69
DONOR_HYDROGENS      STATIC     ATOMS    <user>   **** ""
3 39 59 54
ATOM$BLUE        STATIC     ATOMS    COLORGROUP SYSTEM
10 60 61 62 63 64 65 66 67 68 69
ATOM$RED        STATIC     ATOMS    COLORGROUP SYSTEM
3 39 59 54
