AV-unprocessed.smi:128|AV-procd|sdf|1155|dock3
  -GOLD-   2262018293D 1   1.00000     0.00000
 Structure written by MMmdl.
 41 44  0  0  0  0  0  0  0  0  1 V2000
  149.6671  141.1696  153.9555 O   0  0  0  0  0  0  0  0  0  0  0  0
  148.6023  140.5577  154.0563 C   0  0  0  0  0  0  0  0  0  0  0  0
  147.2965  141.2049  153.9911 C   0  0  0  0  0  0  0  0  0  0  0  0
  147.2217  142.5371  153.8315 F   0  0  0  0  0  0  0  0  0  0  0  0
  146.1572  140.4864  154.0877 C   0  0  0  0  0  0  0  0  0  0  0  0
  146.1414  139.1124  154.2504 N   0  0  0  0  0  0  0  0  0  0  0  0
  144.8297  138.3695  154.3369 C   0  0  2  0  0  0  0  0  0  0  0  0
  144.6886  137.3870  153.1665 C   0  0  0  0  0  0  0  0  0  0  0  0
  143.6949  138.0926  152.2661 C   0  0  0  0  0  0  0  0  0  0  0  0
  142.8522  138.8623  153.2752 C   0  0  0  0  0  0  0  0  0  0  0  0
  143.7887  139.2981  154.2523 O   0  0  0  0  0  0  0  0  0  0  0  0
  147.3583  138.3986  154.3118 C   0  0  0  0  0  0  0  0  0  0  0  0
  147.3726  137.1696  154.4129 O   0  0  0  0  0  0  0  0  0  0  0  0
  148.5535  139.1522  154.2319 N   0  0  0  0  0  0  0  0  0  0  0  0
  149.8138  138.4279  154.2908 C   0  0  0  0  0  0  0  0  0  0  0  0
  150.6297  138.8065  155.4924 C   0  0  0  0  0  0  0  0  0  0  0  0
  151.5948  138.1103  156.1005 N   0  0  0  0  0  0  0  0  0  0  0  0
  152.0267  138.8978  157.1424 N   0  0  0  0  0  0  0  0  0  0  0  0
  151.2969  140.0172  157.0914 C   0  0  0  0  0  0  0  0  0  0  0  0
  151.3621  141.1856  157.9687 C   0  0  0  0  0  0  0  0  0  0  0  0
  150.8098  142.4246  157.5691 C   0  0  0  0  0  0  0  0  0  0  0  0
  150.8809  143.5444  158.4205 C   0  0  0  0  0  0  0  0  0  0  0  0
  151.5039  143.4362  159.6782 C   0  0  0  0  0  0  0  0  0  0  0  0
  151.6026  144.9501  160.8269 Br  0  0  0  0  0  0  0  0  0  0  0  0
  152.0547  142.2061  160.0846 C   0  0  0  0  0  0  0  0  0  0  0  0
  151.9840  141.0859  159.2337 C   0  0  0  0  0  0  0  0  0  0  0  0
  150.3985  140.0132  156.0695 O   0  0  0  0  0  0  0  0  0  0  0  0
  145.2184  141.0168  154.0310 H   0  0  0  0  0  0  0  0  0  0  0  0
  144.7913  137.8852  155.3132 H   0  0  0  0  0  0  0  0  0  0  0  0
  145.6445  137.1730  152.6866 H   0  0  0  0  0  0  0  0  0  0  0  0
  144.2679  136.4548  153.5453 H   0  0  0  0  0  0  0  0  0  0  0  0
  144.2119  138.7836  151.5996 H   0  0  0  0  0  0  0  0  0  0  0  0
  143.1077  137.4058  151.6560 H   0  0  0  0  0  0  0  0  0  0  0  0
  142.3184  139.7015  152.8290 H   0  0  0  0  0  0  0  0  0  0  0  0
  142.1223  138.2027  153.7469 H   0  0  0  0  0  0  0  0  0  0  0  0
  149.6077  137.3570  154.2895 H   0  0  0  0  0  0  0  0  0  0  0  0
  150.3647  138.6277  153.3703 H   0  0  0  0  0  0  0  0  0  0  0  0
  150.3280  142.5308  156.6083 H   0  0  0  0  0  0  0  0  0  0  0  0
  150.4576  144.4871  158.1063 H   0  0  0  0  0  0  0  0  0  0  0  0
  152.5331  142.1208  161.0491 H   0  0  0  0  0  0  0  0  0  0  0  0
  152.4124  140.1499  159.5612 H   0  0  0  0  0  0  0  0  0  0  0  0
  1  2  2  0  0  0  0
  2 14  1  0  0  0  0
  2  3  1  0  0  0  0
  3  4  1  0  0  0  0
  3  5  2  0  0  0  0
  5  6  1  0  0  0  0
  5 28  1  0  0  0  0
  6  7  1  0  0  0  0
  6 12  1  0  0  0  0
  7 11  1  0  0  0  0
  7  8  1  0  0  0  0
  7 29  1  0  0  0  0
  8  9  1  0  0  0  0
  8 30  1  0  0  0  0
  8 31  1  0  0  0  0
  9 10  1  0  0  0  0
  9 32  1  0  0  0  0
  9 33  1  0  0  0  0
 10 11  1  0  0  0  0
 10 34  1  0  0  0  0
 10 35  1  0  0  0  0
 12 13  2  0  0  0  0
 12 14  1  0  0  0  0
 14 15  1  0  0  0  0
 15 16  1  0  0  0  0
 15 36  1  0  0  0  0
 15 37  1  0  0  0  0
 16 27  1  0  0  0  0
 16 17  2  0  0  0  0
 17 18  1  0  0  0  0
 18 19  2  0  0  0  0
 19 20  1  0  0  0  0
 19 27  1  0  0  0  0
 20 26  1  0  0  0  0
 20 21  2  0  0  0  0
 21 22  1  0  0  0  0
 21 38  1  0  0  0  0
 22 23  2  0  0  0  0
 22 39  1  0  0  0  0
 23 24  1  0  0  0  0
 23 25  1  0  0  0  0
 25 26  2  0  0  0  0
 25 40  1  0  0  0  0
 26 41  1  0  0  0  0
M  END
> <s_m_source_file>
AV-unprocessed.smi

> <i_m_source_file_index>
128

> <i_lp_mmshare_version>
43012

> <i_f3d_flags>
0

> <s_epik_input>
TzFbQ0gyXVtDSDJdW0NIMl1bQ0BIXTFuKFtjSF1jKEYpYzI9TyljKD1PKW4yW0NIMl1jM25uYyhvMyktYzRbY0hdW2NIXWMoQnIpW2NIXVtjSF00

> <s_epik_cmdline>
J2VwaWtfcHl0aG9uJywgJy1waCcsICc3LjAnLCAnLXRuJywgJzgnLCAnLW1hJywgJzIwMCcsICctbWV0YWxfYmluZGluZycsICctaW1hZScsICc8aW5maWxlLm1hZT4nLCAnLW9tYWUnLCAnPG91dGZpbGUubWFlPic=

> <r_lp_tautomer_probability>
1

> <r_epik_Ionization_Penalty>
2.55537e-09

> <r_epik_Ionization_Penalty_Charging>
2.54231e-09

> <r_epik_Ionization_Penalty_Neutral>
1.30653e-11

> <r_epik_State_Penalty>
-0

> <r_epik_Charging_Adjusted_Penalty>
2.54231e-09

> <i_epik_Tot_Q>
0

> <i_epik_Tot_abs_Q>
0

> <r_epik_Metal_State_Penalty>
-0

> <b_epik_Metal_Only>
0

> <s_epik_Chemistry_Notes>
This compound contains an acetal/aminal-like group ( X-CH(R)-Y where X, Y are N, S, or O) that may be acid/base labile, releasing an aldehyde.

> <s_lp_Force_Field>
OPLS_2005

> <r_lp_Energy>
32.4944

> <b_lp_Chiralities_Consistent>
1

> <s_lp_Variant>
AV-unprocessed.smi:128-1

> <Gold.Version>
5.8.1

> <Gold.Id.Protein>
6NUR|6NUR_protein|mol2

> <Gold.PLP.Fitness>
51.0552

> <Gold.PLP.PLP>
-42.8371

> <Gold.PLP.part.hbond>
-3.0000

> <Gold.PLP.part.metal>
0.0000

> <Gold.PLP.part.buried>
-4.9136

> <Gold.PLP.part.nonpolar>
-37.9898

> <Gold.PLP.part.repulsive>
2.8077

> <Gold.PLP.ligand.clash>
0.0000

> <Gold.PLP.ligand.torsion>
0.4925

> <Gold.PLP.Chemscore.Hbond>
2.2320

> <Gold.PLP.Chemscore.CHOScore>
0.8217

> <Gold.PLP.Chemscore.Metal>
0.0000

> <Gold.Chemscore.Hbonds>
donor molecule, donor type, donor heavy atom, donor atom, acceptor molecule, acceptor atom, score
      P1  H  7989  7998       L1     1  0.35
      P1  H  8011  8017       L1     1  0.78
      L1  C     5    28       P1 10175  0.84

> <Gold.PLP.Chemscore.Internal.Correction>
0.0418

> <Gold.Rescore>
     Score         DG    S(hbond)    S(metal)    S(lipo)     H(rot)  DE(clash)    DE(int)     intcor
     12.85     -19.05       2.17        0.00      91.27       1.70       1.40       4.80       ----

> <Gold.Chemscore.Fitness>
12.8472

> <Gold.Chemscore.DG>
-19.0473

> <Gold.Chemscore.ZeroCoef>
-5.4800

> <Gold.Chemscore.Hbond>
2.1664

> <Gold.Chemscore.Metal>
0.0000

> <Gold.Chemscore.Lipo>
91.2671

> <Gold.Chemscore.Internal_Hbond>
0.0000

> <Gold.Chemscore.DEClash>
1.4043

> <Gold.Chemscore.DEInternal>
4.7958

> <Gold.Chemscore.Rot>
1.6980

> <Gold.Chemscore.Internal.Correction>
   9.000000E+99

> <Gold.Chemscore.Hbonds>
donor molecule, donor type, donor heavy atom, donor atom, acceptor molecule, acceptor atom, score
      P1  H  7989  7998       L1     1  0.34
      P1  H  8011  8017       L1     1  0.67

> <Gold.Chemscore.Hbond.Weighted>
-7.2359

> <Gold.Chemscore.Metal.Weighted>
-0.0000

> <Gold.Chemscore.Lipo.Weighted>
-10.6783

> <Gold.Chemscore.Internal_Hbond.Weighted>
0.0000

> <Gold.Chemscore.DEClash.Weighted>
1.4043

> <Gold.Chemscore.DEInternal.Weighted>
4.7958

> <Gold.Chemscore.Rot.Weighted>
4.3469

> <Gold.Chemscore.Internal.Correction.Weighted>
   9.000000E+99

> <Gold.Protein.RotatedTorsions>
[ 6907 6896 6895 6894 ] final -120.76 input  -60.11 | X-H torsion
[ 7974 7965 7964 7962 ] final -130.90 input  175.53 | X-H torsion
[ 8008 7997 7996 7995 ] final   86.25 input   59.86 | X-H torsion
[ 10167 10162 10161 10158 ] final   86.64 input  -65.29 | X-H torsion
[ 10718 10713 10712 10709 ] final -175.81 input   66.30 | X-H torsion
[ 10763 10752 10751 10750 ] final  -37.40 input  -60.55 | X-H torsion
[ 11005 11000 10999 10996 ] final -153.64 input  -57.11 | X-H torsion

> <Gold.Protein.ActiveResidues>
 VAL166  LYS551  ARG553  GLY616  TRP617  ASP618  TYR619  PRO620  LYS621  CYS622 
 ASP623  PHE694  ASN695  SER759  ASP760  ASP761  ALA762  ILE779  LEU786  VAL792 
 PHE793  MET794  SER795  GLU796  ALA797  LYS798  CYS799  TRP800  GLU811  SER814 

> <Gold.Protein.RotatedAtoms>
  150.8422  133.7918  159.3056 H   0  0  0  0  0  0  0  0  0  0  0  0  # atno 6907 bound_to 6896
  151.5616  135.1063  159.9983 H   0  0  0  0  0  0  0  0  0  0  0  0  # atno 6908 bound_to 6896
  152.4483  133.7537  159.6764 H   0  0  0  0  0  0  0  0  0  0  0  0  # atno 6909 bound_to 6896
  144.9431  140.7261  143.4834 H   0  0  0  0  0  0  0  0  0  0  0  0  # atno 7974 bound_to 7965
  155.9604  140.3394  155.6485 H   0  0  0  0  0  0  0  0  0  0  0  0  # atno 8008 bound_to 7997
  155.6806  140.0737  157.2504 H   0  0  0  0  0  0  0  0  0  0  0  0  # atno 8009 bound_to 7997
  154.4142  140.1675  156.1966 H   0  0  0  0  0  0  0  0  0  0  0  0  # atno 8010 bound_to 7997
  139.8855  144.6416  150.8796 H   0  0  0  0  0  0  0  0  0  0  0  0  # atno 10167 bound_to 10162
  156.8054  130.9567  151.3117 H   0  0  0  0  0  0  0  0  0  0  0  0  # atno 10718 bound_to 10713
  153.8956  135.6807  153.4758 H   0  0  0  0  0  0  0  0  0  0  0  0  # atno 10763 bound_to 10752
  153.1157  135.4762  154.9109 H   0  0  0  0  0  0  0  0  0  0  0  0  # atno 10764 bound_to 10752
  154.7601  135.3208  154.8349 H   0  0  0  0  0  0  0  0  0  0  0  0  # atno 10765 bound_to 10752
  140.7059  134.3886  157.5204 H   0  0  0  0  0  0  0  0  0  0  0  0  # atno 11005 bound_to 11000
  145.2960  139.1867  143.4715 LP  0  0  0  0  0  0  0  0  0  0  0  0  # atno 17320 bound_to 7965
  146.3293  140.2944  142.8617 LP  0  0  0  0  0  0  0  0  0  0  0  0  # atno 17321 bound_to 7965
  140.7736  143.3551  151.1936 LP  0  0  0  0  0  0  0  0  0  0  0  0  # atno 17342 bound_to 10162
  139.7157  143.9304  152.2965 LP  0  0  0  0  0  0  0  0  0  0  0  0  # atno 17343 bound_to 10162
  157.6533  130.8903  149.9677 LP  0  0  0  0  0  0  0  0  0  0  0  0  # atno 17370 bound_to 10713
  156.1076  130.3652  150.0106 LP  0  0  0  0  0  0  0  0  0  0  0  0  # atno 17371 bound_to 10713
  139.8884  134.8857  156.2475 LP  0  0  0  0  0  0  0  0  0  0  0  0  # atno 17394 bound_to 11000
  141.0125  133.7088  156.1134 LP  0  0  0  0  0  0  0  0  0  0  0  0  # atno 17395 bound_to 11000

$$$$
