AV-unprocessed.smi:148|AV-procd|sdf|1220|dock9
  -GOLD-   2262018413D 1   1.00000     0.00000
 Structure written by MMmdl.
 63 67  0  0  0  0  0  0  0  0  1 V2000
  152.9581  138.9928  155.2230 O   0  0  0  0  0  0  0  0  0  0  0  0
  151.6607  138.6211  155.6397 C   0  0  0  0  0  0  0  0  0  0  0  0
  151.2387  139.3825  156.9197 C   0  0  2  0  0  0  0  0  0  0  0  0
  149.7263  139.2096  157.2191 C   0  0  0  0  0  0  0  0  0  0  0  0
  149.4282  137.9861  157.9425 N   0  0  0  0  0  0  0  0  0  0  0  0
  150.3262  137.2025  158.6317 C   0  0  0  0  0  0  0  0  0  0  0  0
  149.8165  136.1502  159.2116 N   0  0  0  0  0  0  0  0  0  0  0  0
  148.4653  136.2147  158.8962 C   0  0  0  0  0  0  0  0  0  0  0  0
  147.3440  135.3958  159.1926 C   0  0  0  0  0  0  0  0  0  0  0  0
  147.4544  134.2836  159.9582 N   0  0  0  0  0  0  0  0  0  0  0  0
  148.3307  133.3308  159.2729 C   0  0  0  0  0  0  0  0  0  0  0  0
  148.3418  131.9634  159.9659 C   0  0  0  0  0  0  0  0  0  0  0  0
  148.7178  132.1230  161.4409 C   0  0  0  0  0  0  0  0  0  0  0  0
  147.7399  133.0927  162.1143 C   0  0  0  0  0  0  0  0  0  0  0  0
  147.7054  134.4715  161.4015 C   0  0  2  0  0  0  0  0  0  0  0  0
  146.7154  135.4772  162.0785 C   0  0  2  0  0  0  0  0  0  0  0  0
  145.2238  135.1643  161.8516 C   0  0  0  0  0  0  0  0  0  0  0  0
  144.4792  136.5081  161.9173 C   0  0  0  0  0  0  0  0  0  0  0  0
  145.5396  137.5732  162.2106 C   0  0  0  0  0  0  0  0  0  0  0  0
  146.8458  136.9640  161.7028 C   0  0  1  0  0  0  0  0  0  0  0  0
  147.9593  137.5898  162.3050 O   0  0  0  0  0  0  0  0  0  0  0  0
  146.1308  135.7854  158.7168 N   0  0  0  0  0  0  0  0  0  0  0  0
  146.0277  136.8938  157.9771 C   0  0  0  0  0  0  0  0  0  0  0  0
  146.9876  137.7467  157.6117 N   0  0  0  0  0  0  0  0  0  0  0  0
  148.2019  137.3650  158.1024 C   0  0  0  0  0  0  0  0  0  0  0  0
  151.6968  140.8678  156.8786 C   0  0  1  0  0  0  0  0  0  0  0  0
  151.0567  141.7593  155.8143 C   0  0  0  0  0  0  0  0  0  0  0  0
  150.8440  143.0984  156.5266 C   0  0  0  0  0  0  0  0  0  0  0  0
  151.6128  143.0092  157.7172 O   0  0  0  0  0  0  0  0  0  0  0  0
  151.5158  141.6699  158.1704 C   0  0  0  0  0  0  0  0  0  0  0  0
  153.4073  138.2207  154.9142 H   0  0  0  0  0  0  0  0  0  0  0  0
  150.9546  138.8018  154.8289 H   0  0  0  0  0  0  0  0  0  0  0  0
  151.6809  137.5450  155.8077 H   0  0  0  0  0  0  0  0  0  0  0  0
  151.7731  138.9192  157.7508 H   0  0  0  0  0  0  0  0  0  0  0  0
  149.3463  140.0324  157.8218 H   0  0  0  0  0  0  0  0  0  0  0  0
  149.1435  139.2104  156.2985 H   0  0  0  0  0  0  0  0  0  0  0  0
  151.3789  137.4388  158.6912 H   0  0  0  0  0  0  0  0  0  0  0  0
  148.0110  133.2028  158.2376 H   0  0  0  0  0  0  0  0  0  0  0  0
  149.3441  133.7344  159.2428 H   0  0  0  0  0  0  0  0  0  0  0  0
  147.3581  131.4996  159.8817 H   0  0  0  0  0  0  0  0  0  0  0  0
  149.0457  131.2967  159.4672 H   0  0  0  0  0  0  0  0  0  0  0  0
  148.6939  131.1549  161.9417 H   0  0  0  0  0  0  0  0  0  0  0  0
  149.7377  132.4996  161.5295 H   0  0  0  0  0  0  0  0  0  0  0  0
  146.7525  132.6323  162.0997 H   0  0  0  0  0  0  0  0  0  0  0  0
  148.0162  133.1968  163.1621 H   0  0  0  0  0  0  0  0  0  0  0  0
  148.7055  134.8992  161.4871 H   0  0  0  0  0  0  0  0  0  0  0  0
  146.8353  135.4222  163.1604 H   0  0  0  0  0  0  0  0  0  0  0  0
  145.0410  134.7023  160.8829 H   0  0  0  0  0  0  0  0  0  0  0  0
  144.8556  134.4665  162.6046 H   0  0  0  0  0  0  0  0  0  0  0  0
  144.0045  136.7112  160.9564 H   0  0  0  0  0  0  0  0  0  0  0  0
  143.6943  136.5060  162.6741 H   0  0  0  0  0  0  0  0  0  0  0  0
  145.3127  138.5322  161.7437 H   0  0  0  0  0  0  0  0  0  0  0  0
  145.5964  137.7351  163.2884 H   0  0  0  0  0  0  0  0  0  0  0  0
  146.8946  137.1012  160.6236 H   0  0  0  0  0  0  0  0  0  0  0  0
  148.5802  136.9231  162.5555 H   0  0  0  0  0  0  0  0  0  0  0  0
  145.0331  137.1318  157.6296 H   0  0  0  0  0  0  0  0  0  0  0  0
  152.7707  140.8820  156.6874 H   0  0  0  0  0  0  0  0  0  0  0  0
  151.7275  141.8688  154.9614 H   0  0  0  0  0  0  0  0  0  0  0  0
  150.1105  141.3767  155.4349 H   0  0  0  0  0  0  0  0  0  0  0  0
  151.1499  143.9507  155.9195 H   0  0  0  0  0  0  0  0  0  0  0  0
  149.7932  143.2276  156.7898 H   0  0  0  0  0  0  0  0  0  0  0  0
  150.5382  141.5274  158.6289 H   0  0  0  0  0  0  0  0  0  0  0  0
  152.2791  141.4430  158.9150 H   0  0  0  0  0  0  0  0  0  0  0  0
  1  2  1  0  0  0  0
  1 31  1  0  0  0  0
  2  3  1  0  0  0  0
  2 32  1  0  0  0  0
  2 33  1  0  0  0  0
  3  4  1  0  0  0  0
  3 26  1  0  0  0  0
  3 34  1  0  0  0  0
  4  5  1  0  0  0  0
  4 35  1  0  0  0  0
  4 36  1  0  0  0  0
  5 25  1  0  0  0  0
  5  6  1  0  0  0  0
  6  7  2  0  0  0  0
  6 37  1  0  0  0  0
  7  8  1  0  0  0  0
  8 25  2  0  0  0  0
  8  9  1  0  0  0  0
  9 10  1  0  0  0  0
  9 22  2  0  0  0  0
 10 15  1  0  0  0  0
 10 11  1  0  0  0  0
 11 12  1  0  0  0  0
 11 38  1  0  0  0  0
 11 39  1  0  0  0  0
 12 13  1  0  0  0  0
 12 40  1  0  0  0  0
 12 41  1  0  0  0  0
 13 14  1  0  0  0  0
 13 42  1  0  0  0  0
 13 43  1  0  0  0  0
 14 15  1  0  0  0  0
 14 44  1  0  0  0  0
 14 45  1  0  0  0  0
 15 16  1  0  0  0  0
 15 46  1  0  0  0  0
 16 20  1  0  0  0  0
 16 17  1  0  0  0  0
 16 47  1  0  0  0  0
 17 18  1  0  0  0  0
 17 48  1  0  0  0  0
 17 49  1  0  0  0  0
 18 19  1  0  0  0  0
 18 50  1  0  0  0  0
 18 51  1  0  0  0  0
 19 20  1  0  0  0  0
 19 52  1  0  0  0  0
 19 53  1  0  0  0  0
 20 21  1  0  0  0  0
 20 54  1  0  0  0  0
 21 55  1  0  0  0  0
 22 23  1  0  0  0  0
 23 24  2  0  0  0  0
 23 56  1  0  0  0  0
 24 25  1  0  0  0  0
 26 30  1  0  0  0  0
 26 27  1  0  0  0  0
 26 57  1  0  0  0  0
 27 28  1  0  0  0  0
 27 58  1  0  0  0  0
 27 59  1  0  0  0  0
 28 29  1  0  0  0  0
 28 60  1  0  0  0  0
 28 61  1  0  0  0  0
 29 30  1  0  0  0  0
 30 62  1  0  0  0  0
 30 63  1  0  0  0  0
M  END
> <s_m_source_file>
AV-unprocessed.smi

> <i_m_source_file_index>
148

> <i_lp_mmshare_version>
43012

> <i_f3d_flags>
0

> <s_epik_input>
W0NIMl0xT1tDSDJdW0NIMl1bQ0BIXTFbQ0BIXShbQ0gyXVtPSF0pW0NIMl1uKFtjSF1uMiljKGMyMyluW2NIXW5jM040W0NIMl1bQ0gyXVtDSDJdW0NIMl1bQ0BIXTRbQ0BASF01W0NIMl1bQ0gyXVtDSDJdW0NASF01W09IXQ==

> <s_epik_cmdline>
J2VwaWtfcHl0aG9uJywgJy1waCcsICc3LjAnLCAnLXRuJywgJzgnLCAnLW1hJywgJzIwMCcsICctbWV0YWxfYmluZGluZycsICctaW1hZScsICc8aW5maWxlLm1hZT4nLCAnLW9tYWUnLCAnPG91dGZpbGUubWFlPic=

> <r_lp_tautomer_probability>
1

> <r_epik_Ionization_Penalty>
0.00556303

> <r_epik_Ionization_Penalty_Charging>
0

> <r_epik_Ionization_Penalty_Neutral>
0.00556303

> <r_epik_State_Penalty>
0.00401767

> <r_epik_Charging_Adjusted_Penalty>
0.00401767

> <i_epik_Tot_Q>
0

> <i_epik_Tot_abs_Q>
0

> <r_epik_Metal_State_Penalty>
-0

> <b_epik_Metal_Only>
0

> <s_lp_Force_Field>
OPLS_2005

> <r_lp_Energy>
68.7494

> <b_lp_Chiralities_Consistent>
1

> <s_lp_Variant>
AV-unprocessed.smi:148-19

> <Gold.Version>
5.8.1

> <Gold.Id.Protein>
6NUR|6NUR_protein|mol2

> <Gold.PLP.Fitness>
50.0636

> <Gold.PLP.PLP>
-43.5905

> <Gold.PLP.part.hbond>
-2.9043

> <Gold.PLP.part.metal>
0.0000

> <Gold.PLP.part.buried>
-9.1627

> <Gold.PLP.part.nonpolar>
-31.3788

> <Gold.PLP.part.repulsive>
0.0049

> <Gold.PLP.ligand.clash>
0.0000

> <Gold.PLP.ligand.torsion>
0.9678

> <Gold.PLP.Chemscore.Hbond>
2.6960

> <Gold.PLP.Chemscore.CHOScore>
0.0000

> <Gold.PLP.Chemscore.Metal>
0.0000

> <Gold.Chemscore.Hbonds>
donor molecule, donor type, donor heavy atom, donor atom, acceptor molecule, acceptor atom, score
      P1  H  6896  6908       L1     7  0.88
      P1  H  6931  6943       L1    21  0.07
      P1  H  7997  8009       L1     1  0.54

> <Gold.PLP.Chemscore.Internal.Correction>
0.3207

> <Gold.Rescore>
     Score         DG    S(hbond)    S(metal)    S(lipo)     H(rot)  DE(clash)    DE(int)     intcor
     14.90     -17.70       2.40        0.00     108.64       3.32       1.02       1.79       ----

> <Gold.Chemscore.Fitness>
14.9017

> <Gold.Chemscore.DG>
-17.7035

> <Gold.Chemscore.ZeroCoef>
-5.4800

> <Gold.Chemscore.Hbond>
2.3990

> <Gold.Chemscore.Metal>
0.0000

> <Gold.Chemscore.Lipo>
108.6399

> <Gold.Chemscore.Internal_Hbond>
0.0000

> <Gold.Chemscore.DEClash>
1.0153

> <Gold.Chemscore.DEInternal>
1.7865

> <Gold.Chemscore.Rot>
3.3203

> <Gold.Chemscore.Internal.Correction>
   9.000000E+99

> <Gold.Chemscore.Hbonds>
donor molecule, donor type, donor heavy atom, donor atom, acceptor molecule, acceptor atom, score
      P1  H  6896  6908       L1     7  0.86
      P1  H  7997  8009       L1     1  0.32

> <Gold.Chemscore.Hbond.Weighted>
-8.0126

> <Gold.Chemscore.Metal.Weighted>
-0.0000

> <Gold.Chemscore.Lipo.Weighted>
-12.7109

> <Gold.Chemscore.Internal_Hbond.Weighted>
0.0000

> <Gold.Chemscore.DEClash.Weighted>
1.0153

> <Gold.Chemscore.DEInternal.Weighted>
1.7865

> <Gold.Chemscore.Rot.Weighted>
8.5000

> <Gold.Chemscore.Internal.Correction.Weighted>
   9.000000E+99

> <Gold.Protein.RotatedTorsions>
[ 6907 6896 6895 6894 ] final  166.77 input  -60.11 | X-H torsion
[ 7974 7965 7964 7962 ] final  -85.99 input  175.53 | X-H torsion
[ 8008 7997 7996 7995 ] final -171.09 input   59.86 | X-H torsion
[ 10167 10162 10161 10158 ] final   11.00 input  -65.29 | X-H torsion
[ 10718 10713 10712 10709 ] final -116.82 input   66.30 | X-H torsion
[ 10763 10752 10751 10750 ] final  -41.63 input  -60.55 | X-H torsion
[ 11005 11000 10999 10996 ] final   39.03 input  -57.11 | X-H torsion

> <Gold.Protein.ActiveResidues>
 VAL166  LYS551  ARG553  GLY616  TRP617  ASP618  TYR619  PRO620  LYS621  CYS622 
 ASP623  PHE694  ASN695  SER759  ASP760  ASP761  ALA762  ILE779  LEU786  VAL792 
 PHE793  MET794  SER795  GLU796  ALA797  LYS798  CYS799  TRP800  GLU811  SER814 

> <Gold.Protein.RotatedAtoms>
  151.8737  133.3481  159.3742 H   0  0  0  0  0  0  0  0  0  0  0  0  # atno 6907 bound_to 6896
  150.7146  134.5087  159.5606 H   0  0  0  0  0  0  0  0  0  0  0  0  # atno 6908 bound_to 6896
  152.2625  134.8019  160.0479 H   0  0  0  0  0  0  0  0  0  0  0  0  # atno 6909 bound_to 6896
  145.4858  140.9555  143.1839 H   0  0  0  0  0  0  0  0  0  0  0  0  # atno 7974 bound_to 7965
  155.9270  140.1084  157.1162 H   0  0  0  0  0  0  0  0  0  0  0  0  # atno 8008 bound_to 7997
  154.4064  140.1245  156.4819 H   0  0  0  0  0  0  0  0  0  0  0  0  # atno 8009 bound_to 7997
  155.7126  140.3471  155.4983 H   0  0  0  0  0  0  0  0  0  0  0  0  # atno 8010 bound_to 7997
  140.6159  143.8309  150.7118 H   0  0  0  0  0  0  0  0  0  0  0  0  # atno 10167 bound_to 10162
  156.0990  130.6156  150.9085 H   0  0  0  0  0  0  0  0  0  0  0  0  # atno 10718 bound_to 10713
  153.9656  135.6734  153.4746 H   0  0  0  0  0  0  0  0  0  0  0  0  # atno 10763 bound_to 10752
  153.0817  135.4920  154.8513 H   0  0  0  0  0  0  0  0  0  0  0  0  # atno 10764 bound_to 10752
  154.7248  135.3125  154.8949 H   0  0  0  0  0  0  0  0  0  0  0  0  # atno 10765 bound_to 10752
  140.2068  134.3804  155.8069 H   0  0  0  0  0  0  0  0  0  0  0  0  # atno 11005 bound_to 11000
  144.7862  139.6422  143.7133 LP  0  0  0  0  0  0  0  0  0  0  0  0  # atno 17320 bound_to 7965
  146.2314  139.5820  142.9553 LP  0  0  0  0  0  0  0  0  0  0  0  0  # atno 17321 bound_to 7965
  140.1888  143.4053  152.1878 LP  0  0  0  0  0  0  0  0  0  0  0  0  # atno 17342 bound_to 10162
  139.5398  144.7245  151.4771 LP  0  0  0  0  0  0  0  0  0  0  0  0  # atno 17343 bound_to 10162
  157.6157  131.0933  150.8714 LP  0  0  0  0  0  0  0  0  0  0  0  0  # atno 17370 bound_to 10713
  156.8846  130.5191  149.5289 LP  0  0  0  0  0  0  0  0  0  0  0  0  # atno 17371 bound_to 10713
  141.2227  133.7122  156.8350 LP  0  0  0  0  0  0  0  0  0  0  0  0  # atno 17394 bound_to 11000
  140.1994  134.8908  157.3152 LP  0  0  0  0  0  0  0  0  0  0  0  0  # atno 17395 bound_to 11000

$$$$
