AV-unprocessed.smi:1749|AV-procd|sdf|7044|dock7
  -GOLD-   22720 8263D 1   1.00000     0.00000
 Structure written by MMmdl.
 32 33  0  0  0  0  0  0  0  0  1 V2000
  145.6886  133.1738  150.5971 C   0  0  0  0  0  0  0  0  0  0  0  0
  145.6776  134.3821  151.5438 C   0  0  2  0  0  0  0  0  0  0  0  0
  144.7455  134.1460  152.7478 C   0  0  0  0  0  0  0  0  0  0  0  0
  144.7280  135.3550  153.6965 C   0  0  0  0  0  0  0  0  0  0  0  0
  144.3436  136.6457  152.9523 C   0  0  0  0  0  0  0  0  0  0  0  0
  145.2513  136.9058  151.7348 C   0  0  1  0  0  0  0  0  0  0  0  0
  146.5970  137.2594  152.1796 N   0  0  0  0  0  0  0  0  0  0  0  0
  146.9301  138.3275  152.9221 C   0  0  0  0  0  0  0  0  0  0  0  0
  146.0981  139.1150  153.3690 O   0  0  0  0  0  0  0  0  0  0  0  0
  148.2478  138.4926  153.1640 N   0  0  0  0  0  0  0  0  0  0  0  0
  148.9492  139.4928  153.8985 C   0  0  0  0  0  0  0  0  0  0  0  0
  150.2042  139.3562  154.3584 N   0  0  0  0  0  0  0  0  0  0  0  0
  150.6469  140.4948  155.0173 N   0  0  0  0  0  0  0  0  0  0  0  0
  149.7160  141.4526  155.0179 C   0  0  0  0  0  0  0  0  0  0  0  0
  148.2073  141.0555  154.2138 S   0  0  0  0  0  0  0  0  0  0  0  0
  145.2820  135.6762  150.8014 C   0  0  0  0  0  0  0  0  0  0  0  0
  144.6996  132.9900  150.1767 H   0  0  0  0  0  0  0  0  0  0  0  0
  146.0025  132.2694  151.1188 H   0  0  0  0  0  0  0  0  0  0  0  0
  146.3792  133.3315  149.7683 H   0  0  0  0  0  0  0  0  0  0  0  0
  146.6931  134.5038  151.9239 H   0  0  0  0  0  0  0  0  0  0  0  0
  143.7323  133.9467  152.3961 H   0  0  0  0  0  0  0  0  0  0  0  0
  145.0618  133.2576  153.2956 H   0  0  0  0  0  0  0  0  0  0  0  0
  144.0260  135.1753  154.5109 H   0  0  0  0  0  0  0  0  0  0  0  0
  145.7092  135.4717  154.1583 H   0  0  0  0  0  0  0  0  0  0  0  0
  143.3093  136.5664  152.6155 H   0  0  0  0  0  0  0  0  0  0  0  0
  144.3752  137.4950  153.6361 H   0  0  0  0  0  0  0  0  0  0  0  0
  144.8391  137.7537  151.1849 H   0  0  0  0  0  0  0  0  0  0  0  0
  147.3461  136.6616  151.8607 H   0  0  0  0  0  0  0  0  0  0  0  0
  148.8318  137.7430  152.8231 H   0  0  0  0  0  0  0  0  0  0  0  0
  149.9201  142.4011  155.4923 H   0  0  0  0  0  0  0  0  0  0  0  0
  145.9645  135.8545  149.9693 H   0  0  0  0  0  0  0  0  0  0  0  0
  144.2948  135.5466  150.3556 H   0  0  0  0  0  0  0  0  0  0  0  0
  1  2  1  0  0  0  0
  1 17  1  0  0  0  0
  1 18  1  0  0  0  0
  1 19  1  0  0  0  0
  2 16  1  0  0  0  0
  2  3  1  0  0  0  0
  2 20  1  0  0  0  0
  3  4  1  0  0  0  0
  3 21  1  0  0  0  0
  3 22  1  0  0  0  0
  4  5  1  0  0  0  0
  4 23  1  0  0  0  0
  4 24  1  0  0  0  0
  5  6  1  0  0  0  0
  5 25  1  0  0  0  0
  5 26  1  0  0  0  0
  6  7  1  0  0  0  0
  6 16  1  0  0  0  0
  6 27  1  0  0  0  0
  7  8  1  0  0  0  0
  7 28  1  0  0  0  0
  8  9  2  0  0  0  0
  8 10  1  0  0  0  0
 10 11  1  0  0  0  0
 10 29  1  0  0  0  0
 11 15  1  0  0  0  0
 11 12  2  0  0  0  0
 12 13  1  0  0  0  0
 13 14  2  0  0  0  0
 14 15  1  0  0  0  0
 14 30  1  0  0  0  0
 16 31  1  0  0  0  0
 16 32  1  0  0  0  0
M  END
> <s_m_source_file>
AV-unprocessed.smi

> <i_m_source_file_index>
1749

> <i_lp_mmshare_version>
43012

> <i_f3d_flags>
0

> <s_epik_input>
W0NIM11bQ0BASF0xW0NIMl1bQ0gyXVtDSDJdW0NASF0oW0NIMl0xKVtOSF1DKD1PKVtOSF1jMm5uW2NIXXMy

> <s_epik_cmdline>
J2VwaWtfcHl0aG9uJywgJy1waCcsICc3LjAnLCAnLXRuJywgJzgnLCAnLW1hJywgJzIwMCcsICctbWV0YWxfYmluZGluZycsICctaW1hZScsICc8aW5maWxlLm1hZT4nLCAnLW9tYWUnLCAnPG91dGZpbGUubWFlPic=

> <r_lp_tautomer_probability>
1

> <r_epik_Ionization_Penalty>
0.000318591

> <r_epik_Ionization_Penalty_Charging>
0

> <r_epik_Ionization_Penalty_Neutral>
0.000318591

> <r_epik_State_Penalty>
-0

> <r_epik_Charging_Adjusted_Penalty>
0

> <i_epik_Tot_Q>
0

> <i_epik_Tot_abs_Q>
0

> <r_epik_Metal_State_Penalty>
0.169791

> <b_epik_Metal_Only>
0

> <s_lp_Force_Field>
OPLS_2005

> <r_lp_Energy>
10.2552

> <b_lp_Chiralities_Consistent>
1

> <s_lp_Variant>
AV-unprocessed.smi:1749-1

> <Gold.Version>
5.8.1

> <Gold.Id.Protein>
6NUR|6NUR_protein|mol2

> <Gold.PLP.Fitness>
33.1847

> <Gold.PLP.PLP>
-23.2695

> <Gold.PLP.part.hbond>
-4.3908

> <Gold.PLP.part.metal>
0.0000

> <Gold.PLP.part.buried>
0.4922

> <Gold.PLP.part.nonpolar>
-21.1936

> <Gold.PLP.part.repulsive>
1.9621

> <Gold.PLP.ligand.clash>
0.0000

> <Gold.PLP.ligand.torsion>
0.0998

> <Gold.PLP.Chemscore.Hbond>
2.3760

> <Gold.PLP.Chemscore.CHOScore>
0.9938

> <Gold.PLP.Chemscore.Metal>
0.0000

> <Gold.Chemscore.Hbonds>
donor molecule, donor type, donor heavy atom, donor atom, acceptor molecule, acceptor atom, score
      L1  H     7    28       P1  7948  1.00
      L1  H    10    29       P1  7948  0.98
      P1  H  7989  7998       L1    13  0.35
      L1  C    14    30       P1  8028  0.97

> <Gold.PLP.Chemscore.Internal.Correction>
0.0053

> <Gold.Rescore>
     Score         DG    S(hbond)    S(metal)    S(lipo)     H(rot)  DE(clash)    DE(int)     intcor
     12.06     -14.38       1.81        0.00      46.30       1.00       0.39       1.94       ----

> <Gold.Chemscore.Fitness>
12.0581

> <Gold.Chemscore.DG>
-14.3805

> <Gold.Chemscore.ZeroCoef>
-5.4800

> <Gold.Chemscore.Hbond>
1.8095

> <Gold.Chemscore.Metal>
0.0000

> <Gold.Chemscore.Lipo>
46.2986

> <Gold.Chemscore.Internal_Hbond>
0.0000

> <Gold.Chemscore.DEClash>
0.3855

> <Gold.Chemscore.DEInternal>
1.9370

> <Gold.Chemscore.Rot>
1.0000

> <Gold.Chemscore.Internal.Correction>
   9.000000E+99

> <Gold.Chemscore.Hbonds>
donor molecule, donor type, donor heavy atom, donor atom, acceptor molecule, acceptor atom, score
      L1  H     7    28       P1  7948  0.96
      L1  H    10    29       P1  7948  0.93

> <Gold.Chemscore.Hbond.Weighted>
-6.0436

> <Gold.Chemscore.Metal.Weighted>
-0.0000

> <Gold.Chemscore.Lipo.Weighted>
-5.4169

> <Gold.Chemscore.Internal_Hbond.Weighted>
0.0000

> <Gold.Chemscore.DEClash.Weighted>
0.3855

> <Gold.Chemscore.DEInternal.Weighted>
1.9370

> <Gold.Chemscore.Rot.Weighted>
2.5600

> <Gold.Chemscore.Internal.Correction.Weighted>
   9.000000E+99

> <Gold.Protein.RotatedTorsions>
[ 6907 6896 6895 6894 ] final  149.00 input  -60.11 | X-H torsion
[ 7974 7965 7964 7962 ] final  -27.40 input  175.53 | X-H torsion
[ 8008 7997 7996 7995 ] final  125.38 input   59.86 | X-H torsion
[ 10167 10162 10161 10158 ] final  -11.59 input  -65.29 | X-H torsion
[ 10718 10713 10712 10709 ] final  133.21 input   66.30 | X-H torsion
[ 10763 10752 10751 10750 ] final   58.96 input  -60.55 | X-H torsion
[ 11005 11000 10999 10996 ] final  -34.67 input  -57.11 | X-H torsion

> <Gold.Protein.ActiveResidues>
 VAL166  LYS551  ARG553  GLY616  TRP617  ASP618  TYR619  PRO620  LYS621  CYS622 
 ASP623  PHE694  ASN695  SER759  ASP760  ASP761  ALA762  ILE779  LEU786  VAL792 
 PHE793  MET794  SER795  GLU796  ALA797  LYS798  CYS799  TRP800  GLU811  SER814 

> <Gold.Protein.RotatedAtoms>
  152.1339  133.4423  159.4733 H   0  0  0  0  0  0  0  0  0  0  0  0  # atno 6907 bound_to 6896
  150.6880  134.2388  159.4473 H   0  0  0  0  0  0  0  0  0  0  0  0  # atno 6908 bound_to 6896
  152.0273  134.9787  160.0622 H   0  0  0  0  0  0  0  0  0  0  0  0  # atno 6909 bound_to 6896
  146.1360  140.5147  142.8672 H   0  0  0  0  0  0  0  0  0  0  0  0  # atno 7974 bound_to 7965
  156.2832  140.2718  156.1939 H   0  0  0  0  0  0  0  0  0  0  0  0  # atno 8008 bound_to 7997
  155.0430  140.0386  157.2534 H   0  0  0  0  0  0  0  0  0  0  0  0  # atno 8009 bound_to 7997
  154.7258  140.2697  155.6505 H   0  0  0  0  0  0  0  0  0  0  0  0  # atno 8010 bound_to 7997
  140.7142  143.5623  150.9182 H   0  0  0  0  0  0  0  0  0  0  0  0  # atno 10167 bound_to 10162
  157.4796  131.1085  150.9699 H   0  0  0  0  0  0  0  0  0  0  0  0  # atno 10718 bound_to 10713
  152.9883  135.5588  154.5636 H   0  0  0  0  0  0  0  0  0  0  0  0  # atno 10763 bound_to 10752
  154.5051  135.2799  155.1391 H   0  0  0  0  0  0  0  0  0  0  0  0  # atno 10764 bound_to 10752
  154.2806  135.6345  153.5398 H   0  0  0  0  0  0  0  0  0  0  0  0  # atno 10765 bound_to 10752
  140.9735  133.7096  156.1563 H   0  0  0  0  0  0  0  0  0  0  0  0  # atno 11005 bound_to 11000
  144.7740  140.5700  143.6650 LP  0  0  0  0  0  0  0  0  0  0  0  0  # atno 17320 bound_to 7965
  145.5154  139.1478  143.3581 LP  0  0  0  0  0  0  0  0  0  0  0  0  # atno 17321 bound_to 7965
  139.9348  143.6450  152.3068 LP  0  0  0  0  0  0  0  0  0  0  0  0  # atno 17342 bound_to 10162
  139.6914  144.7646  151.1432 LP  0  0  0  0  0  0  0  0  0  0  0  0  # atno 17343 bound_to 10162
  157.0437  130.5759  149.5360 LP  0  0  0  0  0  0  0  0  0  0  0  0  # atno 17370 bound_to 10713
  156.0114  130.5206  150.8001 LP  0  0  0  0  0  0  0  0  0  0  0  0  # atno 17371 bound_to 10713
  140.7294  134.4272  157.5567 LP  0  0  0  0  0  0  0  0  0  0  0  0  # atno 17394 bound_to 11000
  139.8921  134.8762  156.2286 LP  0  0  0  0  0  0  0  0  0  0  0  0  # atno 17395 bound_to 11000

$$$$
