AV-unprocessed.smi:712|AV-procd|sdf|3470|dock1
  -GOLD-   22720 0463D 1   1.00000     0.00000
 Structure written by MMmdl.
 51 52  0  0  0  0  0  0  0  0  2 V2000
  152.4723  141.5016  158.8562 C   0  0  0  0  0  0  0  0  0  0  0  0
  152.0321  140.5320  157.7787 C   0  0  0  0  0  0  0  0  0  0  0  0
  152.3561  139.1236  157.8724 C   0  0  0  0  0  0  0  0  0  0  0  0
  151.9479  138.2928  156.9007 C   0  0  0  0  0  0  0  0  0  0  0  0
  151.2146  138.7504  155.7909 N   0  0  0  0  0  0  0  0  0  0  0  0
  150.8213  137.7511  154.7835 C   0  0  0  0  0  0  0  0  0  0  0  0
  150.3776  136.4196  155.4046 C   0  0  0  0  0  0  0  0  0  0  0  0
  149.9316  136.3805  156.5520 O   0  0  0  0  0  0  0  0  0  0  0  0
  150.4999  135.3341  154.6260 N   0  0  0  0  0  0  0  0  0  0  0  0
  150.1862  133.9690  155.0346 C   0  0  0  0  0  0  0  0  0  0  0  0
  148.8708  133.4789  154.4021 C   0  0  2  0  0  0  0  0  0  0  0  0
  149.1200  132.7235  153.0776 C   0  0  0  0  0  0  0  0  0  0  0  0
  147.8478  132.3397  152.4117 N   0  3  1  0  0  0  0  0  0  0  0  0
  147.1650  131.1531  152.9962 C   0  0  0  0  0  0  0  0  0  0  0  0
  146.2206  130.4447  152.0005 C   0  0  0  0  0  0  0  0  0  0  0  0
  144.9512  131.2687  151.7266 C   0  0  0  0  0  0  0  0  0  0  0  0
  145.8498  129.0448  152.5124 C   0  0  0  0  0  0  0  0  0  0  0  0
  146.9624  133.5208  152.2664 C   0  0  0  0  0  0  0  0  0  0  0  0
  146.7700  134.2387  153.6137 C   0  0  0  0  0  0  0  0  0  0  0  0
  148.0415  134.6051  154.1317 O   0  0  0  0  0  0  0  0  0  0  0  0
  150.8834  140.0683  155.6378 C   0  0  0  0  0  0  0  0  0  0  0  0
  150.2511  140.4762  154.6624 O   0  0  0  0  0  0  0  0  0  0  0  0
  151.3313  140.9670  156.7082 C   0  0  0  0  0  0  0  0  0  0  0  0
  152.9364  140.9779  159.6922 H   0  0  0  0  0  0  0  0  0  0  0  0
  151.6175  142.0607  159.2380 H   0  0  0  0  0  0  0  0  0  0  0  0
  153.1960  142.2109  158.4540 H   0  0  0  0  0  0  0  0  0  0  0  0
  152.9220  138.7427  158.7100 H   0  0  0  0  0  0  0  0  0  0  0  0
  152.1626  137.2340  156.9076 H   0  0  0  0  0  0  0  0  0  0  0  0
  150.0045  138.1247  154.1644 H   0  0  0  0  0  0  0  0  0  0  0  0
  151.6493  137.5787  154.0929 H   0  0  0  0  0  0  0  0  0  0  0  0
  150.8634  135.4598  153.6922 H   0  0  0  0  0  0  0  0  0  0  0  0
  151.0078  133.2913  154.7960 H   0  0  0  0  0  0  0  0  0  0  0  0
  150.0933  133.9680  156.1210 H   0  0  0  0  0  0  0  0  0  0  0  0
  148.3696  132.8244  155.1169 H   0  0  0  0  0  0  0  0  0  0  0  0
  149.6722  133.3705  152.3943 H   0  0  0  0  0  0  0  0  0  0  0  0
  149.7539  131.8537  153.2444 H   0  0  0  0  0  0  0  0  0  0  0  0
  147.9028  130.4513  153.3847 H   0  0  0  0  0  0  0  0  0  0  0  0
  146.5717  131.4670  153.8563 H   0  0  0  0  0  0  0  0  0  0  0  0
  146.7382  130.3026  151.0524 H   0  0  0  0  0  0  0  0  0  0  0  0
  144.3857  131.4429  152.6427 H   0  0  0  0  0  0  0  0  0  0  0  0
  144.2943  130.7539  151.0247 H   0  0  0  0  0  0  0  0  0  0  0  0
  145.1898  132.2400  151.2925 H   0  0  0  0  0  0  0  0  0  0  0  0
  145.3139  129.0969  153.4610 H   0  0  0  0  0  0  0  0  0  0  0  0
  146.7394  128.4330  152.6660 H   0  0  0  0  0  0  0  0  0  0  0  0
  145.2123  128.5211  151.7992 H   0  0  0  0  0  0  0  0  0  0  0  0
  147.4228  134.2087  151.5560 H   0  0  0  0  0  0  0  0  0  0  0  0
  146.0020  133.2359  151.8355 H   0  0  0  0  0  0  0  0  0  0  0  0
  146.1747  135.1414  153.4756 H   0  0  0  0  0  0  0  0  0  0  0  0
  146.2343  133.6121  154.3281 H   0  0  0  0  0  0  0  0  0  0  0  0
  151.0879  142.0168  156.6316 H   0  0  0  0  0  0  0  0  0  0  0  0
  148.0881  132.0621  151.4703 H   0  0  0  0  0  0  0  0  0  0  0  0
  1  2  1  0  0  0  0
  1 24  1  0  0  0  0
  1 25  1  0  0  0  0
  1 26  1  0  0  0  0
  2 23  2  0  0  0  0
  2  3  1  0  0  0  0
  3  4  2  0  0  0  0
  3 27  1  0  0  0  0
  4  5  1  0  0  0  0
  4 28  1  0  0  0  0
  5  6  1  0  0  0  0
  5 21  1  0  0  0  0
  6  7  1  0  0  0  0
  6 29  1  0  0  0  0
  6 30  1  0  0  0  0
  7  8  2  0  0  0  0
  7  9  1  0  0  0  0
  9 10  1  0  0  0  0
  9 31  1  0  0  0  0
 10 11  1  0  0  0  0
 10 32  1  0  0  0  0
 10 33  1  0  0  0  0
 11 20  1  0  0  0  0
 11 12  1  0  0  0  0
 11 34  1  0  0  0  0
 12 13  1  0  0  0  0
 12 35  1  0  0  0  0
 12 36  1  0  0  0  0
 13 14  1  0  0  0  0
 13 18  1  0  0  0  0
 13 51  1  0  0  0  0
 14 15  1  0  0  0  0
 14 37  1  0  0  0  0
 14 38  1  0  0  0  0
 15 16  1  0  0  0  0
 15 17  1  0  0  0  0
 15 39  1  0  0  0  0
 16 40  1  0  0  0  0
 16 41  1  0  0  0  0
 16 42  1  0  0  0  0
 17 43  1  0  0  0  0
 17 44  1  0  0  0  0
 17 45  1  0  0  0  0
 18 19  1  0  0  0  0
 18 46  1  0  0  0  0
 18 47  1  0  0  0  0
 19 20  1  0  0  0  0
 19 48  1  0  0  0  0
 19 49  1  0  0  0  0
 21 22  2  0  0  0  0
 21 23  1  0  0  0  0
 23 50  1  0  0  0  0
M  CHG  1  13   1
M  END
> <s_m_source_file>
AV-unprocessed.smi

> <i_m_source_file_index>
712

> <i_lp_mmshare_version>
43012

> <i_f3d_flags>
0

> <s_epik_input>
W0NIM11jMVtjSF1bY0hdbihjKD1PKVtjSF0xKVtDSDJdQyg9TylbTkhdW0NIMl1bQ0BASF0yW0NIMl1OKFtDSDJdW0NIMl1PMilbQ0gyXVtDSF0oW0NIM10pW0NIM10=

> <s_epik_cmdline>
J2VwaWtfcHl0aG9uJywgJy1waCcsICc3LjAnLCAnLXRuJywgJzgnLCAnLW1hJywgJzIwMCcsICctbWV0YWxfYmluZGluZycsICctaW1hZScsICc8aW5maWxlLm1hZT4nLCAnLW9tYWUnLCAnPG91dGZpbGUubWFlPic=

> <r_lp_tautomer_probability>
1

> <r_epik_Ionization_Penalty>
0.0975935

> <r_epik_Ionization_Penalty_Charging>
0.0975934

> <r_epik_Ionization_Penalty_Neutral>
6.27044e-08

> <r_epik_State_Penalty>
0.0877056

> <r_epik_Charging_Adjusted_Penalty>
0.185299

> <i_epik_Tot_Q>
1

> <i_epik_Tot_abs_Q>
1

> <r_epik_Metal_State_Penalty>
0.0877109

> <b_epik_Metal_Only>
0

> <s_lp_Force_Field>
OPLS_2005

> <r_lp_Energy>
30.0943

> <b_lp_Chiralities_Consistent>
1

> <s_lp_Variant>
AV-unprocessed.smi:712-3

> <Gold.Version>
5.8.1

> <Gold.Id.Protein>
6NUR|6NUR_protein|mol2

> <Gold.PLP.Fitness>
41.9463

> <Gold.PLP.PLP>
-37.8702

> <Gold.PLP.part.hbond>
-2.8759

> <Gold.PLP.part.metal>
0.0000

> <Gold.PLP.part.buried>
-3.9739

> <Gold.PLP.part.nonpolar>
-31.5503

> <Gold.PLP.part.repulsive>
2.6033

> <Gold.PLP.ligand.clash>
0.0000

> <Gold.PLP.ligand.torsion>
1.4344

> <Gold.PLP.Chemscore.Hbond>
2.2609

> <Gold.PLP.Chemscore.CHOScore>
0.0000

> <Gold.PLP.Chemscore.Metal>
0.0000

> <Gold.Chemscore.Hbonds>
donor molecule, donor type, donor heavy atom, donor atom, acceptor molecule, acceptor atom, score
      L1  H     9    31       P1  7949  0.26
      L1  H    13    51       P1 10747  0.99
      P1  H  7989  7998       L1    22  0.96

> <Gold.PLP.Chemscore.Internal.Correction>
0.1623

> <Gold.Rescore>
     Score         DG    S(hbond)    S(metal)    S(lipo)     H(rot)  DE(clash)    DE(int)     intcor
     14.88     -18.00       1.99        0.00      91.31       1.89       0.11       3.01       ----

> <Gold.Chemscore.Fitness>
14.8784

> <Gold.Chemscore.DG>
-17.9956

> <Gold.Chemscore.ZeroCoef>
-5.4800

> <Gold.Chemscore.Hbond>
1.9950

> <Gold.Chemscore.Metal>
0.0000

> <Gold.Chemscore.Lipo>
91.3104

> <Gold.Chemscore.Internal_Hbond>
0.0000

> <Gold.Chemscore.DEClash>
0.1071

> <Gold.Chemscore.DEInternal>
3.0101

> <Gold.Chemscore.Rot>
1.8871

> <Gold.Chemscore.Internal.Correction>
   9.000000E+99

> <Gold.Chemscore.Hbonds>
donor molecule, donor type, donor heavy atom, donor atom, acceptor molecule, acceptor atom, score
      L1  H     9    31       P1  7949  0.02
      L1  H    13    51       P1 10747  0.94
      P1  H  7989  7998       L1    22  0.28

> <Gold.Chemscore.Hbond.Weighted>
-6.6632

> <Gold.Chemscore.Metal.Weighted>
-0.0000

> <Gold.Chemscore.Lipo.Weighted>
-10.6833

> <Gold.Chemscore.Internal_Hbond.Weighted>
0.0000

> <Gold.Chemscore.DEClash.Weighted>
0.1071

> <Gold.Chemscore.DEInternal.Weighted>
3.0101

> <Gold.Chemscore.Rot.Weighted>
4.8309

> <Gold.Chemscore.Internal.Correction.Weighted>
   9.000000E+99

> <Gold.Protein.RotatedTorsions>
[ 6907 6896 6895 6894 ] final  141.21 input  -60.11 | X-H torsion
[ 7974 7965 7964 7962 ] final  136.06 input  175.53 | X-H torsion
[ 8008 7997 7996 7995 ] final  -33.02 input   59.86 | X-H torsion
[ 10167 10162 10161 10158 ] final   90.42 input  -65.29 | X-H torsion
[ 10718 10713 10712 10709 ] final  161.60 input   66.30 | X-H torsion
[ 10763 10752 10751 10750 ] final -127.14 input  -60.55 | X-H torsion
[ 11005 11000 10999 10996 ] final   89.30 input  -57.11 | X-H torsion

> <Gold.Protein.ActiveResidues>
 VAL166  LYS551  ARG553  GLY616  TRP617  ASP618  TYR619  PRO620  LYS621  CYS622 
 ASP623  PHE694  ASN695  SER759  ASP760  ASP761  ALA762  ILE779  LEU786  VAL792 
 PHE793  MET794  SER795  GLU796  ALA797  LYS798  CYS799  TRP800  GLU811  SER814 

> <Gold.Protein.RotatedAtoms>
  152.2337  133.5079  159.5230 H   0  0  0  0  0  0  0  0  0  0  0  0  # atno 6907 bound_to 6896
  150.7044  134.1182  159.4034 H   0  0  0  0  0  0  0  0  0  0  0  0  # atno 6908 bound_to 6896
  151.9103  135.0341  160.0564 H   0  0  0  0  0  0  0  0  0  0  0  0  # atno 6909 bound_to 6896
  144.9601  139.4719  143.5483 H   0  0  0  0  0  0  0  0  0  0  0  0  # atno 7974 bound_to 7965
  154.4161  140.1722  156.1821 H   0  0  0  0  0  0  0  0  0  0  0  0  # atno 8008 bound_to 7997
  155.9673  140.3388  155.6520 H   0  0  0  0  0  0  0  0  0  0  0  0  # atno 8009 bound_to 7997
  155.6670  140.0707  157.2524 H   0  0  0  0  0  0  0  0  0  0  0  0  # atno 8010 bound_to 7997
  139.8474  144.6610  150.9210 H   0  0  0  0  0  0  0  0  0  0  0  0  # atno 10167 bound_to 10162
  157.1343  131.0524  151.2357 H   0  0  0  0  0  0  0  0  0  0  0  0  # atno 10718 bound_to 10713
  154.8750  135.3972  154.3545 H   0  0  0  0  0  0  0  0  0  0  0  0  # atno 10763 bound_to 10752
  153.4326  135.7025  153.6226 H   0  0  0  0  0  0  0  0  0  0  0  0  # atno 10764 bound_to 10752
  153.4842  135.3762  155.2427 H   0  0  0  0  0  0  0  0  0  0  0  0  # atno 10765 bound_to 10752
  139.8878  134.8543  156.3122 H   0  0  0  0  0  0  0  0  0  0  0  0  # atno 11005 bound_to 11000
  146.3350  139.8746  142.8834 LP  0  0  0  0  0  0  0  0  0  0  0  0  # atno 17320 bound_to 7965
  145.2712  141.0109  143.3771 LP  0  0  0  0  0  0  0  0  0  0  0  0  # atno 17321 bound_to 7965
  140.7791  143.3857  151.1397 LP  0  0  0  0  0  0  0  0  0  0  0  0  # atno 17342 bound_to 10162
  139.7498  143.8796  152.3073 LP  0  0  0  0  0  0  0  0  0  0  0  0  # atno 17343 bound_to 10162
  157.4364  130.7519  149.7033 LP  0  0  0  0  0  0  0  0  0  0  0  0  # atno 17370 bound_to 10713
  155.9801  130.4032  150.3546 LP  0  0  0  0  0  0  0  0  0  0  0  0  # atno 17371 bound_to 10713
  140.9842  133.7248  156.0717 LP  0  0  0  0  0  0  0  0  0  0  0  0  # atno 17394 bound_to 11000
  140.7709  134.3833  157.5508 LP  0  0  0  0  0  0  0  0  0  0  0  0  # atno 17395 bound_to 11000

$$$$
