AV-unprocessed.smi:1871|AV-procd|sdf|7599|dock1
  -GOLD-   22720 9313D 1   1.00000     0.00000
 Structure written by MMmdl.
 40 42  0  0  0  0  0  0  0  0  1 V2000
  153.1260  138.9745  157.3806 O   0  0  0  0  0  0  0  0  0  0  0  0
  151.8174  139.4804  157.5333 C   0  0  0  0  0  0  0  0  0  0  0  0
  151.8000  140.8736  158.0834 C   0  0  0  0  0  0  0  0  0  0  0  0
  152.1805  141.1418  159.3331 N   0  0  0  0  0  0  0  0  0  0  0  0
  152.0162  142.5107  159.4145 C   0  0  0  0  0  0  0  0  0  0  0  0
  152.2475  143.4021  160.4866 C   0  0  0  0  0  0  0  0  0  0  0  0
  152.0039  144.7828  160.3321 C   0  0  0  0  0  0  0  0  0  0  0  0
  151.5268  145.2909  159.1065 C   0  0  0  0  0  0  0  0  0  0  0  0
  151.2891  144.4198  158.0259 C   0  0  0  0  0  0  0  0  0  0  0  0
  151.5333  143.0427  158.1856 C   0  0  0  0  0  0  0  0  0  0  0  0
  151.4034  141.9418  157.3455 N   0  0  0  0  0  0  0  0  0  0  0  0
  150.9345  141.9728  155.9664 C   0  0  0  0  0  0  0  0  0  0  0  0
  149.8794  140.8860  155.6778 C   0  0  2  0  0  0  0  0  0  0  0  0
  150.2953  140.0830  154.5902 O   0  0  0  0  0  0  0  0  0  0  0  0
  148.5053  141.4953  155.4488 C   0  0  0  0  0  0  0  0  0  0  0  0
  148.0439  141.7575  154.1412 C   0  0  0  0  0  0  0  0  0  0  0  0
  146.7720  142.3266  153.9382 C   0  0  0  0  0  0  0  0  0  0  0  0
  145.9475  142.6517  155.0340 C   0  0  0  0  0  0  0  0  0  0  0  0
  144.7101  143.1933  154.7682 O   0  0  0  0  0  0  0  0  0  0  0  0
  144.6192  144.4953  154.3868 C   0  0  0  0  0  0  0  0  0  0  0  0
  144.9775  144.6176  153.0860 F   0  0  0  0  0  0  0  0  0  0  0  0
  143.3420  144.9344  154.5020 F   0  0  0  0  0  0  0  0  0  0  0  0
  146.4090  142.3806  156.3446 C   0  0  0  0  0  0  0  0  0  0  0  0
  147.6809  141.8113  156.5487 C   0  0  0  0  0  0  0  0  0  0  0  0
  153.0728  138.0379  157.2683 H   0  0  0  0  0  0  0  0  0  0  0  0
  151.2997  139.4491  156.5749 H   0  0  0  0  0  0  0  0  0  0  0  0
  151.2670  138.8217  158.2060 H   0  0  0  0  0  0  0  0  0  0  0  0
  152.6127  143.0227  161.4294 H   0  0  0  0  0  0  0  0  0  0  0  0
  152.1842  145.4555  161.1578 H   0  0  0  0  0  0  0  0  0  0  0  0
  151.3426  146.3496  158.9968 H   0  0  0  0  0  0  0  0  0  0  0  0
  150.9231  144.8051  157.0859 H   0  0  0  0  0  0  0  0  0  0  0  0
  150.5082  142.9595  155.7812 H   0  0  0  0  0  0  0  0  0  0  0  0
  151.7813  141.8798  155.2866 H   0  0  0  0  0  0  0  0  0  0  0  0
  149.8161  140.2230  156.5418 H   0  0  0  0  0  0  0  0  0  0  0  0
  149.8017  139.2771  154.6074 H   0  0  0  0  0  0  0  0  0  0  0  0
  148.6644  141.5234  153.2884 H   0  0  0  0  0  0  0  0  0  0  0  0
  146.4282  142.5195  152.9325 H   0  0  0  0  0  0  0  0  0  0  0  0
  145.2780  145.1347  154.9748 H   0  0  0  0  0  0  0  0  0  0  0  0
  145.7942  142.5995  157.2049 H   0  0  0  0  0  0  0  0  0  0  0  0
  148.0194  141.6159  157.5556 H   0  0  0  0  0  0  0  0  0  0  0  0
  1  2  1  0  0  0  0
  1 25  1  0  0  0  0
  2  3  1  0  0  0  0
  2 26  1  0  0  0  0
  2 27  1  0  0  0  0
  3 11  1  0  0  0  0
  3  4  2  0  0  0  0
  4  5  1  0  0  0  0
  5 10  2  0  0  0  0
  5  6  1  0  0  0  0
  6  7  2  0  0  0  0
  6 28  1  0  0  0  0
  7  8  1  0  0  0  0
  7 29  1  0  0  0  0
  8  9  2  0  0  0  0
  8 30  1  0  0  0  0
  9 10  1  0  0  0  0
  9 31  1  0  0  0  0
 10 11  1  0  0  0  0
 11 12  1  0  0  0  0
 12 13  1  0  0  0  0
 12 32  1  0  0  0  0
 12 33  1  0  0  0  0
 13 14  1  0  0  0  0
 13 15  1  0  0  0  0
 13 34  1  0  0  0  0
 14 35  1  0  0  0  0
 15 24  1  0  0  0  0
 15 16  2  0  0  0  0
 16 17  1  0  0  0  0
 16 36  1  0  0  0  0
 17 18  2  0  0  0  0
 17 37  1  0  0  0  0
 18 19  1  0  0  0  0
 18 23  1  0  0  0  0
 19 20  1  0  0  0  0
 20 21  1  0  0  0  0
 20 22  1  0  0  0  0
 20 38  1  0  0  0  0
 23 24  2  0  0  0  0
 23 39  1  0  0  0  0
 24 40  1  0  0  0  0
M  END
> <s_m_source_file>
AV-unprocessed.smi

> <i_m_source_file_index>
1871

> <i_lp_mmshare_version>
43012

> <i_f3d_flags>
0

> <s_epik_input>
W2NIXTFbY0hdW2NIXVtjSF1jKGMxMiluKGMobjIpW0NIMl1bT0hdKVtDSDJdW0NASF0oW09IXSljM1tjSF1bY0hdYyhPW0NIXShGKUYpW2NIXVtjSF0z

> <s_epik_cmdline>
J2VwaWtfcHl0aG9uJywgJy1waCcsICc3LjAnLCAnLXRuJywgJzgnLCAnLW1hJywgJzIwMCcsICctbWV0YWxfYmluZGluZycsICctaW1hZScsICc8aW5maWxlLm1hZT4nLCAnLW9tYWUnLCAnPG91dGZpbGUubWFlPic=

> <r_lp_tautomer_probability>
1

> <r_epik_Ionization_Penalty>
0.0634717

> <r_epik_Ionization_Penalty_Charging>
0

> <r_epik_Ionization_Penalty_Neutral>
0.0634717

> <r_epik_State_Penalty>
0.0551572

> <r_epik_Charging_Adjusted_Penalty>
0.0551572

> <i_epik_Tot_Q>
0

> <i_epik_Tot_abs_Q>
0

> <r_epik_Metal_State_Penalty>
5.78034e-05

> <b_epik_Metal_Only>
0

> <s_lp_Force_Field>
OPLS_2005

> <r_lp_Energy>
12.8946

> <b_lp_Chiralities_Consistent>
1

> <s_lp_Variant>
AV-unprocessed.smi:1871-1

> <Gold.Version>
5.8.1

> <Gold.Id.Protein>
6NUR|6NUR_protein|mol2

> <Gold.PLP.Fitness>
55.7318

> <Gold.PLP.PLP>
-53.5275

> <Gold.PLP.part.hbond>
-2.0000

> <Gold.PLP.part.metal>
0.0000

> <Gold.PLP.part.buried>
-8.4952

> <Gold.PLP.part.nonpolar>
-43.4948

> <Gold.PLP.part.repulsive>
0.1950

> <Gold.PLP.ligand.clash>
0.0000

> <Gold.PLP.ligand.torsion>
1.9646

> <Gold.PLP.Chemscore.Hbond>
2.0000

> <Gold.PLP.Chemscore.CHOScore>
0.0000

> <Gold.PLP.Chemscore.Metal>
0.0000

> <Gold.Chemscore.Hbonds>
donor molecule, donor type, donor heavy atom, donor atom, acceptor molecule, acceptor atom, score
      P1  H  7989  7998       L1    14  1.00
      P1  H  7997  8008       L1     1  1.00

> <Gold.PLP.Chemscore.Internal.Correction>
0.1334

> <Gold.Rescore>
     Score         DG    S(hbond)    S(metal)    S(lipo)     H(rot)  DE(clash)    DE(int)     intcor
     14.72     -18.13       1.96        0.00     124.13       3.29       0.01       3.39       ----

> <Gold.Chemscore.Fitness>
14.7174

> <Gold.Chemscore.DG>
-18.1254

> <Gold.Chemscore.ZeroCoef>
-5.4800

> <Gold.Chemscore.Hbond>
1.9571

> <Gold.Chemscore.Metal>
0.0000

> <Gold.Chemscore.Lipo>
124.1281

> <Gold.Chemscore.Internal_Hbond>
0.0000

> <Gold.Chemscore.DEClash>
0.0150

> <Gold.Chemscore.DEInternal>
3.3930

> <Gold.Chemscore.Rot>
3.2868

> <Gold.Chemscore.Internal.Correction>
   9.000000E+99

> <Gold.Chemscore.Hbonds>
donor molecule, donor type, donor heavy atom, donor atom, acceptor molecule, acceptor atom, score
      P1  H  7989  7998       L1    14  0.90
      P1  H  7997  8008       L1     1  0.98

> <Gold.Chemscore.Hbond.Weighted>
-6.5367

> <Gold.Chemscore.Metal.Weighted>
-0.0000

> <Gold.Chemscore.Lipo.Weighted>
-14.5230

> <Gold.Chemscore.Internal_Hbond.Weighted>
0.0000

> <Gold.Chemscore.DEClash.Weighted>
0.0150

> <Gold.Chemscore.DEInternal.Weighted>
3.3930

> <Gold.Chemscore.Rot.Weighted>
8.4143

> <Gold.Chemscore.Internal.Correction.Weighted>
   9.000000E+99

> <Gold.Protein.RotatedTorsions>
[ 6907 6896 6895 6894 ] final -104.03 input  -60.11 | X-H torsion
[ 7974 7965 7964 7962 ] final   56.26 input  175.53 | X-H torsion
[ 8008 7997 7996 7995 ] final  -74.83 input   59.86 | X-H torsion
[ 10167 10162 10161 10158 ] final -154.77 input  -65.29 | X-H torsion
[ 10718 10713 10712 10709 ] final  -25.33 input   66.30 | X-H torsion
[ 10763 10752 10751 10750 ] final   82.58 input  -60.55 | X-H torsion
[ 11005 11000 10999 10996 ] final   68.03 input  -57.11 | X-H torsion

> <Gold.Protein.ActiveResidues>
 VAL166  LYS551  ARG553  GLY616  TRP617  ASP618  TYR619  PRO620  LYS621  CYS622 
 ASP623  PHE694  ASN695  SER759  ASP760  ASP761  ALA762  ILE779  LEU786  VAL792 
 PHE793  MET794  SER795  GLU796  ALA797  LYS798  CYS799  TRP800  GLU811  SER814 

> <Gold.Protein.RotatedAtoms>
  150.7268  134.0340  159.3742 H   0  0  0  0  0  0  0  0  0  0  0  0  # atno 6907 bound_to 6896
  151.8310  135.0619  160.0446 H   0  0  0  0  0  0  0  0  0  0  0  0  # atno 6908 bound_to 6896
  152.2933  133.5547  159.5608 H   0  0  0  0  0  0  0  0  0  0  0  0  # atno 6909 bound_to 6896
  145.9417  139.3894  143.0359 H   0  0  0  0  0  0  0  0  0  0  0  0  # atno 7974 bound_to 7965
  154.5364  140.0754  156.8434 H   0  0  0  0  0  0  0  0  0  0  0  0  # atno 8008 bound_to 7997
  155.3270  140.3399  155.4222 H   0  0  0  0  0  0  0  0  0  0  0  0  # atno 8009 bound_to 7997
  156.1832  140.1659  156.8221 H   0  0  0  0  0  0  0  0  0  0  0  0  # atno 8010 bound_to 7997
  139.6986  143.9301  152.2418 H   0  0  0  0  0  0  0  0  0  0  0  0  # atno 10167 bound_to 10162
  156.4658  130.4513  149.6900 H   0  0  0  0  0  0  0  0  0  0  0  0  # atno 10718 bound_to 10713
  153.1215  135.4723  154.9204 H   0  0  0  0  0  0  0  0  0  0  0  0  # atno 10763 bound_to 10752
  154.7580  135.3124  154.8435 H   0  0  0  0  0  0  0  0  0  0  0  0  # atno 10764 bound_to 10752
  153.8998  135.6876  153.4809 H   0  0  0  0  0  0  0  0  0  0  0  0  # atno 10765 bound_to 10752
  139.9736  134.6860  156.0399 H   0  0  0  0  0  0  0  0  0  0  0  0  # atno 11005 bound_to 11000
  145.8291  140.9640  143.0858 LP  0  0  0  0  0  0  0  0  0  0  0  0  # atno 17320 bound_to 7965
  144.6780  140.0139  143.7484 LP  0  0  0  0  0  0  0  0  0  0  0  0  # atno 17321 bound_to 7965
  139.9137  144.6841  150.8534 LP  0  0  0  0  0  0  0  0  0  0  0  0  # atno 17342 bound_to 10162
  140.7703  143.3424  151.2180 LP  0  0  0  0  0  0  0  0  0  0  0  0  # atno 17343 bound_to 10162
  156.3669  130.7510  151.2489 LP  0  0  0  0  0  0  0  0  0  0  0  0  # atno 17370 bound_to 10713
  157.7495  131.0334  150.4270 LP  0  0  0  0  0  0  0  0  0  0  0  0  # atno 17371 bound_to 10713
  141.1414  133.6564  156.3741 LP  0  0  0  0  0  0  0  0  0  0  0  0  # atno 17394 bound_to 11000
  140.5242  134.6275  157.5328 LP  0  0  0  0  0  0  0  0  0  0  0  0  # atno 17395 bound_to 11000

$$$$
