AV-unprocessed.smi:2799|AV-procd|sdf|10790|dock2
  -GOLD-   2272015223D 1   1.00000     0.00000
 Structure written by MMmdl.
 52 53  0  0  0  0  0  0  0  0  2 V2000
  148.8168  133.0762  154.3713 C   0  0  0  0  0  0  0  0  0  0  0  0
  149.6080  134.3667  154.6439 C   0  0  0  0  0  0  0  0  0  0  0  0
  150.6407  134.1361  155.7568 C   0  0  0  0  0  0  0  0  0  0  0  0
  148.6831  135.5518  155.0040 C   0  0  0  0  0  0  0  0  0  0  0  0
  149.2133  136.8910  154.6210 N   0  3  1  0  0  0  0  0  0  0  0  0
  148.1949  137.9621  154.7924 C   0  0  0  0  0  0  0  0  0  0  0  0
  148.6624  139.2854  154.1659 C   0  0  0  0  0  0  0  0  0  0  0  0
  150.0180  139.7182  154.7346 C   0  0  0  0  0  0  0  0  0  0  0  0
  151.0384  138.5850  154.5626 C   0  0  0  0  0  0  0  0  0  0  0  0
  150.5485  137.2584  155.1904 C   0  0  1  0  0  0  0  0  0  0  0  0
  150.5754  137.2622  156.7438 C   0  0  0  0  0  0  0  0  0  0  0  0
  151.6388  138.1055  157.2798 N   0  0  0  0  0  0  0  0  0  0  0  0
  151.4393  139.2358  157.9724 C   0  0  0  0  0  0  0  0  0  0  0  0
  150.3190  139.6850  158.2143 O   0  0  0  0  0  0  0  0  0  0  0  0
  152.6080  139.7687  158.3731 N   0  0  0  0  0  0  0  0  0  0  0  0
  152.8436  140.9382  159.1170 C   0  0  0  0  0  0  0  0  0  0  0  0
  153.5449  140.9848  160.2776 C   0  0  0  0  0  0  0  0  0  0  0  0
  153.7333  142.2308  160.9810 C   0  0  0  0  0  0  0  0  0  0  0  0
  153.1891  143.3422  160.4660 C   0  0  0  0  0  0  0  0  0  0  0  0
  152.4492  143.3154  159.2717 N   0  0  0  0  0  0  0  0  0  0  0  0
  151.8920  144.5824  158.7910 C   0  0  0  0  0  0  0  0  0  0  0  0
  152.2408  142.1662  158.5625 C   0  0  0  0  0  0  0  0  0  0  0  0
  151.5845  142.1707  157.5179 O   0  0  0  0  0  0  0  0  0  0  0  0
  148.2250  132.7823  155.2388 H   0  0  0  0  0  0  0  0  0  0  0  0
  149.4871  132.2499  154.1327 H   0  0  0  0  0  0  0  0  0  0  0  0
  148.1365  133.1928  153.5276 H   0  0  0  0  0  0  0  0  0  0  0  0
  150.1792  134.6132  153.7494 H   0  0  0  0  0  0  0  0  0  0  0  0
  150.1591  133.8755  156.6999 H   0  0  0  0  0  0  0  0  0  0  0  0
  151.2426  135.0296  155.9260 H   0  0  0  0  0  0  0  0  0  0  0  0
  151.3240  133.3267  155.4975 H   0  0  0  0  0  0  0  0  0  0  0  0
  147.7311  135.4035  154.4922 H   0  0  0  0  0  0  0  0  0  0  0  0
  148.4461  135.5389  156.0680 H   0  0  0  0  0  0  0  0  0  0  0  0
  147.2618  137.6597  154.3153 H   0  0  0  0  0  0  0  0  0  0  0  0
  147.9694  138.0998  155.8504 H   0  0  0  0  0  0  0  0  0  0  0  0
  148.7408  139.1689  153.0841 H   0  0  0  0  0  0  0  0  0  0  0  0
  147.9192  140.0642  154.3396 H   0  0  0  0  0  0  0  0  0  0  0  0
  150.3670  140.6173  154.2260 H   0  0  0  0  0  0  0  0  0  0  0  0
  149.9164  139.9784  155.7885 H   0  0  0  0  0  0  0  0  0  0  0  0
  151.2125  138.4281  153.4971 H   0  0  0  0  0  0  0  0  0  0  0  0
  152.0023  138.8838  154.9753 H   0  0  0  0  0  0  0  0  0  0  0  0
  151.2597  136.5064  154.8522 H   0  0  0  0  0  0  0  0  0  0  0  0
  149.6319  137.6244  157.1504 H   0  0  0  0  0  0  0  0  0  0  0  0
  150.7097  136.2551  157.1389 H   0  0  0  0  0  0  0  0  0  0  0  0
  152.5890  137.8012  157.1239 H   0  0  0  0  0  0  0  0  0  0  0  0
  153.4405  139.2414  158.1522 H   0  0  0  0  0  0  0  0  0  0  0  0
  153.9703  140.1003  160.7229 H   0  0  0  0  0  0  0  0  0  0  0  0
  154.3007  142.2664  161.8993 H   0  0  0  0  0  0  0  0  0  0  0  0
  153.2865  144.3122  160.9314 H   0  0  0  0  0  0  0  0  0  0  0  0
  152.2848  144.8227  157.8019 H   0  0  0  0  0  0  0  0  0  0  0  0
  152.1277  145.4219  159.4460 H   0  0  0  0  0  0  0  0  0  0  0  0
  150.8051  144.5213  158.7207 H   0  0  0  0  0  0  0  0  0  0  0  0
  149.3637  136.8329  153.6241 H   0  0  0  0  0  0  0  0  0  0  0  0
  1  2  1  0  0  0  0
  1 24  1  0  0  0  0
  1 25  1  0  0  0  0
  1 26  1  0  0  0  0
  2  3  1  0  0  0  0
  2  4  1  0  0  0  0
  2 27  1  0  0  0  0
  3 28  1  0  0  0  0
  3 29  1  0  0  0  0
  3 30  1  0  0  0  0
  4  5  1  0  0  0  0
  4 31  1  0  0  0  0
  4 32  1  0  0  0  0
  5 10  1  0  0  0  0
  5  6  1  0  0  0  0
  5 52  1  0  0  0  0
  6  7  1  0  0  0  0
  6 33  1  0  0  0  0
  6 34  1  0  0  0  0
  7  8  1  0  0  0  0
  7 35  1  0  0  0  0
  7 36  1  0  0  0  0
  8  9  1  0  0  0  0
  8 37  1  0  0  0  0
  8 38  1  0  0  0  0
  9 10  1  0  0  0  0
  9 39  1  0  0  0  0
  9 40  1  0  0  0  0
 10 11  1  0  0  0  0
 10 41  1  0  0  0  0
 11 12  1  0  0  0  0
 11 42  1  0  0  0  0
 11 43  1  0  0  0  0
 12 13  1  0  0  0  0
 12 44  1  0  0  0  0
 13 14  2  0  0  0  0
 13 15  1  0  0  0  0
 15 16  1  0  0  0  0
 15 45  1  0  0  0  0
 16 22  1  0  0  0  0
 16 17  2  0  0  0  0
 17 18  1  0  0  0  0
 17 46  1  0  0  0  0
 18 19  2  0  0  0  0
 18 47  1  0  0  0  0
 19 20  1  0  0  0  0
 19 48  1  0  0  0  0
 20 21  1  0  0  0  0
 20 22  1  0  0  0  0
 21 49  1  0  0  0  0
 21 50  1  0  0  0  0
 21 51  1  0  0  0  0
 22 23  2  0  0  0  0
M  CHG  1   5   1
M  END
> <s_m_source_file>
AV-unprocessed.smi

> <i_m_source_file_index>
2799

> <i_lp_mmshare_version>
43012

> <i_f3d_flags>
0

> <s_epik_input>
W0NIM11bQ0hdKFtDSDNdKVtDSDJdTjFbQ0gyXVtDSDJdW0NIMl1bQ0gyXVtDQEhdMVtDSDJdW05IXUMoPU8pW05IXWMyW2NIXVtjSF1bY0hdbihbQ0gzXSljMj1P

> <s_epik_cmdline>
J2VwaWtfcHl0aG9uJywgJy1waCcsICc3LjAnLCAnLXRuJywgJzgnLCAnLW1hJywgJzIwMCcsICctbWV0YWxfYmluZGluZycsICctaW1hZScsICc8aW5maWxlLm1hZT4nLCAnLW9tYWUnLCAnPG91dGZpbGUubWFlPic=

> <r_lp_tautomer_probability>
1

> <r_epik_Ionization_Penalty>
0.0010885

> <r_epik_Ionization_Penalty_Charging>
0.00106921

> <r_epik_Ionization_Penalty_Neutral>
1.92865e-05

> <r_epik_State_Penalty>
0.000697184

> <r_epik_Charging_Adjusted_Penalty>
0.0017664

> <i_epik_Tot_Q>
1

> <i_epik_Tot_abs_Q>
1

> <r_epik_Metal_State_Penalty>
-0

> <b_epik_Metal_Only>
0

> <s_lp_Force_Field>
OPLS_2005

> <r_lp_Energy>
35.5071

> <b_lp_Chiralities_Consistent>
1

> <s_lp_Variant>
AV-unprocessed.smi:2799-2

> <Gold.Version>
5.8.1

> <Gold.Id.Protein>
6NUR|6NUR_protein|mol2

> <Gold.PLP.Fitness>
46.6489

> <Gold.PLP.PLP>
-42.9284

> <Gold.PLP.part.hbond>
-1.0000

> <Gold.PLP.part.metal>
0.0000

> <Gold.PLP.part.buried>
-5.4875

> <Gold.PLP.part.nonpolar>
-36.4858

> <Gold.PLP.part.repulsive>
0.2018

> <Gold.PLP.ligand.clash>
0.0000

> <Gold.PLP.ligand.torsion>
1.1815

> <Gold.PLP.Chemscore.Hbond>
2.0000

> <Gold.PLP.Chemscore.CHOScore>
0.0000

> <Gold.PLP.Chemscore.Metal>
0.0000

> <Gold.Chemscore.Hbonds>
donor molecule, donor type, donor heavy atom, donor atom, acceptor molecule, acceptor atom, score
      L1  H     5    52       P1  7948  2.00

> <Gold.PLP.Chemscore.Internal.Correction>
0.0835

> <Gold.Rescore>
     Score         DG    S(hbond)    S(metal)    S(lipo)     H(rot)  DE(clash)    DE(int)     intcor
     15.34     -16.61       0.98        0.00     101.42       1.57       0.06       1.21       ----

> <Gold.Chemscore.Fitness>
15.3399

> <Gold.Chemscore.DG>
-16.6102

> <Gold.Chemscore.ZeroCoef>
-5.4800

> <Gold.Chemscore.Hbond>
0.9822

> <Gold.Chemscore.Metal>
0.0000

> <Gold.Chemscore.Lipo>
101.4167

> <Gold.Chemscore.Internal_Hbond>
0.0000

> <Gold.Chemscore.DEClash>
0.0604

> <Gold.Chemscore.DEInternal>
1.2099

> <Gold.Chemscore.Rot>
1.5688

> <Gold.Chemscore.Internal.Correction>
   9.000000E+99

> <Gold.Chemscore.Hbonds>
donor molecule, donor type, donor heavy atom, donor atom, acceptor molecule, acceptor atom, score
      L1  H     5    52       P1  7948  0.92

> <Gold.Chemscore.Hbond.Weighted>
-3.2805

> <Gold.Chemscore.Metal.Weighted>
-0.0000

> <Gold.Chemscore.Lipo.Weighted>
-11.8657

> <Gold.Chemscore.Internal_Hbond.Weighted>
0.0000

> <Gold.Chemscore.DEClash.Weighted>
0.0604

> <Gold.Chemscore.DEInternal.Weighted>
1.2099

> <Gold.Chemscore.Rot.Weighted>
4.0161

> <Gold.Chemscore.Internal.Correction.Weighted>
   9.000000E+99

> <Gold.Protein.RotatedTorsions>
[ 6907 6896 6895 6894 ] final  -11.57 input  -60.11 | X-H torsion
[ 7974 7965 7964 7962 ] final   51.84 input  175.53 | X-H torsion
[ 8008 7997 7996 7995 ] final  170.39 input   59.86 | X-H torsion
[ 10167 10162 10161 10158 ] final  -56.61 input  -65.29 | X-H torsion
[ 10718 10713 10712 10709 ] final  129.23 input   66.30 | X-H torsion
[ 10763 10752 10751 10750 ] final -140.71 input  -60.55 | X-H torsion
[ 11005 11000 10999 10996 ] final  -63.59 input  -57.11 | X-H torsion

> <Gold.Protein.ActiveResidues>
 VAL166  LYS551  ARG553  GLY616  TRP617  ASP618  TYR619  PRO620  LYS621  CYS622 
 ASP623  PHE694  ASN695  SER759  ASP760  ASP761  ALA762  ILE779  LEU786  VAL792 
 PHE793  MET794  SER795  GLU796  ALA797  LYS798  CYS799  TRP800  GLU811  SER814 

> <Gold.Protein.RotatedAtoms>
  151.3842  135.0945  159.9505 H   0  0  0  0  0  0  0  0  0  0  0  0  # atno 6907 bound_to 6896
  152.5099  133.9042  159.7466 H   0  0  0  0  0  0  0  0  0  0  0  0  # atno 6908 bound_to 6896
  150.9482  133.6523  159.2806 H   0  0  0  0  0  0  0  0  0  0  0  0  # atno 6909 bound_to 6896
  145.9873  139.4302  143.0095 H   0  0  0  0  0  0  0  0  0  0  0  0  # atno 7974 bound_to 7965
  156.1370  140.1539  156.8980 H   0  0  0  0  0  0  0  0  0  0  0  0  # atno 8008 bound_to 7997
  154.4955  140.0839  156.7726 H   0  0  0  0  0  0  0  0  0  0  0  0  # atno 8009 bound_to 7997
  155.4151  140.3420  155.4269 H   0  0  0  0  0  0  0  0  0  0  0  0  # atno 8010 bound_to 7997
  140.6307  143.2458  151.5249 H   0  0  0  0  0  0  0  0  0  0  0  0  # atno 10167 bound_to 10162
  157.5173  131.1097  150.9205 H   0  0  0  0  0  0  0  0  0  0  0  0  # atno 10718 bound_to 10713
  154.8569  135.3545  154.5751 H   0  0  0  0  0  0  0  0  0  0  0  0  # atno 10763 bound_to 10752
  153.6363  135.7000  153.5262 H   0  0  0  0  0  0  0  0  0  0  0  0  # atno 10764 bound_to 10752
  153.3008  135.4207  155.1209 H   0  0  0  0  0  0  0  0  0  0  0  0  # atno 10765 bound_to 10752
  141.1398  133.6654  156.5704 H   0  0  0  0  0  0  0  0  0  0  0  0  # atno 11005 bound_to 11000
  145.7682  140.9907  143.1163 LP  0  0  0  0  0  0  0  0  0  0  0  0  # atno 17320 bound_to 7965
  144.6878  139.9414  143.7475 LP  0  0  0  0  0  0  0  0  0  0  0  0  # atno 17321 bound_to 7965
  139.5521  144.2368  152.1549 LP  0  0  0  0  0  0  0  0  0  0  0  0  # atno 17342 bound_to 10162
  140.1611  144.5025  150.6632 LP  0  0  0  0  0  0  0  0  0  0  0  0  # atno 17343 bound_to 10162
  156.9827  130.5533  149.5297 LP  0  0  0  0  0  0  0  0  0  0  0  0  # atno 17370 bound_to 10713
  156.0329  130.5419  150.8580 LP  0  0  0  0  0  0  0  0  0  0  0  0  # atno 17371 bound_to 10713
  140.3917  134.7434  157.4726 LP  0  0  0  0  0  0  0  0  0  0  0  0  # atno 17394 bound_to 11000
  140.0561  134.6062  155.8803 LP  0  0  0  0  0  0  0  0  0  0  0  0  # atno 17395 bound_to 11000

$$$$
