AV-unprocessed.smi:2200|AV-procd|sdf|8926|dock1
  -GOLD-   2272012143D 1   1.00000     0.00000
 Structure written by MMmdl.
 30 30  0  0  0  0  0  0  0  0  2 V2000
  152.7990  144.5825  158.3715 C   0  0  0  0  0  0  0  0  0  0  0  0
  152.2043  143.5045  159.2894 C   0  0  0  0  0  0  0  0  0  0  0  0
  153.2815  142.4848  159.6991 C   0  0  0  0  0  0  0  0  0  0  0  0
  150.9802  142.8370  158.6259 C   0  0  0  0  0  0  0  0  0  0  0  0
  151.2930  142.2447  157.3294 N   0  0  0  0  0  0  0  0  0  0  0  0
  151.3025  140.9307  157.0598 C   0  0  0  0  0  0  0  0  0  0  0  0
  151.0484  140.0672  157.9010 O   0  0  0  0  0  0  0  0  0  0  0  0
  151.6893  140.5463  155.6250 C   0  0  0  0  0  0  0  0  0  0  0  0
  151.4061  139.1393  155.2984 N   0  0  0  0  0  0  0  0  0  0  0  0
  150.0594  138.7381  155.2505 C   0  0  0  0  0  0  0  0  0  0  0  0
  149.7056  137.4696  154.9689 C   0  0  0  0  0  0  0  0  0  0  0  0
  150.7621  136.4997  154.7091 C   0  0  0  0  0  0  0  0  0  0  0  0
  150.4577  135.3349  154.4592 O   0  0  0  0  0  0  0  0  0  0  0  0
  152.0535  136.9397  154.7586 N   0  5  0  0  0  0  0  0  0  0  0  0
  152.3986  138.2336  155.0446 C   0  0  0  0  0  0  0  0  0  0  0  0
  153.5707  138.6095  155.0841 O   0  0  0  0  0  0  0  0  0  0  0  0
  153.1612  144.1526  157.4371 H   0  0  0  0  0  0  0  0  0  0  0  0
  153.6364  145.0896  158.8517 H   0  0  0  0  0  0  0  0  0  0  0  0
  152.0558  145.3409  158.1234 H   0  0  0  0  0  0  0  0  0  0  0  0
  151.8664  144.0068  160.1968 H   0  0  0  0  0  0  0  0  0  0  0  0
  153.6461  141.9267  158.8364 H   0  0  0  0  0  0  0  0  0  0  0  0
  152.8995  141.7665  160.4246 H   0  0  0  0  0  0  0  0  0  0  0  0
  154.1363  142.9820  160.1585 H   0  0  0  0  0  0  0  0  0  0  0  0
  150.5607  142.0729  159.2827 H   0  0  0  0  0  0  0  0  0  0  0  0
  150.1916  143.5748  158.4750 H   0  0  0  0  0  0  0  0  0  0  0  0
  151.5174  142.8820  156.5792 H   0  0  0  0  0  0  0  0  0  0  0  0
  151.1757  141.2029  154.9202 H   0  0  0  0  0  0  0  0  0  0  0  0
  152.7507  140.7608  155.4930 H   0  0  0  0  0  0  0  0  0  0  0  0
  149.3394  139.5181  155.4495 H   0  0  0  0  0  0  0  0  0  0  0  0
  148.6663  137.1777  154.9339 H   0  0  0  0  0  0  0  0  0  0  0  0
  1  2  1  0  0  0  0
  1 17  1  0  0  0  0
  1 18  1  0  0  0  0
  1 19  1  0  0  0  0
  2  3  1  0  0  0  0
  2  4  1  0  0  0  0
  2 20  1  0  0  0  0
  3 21  1  0  0  0  0
  3 22  1  0  0  0  0
  3 23  1  0  0  0  0
  4  5  1  0  0  0  0
  4 24  1  0  0  0  0
  4 25  1  0  0  0  0
  5  6  1  0  0  0  0
  5 26  1  0  0  0  0
  6  7  2  0  0  0  0
  6  8  1  0  0  0  0
  8  9  1  0  0  0  0
  8 27  1  0  0  0  0
  8 28  1  0  0  0  0
  9 15  1  0  0  0  0
  9 10  1  0  0  0  0
 10 11  2  0  0  0  0
 10 29  1  0  0  0  0
 11 12  1  0  0  0  0
 11 30  1  0  0  0  0
 12 13  2  0  0  0  0
 12 14  1  0  0  0  0
 14 15  1  0  0  0  0
 15 16  2  0  0  0  0
M  CHG  1  14  -1
M  END
> <s_m_source_file>
AV-unprocessed.smi

> <i_m_source_file_index>
2200

> <i_lp_mmshare_version>
43012

> <i_f3d_flags>
0

> <s_epik_input>
W0NIM11bQ0hdKFtDSDNdKVtDSDJdW05IXUMoPU8pW0NIMl1uMVtjSF1bY0hdYyg9TylbbkhdYzE9Tw==

> <s_epik_cmdline>
J2VwaWtfcHl0aG9uJywgJy1waCcsICc3LjAnLCAnLXRuJywgJzgnLCAnLW1hJywgJzIwMCcsICctbWV0YWxfYmluZGluZycsICctaW1hZScsICc8aW5maWxlLm1hZT4nLCAnLW9tYWUnLCAnPG91dGZpbGUubWFlPic=

> <r_lp_tautomer_probability>
0.999537

> <r_epik_Ionization_Penalty>
3.07884

> <r_epik_Ionization_Penalty_Charging>
2.64713e-08

> <r_epik_Ionization_Penalty_Neutral>
3.07884

> <r_epik_State_Penalty>
3.07787

> <r_epik_Charging_Adjusted_Penalty>
3.07787

> <i_epik_Tot_Q>
-1

> <i_epik_Tot_abs_Q>
1

> <r_epik_Metal_State_Penalty>
0.459857

> <b_epik_Metal_Only>
1

> <s_lp_Force_Field>
OPLS_2005

> <r_lp_Energy>
13.0642

> <b_lp_Chiralities_Consistent>
1

> <s_lp_Variant>
AV-unprocessed.smi:2200-2

> <Gold.Version>
5.8.1

> <Gold.Id.Protein>
6NUR|6NUR_protein|mol2

> <Gold.PLP.Fitness>
40.0176

> <Gold.PLP.PLP>
-31.5033

> <Gold.PLP.part.hbond>
-2.0000

> <Gold.PLP.part.metal>
0.0000

> <Gold.PLP.part.buried>
-4.3665

> <Gold.PLP.part.nonpolar>
-26.0158

> <Gold.PLP.part.repulsive>
0.3361

> <Gold.PLP.ligand.clash>
0.0000

> <Gold.PLP.ligand.torsion>
0.2392

> <Gold.PLP.Chemscore.Hbond>
2.9920

> <Gold.PLP.Chemscore.CHOScore>
0.0000

> <Gold.PLP.Chemscore.Metal>
0.0000

> <Gold.Chemscore.Hbonds>
donor molecule, donor type, donor heavy atom, donor atom, acceptor molecule, acceptor atom, score
      P1  H  7997  8008       L1    16  0.88
      P1  H 10752 10763       L1    14  1.95

> <Gold.PLP.Chemscore.Internal.Correction>
0.0167

> <Gold.Rescore>
     Score         DG    S(hbond)    S(metal)    S(lipo)     H(rot)  DE(clash)    DE(int)     intcor
     13.14     -13.59       1.68        0.00      64.32       1.97       0.14       0.31       ----

> <Gold.Chemscore.Fitness>
13.1358

> <Gold.Chemscore.DG>
-13.5860

> <Gold.Chemscore.ZeroCoef>
-5.4800

> <Gold.Chemscore.Hbond>
1.6831

> <Gold.Chemscore.Metal>
0.0000

> <Gold.Chemscore.Lipo>
64.3246

> <Gold.Chemscore.Internal_Hbond>
0.0000

> <Gold.Chemscore.DEClash>
0.1415

> <Gold.Chemscore.DEInternal>
0.3087

> <Gold.Chemscore.Rot>
1.9694

> <Gold.Chemscore.Internal.Correction>
   9.000000E+99

> <Gold.Chemscore.Hbonds>
donor molecule, donor type, donor heavy atom, donor atom, acceptor molecule, acceptor atom, score
      P1  H  7997  8008       L1    16  0.85
      P1  H 10752 10763       L1    14  0.46

> <Gold.Chemscore.Hbond.Weighted>
-5.6217

> <Gold.Chemscore.Metal.Weighted>
-0.0000

> <Gold.Chemscore.Lipo.Weighted>
-7.5260

> <Gold.Chemscore.Internal_Hbond.Weighted>
0.0000

> <Gold.Chemscore.DEClash.Weighted>
0.1415

> <Gold.Chemscore.DEInternal.Weighted>
0.3087

> <Gold.Chemscore.Rot.Weighted>
5.0417

> <Gold.Chemscore.Internal.Correction.Weighted>
   9.000000E+99

> <Gold.Protein.RotatedTorsions>
[ 6907 6896 6895 6894 ] final  -54.25 input  -60.11 | X-H torsion
[ 7974 7965 7964 7962 ] final   34.87 input  175.53 | X-H torsion
[ 8008 7997 7996 7995 ] final  -19.32 input   59.86 | X-H torsion
[ 10167 10162 10161 10158 ] final -137.91 input  -65.29 | X-H torsion
[ 10718 10713 10712 10709 ] final  -98.74 input   66.30 | X-H torsion
[ 10763 10752 10751 10750 ] final   52.65 input  -60.55 | X-H torsion
[ 11005 11000 10999 10996 ] final -171.55 input  -57.11 | X-H torsion

> <Gold.Protein.ActiveResidues>
 VAL166  LYS551  ARG553  GLY616  TRP617  ASP618  TYR619  PRO620  LYS621  CYS622 
 ASP623  PHE694  ASN695  SER759  ASP760  ASP761  ALA762  ILE779  LEU786  VAL792 
 PHE793  MET794  SER795  GLU796  ALA797  LYS798  CYS799  TRP800  GLU811  SER814 

> <Gold.Protein.RotatedAtoms>
  150.8354  134.7625  159.6888 H   0  0  0  0  0  0  0  0  0  0  0  0  # atno 6907 bound_to 6896
  152.4452  134.5507  159.9875 H   0  0  0  0  0  0  0  0  0  0  0  0  # atno 6908 bound_to 6896
  151.5658  133.3359  159.3016 H   0  0  0  0  0  0  0  0  0  0  0  0  # atno 6909 bound_to 6896
  146.1323  139.6214  142.9219 H   0  0  0  0  0  0  0  0  0  0  0  0  # atno 7974 bound_to 7965
  154.4844  140.2092  155.9688 H   0  0  0  0  0  0  0  0  0  0  0  0  # atno 8008 bound_to 7997
  156.1214  140.3212  155.8183 H   0  0  0  0  0  0  0  0  0  0  0  0  # atno 8009 bound_to 7997
  155.4460  140.0513  157.2996 H   0  0  0  0  0  0  0  0  0  0  0  0  # atno 8010 bound_to 7997
  139.8530  143.7174  152.2656 H   0  0  0  0  0  0  0  0  0  0  0  0  # atno 10167 bound_to 10162
  156.0115  130.5251  150.6568 H   0  0  0  0  0  0  0  0  0  0  0  0  # atno 10718 bound_to 10713
  152.9790  135.5805  154.4613 H   0  0  0  0  0  0  0  0  0  0  0  0  # atno 10763 bound_to 10752
  154.4189  135.2771  155.1990 H   0  0  0  0  0  0  0  0  0  0  0  0  # atno 10764 bound_to 10752
  154.3748  135.6160  153.5813 H   0  0  0  0  0  0  0  0  0  0  0  0  # atno 10765 bound_to 10752
  140.5069  134.5839  157.5006 H   0  0  0  0  0  0  0  0  0  0  0  0  # atno 11005 bound_to 11000
  145.5234  141.0431  143.2423 LP  0  0  0  0  0  0  0  0  0  0  0  0  # atno 17320 bound_to 7965
  144.7703  139.6751  143.7197 LP  0  0  0  0  0  0  0  0  0  0  0  0  # atno 17321 bound_to 7965
  139.7447  144.7550  151.0599 LP  0  0  0  0  0  0  0  0  0  0  0  0  # atno 17342 bound_to 10162
  140.7785  143.4931  150.9867 LP  0  0  0  0  0  0  0  0  0  0  0  0  # atno 17343 bound_to 10162
  157.4318  131.0850  151.1031 LP  0  0  0  0  0  0  0  0  0  0  0  0  # atno 17370 bound_to 10713
  157.1601  130.6222  149.5608 LP  0  0  0  0  0  0  0  0  0  0  0  0  # atno 17371 bound_to 10713
  139.9681  134.7339  156.0097 LP  0  0  0  0  0  0  0  0  0  0  0  0  # atno 17394 bound_to 11000
  141.1406  133.6565  156.3718 LP  0  0  0  0  0  0  0  0  0  0  0  0  # atno 17395 bound_to 11000

$$$$
