AV-unprocessed.smi:1433|AV-procd|sdf|5841|dock10
  -GOLD-   22720 5503D 1   1.00000     0.00000
 Structure written by MMmdl.
 45 46  0  0  0  0  0  0  0  0  2 V2000
  145.6278  132.4291  150.5495 C   0  0  0  0  0  0  0  0  0  0  0  0
  146.2737  133.4504  151.4923 C   0  0  2  0  0  0  0  0  0  0  0  0
  147.5929  132.9273  152.0903 C   0  0  0  0  0  0  0  0  0  0  0  0
  148.1542  133.8953  153.0703 N   0  3  2  0  0  0  0  0  0  0  0  0
  149.4873  133.5432  153.6601 C   0  0  2  0  0  0  0  0  0  0  0  0
  149.4719  132.0756  154.1417 C   0  0  0  0  0  0  0  0  0  0  0  0
  149.9442  134.4860  154.8094 C   0  0  0  0  0  0  0  0  0  0  0  0
  150.4425  135.7736  154.3348 N   0  0  0  0  0  0  0  0  0  0  0  0
  150.6189  136.8625  155.0999 C   0  0  0  0  0  0  0  0  0  0  0  0
  150.3513  136.8981  156.3008 O   0  0  0  0  0  0  0  0  0  0  0  0
  151.1901  138.0992  154.4059 C   0  0  0  0  0  0  0  0  0  0  0  0
  150.1905  139.1472  154.3092 N   0  0  0  0  0  0  0  0  0  0  0  0
  148.8890  139.0507  153.8624 C   0  0  0  0  0  0  0  0  0  0  0  0
  148.3312  140.2930  153.9641 C   0  0  0  0  0  0  0  0  0  0  0  0
  149.3828  141.0934  154.4916 C   0  0  0  0  0  0  0  0  0  0  0  0
  150.4945  140.4055  154.6976 N   0  0  0  0  0  0  0  0  0  0  0  0
  147.1363  134.1874  154.1151 C   0  0  0  0  0  0  0  0  0  0  0  0
  145.8082  134.6700  153.5020 C   0  0  1  0  0  0  0  0  0  0  0  0
  145.8693  136.1044  152.9473 C   0  0  0  0  0  0  0  0  0  0  0  0
  145.3466  133.7292  152.5355 O   0  0  0  0  0  0  0  0  0  0  0  0
  146.2917  132.1858  149.7194 H   0  0  0  0  0  0  0  0  0  0  0  0
  144.7007  132.8192  150.1288 H   0  0  0  0  0  0  0  0  0  0  0  0
  145.3919  131.5018  151.0725 H   0  0  0  0  0  0  0  0  0  0  0  0
  146.4668  134.3581  150.9202 H   0  0  0  0  0  0  0  0  0  0  0  0
  147.4378  131.9624  152.5762 H   0  0  0  0  0  0  0  0  0  0  0  0
  148.2829  132.7724  151.2615 H   0  0  0  0  0  0  0  0  0  0  0  0
  150.2266  133.6321  152.8627 H   0  0  0  0  0  0  0  0  0  0  0  0
  150.4482  131.7607  154.5099 H   0  0  0  0  0  0  0  0  0  0  0  0
  149.2082  131.3789  153.3477 H   0  0  0  0  0  0  0  0  0  0  0  0
  148.7548  131.9368  154.9514 H   0  0  0  0  0  0  0  0  0  0  0  0
  149.1284  134.6916  155.5041 H   0  0  0  0  0  0  0  0  0  0  0  0
  150.7402  134.0151  155.3874 H   0  0  0  0  0  0  0  0  0  0  0  0
  150.6968  135.8353  153.3591 H   0  0  0  0  0  0  0  0  0  0  0  0
  152.0608  138.4746  154.9462 H   0  0  0  0  0  0  0  0  0  0  0  0
  151.5248  137.8381  153.4009 H   0  0  0  0  0  0  0  0  0  0  0  0
  148.4732  138.1161  153.5152 H   0  0  0  0  0  0  0  0  0  0  0  0
  147.3250  140.5853  153.7028 H   0  0  0  0  0  0  0  0  0  0  0  0
  149.3709  142.1467  154.7303 H   0  0  0  0  0  0  0  0  0  0  0  0
  146.9550  133.2795  154.6931 H   0  0  0  0  0  0  0  0  0  0  0  0
  147.4960  134.9343  154.8212 H   0  0  0  0  0  0  0  0  0  0  0  0
  145.0605  134.6732  154.2958 H   0  0  0  0  0  0  0  0  0  0  0  0
  146.0930  136.8162  153.7423 H   0  0  0  0  0  0  0  0  0  0  0  0
  144.9135  136.3922  152.5090 H   0  0  0  0  0  0  0  0  0  0  0  0
  146.6374  136.2228  152.1836 H   0  0  0  0  0  0  0  0  0  0  0  0
  148.2977  134.7507  152.5526 H   0  0  0  0  0  0  0  0  0  0  0  0
  1  2  1  0  0  0  0
  1 21  1  0  0  0  0
  1 22  1  0  0  0  0
  1 23  1  0  0  0  0
  2 20  1  0  0  0  0
  2  3  1  0  0  0  0
  2 24  1  0  0  0  0
  3  4  1  0  0  0  0
  3 25  1  0  0  0  0
  3 26  1  0  0  0  0
  4  5  1  0  0  0  0
  4 17  1  0  0  0  0
  4 45  1  0  0  0  0
  5  6  1  0  0  0  0
  5  7  1  0  0  0  0
  5 27  1  0  0  0  0
  6 28  1  0  0  0  0
  6 29  1  0  0  0  0
  6 30  1  0  0  0  0
  7  8  1  0  0  0  0
  7 31  1  0  0  0  0
  7 32  1  0  0  0  0
  8  9  1  0  0  0  0
  8 33  1  0  0  0  0
  9 10  2  0  0  0  0
  9 11  1  0  0  0  0
 11 12  1  0  0  0  0
 11 34  1  0  0  0  0
 11 35  1  0  0  0  0
 12 16  1  0  0  0  0
 12 13  1  0  0  0  0
 13 14  2  0  0  0  0
 13 36  1  0  0  0  0
 14 15  1  0  0  0  0
 14 37  1  0  0  0  0
 15 16  2  0  0  0  0
 15 38  1  0  0  0  0
 17 18  1  0  0  0  0
 17 39  1  0  0  0  0
 17 40  1  0  0  0  0
 18 19  1  0  0  0  0
 18 20  1  0  0  0  0
 18 41  1  0  0  0  0
 19 42  1  0  0  0  0
 19 43  1  0  0  0  0
 19 44  1  0  0  0  0
M  CHG  1   4   1
M  END
> <s_m_source_file>
AV-unprocessed.smi

> <i_m_source_file_index>
1433

> <i_lp_mmshare_version>
43012

> <i_f3d_flags>
0

> <s_epik_input>
W0NIM11bQ0BASF0xW0NIMl1OKFtDSDJdW0NASF0oTzEpW0NIM10pW0NASF0oW0NIM10pW0NIMl1bTkhdQyg9TylbQ0gyXW4yW2NIXVtjSF1bY0hdbjI=

> <s_epik_cmdline>
J2VwaWtfcHl0aG9uJywgJy1waCcsICc3LjAnLCAnLXRuJywgJzgnLCAnLW1hJywgJzIwMCcsICctbWV0YWxfYmluZGluZycsICctaW1hZScsICc8aW5maWxlLm1hZT4nLCAnLW9tYWUnLCAnPG91dGZpbGUubWFlPic=

> <r_lp_tautomer_probability>
1

> <r_epik_Ionization_Penalty>
0.748405

> <r_epik_Ionization_Penalty_Charging>
0.748396

> <r_epik_Ionization_Penalty_Neutral>
8.54426e-06

> <r_epik_State_Penalty>
0.775162

> <r_epik_Charging_Adjusted_Penalty>
1.52356

> <i_epik_Tot_Q>
1

> <i_epik_Tot_abs_Q>
1

> <r_epik_Metal_State_Penalty>
0.775167

> <b_epik_Metal_Only>
0

> <s_lp_Force_Field>
OPLS_2005

> <r_lp_Energy>
22.7015

> <b_lp_Chiralities_Consistent>
1

> <s_lp_Variant>
AV-unprocessed.smi:1433-7

> <Gold.Version>
5.8.1

> <Gold.Id.Protein>
6NUR|6NUR_protein|mol2

> <Gold.PLP.Fitness>
49.3472

> <Gold.PLP.PLP>
-36.3493

> <Gold.PLP.part.hbond>
-4.0000

> <Gold.PLP.part.metal>
0.0000

> <Gold.PLP.part.buried>
-1.0914

> <Gold.PLP.part.nonpolar>
-29.8332

> <Gold.PLP.part.repulsive>
0.2624

> <Gold.PLP.ligand.clash>
0.0000

> <Gold.PLP.ligand.torsion>
0.6475

> <Gold.PLP.Chemscore.Hbond>
3.4500

> <Gold.PLP.Chemscore.CHOScore>
1.2910

> <Gold.PLP.Chemscore.Metal>
0.0000

> <Gold.Chemscore.Hbonds>
donor molecule, donor type, donor heavy atom, donor atom, acceptor molecule, acceptor atom, score
      L1  H     4    45       P1  7948  2.00
      L1  H     8    33       P1  7949  0.40
      P1  H  7989  7998       L1    16  1.00
      L1  C    13    36       P1  7948  0.98
      L1  C    15    38       P1  8028  0.41

> <Gold.PLP.Chemscore.Internal.Correction>
0.0699

> <Gold.Rescore>
     Score         DG    S(hbond)    S(metal)    S(lipo)     H(rot)  DE(clash)    DE(int)     intcor
     14.26     -14.85       1.60        0.00      75.12       1.87       0.08       0.51       ----

> <Gold.Chemscore.Fitness>
14.2610

> <Gold.Chemscore.DG>
-14.8520

> <Gold.Chemscore.ZeroCoef>
-5.4800

> <Gold.Chemscore.Hbond>
1.6046

> <Gold.Chemscore.Metal>
0.0000

> <Gold.Chemscore.Lipo>
75.1166

> <Gold.Chemscore.Internal_Hbond>
0.0000

> <Gold.Chemscore.DEClash>
0.0836

> <Gold.Chemscore.DEInternal>
0.5074

> <Gold.Chemscore.Rot>
1.8657

> <Gold.Chemscore.Internal.Correction>
   9.000000E+99

> <Gold.Chemscore.Hbonds>
donor molecule, donor type, donor heavy atom, donor atom, acceptor molecule, acceptor atom, score
      L1  H     4    45       P1  7948  0.40
      L1  H     8    33       P1  7949  0.01
      P1  H  7989  7998       L1    16  0.20

> <Gold.Chemscore.Hbond.Weighted>
-5.3595

> <Gold.Chemscore.Metal.Weighted>
-0.0000

> <Gold.Chemscore.Lipo.Weighted>
-8.7886

> <Gold.Chemscore.Internal_Hbond.Weighted>
0.0000

> <Gold.Chemscore.DEClash.Weighted>
0.0836

> <Gold.Chemscore.DEInternal.Weighted>
0.5074

> <Gold.Chemscore.Rot.Weighted>
4.7761

> <Gold.Chemscore.Internal.Correction.Weighted>
   9.000000E+99

> <Gold.Protein.RotatedTorsions>
[ 6907 6896 6895 6894 ] final  135.15 input  -60.11 | X-H torsion
[ 7974 7965 7964 7962 ] final   11.08 input  175.53 | X-H torsion
[ 8008 7997 7996 7995 ] final -148.38 input   59.86 | X-H torsion
[ 10167 10162 10161 10158 ] final -101.07 input  -65.29 | X-H torsion
[ 10718 10713 10712 10709 ] final   96.52 input   66.30 | X-H torsion
[ 10763 10752 10751 10750 ] final  178.54 input  -60.55 | X-H torsion
[ 11005 11000 10999 10996 ] final -145.40 input  -57.11 | X-H torsion

> <Gold.Protein.ActiveResidues>
 VAL166  LYS551  ARG553  GLY616  TRP617  ASP618  TYR619  PRO620  LYS621  CYS622 
 ASP623  PHE694  ASN695  SER759  ASP760  ASP761  ALA762  ILE779  LEU786  VAL792 
 PHE793  MET794  SER795  GLU796  ALA797  LYS798  CYS799  TRP800  GLU811  SER814 

> <Gold.Protein.RotatedAtoms>
  152.3035  133.5679  159.5633 H   0  0  0  0  0  0  0  0  0  0  0  0  # atno 6907 bound_to 6896
  150.7289  134.0257  159.3725 H   0  0  0  0  0  0  0  0  0  0  0  0  # atno 6908 bound_to 6896
  151.8155  135.0668  160.0469 H   0  0  0  0  0  0  0  0  0  0  0  0  # atno 6909 bound_to 6896
  146.2377  139.9539  142.8467 H   0  0  0  0  0  0  0  0  0  0  0  0  # atno 7974 bound_to 7965
  155.5908  140.0652  157.2759 H   0  0  0  0  0  0  0  0  0  0  0  0  # atno 8008 bound_to 7997
  154.4306  140.1835  156.1119 H   0  0  0  0  0  0  0  0  0  0  0  0  # atno 8009 bound_to 7997
  156.0234  140.3314  155.7066 H   0  0  0  0  0  0  0  0  0  0  0  0  # atno 8010 bound_to 7997
  140.2452  143.3511  152.0766 H   0  0  0  0  0  0  0  0  0  0  0  0  # atno 10167 bound_to 10162
  157.6926  131.0580  150.4504 H   0  0  0  0  0  0  0  0  0  0  0  0  # atno 10718 bound_to 10713
  154.5090  135.2787  155.1358 H   0  0  0  0  0  0  0  0  0  0  0  0  # atno 10763 bound_to 10752
  154.2961  135.6257  153.5409 H   0  0  0  0  0  0  0  0  0  0  0  0  # atno 10764 bound_to 10752
  152.9915  135.5685  154.5551 H   0  0  0  0  0  0  0  0  0  0  0  0  # atno 10765 bound_to 10752
  140.7926  134.2950  157.5008 H   0  0  0  0  0  0  0  0  0  0  0  0  # atno 11005 bound_to 11000
  145.1835  140.9778  143.4252 LP  0  0  0  0  0  0  0  0  0  0  0  0  # atno 17320 bound_to 7965
  144.9921  139.3680  143.6210 LP  0  0  0  0  0  0  0  0  0  0  0  0  # atno 17321 bound_to 7965
  139.5064  144.6813  151.6001 LP  0  0  0  0  0  0  0  0  0  0  0  0  # atno 17342 bound_to 10162
  140.6083  143.9483  150.6435 LP  0  0  0  0  0  0  0  0  0  0  0  0  # atno 17343 bound_to 10162
  156.4855  130.4083  149.6436 LP  0  0  0  0  0  0  0  0  0  0  0  0  # atno 17370 bound_to 10713
  156.3466  130.7410  151.2363 LP  0  0  0  0  0  0  0  0  0  0  0  0  # atno 17371 bound_to 10713
  139.8729  134.9383  156.3712 LP  0  0  0  0  0  0  0  0  0  0  0  0  # atno 17394 bound_to 11000
  140.9374  133.7538  156.0102 LP  0  0  0  0  0  0  0  0  0  0  0  0  # atno 17395 bound_to 11000

$$$$
