AV-unprocessed.smi:233|AV-procd|sdf|1783|dock5
  -GOLD-   2262020333D 1   1.00000     0.00000
 Structure written by MMmdl.
 59 62  0  0  0  0  0  0  0  0  1 V2000
  137.8564  145.1519  154.7639 C   0  0  0  0  0  0  0  0  0  0  0  0
  139.1468  144.3842  154.4970 C   0  0  0  0  0  0  0  0  0  0  0  0
  140.0575  144.9103  153.8582 O   0  0  0  0  0  0  0  0  0  0  0  0
  139.2093  143.1402  154.9957 N   0  0  0  0  0  0  0  0  0  0  0  0
  140.3409  142.2283  154.8569 C   0  0  2  0  0  0  0  0  0  0  0  0
  139.8449  140.8742  154.3162 C   0  0  0  0  0  0  0  0  0  0  0  0
  140.9873  139.8509  154.2174 C   0  0  0  0  0  0  0  0  0  0  0  0
  141.6909  139.6712  155.5783 C   0  0  1  0  0  0  0  0  0  0  0  0
  142.7455  138.6517  155.5279 N   0  0  0  0  0  0  0  0  0  0  0  0
  144.1465  139.0483  155.6652 C   0  0  0  0  0  0  0  0  0  0  0  0
  142.4910  137.5887  154.7212 C   0  0  0  0  0  0  0  0  0  0  0  0
  141.3175  136.9124  154.8490 N   0  0  0  0  0  0  0  0  0  0  0  0
  141.0564  135.8590  154.0697 C   0  0  0  0  0  0  0  0  0  0  0  0
  141.8154  135.3198  153.1143 N   0  0  0  0  0  0  0  0  0  0  0  0
  142.9924  135.9948  152.9777 C   0  0  0  0  0  0  0  0  0  0  0  0
  143.4042  137.1320  153.7287 C   0  0  0  0  0  0  0  0  0  0  0  0
  144.6502  137.5626  153.2874 N   0  0  0  0  0  0  0  0  0  0  0  0
  144.9579  136.7260  152.3342 C   0  0  0  0  0  0  0  0  0  0  0  0
  144.0313  135.7349  152.1012 N   0  0  0  0  0  0  0  0  0  0  0  0
  144.0942  134.7162  151.0946 C   0  0  0  0  0  0  0  0  0  0  0  0
  143.9022  133.2410  151.4535 C   0  0  0  0  0  0  0  0  0  0  0  0
  144.8828  132.8462  150.3260 C   0  0  0  0  0  0  0  0  0  0  0  0
  145.8796  131.7287  150.6748 C   0  0  0  0  0  0  0  0  0  0  0  0
  146.7881  132.1477  151.6728 O   0  0  0  0  0  0  0  0  0  0  0  0
  144.2278  132.5339  148.9654 C   0  0  0  0  0  0  0  0  0  0  0  0
  142.8719  132.1650  149.1178 O   0  0  0  0  0  0  0  0  0  0  0  0
  145.4275  134.2838  150.4798 C   0  0  0  0  0  0  0  0  0  0  0  0
  142.2055  141.0262  156.1049 C   0  0  0  0  0  0  0  0  0  0  0  0
  141.0620  142.0483  156.2089 C   0  0  0  0  0  0  0  0  0  0  0  0
  136.9918  144.5726  154.4386 H   0  0  0  0  0  0  0  0  0  0  0  0
  137.8521  146.1011  154.2272 H   0  0  0  0  0  0  0  0  0  0  0  0
  137.7525  145.3611  155.8291 H   0  0  0  0  0  0  0  0  0  0  0  0
  138.4109  142.7968  155.5097 H   0  0  0  0  0  0  0  0  0  0  0  0
  141.0467  142.6421  154.1337 H   0  0  0  0  0  0  0  0  0  0  0  0
  139.0648  140.4786  154.9685 H   0  0  0  0  0  0  0  0  0  0  0  0
  139.3881  141.0082  153.3350 H   0  0  0  0  0  0  0  0  0  0  0  0
  140.5904  138.8964  153.8700 H   0  0  0  0  0  0  0  0  0  0  0  0
  141.7021  140.1830  153.4637 H   0  0  0  0  0  0  0  0  0  0  0  0
  140.9263  139.3418  156.2811 H   0  0  0  0  0  0  0  0  0  0  0  0
  144.7859  138.1734  155.7888 H   0  0  0  0  0  0  0  0  0  0  0  0
  144.2952  139.6802  156.5394 H   0  0  0  0  0  0  0  0  0  0  0  0
  144.4851  139.5969  154.7860 H   0  0  0  0  0  0  0  0  0  0  0  0
  140.1035  135.3789  154.2363 H   0  0  0  0  0  0  0  0  0  0  0  0
  145.8785  136.8091  151.7750 H   0  0  0  0  0  0  0  0  0  0  0  0
  143.3904  135.0182  150.3174 H   0  0  0  0  0  0  0  0  0  0  0  0
  144.2786  133.0048  152.4507 H   0  0  0  0  0  0  0  0  0  0  0  0
  142.8813  132.8788  151.3289 H   0  0  0  0  0  0  0  0  0  0  0  0
  145.3579  130.8475  151.0496 H   0  0  0  0  0  0  0  0  0  0  0  0
  146.4404  131.4006  149.7996 H   0  0  0  0  0  0  0  0  0  0  0  0
  147.6333  131.7677  151.4870 H   0  0  0  0  0  0  0  0  0  0  0  0
  144.2630  133.3991  148.3032 H   0  0  0  0  0  0  0  0  0  0  0  0
  144.7531  131.7339  148.4433 H   0  0  0  0  0  0  0  0  0  0  0  0
  142.3672  132.9437  149.2962 H   0  0  0  0  0  0  0  0  0  0  0  0
  145.6759  134.7823  149.5423 H   0  0  0  0  0  0  0  0  0  0  0  0
  146.2559  134.3483  151.1878 H   0  0  0  0  0  0  0  0  0  0  0  0
  142.6693  140.8947  157.0829 H   0  0  0  0  0  0  0  0  0  0  0  0
  142.9749  141.4282  155.4456 H   0  0  0  0  0  0  0  0  0  0  0  0
  141.4583  143.0037  156.5548 H   0  0  0  0  0  0  0  0  0  0  0  0
  140.3500  141.7177  156.9665 H   0  0  0  0  0  0  0  0  0  0  0  0
  1  2  1  0  0  0  0
  1 30  1  0  0  0  0
  1 31  1  0  0  0  0
  1 32  1  0  0  0  0
  2  3  2  0  0  0  0
  2  4  1  0  0  0  0
  4  5  1  0  0  0  0
  4 33  1  0  0  0  0
  5 29  1  0  0  0  0
  5  6  1  0  0  0  0
  5 34  1  0  0  0  0
  6  7  1  0  0  0  0
  6 35  1  0  0  0  0
  6 36  1  0  0  0  0
  7  8  1  0  0  0  0
  7 37  1  0  0  0  0
  7 38  1  0  0  0  0
  8  9  1  0  0  0  0
  8 28  1  0  0  0  0
  8 39  1  0  0  0  0
  9 10  1  0  0  0  0
  9 11  1  0  0  0  0
 10 40  1  0  0  0  0
 10 41  1  0  0  0  0
 10 42  1  0  0  0  0
 11 16  1  0  0  0  0
 11 12  2  0  0  0  0
 12 13  1  0  0  0  0
 13 14  2  0  0  0  0
 13 43  1  0  0  0  0
 14 15  1  0  0  0  0
 15 19  1  0  0  0  0
 15 16  2  0  0  0  0
 16 17  1  0  0  0  0
 17 18  2  0  0  0  0
 18 19  1  0  0  0  0
 18 44  1  0  0  0  0
 19 20  1  0  0  0  0
 20 27  1  0  0  0  0
 20 21  1  0  0  0  0
 20 45  1  0  0  0  0
 21 22  1  0  0  0  0
 21 46  1  0  0  0  0
 21 47  1  0  0  0  0
 22 23  1  0  0  0  0
 22 25  1  0  0  0  0
 22 27  1  0  0  0  0
 23 24  1  0  0  0  0
 23 48  1  0  0  0  0
 23 49  1  0  0  0  0
 24 50  1  0  0  0  0
 25 26  1  0  0  0  0
 25 51  1  0  0  0  0
 25 52  1  0  0  0  0
 26 53  1  0  0  0  0
 27 54  1  0  0  0  0
 27 55  1  0  0  0  0
 28 29  1  0  0  0  0
 28 56  1  0  0  0  0
 28 57  1  0  0  0  0
 29 58  1  0  0  0  0
 29 59  1  0  0  0  0
M  END
> <s_m_source_file>
AV-unprocessed.smi

> <i_m_source_file_index>
233

> <i_lp_mmshare_version>
43012

> <i_f3d_flags>
0

> <s_epik_input>
W0NIM11DKD1PKVtOSF1bQ0BASF0xW0NIMl1bQ0gyXVtDQEhdKFtDSDJdW0NIMl0xKU4oW0NIM10pYyhuW2NIXW4yKWMoYzIzKW5bY0hdbjNbQ0hdKFtDSDJdNClbQ0gyXUM0KFtDSDJdW09IXSlbQ0gyXVtPSF0=

> <s_epik_cmdline>
J2VwaWtfcHl0aG9uJywgJy1waCcsICc3LjAnLCAnLXRuJywgJzgnLCAnLW1hJywgJzIwMCcsICctbWV0YWxfYmluZGluZycsICctaW1hZScsICc8aW5maWxlLm1hZT4nLCAnLW9tYWUnLCAnPG91dGZpbGUubWFlPic=

> <r_lp_tautomer_probability>
1

> <r_epik_Ionization_Penalty>
0.0029036

> <r_epik_Ionization_Penalty_Charging>
0

> <r_epik_Ionization_Penalty_Neutral>
0.0029036

> <r_epik_State_Penalty>
0.00183591

> <r_epik_Charging_Adjusted_Penalty>
0.00183591

> <i_epik_Tot_Q>
0

> <i_epik_Tot_abs_Q>
0

> <r_epik_Metal_State_Penalty>
-0

> <b_epik_Metal_Only>
0

> <s_lp_Force_Field>
OPLS_2005

> <r_lp_Energy>
37.3152

> <b_lp_Chiralities_Consistent>
1

> <s_lp_Variant>
AV-unprocessed.smi:233-1

> <Gold.Version>
5.8.1

> <Gold.Id.Protein>
6NUR|6NUR_protein|mol2

> <Gold.PLP.Fitness>
47.7654

> <Gold.PLP.PLP>
-39.2945

> <Gold.PLP.part.hbond>
-5.0000

> <Gold.PLP.part.metal>
0.0000

> <Gold.PLP.part.buried>
-5.5822

> <Gold.PLP.part.nonpolar>
-30.0551

> <Gold.PLP.part.repulsive>
0.5045

> <Gold.PLP.ligand.clash>
0.0000

> <Gold.PLP.ligand.torsion>
2.6136

> <Gold.PLP.Chemscore.Hbond>
3.7425

> <Gold.PLP.Chemscore.CHOScore>
0.3210

> <Gold.PLP.Chemscore.Metal>
0.0000

> <Gold.Chemscore.Hbonds>
donor molecule, donor type, donor heavy atom, donor atom, acceptor molecule, acceptor atom, score
      L1  H    24    50       P1 10747  1.00
      L1  H    26    53       P1 10186  1.00
      P1  H 10162 10167       L1     3  0.77
      P1  H 10785 10796       L1    26  0.66
      L1  C    13    43       P1 11000  0.27

> <Gold.PLP.Chemscore.Internal.Correction>
1.5076

> <Gold.Rescore>
     Score         DG    S(hbond)    S(metal)    S(lipo)     H(rot)  DE(clash)    DE(int)     intcor
      8.71     -14.14       2.96        0.00      67.58       3.57       0.33       5.09       ----

> <Gold.Chemscore.Fitness>
8.7146

> <Gold.Chemscore.DG>
-14.1392

> <Gold.Chemscore.ZeroCoef>
-5.4800

> <Gold.Chemscore.Hbond>
2.9630

> <Gold.Chemscore.Metal>
0.0000

> <Gold.Chemscore.Lipo>
67.5781

> <Gold.Chemscore.Internal_Hbond>
0.0000

> <Gold.Chemscore.DEClash>
0.3316

> <Gold.Chemscore.DEInternal>
5.0931

> <Gold.Chemscore.Rot>
3.5719

> <Gold.Chemscore.Internal.Correction>
   9.000000E+99

> <Gold.Chemscore.Hbonds>
donor molecule, donor type, donor heavy atom, donor atom, acceptor molecule, acceptor atom, score
      L1  H    24    50       P1 10747  0.91
      L1  H    26    53       P1 10186  0.94
      P1  H 10162 10167       L1     3  0.11
      P1  H 10785 10796       L1    26  0.08

> <Gold.Chemscore.Hbond.Weighted>
-9.8965

> <Gold.Chemscore.Metal.Weighted>
-0.0000

> <Gold.Chemscore.Lipo.Weighted>
-7.9066

> <Gold.Chemscore.Internal_Hbond.Weighted>
0.0000

> <Gold.Chemscore.DEClash.Weighted>
0.3316

> <Gold.Chemscore.DEInternal.Weighted>
5.0931

> <Gold.Chemscore.Rot.Weighted>
9.1440

> <Gold.Chemscore.Internal.Correction.Weighted>
   9.000000E+99

> <Gold.Protein.RotatedTorsions>
[ 6907 6896 6895 6894 ] final   95.59 input  -60.11 | X-H torsion
[ 7974 7965 7964 7962 ] final -117.75 input  175.53 | X-H torsion
[ 8008 7997 7996 7995 ] final  174.01 input   59.86 | X-H torsion
[ 10167 10162 10161 10158 ] final -168.92 input  -65.29 | X-H torsion
[ 10718 10713 10712 10709 ] final  -57.69 input   66.30 | X-H torsion
[ 10763 10752 10751 10750 ] final  -54.60 input  -60.55 | X-H torsion
[ 11005 11000 10999 10996 ] final -101.68 input  -57.11 | X-H torsion

> <Gold.Protein.ActiveResidues>
 VAL166  LYS551  ARG553  GLY616  TRP617  ASP618  TYR619  PRO620  LYS621  CYS622 
 ASP623  PHE694  ASN695  SER759  ASP760  ASP761  ALA762  ILE779  LEU786  VAL792 
 PHE793  MET794  SER795  GLU796  ALA797  LYS798  CYS799  TRP800  GLU811  SER814 

> <Gold.Protein.RotatedAtoms>
  152.5442  134.1016  159.8320 H   0  0  0  0  0  0  0  0  0  0  0  0  # atno 6907 bound_to 6896
  151.1093  133.5177  159.2613 H   0  0  0  0  0  0  0  0  0  0  0  0  # atno 6908 bound_to 6896
  151.1902  135.0408  159.8883 H   0  0  0  0  0  0  0  0  0  0  0  0  # atno 6909 bound_to 6896
  145.0817  140.8430  143.4035 H   0  0  0  0  0  0  0  0  0  0  0  0  # atno 7974 bound_to 7965
  156.1018  140.1445  156.9458 H   0  0  0  0  0  0  0  0  0  0  0  0  # atno 8008 bound_to 7997
  154.4707  140.0911  156.7182 H   0  0  0  0  0  0  0  0  0  0  0  0  # atno 8009 bound_to 7997
  155.4747  140.3443  155.4333 H   0  0  0  0  0  0  0  0  0  0  0  0  # atno 8010 bound_to 7997
  139.5955  144.1121  152.1684 H   0  0  0  0  0  0  0  0  0  0  0  0  # atno 10167 bound_to 10162
  156.1192  130.4167  150.0475 H   0  0  0  0  0  0  0  0  0  0  0  0  # atno 10718 bound_to 10713
  154.1774  135.6449  153.5025 H   0  0  0  0  0  0  0  0  0  0  0  0  # atno 10763 bound_to 10752
  153.0068  135.5398  154.6550 H   0  0  0  0  0  0  0  0  0  0  0  0  # atno 10764 bound_to 10752
  154.5905  135.2934  155.0612 H   0  0  0  0  0  0  0  0  0  0  0  0  # atno 10765 bound_to 10752
  141.1221  133.8497  157.1263 H   0  0  0  0  0  0  0  0  0  0  0  0  # atno 11005 bound_to 11000
  145.1170  139.2718  143.5608 LP  0  0  0  0  0  0  0  0  0  0  0  0  # atno 17320 bound_to 7965
  146.3531  140.0783  142.8619 LP  0  0  0  0  0  0  0  0  0  0  0  0  # atno 17321 bound_to 7965
  140.0705  144.5783  150.7195 LP  0  0  0  0  0  0  0  0  0  0  0  0  # atno 17342 bound_to 10162
  140.7208  143.2587  151.4284 LP  0  0  0  0  0  0  0  0  0  0  0  0  # atno 17343 bound_to 10162
  156.8417  130.9428  151.3631 LP  0  0  0  0  0  0  0  0  0  0  0  0  # atno 17370 bound_to 10713
  157.6375  130.8779  149.9386 LP  0  0  0  0  0  0  0  0  0  0  0  0  # atno 17371 bound_to 10713
  140.0186  134.9956  157.0546 LP  0  0  0  0  0  0  0  0  0  0  0  0  # atno 17394 bound_to 11000
  140.4477  134.1615  155.7179 LP  0  0  0  0  0  0  0  0  0  0  0  0  # atno 17395 bound_to 11000

$$$$
