AV-unprocessed.smi:670|AV-procd|sdf|3271|dock9
  -GOLD-   22720 0233D 1   1.00000     0.00000
 Structure written by MMmdl.
 45 46  0  0  0  0  0  0  0  0  1 V2000
  151.5916  137.8048  154.6216 C   0  0  0  0  0  0  0  0  0  0  0  0
  151.0885  139.2077  154.9957 C   0  0  2  0  0  0  0  0  0  0  0  0
  150.9445  139.3811  156.5211 C   0  0  0  0  0  0  0  0  0  0  0  0
  150.4712  140.7990  156.8813 C   0  0  0  0  0  0  0  0  0  0  0  0
  149.1617  141.1547  156.1593 C   0  0  0  0  0  0  0  0  0  0  0  0
  149.2923  140.9743  154.6369 C   0  0  0  0  0  0  0  0  0  0  0  0
  149.7688  139.5549  154.2730 C   0  0  2  0  0  0  0  0  0  0  0  0
  148.7840  138.6156  154.6802 O   0  0  0  0  0  0  0  0  0  0  0  0
  147.5396  138.7208  154.0099 C   0  0  0  0  0  0  0  0  0  0  0  0
  146.8142  137.3708  154.1047 C   0  0  0  0  0  0  0  0  0  0  0  0
  146.6246  136.7778  152.7840 N   0  0  0  0  0  0  0  0  0  0  0  0
  145.4739  136.2540  152.3322 C   0  0  0  0  0  0  0  0  0  0  0  0
  144.4293  136.2585  152.9859 O   0  0  0  0  0  0  0  0  0  0  0  0
  145.5274  135.6331  150.9280 C   0  0  0  0  0  0  0  0  0  0  0  0
  145.3355  134.1750  150.9180 N   0  0  0  0  0  0  0  0  0  0  0  0
  144.3053  133.7485  150.0934 N   0  0  0  0  0  0  0  0  0  0  0  0
  144.0242  132.4923  150.0092 C   0  0  0  0  0  0  0  0  0  0  0  0
  142.9951  132.1137  149.1823 O   0  0  0  0  0  0  0  0  0  0  0  0
  144.7691  131.5063  150.7613 C   0  0  0  0  0  0  0  0  0  0  0  0
  145.7741  131.9306  151.5582 C   0  0  0  0  0  0  0  0  0  0  0  0
  146.1204  133.3482  151.6758 C   0  0  0  0  0  0  0  0  0  0  0  0
  147.0331  133.7600  152.3908 O   0  0  0  0  0  0  0  0  0  0  0  0
  142.4267  132.8662  149.1268 H   0  0  0  0  0  0  0  0  0  0  0  0
  150.8792  137.0343  154.9162 H   0  0  0  0  0  0  0  0  0  0  0  0
  152.5406  137.5835  155.1105 H   0  0  0  0  0  0  0  0  0  0  0  0
  151.7461  137.7174  153.5460 H   0  0  0  0  0  0  0  0  0  0  0  0
  151.8454  139.9163  154.6562 H   0  0  0  0  0  0  0  0  0  0  0  0
  150.2382  138.6479  156.9141 H   0  0  0  0  0  0  0  0  0  0  0  0
  151.8977  139.1798  157.0109 H   0  0  0  0  0  0  0  0  0  0  0  0
  150.3354  140.8819  157.9600 H   0  0  0  0  0  0  0  0  0  0  0  0
  151.2432  141.5205  156.6111 H   0  0  0  0  0  0  0  0  0  0  0  0
  148.3559  140.5225  156.5348 H   0  0  0  0  0  0  0  0  0  0  0  0
  148.8782  142.1822  156.3886 H   0  0  0  0  0  0  0  0  0  0  0  0
  148.3393  141.1910  154.1540 H   0  0  0  0  0  0  0  0  0  0  0  0
  150.0036  141.7038  154.2474 H   0  0  0  0  0  0  0  0  0  0  0  0
  149.9364  139.4908  153.1960 H   0  0  0  0  0  0  0  0  0  0  0  0
  146.9312  139.5032  154.4647 H   0  0  0  0  0  0  0  0  0  0  0  0
  147.6978  138.9908  152.9646 H   0  0  0  0  0  0  0  0  0  0  0  0
  147.3587  136.6925  154.7637 H   0  0  0  0  0  0  0  0  0  0  0  0
  145.8321  137.5144  154.5553 H   0  0  0  0  0  0  0  0  0  0  0  0
  147.4340  136.7360  152.1821 H   0  0  0  0  0  0  0  0  0  0  0  0
  144.7635  136.1133  150.3137 H   0  0  0  0  0  0  0  0  0  0  0  0
  146.4807  135.8904  150.4625 H   0  0  0  0  0  0  0  0  0  0  0  0
  144.5221  130.4581  150.6814 H   0  0  0  0  0  0  0  0  0  0  0  0
  146.3391  131.2057  152.1257 H   0  0  0  0  0  0  0  0  0  0  0  0
  1  2  1  0  0  0  0
  1 24  1  0  0  0  0
  1 25  1  0  0  0  0
  1 26  1  0  0  0  0
  2  7  1  0  0  0  0
  2  3  1  0  0  0  0
  2 27  1  0  0  0  0
  3  4  1  0  0  0  0
  3 28  1  0  0  0  0
  3 29  1  0  0  0  0
  4  5  1  0  0  0  0
  4 30  1  0  0  0  0
  4 31  1  0  0  0  0
  5  6  1  0  0  0  0
  5 32  1  0  0  0  0
  5 33  1  0  0  0  0
  6  7  1  0  0  0  0
  6 34  1  0  0  0  0
  6 35  1  0  0  0  0
  7  8  1  0  0  0  0
  7 36  1  0  0  0  0
  8  9  1  0  0  0  0
  9 10  1  0  0  0  0
  9 37  1  0  0  0  0
  9 38  1  0  0  0  0
 10 11  1  0  0  0  0
 10 39  1  0  0  0  0
 10 40  1  0  0  0  0
 11 12  1  0  0  0  0
 11 41  1  0  0  0  0
 12 13  2  0  0  0  0
 12 14  1  0  0  0  0
 14 42  1  0  0  0  0
 14 43  1  0  0  0  0
 14 15  1  0  0  0  0
 15 16  1  0  0  0  0
 15 21  1  0  0  0  0
 16 17  2  0  0  0  0
 17 18  1  0  0  0  0
 17 19  1  0  0  0  0
 18 23  1  0  0  0  0
 19 44  1  0  0  0  0
 19 20  2  0  0  0  0
 20 45  1  0  0  0  0
 20 21  1  0  0  0  0
 21 22  2  0  0  0  0
M  END
> <s_m_source_file>
AV-unprocessed.smi

> <i_m_source_file_index>
670

> <i_lp_mmshare_version>
43012

> <i_f3d_flags>
0

> <s_epik_input>
W0NIM11bQ0BASF0xW0NIMl1bQ0gyXVtDSDJdW0NIMl1bQ0BIXTFPW0NIMl1bQ0gyXVtOSF1DKD1PKVtDSDJdbjJbbkhdYyg9TylbY0hdW2NIXWMyPU8=

> <s_epik_cmdline>
J2VwaWtfcHl0aG9uJywgJy1waCcsICc3LjAnLCAnLXRuJywgJzgnLCAnLW1hJywgJzIwMCcsICctbWV0YWxfYmluZGluZycsICctaW1hZScsICc8aW5maWxlLm1hZT4nLCAnLW9tYWUnLCAnPG91dGZpbGUubWFlPic=

> <r_lp_tautomer_probability>
0.9996

> <r_epik_Ionization_Penalty>
2.12726

> <r_epik_Ionization_Penalty_Charging>
3.83395e-08

> <r_epik_Ionization_Penalty_Neutral>
2.12726

> <r_epik_State_Penalty>
1.70432

> <r_epik_Charging_Adjusted_Penalty>
1.70432

> <i_epik_Tot_Q>
0

> <i_epik_Tot_abs_Q>
0

> <r_epik_Metal_State_Penalty>
1.70432

> <b_epik_Metal_Only>
0

> <s_lp_Force_Field>
OPLS_2005

> <r_lp_Energy>
20.0493

> <b_lp_Chiralities_Consistent>
1

> <s_lp_Variant>
AV-unprocessed.smi:670-7

> <Gold.Version>
5.8.1

> <Gold.Id.Protein>
6NUR|6NUR_protein|mol2

> <Gold.PLP.Fitness>
47.7602

> <Gold.PLP.PLP>
-40.4065

> <Gold.PLP.part.hbond>
-3.9543

> <Gold.PLP.part.metal>
0.0000

> <Gold.PLP.part.buried>
-5.2297

> <Gold.PLP.part.nonpolar>
-32.7584

> <Gold.PLP.part.repulsive>
0.7414

> <Gold.PLP.ligand.clash>
0.0000

> <Gold.PLP.ligand.torsion>
0.6465

> <Gold.PLP.Chemscore.Hbond>
2.8610

> <Gold.PLP.Chemscore.CHOScore>
0.0000

> <Gold.PLP.Chemscore.Metal>
0.0000

> <Gold.Chemscore.Hbonds>
donor molecule, donor type, donor heavy atom, donor atom, acceptor molecule, acceptor atom, score
      L1  H    11    41       P1  7948  1.00
      L1  H    18    23       P1 10186  0.73
      P1  H 10785 10796       L1    18  1.00

> <Gold.PLP.Chemscore.Internal.Correction>
0.0637

> <Gold.Rescore>
     Score         DG    S(hbond)    S(metal)    S(lipo)     H(rot)  DE(clash)    DE(int)     intcor
     12.61     -14.52       2.33        0.00      78.48       3.09       0.18       1.74       ----

> <Gold.Chemscore.Fitness>
12.6059

> <Gold.Chemscore.DG>
-14.5196

> <Gold.Chemscore.ZeroCoef>
-5.4800

> <Gold.Chemscore.Hbond>
2.3256

> <Gold.Chemscore.Metal>
0.0000

> <Gold.Chemscore.Lipo>
78.4835

> <Gold.Chemscore.Internal_Hbond>
0.0000

> <Gold.Chemscore.DEClash>
0.1777

> <Gold.Chemscore.DEInternal>
1.7360

> <Gold.Chemscore.Rot>
3.0901

> <Gold.Chemscore.Internal.Correction>
   9.000000E+99

> <Gold.Chemscore.Hbonds>
donor molecule, donor type, donor heavy atom, donor atom, acceptor molecule, acceptor atom, score
      L1  H    11    41       P1  7948  0.95
      L1  H    18    23       P1 10186  0.73
      P1  H 10785 10796       L1    18  0.65

> <Gold.Chemscore.Hbond.Weighted>
-7.7676

> <Gold.Chemscore.Metal.Weighted>
-0.0000

> <Gold.Chemscore.Lipo.Weighted>
-9.1826

> <Gold.Chemscore.Internal_Hbond.Weighted>
0.0000

> <Gold.Chemscore.DEClash.Weighted>
0.1777

> <Gold.Chemscore.DEInternal.Weighted>
1.7360

> <Gold.Chemscore.Rot.Weighted>
7.9106

> <Gold.Chemscore.Internal.Correction.Weighted>
   9.000000E+99

> <Gold.Protein.RotatedTorsions>
[ 6907 6896 6895 6894 ] final  171.32 input  -60.11 | X-H torsion
[ 7974 7965 7964 7962 ] final -148.67 input  175.53 | X-H torsion
[ 8008 7997 7996 7995 ] final  -36.00 input   59.86 | X-H torsion
[ 10167 10162 10161 10158 ] final -107.64 input  -65.29 | X-H torsion
[ 10718 10713 10712 10709 ] final  118.37 input   66.30 | X-H torsion
[ 10763 10752 10751 10750 ] final  -23.42 input  -60.55 | X-H torsion
[ 11005 11000 10999 10996 ] final  145.34 input  -57.11 | X-H torsion

> <Gold.Protein.ActiveResidues>
 VAL166  LYS551  ARG553  GLY616  TRP617  ASP618  TYR619  PRO620  LYS621  CYS622 
 ASP623  PHE694  ASN695  SER759  ASP760  ASP761  ALA762  ILE779  LEU786  VAL792 
 PHE793  MET794  SER795  GLU796  ALA797  LYS798  CYS799  TRP800  GLU811  SER814 

> <Gold.Protein.RotatedAtoms>
  151.8021  133.3371  159.3529 H   0  0  0  0  0  0  0  0  0  0  0  0  # atno 6907 bound_to 6896
  150.7355  134.5744  159.5916 H   0  0  0  0  0  0  0  0  0  0  0  0  # atno 6908 bound_to 6896
  152.3136  134.7469  160.0382 H   0  0  0  0  0  0  0  0  0  0  0  0  # atno 6909 bound_to 6896
  144.8015  140.5166  143.5704 H   0  0  0  0  0  0  0  0  0  0  0  0  # atno 7974 bound_to 7965
  154.4082  140.1642  156.2304 H   0  0  0  0  0  0  0  0  0  0  0  0  # atno 8008 bound_to 7997
  155.9288  140.3416  155.6209 H   0  0  0  0  0  0  0  0  0  0  0  0  # atno 8009 bound_to 7997
  155.7132  140.0759  157.2353 H   0  0  0  0  0  0  0  0  0  0  0  0  # atno 8010 bound_to 7997
  140.1748  143.4014  152.1327 H   0  0  0  0  0  0  0  0  0  0  0  0  # atno 10167 bound_to 10162
  157.6035  131.1047  150.7746 H   0  0  0  0  0  0  0  0  0  0  0  0  # atno 10718 bound_to 10713
  153.6676  135.6973  153.5157 H   0  0  0  0  0  0  0  0  0  0  0  0  # atno 10763 bound_to 10752
  153.2583  135.4253  155.0867 H   0  0  0  0  0  0  0  0  0  0  0  0  # atno 10764 bound_to 10752
  154.8435  135.3548  154.6221 H   0  0  0  0  0  0  0  0  0  0  0  0  # atno 10765 bound_to 10752
  140.0704  134.9155  157.1335 H   0  0  0  0  0  0  0  0  0  0  0  0  # atno 11005 bound_to 11000
  145.5542  139.1477  143.3377 LP  0  0  0  0  0  0  0  0  0  0  0  0  # atno 17320 bound_to 7965
  146.2297  140.5679  142.8980 LP  0  0  0  0  0  0  0  0  0  0  0  0  # atno 17321 bound_to 7965
  139.5322  144.7171  151.5016 LP  0  0  0  0  0  0  0  0  0  0  0  0  # atno 17342 bound_to 10162
  140.6559  143.8601  150.6834 LP  0  0  0  0  0  0  0  0  0  0  0  0  # atno 17343 bound_to 10162
  156.8140  130.4962  149.5352 LP  0  0  0  0  0  0  0  0  0  0  0  0  # atno 17370 bound_to 10713
  156.1114  130.6043  151.0053 LP  0  0  0  0  0  0  0  0  0  0  0  0  # atno 17371 bound_to 10713
  140.3636  134.2467  155.7184 LP  0  0  0  0  0  0  0  0  0  0  0  0  # atno 17394 bound_to 11000
  141.2009  133.7975  157.0465 LP  0  0  0  0  0  0  0  0  0  0  0  0  # atno 17395 bound_to 11000

$$$$
