AV-unprocessed.smi:634|AV-procd|sdf|3138|dock2
  -GOLD-   22720 0 63D 1   1.00000     0.00000
 Structure written by MMmdl.
 32 33  0  0  0  0  0  0  0  0  2 V2000
  151.8861  145.5908  160.0312 C   0  0  0  0  0  0  0  0  0  0  0  0
  151.8051  144.3531  159.2053 C   0  0  0  0  0  0  0  0  0  0  0  0
  151.1949  144.0667  158.0168 C   0  0  0  0  0  0  0  0  0  0  0  0
  151.5199  142.6995  157.8099 C   0  0  0  0  0  0  0  0  0  0  0  0
  151.0555  142.0122  156.6576 N   0  0  0  0  0  0  0  0  0  0  0  0
  151.4436  140.8183  156.1746 C   0  0  0  0  0  0  0  0  0  0  0  0
  152.3412  140.1796  156.7340 O   0  0  0  0  0  0  0  0  0  0  0  0
  150.7434  140.4626  155.0606 N   0  5  0  0  0  0  0  0  0  0  0  0
  149.2812  140.3471  154.9093 C   0  0  2  0  0  0  0  0  0  0  0  0
  149.0150  139.0057  154.1945 C   0  0  0  0  0  0  0  0  0  0  0  0
  148.6905  141.5087  154.0639 C   0  0  0  0  0  0  0  0  0  0  0  0
  147.1639  141.5442  154.2393 C   0  0  0  0  0  0  0  0  0  0  0  0
  146.8330  140.9119  155.9300 S   0  0  0  0  0  0  0  0  0  0  0  0
  146.4954  142.0353  156.8179 O   0  0  0  0  0  0  0  0  0  0  0  0
  145.9503  139.7380  155.8359 O   0  0  0  0  0  0  0  0  0  0  0  0
  148.5536  140.3669  156.2738 C   0  0  0  0  0  0  0  0  0  0  0  0
  152.2645  142.1983  158.7847 N   0  0  0  0  0  0  0  0  0  0  0  0
  152.4513  143.2552  159.6832 O   0  0  0  0  0  0  0  0  0  0  0  0
  151.1548  146.3282  159.7001 H   0  0  0  0  0  0  0  0  0  0  0  0
  152.8769  146.0393  159.9573 H   0  0  0  0  0  0  0  0  0  0  0  0
  151.6908  145.3702  161.0806 H   0  0  0  0  0  0  0  0  0  0  0  0
  150.6084  144.7287  157.3971 H   0  0  0  0  0  0  0  0  0  0  0  0
  150.3231  142.4739  156.1394 H   0  0  0  0  0  0  0  0  0  0  0  0
  147.9503  138.8215  154.0516 H   0  0  0  0  0  0  0  0  0  0  0  0
  149.4120  138.1654  154.7656 H   0  0  0  0  0  0  0  0  0  0  0  0
  149.4827  138.9804  153.2093 H   0  0  0  0  0  0  0  0  0  0  0  0
  149.0758  142.4666  154.4119 H   0  0  0  0  0  0  0  0  0  0  0  0
  148.9676  141.4327  153.0118 H   0  0  0  0  0  0  0  0  0  0  0  0
  146.7537  142.5480  154.1294 H   0  0  0  0  0  0  0  0  0  0  0  0
  146.6649  140.8888  153.5245 H   0  0  0  0  0  0  0  0  0  0  0  0
  148.5469  139.3984  156.7738 H   0  0  0  0  0  0  0  0  0  0  0  0
  148.9825  141.0940  156.9623 H   0  0  0  0  0  0  0  0  0  0  0  0
  1  2  1  0  0  0  0
  1 19  1  0  0  0  0
  1 20  1  0  0  0  0
  1 21  1  0  0  0  0
  2 18  1  0  0  0  0
  2  3  2  0  0  0  0
  3  4  1  0  0  0  0
  3 22  1  0  0  0  0
  4  5  1  0  0  0  0
  4 17  2  0  0  0  0
  5  6  1  0  0  0  0
  5 23  1  0  0  0  0
  6  7  2  0  0  0  0
  6  8  1  0  0  0  0
  8  9  1  0  0  0  0
  9 16  1  0  0  0  0
  9 10  1  0  0  0  0
  9 11  1  0  0  0  0
 10 24  1  0  0  0  0
 10 25  1  0  0  0  0
 10 26  1  0  0  0  0
 11 12  1  0  0  0  0
 11 27  1  0  0  0  0
 11 28  1  0  0  0  0
 12 13  1  0  0  0  0
 12 29  1  0  0  0  0
 12 30  1  0  0  0  0
 13 14  2  0  0  0  0
 13 15  2  0  0  0  0
 13 16  1  0  0  0  0
 16 31  1  0  0  0  0
 16 32  1  0  0  0  0
 17 18  1  0  0  0  0
M  CHG  1   8  -1
M  END
> <s_m_source_file>
AV-unprocessed.smi

> <i_m_source_file_index>
634

> <i_lp_mmshare_version>
43012

> <i_f3d_flags>
0

> <s_epik_input>
W0NIM11jMVtjSF1jKG5vMSlbTkhdQyg9TylbTkhdW0NAQF0yKFtDSDNdKVtDSDJdW0NIMl1TKD1PKSg9TylbQ0gyXTI=

> <s_epik_cmdline>
J2VwaWtfcHl0aG9uJywgJy1waCcsICc3LjAnLCAnLXRuJywgJzgnLCAnLW1hJywgJzIwMCcsICctbWV0YWxfYmluZGluZycsICctaW1hZScsICc8aW5maWxlLm1hZT4nLCAnLW9tYWUnLCAnPG91dGZpbGUubWFlPic=

> <r_lp_tautomer_probability>
1

> <r_epik_Ionization_Penalty>
6.62388

> <r_epik_Ionization_Penalty_Charging>
6.62387

> <r_epik_Ionization_Penalty_Neutral>
5.45748e-06

> <r_epik_State_Penalty>
6.65157

> <r_epik_Charging_Adjusted_Penalty>
13.2754

> <i_epik_Tot_Q>
-1

> <i_epik_Tot_abs_Q>
1

> <r_epik_Metal_State_Penalty>
2.59195

> <b_epik_Metal_Only>
1

> <s_lp_Force_Field>
OPLS_2005

> <r_lp_Energy>
8.10378

> <b_lp_Chiralities_Consistent>
1

> <s_lp_Variant>
AV-unprocessed.smi:634-6

> <Gold.Version>
5.8.1

> <Gold.Id.Protein>
6NUR|6NUR_protein|mol2

> <Gold.PLP.Fitness>
35.7567

> <Gold.PLP.PLP>
-31.2973

> <Gold.PLP.part.hbond>
-2.0000

> <Gold.PLP.part.metal>
0.0000

> <Gold.PLP.part.buried>
-3.7136

> <Gold.PLP.part.nonpolar>
-25.5202

> <Gold.PLP.part.repulsive>
0.3056

> <Gold.PLP.ligand.clash>
0.0000

> <Gold.PLP.ligand.torsion>
0.7763

> <Gold.PLP.Chemscore.Hbond>
2.0000

> <Gold.PLP.Chemscore.CHOScore>
0.0000

> <Gold.PLP.Chemscore.Metal>
0.0000

> <Gold.Chemscore.Hbonds>
donor molecule, donor type, donor heavy atom, donor atom, acceptor molecule, acceptor atom, score
      P1  H  7989  7998       L1     8  1.00
      P1  H  7997  8009       L1     7  1.00

> <Gold.PLP.Chemscore.Internal.Correction>
0.0121

> <Gold.Rescore>
     Score         DG    S(hbond)    S(metal)    S(lipo)     H(rot)  DE(clash)    DE(int)     intcor
     14.27     -16.38       1.76        0.00      64.93       1.00       0.01       2.11       ----

> <Gold.Chemscore.Fitness>
14.2655

> <Gold.Chemscore.DG>
-16.3792

> <Gold.Chemscore.ZeroCoef>
-5.4800

> <Gold.Chemscore.Hbond>
1.7553

> <Gold.Chemscore.Metal>
0.0000

> <Gold.Chemscore.Lipo>
64.9280

> <Gold.Chemscore.Internal_Hbond>
0.0000

> <Gold.Chemscore.DEClash>
0.0059

> <Gold.Chemscore.DEInternal>
2.1078

> <Gold.Chemscore.Rot>
1.0000

> <Gold.Chemscore.Internal.Correction>
   9.000000E+99

> <Gold.Chemscore.Hbonds>
donor molecule, donor type, donor heavy atom, donor atom, acceptor molecule, acceptor atom, score
      P1  H  7989  7998       L1     8  0.70
      P1  H  7997  8009       L1     7  0.90

> <Gold.Chemscore.Hbond.Weighted>
-5.8626

> <Gold.Chemscore.Metal.Weighted>
-0.0000

> <Gold.Chemscore.Lipo.Weighted>
-7.5966

> <Gold.Chemscore.Internal_Hbond.Weighted>
0.0000

> <Gold.Chemscore.DEClash.Weighted>
0.0059

> <Gold.Chemscore.DEInternal.Weighted>
2.1078

> <Gold.Chemscore.Rot.Weighted>
2.5600

> <Gold.Chemscore.Internal.Correction.Weighted>
   9.000000E+99

> <Gold.Protein.RotatedTorsions>
[ 6907 6896 6895 6894 ] final  115.16 input  -60.11 | X-H torsion
[ 7974 7965 7964 7962 ] final   64.98 input  175.53 | X-H torsion
[ 8008 7997 7996 7995 ] final -162.18 input   59.86 | X-H torsion
[ 10167 10162 10161 10158 ] final  104.78 input  -65.29 | X-H torsion
[ 10718 10713 10712 10709 ] final  -88.13 input   66.30 | X-H torsion
[ 10763 10752 10751 10750 ] final  149.24 input  -60.55 | X-H torsion
[ 11005 11000 10999 10996 ] final  -15.10 input  -57.11 | X-H torsion

> <Gold.Protein.ActiveResidues>
 VAL166  LYS551  ARG553  GLY616  TRP617  ASP618  TYR619  PRO620  LYS621  CYS622 
 ASP623  PHE694  ASN695  SER759  ASP760  ASP761  ALA762  ILE779  LEU786  VAL792 
 PHE793  MET794  SER795  GLU796  ALA797  LYS798  CYS799  TRP800  GLU811  SER814 

> <Gold.Protein.RotatedAtoms>
  152.4759  133.8136  159.7016 H   0  0  0  0  0  0  0  0  0  0  0  0  # atno 6907 bound_to 6896
  150.8775  133.7409  159.2948 H   0  0  0  0  0  0  0  0  0  0  0  0  # atno 6908 bound_to 6896
  151.4924  135.1061  159.9859 H   0  0  0  0  0  0  0  0  0  0  0  0  # atno 6909 bound_to 6896
  145.8438  139.3212  143.0915 H   0  0  0  0  0  0  0  0  0  0  0  0  # atno 7974 bound_to 7965
  155.8030  140.0894  157.1946 H   0  0  0  0  0  0  0  0  0  0  0  0  # atno 8008 bound_to 7997
  154.3981  140.1469  156.3356 H   0  0  0  0  0  0  0  0  0  0  0  0  # atno 8009 bound_to 7997
  155.8443  140.3437  155.5654 H   0  0  0  0  0  0  0  0  0  0  0  0  # atno 8010 bound_to 7997
  139.7148  144.7070  151.0968 H   0  0  0  0  0  0  0  0  0  0  0  0  # atno 10167 bound_to 10162
  155.9984  130.4824  150.4972 H   0  0  0  0  0  0  0  0  0  0  0  0  # atno 10718 bound_to 10713
  154.0680  135.2869  155.3313 H   0  0  0  0  0  0  0  0  0  0  0  0  # atno 10763 bound_to 10752
  154.6765  135.5279  153.8210 H   0  0  0  0  0  0  0  0  0  0  0  0  # atno 10764 bound_to 10752
  153.0496  135.6571  154.0863 H   0  0  0  0  0  0  0  0  0  0  0  0  # atno 10765 bound_to 10752
  140.7931  133.8272  155.9399 H   0  0  0  0  0  0  0  0  0  0  0  0  # atno 11005 bound_to 11000
  145.9435  140.8962  143.0296 LP  0  0  0  0  0  0  0  0  0  0  0  0  # atno 17320 bound_to 7965
  144.6732  140.1581  143.7424 LP  0  0  0  0  0  0  0  0  0  0  0  0  # atno 17321 bound_to 7965
  140.7741  143.5245  150.9497 LP  0  0  0  0  0  0  0  0  0  0  0  0  # atno 17342 bound_to 10162
  139.8930  143.6929  152.3142 LP  0  0  0  0  0  0  0  0  0  0  0  0  # atno 17343 bound_to 10162
  157.2960  131.0636  151.2101 LP  0  0  0  0  0  0  0  0  0  0  0  0  # atno 17370 bound_to 10713
  157.3097  130.6883  149.6209 LP  0  0  0  0  0  0  0  0  0  0  0  0  # atno 17371 bound_to 10713
  140.9369  134.1950  157.4825 LP  0  0  0  0  0  0  0  0  0  0  0  0  # atno 17394 bound_to 11000
  139.8729  134.9856  156.5288 LP  0  0  0  0  0  0  0  0  0  0  0  0  # atno 17395 bound_to 11000

$$$$
