#       Name:                AV-unprocessed.smi:40
#       Creating user name   scv26
#       Creation time:       Thu Mar 26 16:22:34 2020


#       File generated by GOLD software.
#

@<TRIPOS>MOLECULE
AV-unprocessed.smi:40
    58    59     1
SMALL
NO_CHARGES


@<TRIPOS>ATOM
      1 ****        -2.1910   1.1120   2.9086 C.3            1 S1                 0.0000
      2 ****        -3.2208   0.7119   1.8459 C.3            1 S1                 0.0000
      3 ****        -3.0073  -0.7176   1.3299 C.3            1 S1                 0.0000
      4 ****        -3.9913  -1.1003   0.2114 C.3            1 S1                 0.0000
      5 ****        -3.7447  -2.5068  -0.3530 C.3            1 S1                 0.0000
      6 ****        -2.4604  -2.5407  -0.9509 O.3            1 S1                 0.0000
      7 ****        -2.0250  -3.6372  -1.5969 C.2            1 S1                 0.0000
      8 ****        -2.7133  -4.6363  -1.8023 O.2            1 S1                 0.0000
      9 ****        -0.6537  -3.4696  -2.0497 N.am           1 S1                 0.0000
     10 ****         0.1155  -4.3535  -2.7309 C.2            1 S1                 0.0000
     11 ****        -0.3968  -5.1883  -3.6198 N.2            1 S1                 0.0000
     12 ****         0.3334  -6.0972  -4.3344 C.2            1 S1                 0.0000
     13 ****        -0.2365  -6.8509  -5.1183 O.2            1 S1                 0.0000
     14 ****         1.7386  -6.1126  -4.1319 N.am           1 S1                 0.0000
     15 ****         2.6524  -7.1302  -4.7996 C.3            1 S1                 0.0000
     16 ****         2.4503  -8.3786  -4.2121 O.3            1 S1                 0.0000
     17 ****         1.7114  -9.2364  -5.0697 C.3            1 S1                 0.0000
     18 ****         2.1448 -10.6886  -4.8389 C.3            1 S1                 0.0000
     19 ****         1.9849  -8.7277  -6.4935 C.3            1 S1                 0.0000
     20 ****         0.7959  -8.7802  -7.2559 O.3            1 S1                 0.0000
     21 ****         2.4530  -7.2783  -6.3228 C.3            1 S1                 0.0000
     22 ****         3.6719  -7.0875  -7.0132 O.3            1 S1                 0.0000
     23 ****         2.2917  -5.2355  -3.2081 C.2            1 S1                 0.0000
     24 ****         1.5437  -4.3544  -2.5092 C.2            1 S1                 0.0000
     25 ****         2.1133  -3.5148  -1.6271 F              1 S1                 0.0000
     26 ****         3.6628  -6.7995  -4.5562 H              1 S1                 0.0000
     27 ****         0.6565  -9.1433  -4.8132 H              1 S1                 0.0000
     28 ****         2.7529  -9.3349  -6.9758 H              1 S1                 0.0000
     29 ****         1.7383  -6.5454  -6.6975 H              1 S1                 0.0000
     30 ****        -2.3670   2.1307   3.2548 H              1 S1                 0.0000
     31 ****        -1.1767   1.0671   2.5101 H              1 S1                 0.0000
     32 ****        -2.2410   0.4520   3.7751 H              1 S1                 0.0000
     33 ****        -4.2253   0.8069   2.2596 H              1 S1                 0.0000
     34 ****        -3.1615   1.4134   1.0129 H              1 S1                 0.0000
     35 ****        -1.9847  -0.8073   0.9641 H              1 S1                 0.0000
     36 ****        -3.1001  -1.4238   2.1558 H              1 S1                 0.0000
     37 ****        -5.0106  -1.0450   0.5947 H              1 S1                 0.0000
     38 ****        -3.9289  -0.3727  -0.5986 H              1 S1                 0.0000
     39 ****        -3.8074  -3.2543   0.4388 H              1 S1                 0.0000
     40 ****        -4.5055  -2.7481  -1.0967 H              1 S1                 0.0000
     41 ****        -0.2361  -2.5849  -1.8007 H              1 S1                 0.0000
     42 ****         1.5991 -11.3672  -5.4949 H              1 S1                 0.0000
     43 ****         1.9520 -10.9933  -3.8101 H              1 S1                 0.0000
     44 ****         3.2100 -10.8193  -5.0313 H              1 S1                 0.0000
     45 ****         0.1414  -8.2514  -6.8238 H              1 S1                 0.0000
     46 ****         4.2950  -7.7265  -6.7030 H              1 S1                 0.0000
     47 ****         3.3569  -5.2425  -3.0268 H              1 S1                 0.0000
     48 ****        -3.6599  -4.6660  -1.4813 LP             1 S1                 0.0000
     49 ****        -2.3260  -5.4186  -2.2903 LP             1 S1                 0.0000
     50 ****        -1.3832  -5.1524  -3.7798 LP             1 S1                 0.0000
     51 ****        -1.2287  -6.7978  -5.2311 LP             1 S1                 0.0000
     52 ****         0.2914  -7.5179  -5.6440 LP             1 S1                 0.0000
     53 ****         1.9458  -8.2589  -3.3571 LP             1 S1                 0.0000
     54 ****         3.3383  -8.7961  -4.0195 LP             1 S1                 0.0000
     55 ****         0.4774  -9.7259  -7.3205 LP             1 S1                 0.0000
     56 ****         0.9670  -8.4227  -8.1739 LP             1 S1                 0.0000
     57 ****         4.0182  -6.1658  -6.8380 LP             1 S1                 0.0000
     58 ****         3.5260  -7.2076  -7.9952 LP             1 S1                 0.0000
@<TRIPOS>BOND
    1    1    2 1     
    2    1   30 1     
    3    1   31 1     
    4    1   32 1     
    5    2    3 1     
    6    2   33 1     
    7    2   34 1     
    8    3    4 1     
    9    3   35 1     
   10    3   36 1     
   11    4    5 1     
   12    4   37 1     
   13    4   38 1     
   14    5    6 1     
   15    5   39 1     
   16    5   40 1     
   17    6    7 1     
   18    7    8 2     
   19    7    9 am    
   20    9   10 1     
   21    9   41 1     
   22   10   24 1     
   23   10   11 2     
   24   11   12 1     
   25   12   13 2     
   26   12   14 am    
   27   14   15 1     
   28   14   23 1     
   29   15   26 1     
   30   15   21 1     
   31   15   16 1     
   32   16   17 1     
   33   17   27 1     
   34   17   18 1     
   35   17   19 1     
   36   18   42 1     
   37   18   43 1     
   38   18   44 1     
   39   19   28 1     
   40   19   20 1     
   41   19   21 1     
   42   20   45 1     
   43   21   29 1     
   44   21   22 1     
   45   22   46 1     
   46   23   24 2     
   47   23   47 1     
   48   24   25 1     
   49    8   48 1     
   50    8   49 1     
   51   11   50 1     
   52   13   51 1     
   53   13   52 1     
   54   16   53 1     
   55   16   54 1     
   56   20   55 1     
   57   20   56 1     
   58   22   57 1     
   59   22   58 1     
@<TRIPOS>SUBSTRUCTURE
      1 S1             1
@<TRIPOS>SET
LONE_PAIRS      STATIC     ATOMS    <user>   **** ""
11 48 49 50 51 52 53 54 55 56 57 58
DONOR_HYDROGENS      STATIC     ATOMS    <user>   **** ""
3 41 45 46
ATOM$BLUE        STATIC     ATOMS    COLORGROUP SYSTEM
11 48 49 50 51 52 53 54 55 56 57 58
ATOM$RED        STATIC     ATOMS    COLORGROUP SYSTEM
3 41 45 46
