AV-unprocessed.smi:2855|AV-procd|sdf|10990|dock9
  -GOLD-   2272015443D 1   1.00000     0.00000
 Structure written by MMmdl.
 46 47  0  0  0  0  0  0  0  0  2 V2000
  144.4113  131.4594  151.1073 C   0  0  0  0  0  0  0  0  0  0  0  0
  145.4056  132.3532  150.3448 C   0  0  1  0  0  0  0  0  0  0  0  0
  144.7274  133.5600  149.6734 C   0  0  0  0  0  0  0  0  0  0  0  0
  144.2980  134.6284  150.6910 C   0  0  0  0  0  0  0  0  0  0  0  0
  145.4820  135.1153  151.5606 C   0  0  1  0  0  0  0  0  0  0  0  0
  145.0873  136.2608  152.5412 C   0  0  0  0  0  0  0  0  0  0  0  0
  143.5726  136.3777  152.7950 C   0  0  0  0  0  0  0  0  0  0  0  0
  145.6720  137.6208  152.1218 C   0  0  0  0  0  0  0  0  0  0  0  0
  146.1812  133.9073  152.2477 C   0  0  2  0  0  0  0  0  0  0  0  0
  147.3931  134.3315  152.9484 N   0  0  0  0  0  0  0  0  0  0  0  0
  147.6509  134.1743  154.2560 C   0  0  0  0  0  0  0  0  0  0  0  0
  146.8582  133.6640  155.0485 O   0  0  0  0  0  0  0  0  0  0  0  0
  149.0081  134.7094  154.7334 C   0  0  0  0  0  0  0  0  0  0  0  0
  149.7817  133.7306  155.5145 N   0  0  0  0  0  0  0  0  0  0  0  0
  149.9981  132.4638  154.9443 C   0  0  0  0  0  0  0  0  0  0  0  0
  150.6918  131.5047  155.5863 C   0  0  0  0  0  0  0  0  0  0  0  0
  151.2266  131.8072  156.9082 C   0  0  0  0  0  0  0  0  0  0  0  0
  151.8600  130.9424  157.5102 O   0  0  0  0  0  0  0  0  0  0  0  0
  150.9933  133.0523  157.4174 N   0  5  0  0  0  0  0  0  0  0  0  0
  150.2864  134.0183  156.7524 C   0  0  0  0  0  0  0  0  0  0  0  0
  150.0872  135.1358  157.2303 O   0  0  0  0  0  0  0  0  0  0  0  0
  146.5796  132.8235  151.2234 C   0  0  0  0  0  0  0  0  0  0  0  0
  143.9331  131.9857  151.9331 H   0  0  0  0  0  0  0  0  0  0  0  0
  144.9124  130.5846  151.5223 H   0  0  0  0  0  0  0  0  0  0  0  0
  143.6229  131.1006  150.4450 H   0  0  0  0  0  0  0  0  0  0  0  0
  145.8240  131.7338  149.5503 H   0  0  0  0  0  0  0  0  0  0  0  0
  145.4203  134.0088  148.9605 H   0  0  0  0  0  0  0  0  0  0  0  0
  143.8661  133.2315  149.0908 H   0  0  0  0  0  0  0  0  0  0  0  0
  143.8569  135.4621  150.1461 H   0  0  0  0  0  0  0  0  0  0  0  0
  143.5058  134.2257  151.3214 H   0  0  0  0  0  0  0  0  0  0  0  0
  146.2156  135.5402  150.8729 H   0  0  0  0  0  0  0  0  0  0  0  0
  145.5470  136.0419  153.5046 H   0  0  0  0  0  0  0  0  0  0  0  0
  143.0319  136.6682  151.8945 H   0  0  0  0  0  0  0  0  0  0  0  0
  143.3658  137.1330  153.5535 H   0  0  0  0  0  0  0  0  0  0  0  0
  143.1464  135.4419  153.1547 H   0  0  0  0  0  0  0  0  0  0  0  0
  145.2169  137.9951  151.2050 H   0  0  0  0  0  0  0  0  0  0  0  0
  146.7484  137.5562  151.9609 H   0  0  0  0  0  0  0  0  0  0  0  0
  145.5036  138.3706  152.8953 H   0  0  0  0  0  0  0  0  0  0  0  0
  145.4843  133.4519  152.9513 H   0  0  0  0  0  0  0  0  0  0  0  0
  148.1068  134.7695  152.3849 H   0  0  0  0  0  0  0  0  0  0  0  0
  149.5923  135.0414  153.8728 H   0  0  0  0  0  0  0  0  0  0  0  0
  148.8279  135.6102  155.3215 H   0  0  0  0  0  0  0  0  0  0  0  0
  149.5737  132.3229  153.9612 H   0  0  0  0  0  0  0  0  0  0  0  0
  150.8503  130.5369  155.1338 H   0  0  0  0  0  0  0  0  0  0  0  0
  147.0222  131.9686  151.7371 H   0  0  0  0  0  0  0  0  0  0  0  0
  147.3617  133.2189  150.5731 H   0  0  0  0  0  0  0  0  0  0  0  0
  1  2  1  0  0  0  0
  1 23  1  0  0  0  0
  1 24  1  0  0  0  0
  1 25  1  0  0  0  0
  2 22  1  0  0  0  0
  2  3  1  0  0  0  0
  2 26  1  0  0  0  0
  3  4  1  0  0  0  0
  3 27  1  0  0  0  0
  3 28  1  0  0  0  0
  4  5  1  0  0  0  0
  4 29  1  0  0  0  0
  4 30  1  0  0  0  0
  5  6  1  0  0  0  0
  5  9  1  0  0  0  0
  5 31  1  0  0  0  0
  6  7  1  0  0  0  0
  6  8  1  0  0  0  0
  6 32  1  0  0  0  0
  7 33  1  0  0  0  0
  7 34  1  0  0  0  0
  7 35  1  0  0  0  0
  8 36  1  0  0  0  0
  8 37  1  0  0  0  0
  8 38  1  0  0  0  0
  9 10  1  0  0  0  0
  9 22  1  0  0  0  0
  9 39  1  0  0  0  0
 10 11  1  0  0  0  0
 10 40  1  0  0  0  0
 11 12  2  0  0  0  0
 11 13  1  0  0  0  0
 13 14  1  0  0  0  0
 13 41  1  0  0  0  0
 13 42  1  0  0  0  0
 14 20  1  0  0  0  0
 14 15  1  0  0  0  0
 15 16  2  0  0  0  0
 15 43  1  0  0  0  0
 16 17  1  0  0  0  0
 16 44  1  0  0  0  0
 17 18  2  0  0  0  0
 17 19  1  0  0  0  0
 19 20  1  0  0  0  0
 20 21  2  0  0  0  0
 22 45  1  0  0  0  0
 22 46  1  0  0  0  0
M  CHG  1  19  -1
M  END
> <s_m_source_file>
AV-unprocessed.smi

> <i_m_source_file_index>
2855

> <i_lp_mmshare_version>
43012

> <i_f3d_flags>
0

> <s_epik_input>
W0NIM11bQ0BASF0xW0NIMl1bQ0gyXVtDQEBIXShbQ0hdKFtDSDNdKVtDSDNdKVtDQEhdKFtDSDJdMSlbTkhdQyg9TylbQ0gyXW4yW2NIXVtjSF1jKD1PKVtuSF1jMj1P

> <s_epik_cmdline>
J2VwaWtfcHl0aG9uJywgJy1waCcsICc3LjAnLCAnLXRuJywgJzgnLCAnLW1hJywgJzIwMCcsICctbWV0YWxfYmluZGluZycsICctaW1hZScsICc8aW5maWxlLm1hZT4nLCAnLW9tYWUnLCAnPG91dGZpbGUubWFlPic=

> <r_lp_tautomer_probability>
0.999537

> <r_epik_Ionization_Penalty>
3.12102

> <r_epik_Ionization_Penalty_Charging>
2.9581e-08

> <r_epik_Ionization_Penalty_Neutral>
3.12102

> <r_epik_State_Penalty>
3.12011

> <r_epik_Charging_Adjusted_Penalty>
3.12011

> <i_epik_Tot_Q>
-1

> <i_epik_Tot_abs_Q>
1

> <r_epik_Metal_State_Penalty>
0.463583

> <b_epik_Metal_Only>
1

> <s_lp_Force_Field>
OPLS_2005

> <r_lp_Energy>
25.2964

> <b_lp_Chiralities_Consistent>
1

> <s_lp_Variant>
AV-unprocessed.smi:2855-14

> <Gold.Version>
5.8.1

> <Gold.Id.Protein>
6NUR|6NUR_protein|mol2

> <Gold.PLP.Fitness>
40.7653

> <Gold.PLP.PLP>
-34.8214

> <Gold.PLP.part.hbond>
-2.9985

> <Gold.PLP.part.metal>
0.0000

> <Gold.PLP.part.buried>
-2.3529

> <Gold.PLP.part.nonpolar>
-30.6579

> <Gold.PLP.part.repulsive>
0.0334

> <Gold.PLP.ligand.clash>
0.0000

> <Gold.PLP.ligand.torsion>
1.4750

> <Gold.PLP.Chemscore.Hbond>
2.9440

> <Gold.PLP.Chemscore.CHOScore>
0.0000

> <Gold.PLP.Chemscore.Metal>
0.0000

> <Gold.Chemscore.Hbonds>
donor molecule, donor type, donor heavy atom, donor atom, acceptor molecule, acceptor atom, score
      L1  H    10    40       P1  7948  1.00
      P1  H  6896  6907       L1    19  1.60

> <Gold.PLP.Chemscore.Internal.Correction>
0.0619

> <Gold.Rescore>
     Score         DG    S(hbond)    S(metal)    S(lipo)     H(rot)  DE(clash)    DE(int)     intcor
     14.64     -15.31       1.72        0.00      74.66       1.81       0.01       0.66       ----

> <Gold.Chemscore.Fitness>
14.6447

> <Gold.Chemscore.DG>
-15.3115

> <Gold.Chemscore.ZeroCoef>
-5.4800

> <Gold.Chemscore.Hbond>
1.7154

> <Gold.Chemscore.Metal>
0.0000

> <Gold.Chemscore.Lipo>
74.6642

> <Gold.Chemscore.Internal_Hbond>
0.0000

> <Gold.Chemscore.DEClash>
0.0115

> <Gold.Chemscore.DEInternal>
0.6553

> <Gold.Chemscore.Rot>
1.8100

> <Gold.Chemscore.Internal.Correction>
   9.000000E+99

> <Gold.Chemscore.Hbonds>
donor molecule, donor type, donor heavy atom, donor atom, acceptor molecule, acceptor atom, score
      L1  H    10    40       P1  7948  0.48
      P1  H  6896  6907       L1    19  0.73

> <Gold.Chemscore.Hbond.Weighted>
-5.7293

> <Gold.Chemscore.Metal.Weighted>
-0.0000

> <Gold.Chemscore.Lipo.Weighted>
-8.7357

> <Gold.Chemscore.Internal_Hbond.Weighted>
0.0000

> <Gold.Chemscore.DEClash.Weighted>
0.0115

> <Gold.Chemscore.DEInternal.Weighted>
0.6553

> <Gold.Chemscore.Rot.Weighted>
4.6335

> <Gold.Chemscore.Internal.Correction.Weighted>
   9.000000E+99

> <Gold.Protein.RotatedTorsions>
[ 6907 6896 6895 6894 ] final -169.84 input  -60.11 | X-H torsion
[ 7974 7965 7964 7962 ] final -172.74 input  175.53 | X-H torsion
[ 8008 7997 7996 7995 ] final  -13.03 input   59.86 | X-H torsion
[ 10167 10162 10161 10158 ] final   34.90 input  -65.29 | X-H torsion
[ 10718 10713 10712 10709 ] final  115.08 input   66.30 | X-H torsion
[ 10763 10752 10751 10750 ] final -170.41 input  -60.55 | X-H torsion
[ 11005 11000 10999 10996 ] final   31.90 input  -57.11 | X-H torsion

> <Gold.Protein.ActiveResidues>
 VAL166  LYS551  ARG553  GLY616  TRP617  ASP618  TYR619  PRO620  LYS621  CYS622 
 ASP623  PHE694  ASN695  SER759  ASP760  ASP761  ALA762  ILE779  LEU786  VAL792 
 PHE793  MET794  SER795  GLU796  ALA797  LYS798  CYS799  TRP800  GLU811  SER814 

> <Gold.Protein.RotatedAtoms>
  151.4981  133.3510  159.2864 H   0  0  0  0  0  0  0  0  0  0  0  0  # atno 6907 bound_to 6896
  150.8791  134.8181  159.7222 H   0  0  0  0  0  0  0  0  0  0  0  0  # atno 6908 bound_to 6896
  152.4750  134.4876  159.9737 H   0  0  0  0  0  0  0  0  0  0  0  0  # atno 6909 bound_to 6896
  144.7143  140.1727  143.6366 H   0  0  0  0  0  0  0  0  0  0  0  0  # atno 7974 bound_to 7965
  154.5327  140.2260  155.8777 H   0  0  0  0  0  0  0  0  0  0  0  0  # atno 8008 bound_to 7997
  156.1780  140.3107  155.9058 H   0  0  0  0  0  0  0  0  0  0  0  0  # atno 8009 bound_to 7997
  155.3419  140.0451  157.3035 H   0  0  0  0  0  0  0  0  0  0  0  0  # atno 8010 bound_to 7997
  140.4272  144.1376  150.6155 H   0  0  0  0  0  0  0  0  0  0  0  0  # atno 10167 bound_to 10162
  157.6243  131.1007  150.7278 H   0  0  0  0  0  0  0  0  0  0  0  0  # atno 10718 bound_to 10713
  154.6418  135.2899  155.0094 H   0  0  0  0  0  0  0  0  0  0  0  0  # atno 10763 bound_to 10752
  154.1218  135.6547  153.4908 H   0  0  0  0  0  0  0  0  0  0  0  0  # atno 10764 bound_to 10752
  153.0330  135.5289  154.7288 H   0  0  0  0  0  0  0  0  0  0  0  0  # atno 10765 bound_to 10752
  140.2791  134.2994  155.7806 H   0  0  0  0  0  0  0  0  0  0  0  0  # atno 11005 bound_to 11000
  145.8928  139.2386  143.1539 LP  0  0  0  0  0  0  0  0  0  0  0  0  # atno 17320 bound_to 7965
  145.9886  140.8622  143.0078 LP  0  0  0  0  0  0  0  0  0  0  0  0  # atno 17321 bound_to 7965
  140.4468  143.2503  151.9401 LP  0  0  0  0  0  0  0  0  0  0  0  0  # atno 17342 bound_to 10162
  139.4784  144.5601  151.8252 LP  0  0  0  0  0  0  0  0  0  0  0  0  # atno 17343 bound_to 10162
  156.7629  130.4804  149.5433 LP  0  0  0  0  0  0  0  0  0  0  0  0  # atno 17370 bound_to 10713
  156.1407  130.6242  151.0462 LP  0  0  0  0  0  0  0  0  0  0  0  0  # atno 17371 bound_to 10713
  141.2165  133.7514  156.9452 LP  0  0  0  0  0  0  0  0  0  0  0  0  # atno 17394 bound_to 11000
  140.1301  134.9361  157.2325 LP  0  0  0  0  0  0  0  0  0  0  0  0  # atno 17395 bound_to 11000

$$$$
