AV-unprocessed.smi:2816|AV-procd|sdf|10845|dock7
  -GOLD-   2272015283D 1   1.00000     0.00000
 Structure written by MMmdl.
 43 45  0  0  0  0  0  0  0  0  1 V2000
  137.7713  135.7760  151.8393 C   0  0  0  0  0  0  0  0  0  0  0  0
  137.4499  137.1083  152.5387 C   0  0  0  0  0  0  0  0  0  0  0  0
  137.0239  138.1510  151.4894 C   0  0  0  0  0  0  0  0  0  0  0  0
  136.3236  136.8881  153.5655 C   0  0  0  0  0  0  0  0  0  0  0  0
  138.9961  137.6857  153.4003 S   0  0  0  0  0  0  0  0  0  0  0  0
  139.4424  138.9356  152.7645 O   0  0  0  0  0  0  0  0  0  0  0  0
  138.7355  137.6721  154.8487 O   0  0  0  0  0  0  0  0  0  0  0  0
  140.2408  136.4373  153.0662 C   0  0  0  0  0  0  0  0  0  0  0  0
  141.4372  136.7928  152.4111 C   0  0  0  0  0  0  0  0  0  0  0  0
  142.4069  135.7927  152.2108 C   0  0  0  0  0  0  0  0  0  0  0  0
  142.1496  134.4823  152.6797 C   0  0  0  0  0  0  0  0  0  0  0  0
  143.0540  133.4194  152.5375 N   0  0  0  0  0  0  0  0  0  0  0  0
  144.1351  133.4677  151.5602 C   0  0  1  0  0  0  0  0  0  0  0  0
  145.5294  133.3860  152.1972 C   0  0  0  0  0  0  0  0  0  0  0  0
  146.1373  132.1757  151.4784 C   0  0  2  0  0  0  0  0  0  0  0  0
  146.4186  132.4597  149.9966 C   0  0  0  0  0  0  0  0  0  0  0  0
  145.0088  132.4598  149.4063 C   0  0  0  0  0  0  0  0  0  0  0  0
  144.1435  132.2255  150.6523 C   0  0  1  0  0  0  0  0  0  0  0  0
  144.9919  131.3490  151.3762 O   0  0  0  0  0  0  0  0  0  0  0  0
  140.9172  134.2452  153.3266 C   0  0  0  0  0  0  0  0  0  0  0  0
  139.9799  135.1953  153.5268 N   0  0  0  0  0  0  0  0  0  0  0  0
  136.9010  135.3830  151.3127 H   0  0  0  0  0  0  0  0  0  0  0  0
  138.0921  135.0193  152.5561 H   0  0  0  0  0  0  0  0  0  0  0  0
  138.5715  135.8950  151.1080 H   0  0  0  0  0  0  0  0  0  0  0  0
  137.8222  138.3438  150.7722 H   0  0  0  0  0  0  0  0  0  0  0  0
  136.7587  139.1017  151.9521 H   0  0  0  0  0  0  0  0  0  0  0  0
  136.1536  137.8108  150.9272 H   0  0  0  0  0  0  0  0  0  0  0  0
  135.4355  136.4701  153.0906 H   0  0  0  0  0  0  0  0  0  0  0  0
  136.0225  137.8206  154.0413 H   0  0  0  0  0  0  0  0  0  0  0  0
  136.6297  136.1978  154.3518 H   0  0  0  0  0  0  0  0  0  0  0  0
  141.6125  137.8036  152.0740 H   0  0  0  0  0  0  0  0  0  0  0  0
  143.3280  136.0462  151.7084 H   0  0  0  0  0  0  0  0  0  0  0  0
  143.1083  132.7232  153.2675 H   0  0  0  0  0  0  0  0  0  0  0  0
  144.0226  134.3638  150.9487 H   0  0  0  0  0  0  0  0  0  0  0  0
  146.1130  134.2947  152.0484 H   0  0  0  0  0  0  0  0  0  0  0  0
  145.4730  133.1934  153.2697 H   0  0  0  0  0  0  0  0  0  0  0  0
  146.9738  131.7205  152.0096 H   0  0  0  0  0  0  0  0  0  0  0  0
  146.9410  133.4054  149.8490 H   0  0  0  0  0  0  0  0  0  0  0  0
  147.0187  131.6642  149.5535 H   0  0  0  0  0  0  0  0  0  0  0  0
  144.7623  133.3904  148.8944 H   0  0  0  0  0  0  0  0  0  0  0  0
  144.8929  131.6395  148.6970 H   0  0  0  0  0  0  0  0  0  0  0  0
  143.1561  131.8204  150.4267 H   0  0  0  0  0  0  0  0  0  0  0  0
  140.6772  133.2617  153.7042 H   0  0  0  0  0  0  0  0  0  0  0  0
  1  2  1  0  0  0  0
  1 22  1  0  0  0  0
  1 23  1  0  0  0  0
  1 24  1  0  0  0  0
  2  3  1  0  0  0  0
  2  4  1  0  0  0  0
  2  5  1  0  0  0  0
  3 25  1  0  0  0  0
  3 26  1  0  0  0  0
  3 27  1  0  0  0  0
  4 28  1  0  0  0  0
  4 29  1  0  0  0  0
  4 30  1  0  0  0  0
  5  6  2  0  0  0  0
  5  7  2  0  0  0  0
  5  8  1  0  0  0  0
  8 21  1  0  0  0  0
  8  9  2  0  0  0  0
  9 10  1  0  0  0  0
  9 31  1  0  0  0  0
 10 11  2  0  0  0  0
 10 32  1  0  0  0  0
 11 12  1  0  0  0  0
 11 20  1  0  0  0  0
 12 13  1  0  0  0  0
 12 33  1  0  0  0  0
 13 18  1  0  0  0  0
 13 14  1  0  0  0  0
 13 34  1  0  0  0  0
 14 15  1  0  0  0  0
 14 35  1  0  0  0  0
 14 36  1  0  0  0  0
 15 19  1  0  0  0  0
 15 16  1  0  0  0  0
 15 37  1  0  0  0  0
 16 17  1  0  0  0  0
 16 38  1  0  0  0  0
 16 39  1  0  0  0  0
 17 18  1  0  0  0  0
 17 40  1  0  0  0  0
 17 41  1  0  0  0  0
 18 19  1  0  0  0  0
 18 42  1  0  0  0  0
 20 21  2  0  0  0  0
 20 43  1  0  0  0  0
M  END
> <s_m_source_file>
AV-unprocessed.smi

> <i_m_source_file_index>
2816

> <i_lp_mmshare_version>
43012

> <i_f3d_flags>
0

> <s_epik_input>
W0NIM11DKFtDSDNdKShbQ0gzXSlTKD1PKSg9TyljMVtjSF1bY0hdYyhbY0hdbjEpW05IXVtDQEhdKFtDSDJdW0NAQEhdMjMpW0NAQEhdKE8zKVtDSDJdW0NIMl0y

> <s_epik_cmdline>
J2VwaWtfcHl0aG9uJywgJy1waCcsICc3LjAnLCAnLXRuJywgJzgnLCAnLW1hJywgJzIwMCcsICctbWV0YWxfYmluZGluZycsICctaW1hZScsICc8aW5maWxlLm1hZT4nLCAnLW9tYWUnLCAnPG91dGZpbGUubWFlPic=

> <r_lp_tautomer_probability>
1

> <r_epik_Ionization_Penalty>
1.94439e-07

> <r_epik_Ionization_Penalty_Charging>
0

> <r_epik_Ionization_Penalty_Neutral>
1.94439e-07

> <r_epik_State_Penalty>
-0

> <r_epik_Charging_Adjusted_Penalty>
0

> <i_epik_Tot_Q>
0

> <i_epik_Tot_abs_Q>
0

> <r_epik_Metal_State_Penalty>
-0

> <b_epik_Metal_Only>
0

> <s_lp_Force_Field>
OPLS_2005

> <r_lp_Energy>
42.0373

> <b_lp_Chiralities_Consistent>
1

> <s_lp_Variant>
AV-unprocessed.smi:2816-4

> <Gold.Version>
5.8.1

> <Gold.Id.Protein>
6NUR|6NUR_protein|mol2

> <Gold.PLP.Fitness>
44.6383

> <Gold.PLP.PLP>
-36.7296

> <Gold.PLP.part.hbond>
-2.0000

> <Gold.PLP.part.metal>
0.0000

> <Gold.PLP.part.buried>
-6.1406

> <Gold.PLP.part.nonpolar>
-32.1537

> <Gold.PLP.part.repulsive>
2.2386

> <Gold.PLP.ligand.clash>
0.0000

> <Gold.PLP.ligand.torsion>
1.2541

> <Gold.PLP.Chemscore.Hbond>
1.0000

> <Gold.PLP.Chemscore.CHOScore>
1.7261

> <Gold.PLP.Chemscore.Metal>
0.0000

> <Gold.Chemscore.Hbonds>
donor molecule, donor type, donor heavy atom, donor atom, acceptor molecule, acceptor atom, score
      L1  H    12    33       P1 10957  1.00
      L1  C    20    43       P1 10957  0.54

> <Gold.PLP.Chemscore.Internal.Correction>
2.2386

> <Gold.Rescore>
     Score         DG    S(hbond)    S(metal)    S(lipo)     H(rot)  DE(clash)    DE(int)     intcor
     14.27     -16.92       0.98        0.00      95.01       1.15       1.30       1.35       ----

> <Gold.Chemscore.Fitness>
14.2729

> <Gold.Chemscore.DG>
-16.9190

> <Gold.Chemscore.ZeroCoef>
-5.4800

> <Gold.Chemscore.Hbond>
0.9758

> <Gold.Chemscore.Metal>
0.0000

> <Gold.Chemscore.Lipo>
95.0129

> <Gold.Chemscore.Internal_Hbond>
0.0000

> <Gold.Chemscore.DEClash>
1.3004

> <Gold.Chemscore.DEInternal>
1.3458

> <Gold.Chemscore.Rot>
1.1471

> <Gold.Chemscore.Internal.Correction>
   9.000000E+99

> <Gold.Chemscore.Hbonds>
donor molecule, donor type, donor heavy atom, donor atom, acceptor molecule, acceptor atom, score
      L1  H    12    33       P1 10957  0.45

> <Gold.Chemscore.Hbond.Weighted>
-3.2591

> <Gold.Chemscore.Metal.Weighted>
-0.0000

> <Gold.Chemscore.Lipo.Weighted>
-11.1165

> <Gold.Chemscore.Internal_Hbond.Weighted>
0.0000

> <Gold.Chemscore.DEClash.Weighted>
1.3004

> <Gold.Chemscore.DEInternal.Weighted>
1.3458

> <Gold.Chemscore.Rot.Weighted>
2.9366

> <Gold.Chemscore.Internal.Correction.Weighted>
   9.000000E+99

> <Gold.Protein.RotatedTorsions>
[ 6907 6896 6895 6894 ] final  -56.22 input  -60.11 | X-H torsion
[ 7974 7965 7964 7962 ] final -161.63 input  175.53 | X-H torsion
[ 8008 7997 7996 7995 ] final  -99.48 input   59.86 | X-H torsion
[ 10167 10162 10161 10158 ] final   41.98 input  -65.29 | X-H torsion
[ 10718 10713 10712 10709 ] final   75.49 input   66.30 | X-H torsion
[ 10763 10752 10751 10750 ] final  146.88 input  -60.55 | X-H torsion
[ 11005 11000 10999 10996 ] final  127.65 input  -57.11 | X-H torsion

> <Gold.Protein.ActiveResidues>
 VAL166  LYS551  ARG553  GLY616  TRP617  ASP618  TYR619  PRO620  LYS621  CYS622 
 ASP623  PHE694  ASN695  SER759  ASP760  ASP761  ALA762  ILE779  LEU786  VAL792 
 PHE793  MET794  SER795  GLU796  ALA797  LYS798  CYS799  TRP800  GLU811  SER814 

> <Gold.Protein.RotatedAtoms>
  150.8186  134.7381  159.6751 H   0  0  0  0  0  0  0  0  0  0  0  0  # atno 6907 bound_to 6896
  152.4303  134.5787  159.9951 H   0  0  0  0  0  0  0  0  0  0  0  0  # atno 6908 bound_to 6896
  151.5977  133.3322  159.3077 H   0  0  0  0  0  0  0  0  0  0  0  0  # atno 6909 bound_to 6896
  144.7384  140.3369  143.6142 H   0  0  0  0  0  0  0  0  0  0  0  0  # atno 7974 bound_to 7965
  154.8154  140.0447  157.1372 H   0  0  0  0  0  0  0  0  0  0  0  0  # atno 8008 bound_to 7997
  154.9321  140.3041  155.5142 H   0  0  0  0  0  0  0  0  0  0  0  0  # atno 8009 bound_to 7997
  156.2975  140.2321  156.4382 H   0  0  0  0  0  0  0  0  0  0  0  0  # atno 8010 bound_to 7997
  140.3589  144.2254  150.6139 H   0  0  0  0  0  0  0  0  0  0  0  0  # atno 10167 bound_to 10162
  157.6636  130.9729  150.1361 H   0  0  0  0  0  0  0  0  0  0  0  0  # atno 10718 bound_to 10713
  154.0292  135.2899  155.3371 H   0  0  0  0  0  0  0  0  0  0  0  0  # atno 10763 bound_to 10752
  154.6999  135.5193  153.8514 H   0  0  0  0  0  0  0  0  0  0  0  0  # atno 10764 bound_to 10752
  153.0647  135.6627  154.0506 H   0  0  0  0  0  0  0  0  0  0  0  0  # atno 10765 bound_to 10752
  139.9519  134.9620  156.8886 H   0  0  0  0  0  0  0  0  0  0  0  0  # atno 11005 bound_to 11000
  145.7414  139.1765  143.2374 LP  0  0  0  0  0  0  0  0  0  0  0  0  # atno 17320 bound_to 7965
  146.1131  140.7403  142.9493 LP  0  0  0  0  0  0  0  0  0  0  0  0  # atno 17321 bound_to 7965
  140.5146  143.2281  151.8483 LP  0  0  0  0  0  0  0  0  0  0  0  0  # atno 17342 bound_to 10162
  139.4816  144.4909  151.9186 LP  0  0  0  0  0  0  0  0  0  0  0  0  # atno 17343 bound_to 10162
  156.2196  130.3673  149.8572 LP  0  0  0  0  0  0  0  0  0  0  0  0  # atno 17370 bound_to 10713
  156.6429  130.8712  151.3517 LP  0  0  0  0  0  0  0  0  0  0  0  0  # atno 17371 bound_to 10713
  140.5700  134.0452  155.7427 LP  0  0  0  0  0  0  0  0  0  0  0  0  # atno 17394 bound_to 11000
  141.1183  133.9504  157.2780 LP  0  0  0  0  0  0  0  0  0  0  0  0  # atno 17395 bound_to 11000

$$$$
