AV-unprocessed.smi:290|AV-procd|sdf|2220|dock5
  -GOLD-   2262022 63D 1   1.00000     0.00000
 Structure written by MMmdl.
 59 62  0  0  0  0  0  0  0  0  2 V2000
  153.5487  138.2089  158.3027 C   0  0  0  0  0  0  0  0  0  0  0  0
  152.3512  138.4233  157.3626 C   0  0  1  0  0  0  0  0  0  0  0  0
  152.6640  139.3951  156.3745 O   0  0  0  0  0  0  0  0  0  0  0  0
  151.7291  139.2374  155.3228 C   0  0  0  0  0  0  0  0  0  0  0  0
  151.6794  137.7251  155.1483 C   0  0  0  0  0  0  0  0  0  0  0  0
  151.8446  137.1865  156.5721 C   0  0  1  0  0  0  0  0  0  0  0  0
  152.8087  136.1471  156.5419 O   0  0  0  0  0  0  0  0  0  0  0  0
  150.5196  136.6100  157.1300 C   0  0  0  0  0  0  0  0  0  0  0  0
  149.7796  135.8121  156.1640 N   0  0  0  0  0  0  0  0  0  0  0  0
  148.8932  136.2733  155.2157 C   0  0  0  0  0  0  0  0  0  0  0  0
  148.3491  135.3540  154.4655 N   0  0  0  0  0  0  0  0  0  0  0  0
  148.9124  134.1714  154.9256 C   0  0  0  0  0  0  0  0  0  0  0  0
  148.7752  132.8081  154.5587 C   0  0  0  0  0  0  0  0  0  0  0  0
  147.9533  132.4236  153.5556 N   0  0  0  0  0  0  0  0  0  0  0  0
  148.0079  133.2624  152.3733 C   0  0  0  0  0  0  0  0  0  0  0  0
  146.7620  132.9058  151.5640 C   0  0  0  0  0  0  0  0  0  0  0  0
  145.8142  132.1771  152.5404 C   0  0  2  0  0  0  0  0  0  0  0  0
  144.4292  132.7429  152.4792 N   0  3  1  0  0  0  0  0  0  0  0  0
  144.4628  134.2269  152.4008 C   0  0  0  0  0  0  0  0  0  0  0  0
  143.5363  132.1423  151.4467 C   0  0  0  0  0  0  0  0  0  0  0  0
  143.7631  132.6965  150.0272 C   0  0  0  0  0  0  0  0  0  0  0  0
  142.8248  132.1427  149.1284 O   0  0  0  0  0  0  0  0  0  0  0  0
  146.5446  132.2815  153.9022 C   0  0  1  0  0  0  0  0  0  0  0  0
  146.3416  131.0577  154.8228 C   0  0  0  0  0  0  0  0  0  0  0  0
  149.5132  131.8884  155.2351 N   0  0  0  0  0  0  0  0  0  0  0  0
  150.3320  132.2824  156.2160 C   0  0  0  0  0  0  0  0  0  0  0  0
  150.5602  133.5179  156.6676 N   0  0  0  0  0  0  0  0  0  0  0  0
  149.8200  134.4401  155.9872 C   0  0  0  0  0  0  0  0  0  0  0  0
  145.7723  131.1233  152.2577 H   0  0  0  0  0  0  0  0  0  0  0  0
  146.2270  133.1902  154.4161 H   0  0  0  0  0  0  0  0  0  0  0  0
  153.3275  137.4516  159.0553 H   0  0  0  0  0  0  0  0  0  0  0  0
  153.7988  139.1319  158.8256 H   0  0  0  0  0  0  0  0  0  0  0  0
  154.4364  137.8920  157.7546 H   0  0  0  0  0  0  0  0  0  0  0  0
  151.5283  138.8437  157.9421 H   0  0  0  0  0  0  0  0  0  0  0  0
  150.7577  139.6304  155.6278 H   0  0  0  0  0  0  0  0  0  0  0  0
  152.0459  139.7570  154.4184 H   0  0  0  0  0  0  0  0  0  0  0  0
  150.7634  137.3928  154.6583 H   0  0  0  0  0  0  0  0  0  0  0  0
  152.5149  137.4202  154.5157 H   0  0  0  0  0  0  0  0  0  0  0  0
  152.5758  135.5014  157.1914 H   0  0  0  0  0  0  0  0  0  0  0  0
  150.7197  135.9868  158.0027 H   0  0  0  0  0  0  0  0  0  0  0  0
  149.8705  137.4159  157.4757 H   0  0  0  0  0  0  0  0  0  0  0  0
  148.6560  137.3208  155.0989 H   0  0  0  0  0  0  0  0  0  0  0  0
  147.9876  134.3194  152.6434 H   0  0  0  0  0  0  0  0  0  0  0  0
  148.9201  133.0780  151.8047 H   0  0  0  0  0  0  0  0  0  0  0  0
  146.3252  133.8111  151.1398 H   0  0  0  0  0  0  0  0  0  0  0  0
  147.0195  132.2476  150.7333 H   0  0  0  0  0  0  0  0  0  0  0  0
  144.7741  134.5572  151.4090 H   0  0  0  0  0  0  0  0  0  0  0  0
  145.1550  134.6561  153.1245 H   0  0  0  0  0  0  0  0  0  0  0  0
  143.4894  134.6632  152.6192 H   0  0  0  0  0  0  0  0  0  0  0  0
  143.6661  131.0591  151.4459 H   0  0  0  0  0  0  0  0  0  0  0  0
  142.4929  132.3374  151.6860 H   0  0  0  0  0  0  0  0  0  0  0  0
  143.7188  133.7840  149.9911 H   0  0  0  0  0  0  0  0  0  0  0  0
  144.7609  132.4232  149.6830 H   0  0  0  0  0  0  0  0  0  0  0  0
  142.8969  132.5910  148.2991 H   0  0  0  0  0  0  0  0  0  0  0  0
  145.2958  130.8768  155.0618 H   0  0  0  0  0  0  0  0  0  0  0  0
  146.8652  131.1860  155.7706 H   0  0  0  0  0  0  0  0  0  0  0  0
  146.7274  130.1497  154.3580 H   0  0  0  0  0  0  0  0  0  0  0  0
  150.8834  131.4958  156.7096 H   0  0  0  0  0  0  0  0  0  0  0  0
  144.0039  132.5117  153.3662 H   0  0  0  0  0  0  0  0  0  0  0  0
  1  2  1  0  0  0  0
  1 31  1  0  0  0  0
  1 32  1  0  0  0  0
  1 33  1  0  0  0  0
  2  6  1  0  0  0  0
  2  3  1  0  0  0  0
  2 34  1  0  0  0  0
  3  4  1  0  0  0  0
  4  5  1  0  0  0  0
  4 35  1  0  0  0  0
  4 36  1  0  0  0  0
  5  6  1  0  0  0  0
  5 37  1  0  0  0  0
  5 38  1  0  0  0  0
  6  7  1  0  0  0  0
  6  8  1  0  0  0  0
  7 39  1  0  0  0  0
  8  9  1  0  0  0  0
  8 40  1  0  0  0  0
  8 41  1  0  0  0  0
  9 28  1  0  0  0  0
  9 10  1  0  0  0  0
 10 11  2  0  0  0  0
 10 42  1  0  0  0  0
 11 12  1  0  0  0  0
 12 28  2  0  0  0  0
 12 13  1  0  0  0  0
 13 14  1  0  0  0  0
 13 25  2  0  0  0  0
 14 23  1  0  0  0  0
 14 15  1  0  0  0  0
 15 16  1  0  0  0  0
 15 43  1  0  0  0  0
 15 44  1  0  0  0  0
 16 17  1  0  0  0  0
 16 45  1  0  0  0  0
 16 46  1  0  0  0  0
 17 29  1  0  0  0  0
 17 18  1  0  0  0  0
 17 23  1  0  0  0  0
 18 19  1  0  0  0  0
 18 20  1  0  0  0  0
 18 59  1  0  0  0  0
 19 47  1  0  0  0  0
 19 48  1  0  0  0  0
 19 49  1  0  0  0  0
 20 21  1  0  0  0  0
 20 50  1  0  0  0  0
 20 51  1  0  0  0  0
 21 22  1  0  0  0  0
 21 52  1  0  0  0  0
 21 53  1  0  0  0  0
 22 54  1  0  0  0  0
 23 30  1  0  0  0  0
 23 24  1  0  0  0  0
 24 55  1  0  0  0  0
 24 56  1  0  0  0  0
 24 57  1  0  0  0  0
 25 26  1  0  0  0  0
 26 27  2  0  0  0  0
 26 58  1  0  0  0  0
 27 28  1  0  0  0  0
M  CHG  1  18   1
M  END
> <s_m_source_file>
AV-unprocessed.smi

> <i_m_source_file_index>
290

> <i_lp_mmshare_version>
43012

> <i_f3d_flags>
0

> <s_epik_input>
W0NIMl0xW0NIMl1PW0NAQEhdKFtDSDNdKVtDQEBdMShbT0hdKVtDSDJdbihbY0hdbjIpYyhjMjMpbltjSF1uYzNONFtDSDJdW0NIMl1bQ0BIXShbQ0BIXTRbQ0gzXSlOKFtDSDNdKVtDSDJdW0NIMl1bT0hd

> <s_epik_cmdline>
J2VwaWtfcHl0aG9uJywgJy1waCcsICc3LjAnLCAnLXRuJywgJzgnLCAnLW1hJywgJzIwMCcsICctbWV0YWxfYmluZGluZycsICctaW1hZScsICc8aW5maWxlLm1hZT4nLCAnLW9tYWUnLCAnPG91dGZpbGUubWFlPic=

> <r_lp_tautomer_probability>
1

> <r_epik_Ionization_Penalty>
0.0036983

> <r_epik_Ionization_Penalty_Charging>
0.0032725

> <r_epik_Ionization_Penalty_Neutral>
0.000425798

> <r_epik_State_Penalty>
-0

> <r_epik_Charging_Adjusted_Penalty>
0.0032725

> <i_epik_Tot_Q>
1

> <i_epik_Tot_abs_Q>
1

> <r_epik_Metal_State_Penalty>
-0

> <b_epik_Metal_Only>
0

> <s_lp_Force_Field>
OPLS_2005

> <r_lp_Energy>
65.0723

> <b_lp_Chiralities_Consistent>
1

> <s_lp_Variant>
AV-unprocessed.smi:290-6

> <Gold.Version>
5.8.1

> <Gold.Id.Protein>
6NUR|6NUR_protein|mol2

> <Gold.PLP.Fitness>
45.2868

> <Gold.PLP.PLP>
-35.2560

> <Gold.PLP.part.hbond>
-5.7362

> <Gold.PLP.part.metal>
0.0000

> <Gold.PLP.part.buried>
-7.2400

> <Gold.PLP.part.nonpolar>
-26.3700

> <Gold.PLP.part.repulsive>
2.6227

> <Gold.PLP.ligand.clash>
0.0000

> <Gold.PLP.ligand.torsion>
1.7262

> <Gold.PLP.Chemscore.Hbond>
4.4203

> <Gold.PLP.Chemscore.CHOScore>
0.0000

> <Gold.PLP.Chemscore.Metal>
0.0000

> <Gold.Chemscore.Hbonds>
donor molecule, donor type, donor heavy atom, donor atom, acceptor molecule, acceptor atom, score
      L1  H    18    59       P1 10957  1.70
      P1  H  7997  8009       L1     3  1.00
      P1  H 10752 10765       L1     7  1.00
      P1  H 10785 10796       L1    22  0.91

> <Gold.PLP.Chemscore.Internal.Correction>
0.2226

> <Gold.Rescore>
     Score         DG    S(hbond)    S(metal)    S(lipo)     H(rot)  DE(clash)    DE(int)     intcor
     10.90     -15.06       2.77        0.00      83.11       3.67       1.51       2.66       ----

> <Gold.Chemscore.Fitness>
10.9014

> <Gold.Chemscore.DG>
-15.0633

> <Gold.Chemscore.ZeroCoef>
-5.4800

> <Gold.Chemscore.Hbond>
2.7676

> <Gold.Chemscore.Metal>
0.0000

> <Gold.Chemscore.Lipo>
83.1116

> <Gold.Chemscore.Internal_Hbond>
0.0000

> <Gold.Chemscore.DEClash>
1.5054

> <Gold.Chemscore.DEInternal>
2.6565

> <Gold.Chemscore.Rot>
3.6658

> <Gold.Chemscore.Internal.Correction>
   9.000000E+99

> <Gold.Chemscore.Hbonds>
donor molecule, donor type, donor heavy atom, donor atom, acceptor molecule, acceptor atom, score
      L1  H    18    59       P1 10957  0.19
      P1  H  7997  8009       L1     3  0.88
      P1  H 10752 10765       L1     7  0.79
      P1  H 10785 10796       L1    22  0.41

> <Gold.Chemscore.Hbond.Weighted>
-9.2437

> <Gold.Chemscore.Metal.Weighted>
-0.0000

> <Gold.Chemscore.Lipo.Weighted>
-9.7241

> <Gold.Chemscore.Internal_Hbond.Weighted>
0.0000

> <Gold.Chemscore.DEClash.Weighted>
1.5054

> <Gold.Chemscore.DEInternal.Weighted>
2.6565

> <Gold.Chemscore.Rot.Weighted>
9.3844

> <Gold.Chemscore.Internal.Correction.Weighted>
   9.000000E+99

> <Gold.Protein.RotatedTorsions>
[ 6907 6896 6895 6894 ] final  -40.43 input  -60.11 | X-H torsion
[ 7974 7965 7964 7962 ] final  165.71 input  175.53 | X-H torsion
[ 8008 7997 7996 7995 ] final -175.02 input   59.86 | X-H torsion
[ 10167 10162 10161 10158 ] final   27.42 input  -65.29 | X-H torsion
[ 10718 10713 10712 10709 ] final   86.71 input   66.30 | X-H torsion
[ 10763 10752 10751 10750 ] final -148.32 input  -60.55 | X-H torsion
[ 11005 11000 10999 10996 ] final  161.56 input  -57.11 | X-H torsion

> <Gold.Protein.ActiveResidues>
 VAL166  LYS551  ARG553  GLY616  TRP617  ASP618  TYR619  PRO620  LYS621  CYS622 
 ASP623  PHE694  ASN695  SER759  ASP760  ASP761  ALA762  ILE779  LEU786  VAL792 
 PHE793  MET794  SER795  GLU796  ALA797  LYS798  CYS799  TRP800  GLU811  SER814 

> <Gold.Protein.RotatedAtoms>
  150.9785  134.9145  159.7829 H   0  0  0  0  0  0  0  0  0  0  0  0  # atno 6907 bound_to 6896
  152.5214  134.3443  159.9238 H   0  0  0  0  0  0  0  0  0  0  0  0  # atno 6908 bound_to 6896
  151.3451  133.3906  159.2709 H   0  0  0  0  0  0  0  0  0  0  0  0  # atno 6909 bound_to 6896
  144.7491  139.8510  143.6372 H   0  0  0  0  0  0  0  0  0  0  0  0  # atno 7974 bound_to 7965
  155.9773  140.1175  157.0758 H   0  0  0  0  0  0  0  0  0  0  0  0  # atno 8008 bound_to 7997
  154.4173  140.1151  156.5455 H   0  0  0  0  0  0  0  0  0  0  0  0  # atno 8009 bound_to 7997
  155.6517  140.3473  155.4753 H   0  0  0  0  0  0  0  0  0  0  0  0  # atno 8010 bound_to 7997
  140.4940  144.0422  150.6307 H   0  0  0  0  0  0  0  0  0  0  0  0  # atno 10167 bound_to 10162
  157.6932  131.0226  150.3013 H   0  0  0  0  0  0  0  0  0  0  0  0  # atno 10718 bound_to 10713
  154.8239  135.3337  154.6956 H   0  0  0  0  0  0  0  0  0  0  0  0  # atno 10763 bound_to 10752
  153.7585  135.6934  153.4935 H   0  0  0  0  0  0  0  0  0  0  0  0  # atno 10764 bound_to 10752
  153.2127  135.4476  155.0348 H   0  0  0  0  0  0  0  0  0  0  0  0  # atno 10765 bound_to 10752
  140.2170  134.8225  157.3181 H   0  0  0  0  0  0  0  0  0  0  0  0  # atno 11005 bound_to 11000
  146.1416  139.4474  143.0105 LP  0  0  0  0  0  0  0  0  0  0  0  0  # atno 17320 bound_to 7965
  145.7009  141.0136  143.1504 LP  0  0  0  0  0  0  0  0  0  0  0  0  # atno 17321 bound_to 7965
  140.3699  143.2860  152.0290 LP  0  0  0  0  0  0  0  0  0  0  0  0  # atno 17342 bound_to 10162
  139.4857  144.6238  151.7204 LP  0  0  0  0  0  0  0  0  0  0  0  0  # atno 17343 bound_to 10162
  156.3529  130.3834  149.7314 LP  0  0  0  0  0  0  0  0  0  0  0  0  # atno 17370 bound_to 10713
  156.4786  130.8030  151.3045 LP  0  0  0  0  0  0  0  0  0  0  0  0  # atno 17371 bound_to 10713
  140.1890  134.4395  155.7727 LP  0  0  0  0  0  0  0  0  0  0  0  0  # atno 17394 bound_to 11000
  141.2224  133.7018  156.7995 LP  0  0  0  0  0  0  0  0  0  0  0  0  # atno 17395 bound_to 11000

$$$$
