#       Name:                AV-unprocessed.smi:1056
#       Creating user name   scv26
#       Creation time:       Fri Mar 27 03:13:39 2020


#       File generated by GOLD software.
#

@<TRIPOS>MOLECULE
AV-unprocessed.smi:1056
    50    52     1
SMALL
NO_CHARGES


@<TRIPOS>ATOM
      1 ****        -3.0790   4.8460  -2.1002 C.3            1 S1                 0.0000
      2 ****        -2.7212   3.6502  -1.2352 C.ar           1 S1                 0.0000
      3 ****        -2.8575   3.7519   0.1677 C.ar           1 S1                 0.0000
      4 ****        -2.5393   2.6620   1.0071 C.ar           1 S1                 0.0000
      5 ****        -2.5985   2.5403   2.3848 N.2            1 S1                 0.0000
      6 ****        -2.1768   1.2918   2.5625 C.2            1 S1                 0.0000
      7 ****        -1.8473   0.5899   1.4607 N.pl3          1 S1                 0.0000
      8 ****        -1.3616  -0.7769   1.4006 C.3            1 S1                 0.0000
      9 ****         0.1647  -0.8474   1.2032 C.3            1 S1                 0.0000
     10 ****         0.8077  -0.2311   2.3031 O.3            1 S1                 0.0000
     11 ****         0.6636  -2.3008   1.0860 C.3            1 S1                 0.0000
     12 ****         2.1126  -2.3779   0.7706 N.4            1 S1                 1.0000
     13 ****         2.4279  -2.1297  -0.6565 C.3            1 S1                 0.0000
     14 ****         3.9498  -2.0084  -0.8483 C.3            1 S1                 0.0000
     15 ****         4.7003  -3.0239  -0.1132 N.am           1 S1                 0.0000
     16 ****         4.2081  -3.7974   0.8682 C.2            1 S1                 0.0000
     17 ****         4.9039  -4.6261   1.4490 O.2            1 S1                 0.0000
     18 ****         2.7319  -3.6350   1.2627 C.3            1 S1                 0.0000
     19 ****        -2.0750   1.4589   0.3996 C.ar           1 S1                 0.0000
     20 ****        -1.9341   1.3453  -0.9946 C.ar           1 S1                 0.0000
     21 ****        -2.2592   2.4431  -1.8188 C.ar           1 S1                 0.0000
     22 ****        -2.1087   2.3101  -3.3240 C.3            1 S1                 0.0000
     23 ****        -3.3598   5.7068  -1.4926 H              1 S1                 0.0000
     24 ****        -3.9196   4.6062  -2.7516 H              1 S1                 0.0000
     25 ****        -2.2320   5.1393  -2.7206 H              1 S1                 0.0000
     26 ****        -3.2104   4.6708   0.6124 H              1 S1                 0.0000
     27 ****        -2.0984   0.8639   3.5513 H              1 S1                 0.0000
     28 ****        -1.6567  -1.2952   2.3142 H              1 S1                 0.0000
     29 ****        -1.8716  -1.2803   0.5783 H              1 S1                 0.0000
     30 ****         0.4230  -0.2873   0.3049 H              1 S1                 0.0000
     31 ****         0.5102  -0.6436   3.1001 H              1 S1                 0.0000
     32 ****         0.4636  -2.8132   2.0288 H              1 S1                 0.0000
     33 ****         0.1019  -2.8409   0.3222 H              1 S1                 0.0000
     34 ****         2.0390  -2.9537  -1.2570 H              1 S1                 0.0000
     35 ****         1.9462  -1.2223  -1.0187 H              1 S1                 0.0000
     36 ****         4.2051  -2.0654  -1.9067 H              1 S1                 0.0000
     37 ****         4.2858  -1.0324  -0.4962 H              1 S1                 0.0000
     38 ****         5.6716  -3.1437  -0.3639 H              1 S1                 0.0000
     39 ****         2.6512  -3.6750   2.3498 H              1 S1                 0.0000
     40 ****         2.1807  -4.4896   0.8678 H              1 S1                 0.0000
     41 ****        -1.5815   0.4204  -1.4259 H              1 S1                 0.0000
     42 ****        -1.7604   1.3152  -3.6029 H              1 S1                 0.0000
     43 ****        -1.3873   3.0347  -3.7017 H              1 S1                 0.0000
     44 ****        -3.0643   2.4814  -3.8203 H              1 S1                 0.0000
     45 ****         2.5520  -1.6332   1.2930 H              1 S1                 0.0000
     46 ****        -2.8834   3.2140   3.0668 LP             1 S1                 0.0000
     47 ****         0.5800   0.7425   2.3232 LP             1 S1                 0.0000
     48 ****         1.7981  -0.3400   2.2177 LP             1 S1                 0.0000
     49 ****         5.8644  -4.7387   1.1948 LP             1 S1                 0.0000
     50 ****         4.5099  -5.1882   2.1762 LP             1 S1                 0.0000
@<TRIPOS>BOND
    1    1    2 1     
    2    1   23 1     
    3    1   24 1     
    4    1   25 1     
    5    2   21 ar    
    6    2    3 ar    
    7    3    4 ar    
    8    3   26 1     
    9    4   19 ar    
   10    4    5 1     
   11    5    6 2     
   12    6    7 1     
   13    6   27 1     
   14    7    8 1     
   15    7   19 1     
   16    8    9 1     
   17    8   28 1     
   18    8   29 1     
   19    9   10 1     
   20    9   11 1     
   21    9   30 1     
   22   10   31 1     
   23   11   12 1     
   24   11   32 1     
   25   11   33 1     
   26   12   18 1     
   27   12   13 1     
   28   12   45 1     
   29   13   14 1     
   30   13   34 1     
   31   13   35 1     
   32   14   15 1     
   33   14   36 1     
   34   14   37 1     
   35   15   16 am    
   36   15   38 1     
   37   16   17 2     
   38   16   18 1     
   39   18   39 1     
   40   18   40 1     
   41   19   20 ar    
   42   20   21 ar    
   43   20   41 1     
   44   21   22 1     
   45   22   42 1     
   46   22   43 1     
   47   22   44 1     
   48    5   46 1     
   49   10   47 1     
   50   10   48 1     
   51   17   49 1     
   52   17   50 1     
@<TRIPOS>SUBSTRUCTURE
      1 S1             1
@<TRIPOS>SET
LONE_PAIRS      STATIC     ATOMS    <user>   **** ""
5 46 47 48 49 50
DONOR_HYDROGENS      STATIC     ATOMS    <user>   **** ""
3 31 45 38
ATOM$BLUE        STATIC     ATOMS    COLORGROUP SYSTEM
5 46 47 48 49 50
ATOM$RED        STATIC     ATOMS    COLORGROUP SYSTEM
3 31 45 38
