AV-unprocessed.smi:2884|AV-procd|sdf|11083|dock6
  -GOLD-   2272015553D 1   1.00000     0.00000
 Structure written by MMmdl.
 42 43  0  0  0  0  0  0  0  0  1 V2000
  147.1027  127.9325  151.6110 C   0  0  0  0  0  0  0  0  0  0  0  0
  147.1885  129.0715  152.6355 C   0  0  0  0  0  0  0  0  0  0  0  0
  146.2232  130.2219  152.3262 C   0  0  0  0  0  0  0  0  0  0  0  0
  146.5499  131.3191  153.1713 O   0  0  0  0  0  0  0  0  0  0  0  0
  146.6171  132.6397  152.6190 C   0  0  0  0  0  0  0  0  0  0  0  0
  148.1397  132.8410  152.4168 C   0  0  0  0  0  0  0  0  0  0  0  0
  148.9162  132.3269  153.5386 N   0  0  0  0  0  0  0  0  0  0  0  0
  149.6454  133.0055  154.5073 C   0  0  0  0  0  0  0  0  0  0  0  0
  149.7533  134.4600  154.5561 C   0  0  0  0  0  0  0  0  0  0  0  0
  150.4381  135.0803  155.4551 N   0  0  0  0  0  0  0  0  0  0  0  0
  151.0895  134.3382  156.4094 N   0  0  0  0  0  0  0  0  0  0  0  0
  151.0908  132.9890  156.5196 C   0  0  0  0  0  0  0  0  0  0  0  0
  151.7054  132.4190  157.4190 O   0  0  0  0  0  0  0  0  0  0  0  0
  150.3045  132.3137  155.4781 C   0  0  0  0  0  0  0  0  0  0  0  0
  150.2497  130.5824  155.5139 Cl  0  0  0  0  0  0  0  0  0  0  0  0
  145.8266  132.7962  151.2878 C   0  0  0  0  0  0  0  0  0  0  0  0
  145.8359  134.2434  150.7640 C   0  0  0  0  0  0  0  0  0  0  0  0
  145.2954  135.2182  151.8215 C   0  0  0  0  0  0  0  0  0  0  0  0
  146.0698  135.0989  153.1433 C   0  0  0  0  0  0  0  0  0  0  0  0
  146.0757  133.6492  153.6636 C   0  0  0  0  0  0  0  0  0  0  0  0
  151.6064  134.8881  157.0803 H   0  0  0  0  0  0  0  0  0  0  0  0
  147.7888  127.1257  151.8692 H   0  0  0  0  0  0  0  0  0  0  0  0
  147.3608  128.2791  150.6097 H   0  0  0  0  0  0  0  0  0  0  0  0
  146.0966  127.5137  151.5709 H   0  0  0  0  0  0  0  0  0  0  0  0
  146.9656  128.6743  153.6263 H   0  0  0  0  0  0  0  0  0  0  0  0
  148.2100  129.4512  152.6798 H   0  0  0  0  0  0  0  0  0  0  0  0
  146.3194  130.4944  151.2750 H   0  0  0  0  0  0  0  0  0  0  0  0
  145.1991  129.8899  152.4922 H   0  0  0  0  0  0  0  0  0  0  0  0
  148.4727  132.4063  151.4780 H   0  0  0  0  0  0  0  0  0  0  0  0
  148.3558  133.9070  152.3389 H   0  0  0  0  0  0  0  0  0  0  0  0
  149.0611  131.3274  153.5028 H   0  0  0  0  0  0  0  0  0  0  0  0
  149.2183  135.0124  153.7861 H   0  0  0  0  0  0  0  0  0  0  0  0
  146.2102  132.1186  150.5249 H   0  0  0  0  0  0  0  0  0  0  0  0
  144.7819  132.5235  151.4347 H   0  0  0  0  0  0  0  0  0  0  0  0
  146.8439  134.5361  150.4735 H   0  0  0  0  0  0  0  0  0  0  0  0
  145.2301  134.3102  149.8600 H   0  0  0  0  0  0  0  0  0  0  0  0
  145.3510  136.2411  151.4481 H   0  0  0  0  0  0  0  0  0  0  0  0
  144.2393  135.0122  151.9997 H   0  0  0  0  0  0  0  0  0  0  0  0
  147.0911  135.4540  153.0047 H   0  0  0  0  0  0  0  0  0  0  0  0
  145.6224  135.7550  153.8907 H   0  0  0  0  0  0  0  0  0  0  0  0
  145.0541  133.3924  153.9408 H   0  0  0  0  0  0  0  0  0  0  0  0
  146.6595  133.5889  154.5827 H   0  0  0  0  0  0  0  0  0  0  0  0
  1  2  1  0  0  0  0
  1 22  1  0  0  0  0
  1 23  1  0  0  0  0
  1 24  1  0  0  0  0
  2  3  1  0  0  0  0
  2 25  1  0  0  0  0
  2 26  1  0  0  0  0
  3  4  1  0  0  0  0
  3 27  1  0  0  0  0
  3 28  1  0  0  0  0
  4  5  1  0  0  0  0
  5 20  1  0  0  0  0
  5  6  1  0  0  0  0
  5 16  1  0  0  0  0
  6  7  1  0  0  0  0
  6 29  1  0  0  0  0
  6 30  1  0  0  0  0
  7  8  1  0  0  0  0
  7 31  1  0  0  0  0
  8 14  2  0  0  0  0
  8  9  1  0  0  0  0
  9 10  2  0  0  0  0
  9 32  1  0  0  0  0
 10 11  1  0  0  0  0
 11 21  1  0  0  0  0
 11 12  1  0  0  0  0
 12 13  2  0  0  0  0
 12 14  1  0  0  0  0
 14 15  1  0  0  0  0
 16 17  1  0  0  0  0
 16 33  1  0  0  0  0
 16 34  1  0  0  0  0
 17 18  1  0  0  0  0
 17 35  1  0  0  0  0
 17 36  1  0  0  0  0
 18 19  1  0  0  0  0
 18 37  1  0  0  0  0
 18 38  1  0  0  0  0
 19 20  1  0  0  0  0
 19 39  1  0  0  0  0
 19 40  1  0  0  0  0
 20 41  1  0  0  0  0
 20 42  1  0  0  0  0
M  END
> <s_m_source_file>
AV-unprocessed.smi

> <i_m_source_file_index>
2884

> <i_lp_mmshare_version>
43012

> <i_f3d_flags>
0

> <s_epik_input>
W0NIMl0xW0NIMl1bQ0gyXVtDSDJdW0NIMl1DMShPW0NIMl1bQ0gyXVtDSDNdKVtDSDJdW05IXWMyW2NIXW5bbkhdYyg9TyljMkNs

> <s_epik_cmdline>
J2VwaWtfcHl0aG9uJywgJy1waCcsICc3LjAnLCAnLXRuJywgJzgnLCAnLW1hJywgJzIwMCcsICctbWV0YWxfYmluZGluZycsICctaW1hZScsICc8aW5maWxlLm1hZT4nLCAnLW9tYWUnLCAnPG91dGZpbGUubWFlPic=

> <r_lp_tautomer_probability>
0.986175

> <r_epik_Ionization_Penalty>
0.00111508

> <r_epik_Ionization_Penalty_Charging>
0.00108742

> <r_epik_Ionization_Penalty_Neutral>
2.7657e-05

> <r_epik_State_Penalty>
0.00620319

> <r_epik_Charging_Adjusted_Penalty>
0.00729061

> <i_epik_Tot_Q>
0

> <i_epik_Tot_abs_Q>
0

> <r_epik_Metal_State_Penalty>
0.300009

> <b_epik_Metal_Only>
0

> <s_lp_Force_Field>
OPLS_2005

> <r_lp_Energy>
35.8934

> <b_lp_Chiralities_Consistent>
1

> <s_lp_Variant>
AV-unprocessed.smi:2884-1

> <Gold.Version>
5.8.1

> <Gold.Id.Protein>
6NUR|6NUR_protein|mol2

> <Gold.PLP.Fitness>
35.9683

> <Gold.PLP.PLP>
-32.7196

> <Gold.PLP.part.hbond>
-1.0000

> <Gold.PLP.part.metal>
0.0000

> <Gold.PLP.part.buried>
-2.5933

> <Gold.PLP.part.nonpolar>
-28.8283

> <Gold.PLP.part.repulsive>
0.3904

> <Gold.PLP.ligand.clash>
0.0000

> <Gold.PLP.ligand.torsion>
1.3886

> <Gold.PLP.Chemscore.Hbond>
1.0000

> <Gold.PLP.Chemscore.CHOScore>
1.0000

> <Gold.PLP.Chemscore.Metal>
0.0000

> <Gold.Chemscore.Hbonds>
donor molecule, donor type, donor heavy atom, donor atom, acceptor molecule, acceptor atom, score
      P1  H  6896  6908       L1    13  0.93
      L1  C     9    32       P1  7948  1.00

> <Gold.PLP.Chemscore.Internal.Correction>
0.0259

> <Gold.Rescore>
     Score         DG    S(hbond)    S(metal)    S(lipo)     H(rot)  DE(clash)    DE(int)     intcor
     11.95     -13.46       0.93        0.00      80.35       1.77       0.11       1.41       ----

> <Gold.Chemscore.Fitness>
11.9473

> <Gold.Chemscore.DG>
-13.4632

> <Gold.Chemscore.ZeroCoef>
-5.4800

> <Gold.Chemscore.Hbond>
0.9293

> <Gold.Chemscore.Metal>
0.0000

> <Gold.Chemscore.Lipo>
80.3505

> <Gold.Chemscore.Internal_Hbond>
0.0000

> <Gold.Chemscore.DEClash>
0.1103

> <Gold.Chemscore.DEInternal>
1.4056

> <Gold.Chemscore.Rot>
1.7663

> <Gold.Chemscore.Internal.Correction>
   9.000000E+99

> <Gold.Chemscore.Hbonds>
donor molecule, donor type, donor heavy atom, donor atom, acceptor molecule, acceptor atom, score
      P1  H  6896  6908       L1    13  0.81

> <Gold.Chemscore.Hbond.Weighted>
-3.1038

> <Gold.Chemscore.Metal.Weighted>
-0.0000

> <Gold.Chemscore.Lipo.Weighted>
-9.4010

> <Gold.Chemscore.Internal_Hbond.Weighted>
0.0000

> <Gold.Chemscore.DEClash.Weighted>
0.1103

> <Gold.Chemscore.DEInternal.Weighted>
1.4056

> <Gold.Chemscore.Rot.Weighted>
4.5216

> <Gold.Chemscore.Internal.Correction.Weighted>
   9.000000E+99

> <Gold.Protein.RotatedTorsions>
[ 6907 6896 6895 6894 ] final   53.26 input  -60.11 | X-H torsion
[ 7974 7965 7964 7962 ] final  -70.34 input  175.53 | X-H torsion
[ 8008 7997 7996 7995 ] final  109.73 input   59.86 | X-H torsion
[ 10167 10162 10161 10158 ] final   92.14 input  -65.29 | X-H torsion
[ 10718 10713 10712 10709 ] final   38.87 input   66.30 | X-H torsion
[ 10763 10752 10751 10750 ] final  -41.23 input  -60.55 | X-H torsion
[ 11005 11000 10999 10996 ] final -118.93 input  -57.11 | X-H torsion

> <Gold.Protein.ActiveResidues>
 VAL166  LYS551  ARG553  GLY616  TRP617  ASP618  TYR619  PRO620  LYS621  CYS622 
 ASP623  PHE694  ASN695  SER759  ASP760  ASP761  ALA762  ILE779  LEU786  VAL792 
 PHE793  MET794  SER795  GLU796  ALA797  LYS798  CYS799  TRP800  GLU811  SER814 

> <Gold.Protein.RotatedAtoms>
  152.3319  134.7248  160.0287 H   0  0  0  0  0  0  0  0  0  0  0  0  # atno 6907 bound_to 6896
  151.7662  133.3332  159.3439 H   0  0  0  0  0  0  0  0  0  0  0  0  # atno 6908 bound_to 6896
  150.7428  134.5992  159.6072 H   0  0  0  0  0  0  0  0  0  0  0  0  # atno 6909 bound_to 6896
  145.6922  140.9148  143.0775 H   0  0  0  0  0  0  0  0  0  0  0  0  # atno 7974 bound_to 7965
  156.2001  140.3052  155.9509 H   0  0  0  0  0  0  0  0  0  0  0  0  # atno 8008 bound_to 7997
  155.2974  140.0445  157.3044 H   0  0  0  0  0  0  0  0  0  0  0  0  # atno 8009 bound_to 7997
  154.5560  140.2306  155.8419 H   0  0  0  0  0  0  0  0  0  0  0  0  # atno 8010 bound_to 7997
  139.8306  144.6689  150.9404 H   0  0  0  0  0  0  0  0  0  0  0  0  # atno 10167 bound_to 10162
  157.3639  130.7664  149.7068 H   0  0  0  0  0  0  0  0  0  0  0  0  # atno 10718 bound_to 10713
  153.9590  135.6742  153.4745 H   0  0  0  0  0  0  0  0  0  0  0  0  # atno 10763 bound_to 10752
  153.0847  135.4905  154.8570 H   0  0  0  0  0  0  0  0  0  0  0  0  # atno 10764 bound_to 10752
  154.7283  135.3132  154.8894 H   0  0  0  0  0  0  0  0  0  0  0  0  # atno 10765 bound_to 10752
  141.0251  134.0065  157.3225 H   0  0  0  0  0  0  0  0  0  0  0  0  # atno 11005 bound_to 11000
  144.6993  139.8837  143.7449 LP  0  0  0  0  0  0  0  0  0  0  0  0  # atno 17320 bound_to 7965
  146.0871  139.3860  143.0428 LP  0  0  0  0  0  0  0  0  0  0  0  0  # atno 17321 bound_to 7965
  140.7807  143.4004  151.1158 LP  0  0  0  0  0  0  0  0  0  0  0  0  # atno 17342 bound_to 10162
  139.7658  143.8567  152.3110 LP  0  0  0  0  0  0  0  0  0  0  0  0  # atno 17343 bound_to 10162
  155.9742  130.4106  150.3938 LP  0  0  0  0  0  0  0  0  0  0  0  0  # atno 17370 bound_to 10713
  157.2020  131.0440  151.2645 LP  0  0  0  0  0  0  0  0  0  0  0  0  # atno 17371 bound_to 10713
  139.9171  135.0198  156.7923 LP  0  0  0  0  0  0  0  0  0  0  0  0  # atno 17394 bound_to 11000
  140.6505  133.9736  155.7752 LP  0  0  0  0  0  0  0  0  0  0  0  0  # atno 17395 bound_to 11000

$$$$
