AV-unprocessed.smi:693|AV-procd|sdf|3372|dock4
  -GOLD-   22720 0353D 1   1.00000     0.00000
 Structure written by MMmdl.
 46 47  0  0  0  0  0  0  0  0  1 V2000
  154.6348  140.5781  162.4980 C   0  0  0  0  0  0  0  0  0  0  0  0
  153.8805  141.5866  161.6569 C   0  0  0  0  0  0  0  0  0  0  0  0
  152.9337  142.4533  162.2427 C   0  0  0  0  0  0  0  0  0  0  0  0
  152.2588  143.3685  161.4123 C   0  0  0  0  0  0  0  0  0  0  0  0
  152.5540  143.3817  160.0336 C   0  0  0  0  0  0  0  0  0  0  0  0
  151.8568  144.3485  159.0973 C   0  0  0  0  0  0  0  0  0  0  0  0
  150.4582  143.8557  158.6929 C   0  0  0  0  0  0  0  0  0  0  0  0
  150.4966  143.1064  157.4430 N   0  0  0  0  0  0  0  0  0  0  0  0
  150.9246  141.8399  157.3055 C   0  0  0  0  0  0  0  0  0  0  0  0
  151.3617  141.1908  158.2569 O   0  0  0  0  0  0  0  0  0  0  0  0
  150.8581  141.3528  156.0401 N   0  0  0  0  0  0  0  0  0  0  0  0
  149.8843  141.7449  155.0085 C   0  0  0  0  0  0  0  0  0  0  0  0
  148.8339  140.6294  154.8874 C   0  0  0  0  0  0  0  0  0  0  0  0
  149.4999  139.2782  154.5646 C   0  0  0  0  0  0  0  0  0  0  0  0
  150.6753  138.9533  155.5223 C   0  0  1  0  0  0  0  0  0  0  0  0
  151.4628  137.6860  155.1175 C   0  0  0  0  0  0  0  0  0  0  0  0
  150.7202  136.3758  155.4004 C   0  0  0  0  0  0  0  0  0  0  0  0
  150.5994  135.5152  154.3868 N   0  0  0  0  0  0  0  0  0  0  0  0
  150.2412  136.1511  156.5096 O   0  0  0  0  0  0  0  0  0  0  0  0
  151.6223  140.1710  155.6209 C   0  0  0  0  0  0  0  0  0  0  0  0
  153.5178  142.4730  159.5479 C   0  0  0  0  0  0  0  0  0  0  0  0
  154.1705  141.5924  160.3370 N   0  0  0  0  0  0  0  0  0  0  0  0
  154.4740  140.7524  163.5624 H   0  0  0  0  0  0  0  0  0  0  0  0
  155.7059  140.6405  162.3027 H   0  0  0  0  0  0  0  0  0  0  0  0
  154.3006  139.5673  162.2635 H   0  0  0  0  0  0  0  0  0  0  0  0
  152.7268  142.4195  163.3023 H   0  0  0  0  0  0  0  0  0  0  0  0
  151.5289  144.0474  161.8283 H   0  0  0  0  0  0  0  0  0  0  0  0
  151.7900  145.3218  159.5854 H   0  0  0  0  0  0  0  0  0  0  0  0
  152.4743  144.4920  158.2095 H   0  0  0  0  0  0  0  0  0  0  0  0
  150.0599  143.1969  159.4649 H   0  0  0  0  0  0  0  0  0  0  0  0
  149.7630  144.6928  158.6085 H   0  0  0  0  0  0  0  0  0  0  0  0
  150.1626  143.5815  156.6172 H   0  0  0  0  0  0  0  0  0  0  0  0
  149.3931  142.6986  155.1997 H   0  0  0  0  0  0  0  0  0  0  0  0
  150.4007  141.8742  154.0562 H   0  0  0  0  0  0  0  0  0  0  0  0
  148.2781  140.5494  155.8228 H   0  0  0  0  0  0  0  0  0  0  0  0
  148.1066  140.8799  154.1148 H   0  0  0  0  0  0  0  0  0  0  0  0
  148.7432  138.4950  154.5995 H   0  0  0  0  0  0  0  0  0  0  0  0
  149.8695  139.3036  153.5386 H   0  0  0  0  0  0  0  0  0  0  0  0
  150.2583  138.7848  156.5171 H   0  0  0  0  0  0  0  0  0  0  0  0
  151.7082  137.7243  154.0553 H   0  0  0  0  0  0  0  0  0  0  0  0
  152.4184  137.6645  155.6438 H   0  0  0  0  0  0  0  0  0  0  0  0
  150.1169  134.6387  154.5226 H   0  0  0  0  0  0  0  0  0  0  0  0
  150.9909  135.7461  153.4852 H   0  0  0  0  0  0  0  0  0  0  0  0
  152.0871  140.3662  154.6533 H   0  0  0  0  0  0  0  0  0  0  0  0
  152.4478  139.9546  156.3007 H   0  0  0  0  0  0  0  0  0  0  0  0
  153.7735  142.4526  158.4986 H   0  0  0  0  0  0  0  0  0  0  0  0
  1  2  1  0  0  0  0
  1 23  1  0  0  0  0
  1 24  1  0  0  0  0
  1 25  1  0  0  0  0
  2 22  1  0  0  0  0
  2  3  2  0  0  0  0
  3  4  1  0  0  0  0
  3 26  1  0  0  0  0
  4  5  2  0  0  0  0
  4 27  1  0  0  0  0
  5  6  1  0  0  0  0
  5 21  1  0  0  0  0
  6  7  1  0  0  0  0
  6 28  1  0  0  0  0
  6 29  1  0  0  0  0
  7  8  1  0  0  0  0
  7 30  1  0  0  0  0
  7 31  1  0  0  0  0
  8  9  1  0  0  0  0
  8 32  1  0  0  0  0
  9 10  2  0  0  0  0
  9 11  1  0  0  0  0
 11 20  1  0  0  0  0
 11 12  1  0  0  0  0
 12 13  1  0  0  0  0
 12 33  1  0  0  0  0
 12 34  1  0  0  0  0
 13 14  1  0  0  0  0
 13 35  1  0  0  0  0
 13 36  1  0  0  0  0
 14 15  1  0  0  0  0
 14 37  1  0  0  0  0
 14 38  1  0  0  0  0
 15 16  1  0  0  0  0
 15 20  1  0  0  0  0
 15 39  1  0  0  0  0
 16 17  1  0  0  0  0
 16 40  1  0  0  0  0
 16 41  1  0  0  0  0
 17 18  1  0  0  0  0
 17 19  2  0  0  0  0
 18 42  1  0  0  0  0
 18 43  1  0  0  0  0
 20 44  1  0  0  0  0
 20 45  1  0  0  0  0
 21 22  2  0  0  0  0
 21 46  1  0  0  0  0
M  END
> <s_m_source_file>
AV-unprocessed.smi

> <i_m_source_file_index>
693

> <i_lp_mmshare_version>
43012

> <i_f3d_flags>
0

> <s_epik_input>
W0NIM11jMVtjSF1bY0hdYyhbY0hdbjEpW0NIMl1bQ0gyXVtOSF1DKD1PKU4yW0NIMl1bQ0gyXVtDSDJdW0NASF0oW0NIMl0yKVtDSDJdQyg9TylbTkgyXQ==

> <s_epik_cmdline>
J2VwaWtfcHl0aG9uJywgJy1waCcsICc3LjAnLCAnLXRuJywgJzgnLCAnLW1hJywgJzIwMCcsICctbWV0YWxfYmluZGluZycsICctaW1hZScsICc8aW5maWxlLm1hZT4nLCAnLW9tYWUnLCAnPG91dGZpbGUubWFlPic=

> <r_epik_Ionization_Penalty>
0.056948

> <r_epik_Ionization_Penalty_Charging>
0

> <r_epik_Ionization_Penalty_Neutral>
0.056948

> <r_epik_State_Penalty>
0.0490937

> <r_epik_Charging_Adjusted_Penalty>
0.0490937

> <i_epik_Tot_Q>
0

> <i_epik_Tot_abs_Q>
0

> <r_epik_Metal_State_Penalty>
0.0447689

> <b_epik_Metal_Only>
0

> <s_lp_Force_Field>
OPLS_2005

> <r_lp_Energy>
25.6146

> <b_lp_Chiralities_Consistent>
1

> <s_lp_Variant>
AV-unprocessed.smi:693-1

> <Gold.Version>
5.8.1

> <Gold.Id.Protein>
6NUR|6NUR_protein|mol2

> <Gold.PLP.Fitness>
53.3579

> <Gold.PLP.PLP>
-49.5149

> <Gold.PLP.part.hbond>
-2.8123

> <Gold.PLP.part.metal>
0.0000

> <Gold.PLP.part.buried>
-1.3538

> <Gold.PLP.part.nonpolar>
-44.1905

> <Gold.PLP.part.repulsive>
0.1142

> <Gold.PLP.ligand.clash>
0.0000

> <Gold.PLP.ligand.torsion>
1.0542

> <Gold.PLP.Chemscore.Hbond>
1.9500

> <Gold.PLP.Chemscore.CHOScore>
0.0000

> <Gold.PLP.Chemscore.Metal>
0.0000

> <Gold.Chemscore.Hbonds>
donor molecule, donor type, donor heavy atom, donor atom, acceptor molecule, acceptor atom, score
      L1  H     8    32       P1  8028  1.00
      L1  H    18    43       P1  7949  0.85

> <Gold.PLP.Chemscore.Internal.Correction>
0.1015

> <Gold.Rescore>
     Score         DG    S(hbond)    S(metal)    S(lipo)     H(rot)  DE(clash)    DE(int)     intcor
     15.99     -18.73       1.13        0.00     130.32       2.25       0.39       2.34       ----

> <Gold.Chemscore.Fitness>
15.9944

> <Gold.Chemscore.DG>
-18.7285

> <Gold.Chemscore.ZeroCoef>
-5.4800

> <Gold.Chemscore.Hbond>
1.1269

> <Gold.Chemscore.Metal>
0.0000

> <Gold.Chemscore.Lipo>
130.3234

> <Gold.Chemscore.Internal_Hbond>
0.0000

> <Gold.Chemscore.DEClash>
0.3939

> <Gold.Chemscore.DEInternal>
2.3402

> <Gold.Chemscore.Rot>
2.2512

> <Gold.Chemscore.Internal.Correction>
   9.000000E+99

> <Gold.Chemscore.Hbonds>
donor molecule, donor type, donor heavy atom, donor atom, acceptor molecule, acceptor atom, score
      L1  H     8    32       P1  8028  0.96
      L1  H    18    43       P1  7949  0.14

> <Gold.Chemscore.Hbond.Weighted>
-3.7638

> <Gold.Chemscore.Metal.Weighted>
-0.0000

> <Gold.Chemscore.Lipo.Weighted>
-15.2478

> <Gold.Chemscore.Internal_Hbond.Weighted>
0.0000

> <Gold.Chemscore.DEClash.Weighted>
0.3939

> <Gold.Chemscore.DEInternal.Weighted>
2.3402

> <Gold.Chemscore.Rot.Weighted>
5.7631

> <Gold.Chemscore.Internal.Correction.Weighted>
   9.000000E+99

> <Gold.Protein.RotatedTorsions>
[ 6907 6896 6895 6894 ] final   61.76 input  -60.11 | X-H torsion
[ 7974 7965 7964 7962 ] final  179.57 input  175.53 | X-H torsion
[ 8008 7997 7996 7995 ] final   63.83 input   59.86 | X-H torsion
[ 10167 10162 10161 10158 ] final  173.78 input  -65.29 | X-H torsion
[ 10718 10713 10712 10709 ] final  142.77 input   66.30 | X-H torsion
[ 10763 10752 10751 10750 ] final -143.60 input  -60.55 | X-H torsion
[ 11005 11000 10999 10996 ] final  118.06 input  -57.11 | X-H torsion

> <Gold.Protein.ActiveResidues>
 VAL166  LYS551  ARG553  GLY616  TRP617  ASP618  TYR619  PRO620  LYS621  CYS622 
 ASP623  PHE694  ASN695  SER759  ASP760  ASP761  ALA762  ILE779  LEU786  VAL792 
 PHE793  MET794  SER795  GLU796  ALA797  LYS798  CYS799  TRP800  GLU811  SER814 

> <Gold.Protein.RotatedAtoms>
  152.4116  134.6114  160.0026 H   0  0  0  0  0  0  0  0  0  0  0  0  # atno 6907 bound_to 6896
  151.6290  133.3328  159.3112 H   0  0  0  0  0  0  0  0  0  0  0  0  # atno 6908 bound_to 6896
  150.8007  134.7138  159.6664 H   0  0  0  0  0  0  0  0  0  0  0  0  # atno 6909 bound_to 6896
  144.7144  140.0568  143.6434 H   0  0  0  0  0  0  0  0  0  0  0  0  # atno 7974 bound_to 7965
  155.6364  140.3496  155.4700 H   0  0  0  0  0  0  0  0  0  0  0  0  # atno 8008 bound_to 7997
  155.9961  140.1203  157.0615 H   0  0  0  0  0  0  0  0  0  0  0  0  # atno 8009 bound_to 7997
  154.4234  140.1110  156.5619 H   0  0  0  0  0  0  0  0  0  0  0  0  # atno 8010 bound_to 7997
  139.5120  144.3221  152.0192 H   0  0  0  0  0  0  0  0  0  0  0  0  # atno 10167 bound_to 10162
  157.3767  131.0986  151.0777 H   0  0  0  0  0  0  0  0  0  0  0  0  # atno 10718 bound_to 10713
  154.8463  135.3463  154.6213 H   0  0  0  0  0  0  0  0  0  0  0  0  # atno 10763 bound_to 10752
  153.6822  135.6979  153.5119 H   0  0  0  0  0  0  0  0  0  0  0  0  # atno 10764 bound_to 10752
  153.2659  135.4308  155.0896 H   0  0  0  0  0  0  0  0  0  0  0  0  # atno 10765 bound_to 10752
  139.9096  134.9616  156.7445 H   0  0  0  0  0  0  0  0  0  0  0  0  # atno 11005 bound_to 11000
  145.9898  139.3006  143.0992 LP  0  0  0  0  0  0  0  0  0  0  0  0  # atno 17320 bound_to 7965
  145.8916  140.9300  143.0549 LP  0  0  0  0  0  0  0  0  0  0  0  0  # atno 17321 bound_to 7965
  140.2663  144.4013  150.6167 LP  0  0  0  0  0  0  0  0  0  0  0  0  # atno 17342 bound_to 10162
  140.6121  143.2170  151.6866 LP  0  0  0  0  0  0  0  0  0  0  0  0  # atno 17343 bound_to 10162
  157.1861  130.6331  149.5688 LP  0  0  0  0  0  0  0  0  0  0  0  0  # atno 17370 bound_to 10713
  155.9767  130.4737  150.6544 LP  0  0  0  0  0  0  0  0  0  0  0  0  # atno 17371 bound_to 10713
  140.6823  133.9464  155.7917 LP  0  0  0  0  0  0  0  0  0  0  0  0  # atno 17394 bound_to 11000
  141.0501  134.0496  157.3794 LP  0  0  0  0  0  0  0  0  0  0  0  0  # atno 17395 bound_to 11000

$$$$
