AV-unprocessed.smi:458|AV-procd|sdf|2620|dock3
  -GOLD-   2262023 23D 1   1.00000     0.00000
 Structure written by MMmdl.
 36 38  0  0  0  0  0  0  0  0  1 V2000
  152.8438  139.3612  156.5155 O   0  0  0  0  0  0  0  0  0  0  0  0
  152.0512  139.4634  157.6783 C   0  0  0  0  0  0  0  0  0  0  0  0
  151.9470  140.8662  158.1968 C   0  0  0  0  0  0  0  0  0  0  0  0
  152.2965  141.1761  159.4460 N   0  0  0  0  0  0  0  0  0  0  0  0
  152.0732  142.5376  159.4967 C   0  0  0  0  0  0  0  0  0  0  0  0
  152.2569  143.4592  160.5525 C   0  0  0  0  0  0  0  0  0  0  0  0
  151.9634  144.8258  160.3660 C   0  0  0  0  0  0  0  0  0  0  0  0
  151.4855  145.2901  159.1234 C   0  0  0  0  0  0  0  0  0  0  0  0
  151.2952  144.3884  158.0588 C   0  0  0  0  0  0  0  0  0  0  0  0
  151.5853  143.0240  158.2511 C   0  0  0  0  0  0  0  0  0  0  0  0
  151.5053  141.9001  157.4340 N   0  0  0  0  0  0  0  0  0  0  0  0
  151.0528  141.8836  156.0476 C   0  0  0  0  0  0  0  0  0  0  0  0
  150.0060  140.7845  155.7698 C   0  0  2  0  0  0  0  0  0  0  0  0
  150.4448  139.9458  154.7197 O   0  0  0  0  0  0  0  0  0  0  0  0
  148.6373  141.3853  155.4906 C   0  0  0  0  0  0  0  0  0  0  0  0
  148.2418  141.6530  154.1622 C   0  0  0  0  0  0  0  0  0  0  0  0
  146.9720  142.2022  153.8968 C   0  0  0  0  0  0  0  0  0  0  0  0
  146.0901  142.4846  154.9577 C   0  0  0  0  0  0  0  0  0  0  0  0
  144.8696  143.0120  154.7017 F   0  0  0  0  0  0  0  0  0  0  0  0
  146.4776  142.2161  156.2844 C   0  0  0  0  0  0  0  0  0  0  0  0
  147.7469  141.6670  156.5504 C   0  0  0  0  0  0  0  0  0  0  0  0
  152.4384  138.7415  155.9289 H   0  0  0  0  0  0  0  0  0  0  0  0
  151.0528  139.0913  157.4461 H   0  0  0  0  0  0  0  0  0  0  0  0
  152.4508  138.8119  158.4554 H   0  0  0  0  0  0  0  0  0  0  0  0
  152.6252  143.1138  161.5070 H   0  0  0  0  0  0  0  0  0  0  0  0
  152.1073  145.5216  161.1796 H   0  0  0  0  0  0  0  0  0  0  0  0
  151.2654  146.3389  158.9884 H   0  0  0  0  0  0  0  0  0  0  0  0
  150.9305  144.7420  157.1060 H   0  0  0  0  0  0  0  0  0  0  0  0
  150.6276  142.8629  155.8250 H   0  0  0  0  0  0  0  0  0  0  0  0
  151.9057  141.7664  155.3806 H   0  0  0  0  0  0  0  0  0  0  0  0
  149.9198  140.1477  156.6505 H   0  0  0  0  0  0  0  0  0  0  0  0
  149.7198  139.4065  154.4435 H   0  0  0  0  0  0  0  0  0  0  0  0
  148.9098  141.4370  153.3411 H   0  0  0  0  0  0  0  0  0  0  0  0
  146.6739  142.4057  152.8788 H   0  0  0  0  0  0  0  0  0  0  0  0
  145.8007  142.4298  157.0985 H   0  0  0  0  0  0  0  0  0  0  0  0
  148.0343  141.4606  157.5712 H   0  0  0  0  0  0  0  0  0  0  0  0
  1  2  1  0  0  0  0
  1 22  1  0  0  0  0
  2  3  1  0  0  0  0
  2 23  1  0  0  0  0
  2 24  1  0  0  0  0
  3 11  1  0  0  0  0
  3  4  2  0  0  0  0
  4  5  1  0  0  0  0
  5 10  2  0  0  0  0
  5  6  1  0  0  0  0
  6  7  2  0  0  0  0
  6 25  1  0  0  0  0
  7  8  1  0  0  0  0
  7 26  1  0  0  0  0
  8  9  2  0  0  0  0
  8 27  1  0  0  0  0
  9 10  1  0  0  0  0
  9 28  1  0  0  0  0
 10 11  1  0  0  0  0
 11 12  1  0  0  0  0
 12 13  1  0  0  0  0
 12 29  1  0  0  0  0
 12 30  1  0  0  0  0
 13 14  1  0  0  0  0
 13 15  1  0  0  0  0
 13 31  1  0  0  0  0
 14 32  1  0  0  0  0
 15 21  1  0  0  0  0
 15 16  2  0  0  0  0
 16 17  1  0  0  0  0
 16 33  1  0  0  0  0
 17 18  2  0  0  0  0
 17 34  1  0  0  0  0
 18 19  1  0  0  0  0
 18 20  1  0  0  0  0
 20 21  2  0  0  0  0
 20 35  1  0  0  0  0
 21 36  1  0  0  0  0
M  END
> <s_m_source_file>
AV-unprocessed.smi

> <i_m_source_file_index>
458

> <i_lp_mmshare_version>
43012

> <i_f3d_flags>
0

> <s_epik_input>
W2NIXTFbY0hdW2NIXVtjSF1jKGMxMiluKGMobjIpW0NIMl1bT0hdKVtDSDJdW0NASF0oW09IXSljM1tjSF1bY0hdYyhGKVtjSF1bY0hdMw==

> <s_epik_cmdline>
J2VwaWtfcHl0aG9uJywgJy1waCcsICc3LjAnLCAnLXRuJywgJzgnLCAnLW1hJywgJzIwMCcsICctbWV0YWxfYmluZGluZycsICctaW1hZScsICc8aW5maWxlLm1hZT4nLCAnLW9tYWUnLCAnPG91dGZpbGUubWFlPic=

> <r_epik_Ionization_Penalty>
0.0634724

> <r_epik_Ionization_Penalty_Charging>
0

> <r_epik_Ionization_Penalty_Neutral>
0.0634724

> <r_epik_State_Penalty>
0.0551572

> <r_epik_Charging_Adjusted_Penalty>
0.0551572

> <i_epik_Tot_Q>
0

> <i_epik_Tot_abs_Q>
0

> <r_epik_Metal_State_Penalty>
5.78034e-05

> <b_epik_Metal_Only>
0

> <s_lp_Force_Field>
OPLS_2005

> <r_lp_Energy>
12.4444

> <b_lp_Chiralities_Consistent>
1

> <s_lp_Variant>
AV-unprocessed.smi:458-1

> <Gold.Version>
5.8.1

> <Gold.Id.Protein>
6NUR|6NUR_protein|mol2

> <Gold.PLP.Fitness>
51.2162

> <Gold.PLP.PLP>
-48.3340

> <Gold.PLP.part.hbond>
-2.0000

> <Gold.PLP.part.metal>
0.0000

> <Gold.PLP.part.buried>
-7.7867

> <Gold.PLP.part.nonpolar>
-38.3893

> <Gold.PLP.part.repulsive>
0.0000

> <Gold.PLP.ligand.clash>
0.0000

> <Gold.PLP.ligand.torsion>
1.5895

> <Gold.PLP.Chemscore.Hbond>
2.0000

> <Gold.PLP.Chemscore.CHOScore>
0.0000

> <Gold.PLP.Chemscore.Metal>
0.0000

> <Gold.Chemscore.Hbonds>
donor molecule, donor type, donor heavy atom, donor atom, acceptor molecule, acceptor atom, score
      P1  H  7989  7998       L1    14  1.00
      P1  H  7997  8009       L1     1  1.00

> <Gold.PLP.Chemscore.Internal.Correction>
0.0612

> <Gold.Rescore>
     Score         DG    S(hbond)    S(metal)    S(lipo)     H(rot)  DE(clash)    DE(int)     intcor
     16.24     -18.48       1.87        0.00     117.92       2.75       0.40       1.85       ----

> <Gold.Chemscore.Fitness>
16.2369

> <Gold.Chemscore.DG>
-18.4839

> <Gold.Chemscore.ZeroCoef>
-5.4800

> <Gold.Chemscore.Hbond>
1.8703

> <Gold.Chemscore.Metal>
0.0000

> <Gold.Chemscore.Lipo>
117.9223

> <Gold.Chemscore.Internal_Hbond>
0.0000

> <Gold.Chemscore.DEClash>
0.3977

> <Gold.Chemscore.DEInternal>
1.8494

> <Gold.Chemscore.Rot>
2.7500

> <Gold.Chemscore.Internal.Correction>
   9.000000E+99

> <Gold.Chemscore.Hbonds>
donor molecule, donor type, donor heavy atom, donor atom, acceptor molecule, acceptor atom, score
      P1  H  7989  7998       L1    14  0.81
      P1  H  7997  8009       L1     1  0.96

> <Gold.Chemscore.Hbond.Weighted>
-6.2469

> <Gold.Chemscore.Metal.Weighted>
-0.0000

> <Gold.Chemscore.Lipo.Weighted>
-13.7969

> <Gold.Chemscore.Internal_Hbond.Weighted>
0.0000

> <Gold.Chemscore.DEClash.Weighted>
0.3977

> <Gold.Chemscore.DEInternal.Weighted>
1.8494

> <Gold.Chemscore.Rot.Weighted>
7.0399

> <Gold.Chemscore.Internal.Correction.Weighted>
   9.000000E+99

> <Gold.Protein.RotatedTorsions>
[ 6907 6896 6895 6894 ] final   52.47 input  -60.11 | X-H torsion
[ 7974 7965 7964 7962 ] final  132.48 input  175.53 | X-H torsion
[ 8008 7997 7996 7995 ] final -174.30 input   59.86 | X-H torsion
[ 10167 10162 10161 10158 ] final  -59.05 input  -65.29 | X-H torsion
[ 10718 10713 10712 10709 ] final   30.30 input   66.30 | X-H torsion
[ 10763 10752 10751 10750 ] final -142.35 input  -60.55 | X-H torsion
[ 11005 11000 10999 10996 ] final  -20.11 input  -57.11 | X-H torsion

> <Gold.Protein.ActiveResidues>
 VAL166  LYS551  ARG553  GLY616  TRP617  ASP618  TYR619  PRO620  LYS621  CYS622 
 ASP623  PHE694  ASN695  SER759  ASP760  ASP761  ALA762  ILE779  LEU786  VAL792 
 PHE793  MET794  SER795  GLU796  ALA797  LYS798  CYS799  TRP800  GLU811  SER814 

> <Gold.Protein.RotatedAtoms>
  152.3236  134.7349  160.0307 H   0  0  0  0  0  0  0  0  0  0  0  0  # atno 6907 bound_to 6896
  151.7789  133.3342  159.3474 H   0  0  0  0  0  0  0  0  0  0  0  0  # atno 6908 bound_to 6896
  150.7383  134.5880  159.6017 H   0  0  0  0  0  0  0  0  0  0  0  0  # atno 6909 bound_to 6896
  144.9964  139.4356  143.5314 H   0  0  0  0  0  0  0  0  0  0  0  0  # atno 7974 bound_to 7965
  155.9684  140.1158  157.0834 H   0  0  0  0  0  0  0  0  0  0  0  0  # atno 8008 bound_to 7997
  154.4150  140.1168  156.5340 H   0  0  0  0  0  0  0  0  0  0  0  0  # atno 8009 bound_to 7997
  155.6629  140.3473  155.4791 H   0  0  0  0  0  0  0  0  0  0  0  0  # atno 8010 bound_to 7997
  140.6159  143.2402  151.5598 H   0  0  0  0  0  0  0  0  0  0  0  0  # atno 10167 bound_to 10162
  157.2578  130.7146  149.6438 H   0  0  0  0  0  0  0  0  0  0  0  0  # atno 10718 bound_to 10713
  154.8512  135.3498  154.6014 H   0  0  0  0  0  0  0  0  0  0  0  0  # atno 10763 bound_to 10752
  153.6623  135.6989  153.5178 H   0  0  0  0  0  0  0  0  0  0  0  0  # atno 10764 bound_to 10752
  153.2808  135.4264  155.1034 H   0  0  0  0  0  0  0  0  0  0  0  0  # atno 10765 bound_to 10752
  140.8432  133.7911  155.9884 H   0  0  0  0  0  0  0  0  0  0  0  0  # atno 11005 bound_to 11000
  146.3442  139.9326  142.8751 LP  0  0  0  0  0  0  0  0  0  0  0  0  # atno 17320 bound_to 7965
  145.2214  140.9937  143.4043 LP  0  0  0  0  0  0  0  0  0  0  0  0  # atno 17321 bound_to 7965
  139.5398  144.2678  152.1328 LP  0  0  0  0  0  0  0  0  0  0  0  0  # atno 17342 bound_to 10162
  140.1888  144.4772  150.6490 LP  0  0  0  0  0  0  0  0  0  0  0  0  # atno 17343 bound_to 10162
  155.9664  130.4407  150.5310 LP  0  0  0  0  0  0  0  0  0  0  0  0  # atno 17370 bound_to 10713
  157.3208  131.0681  151.1933 LP  0  0  0  0  0  0  0  0  0  0  0  0  # atno 17371 bound_to 10713
  140.8872  134.2539  157.5113 LP  0  0  0  0  0  0  0  0  0  0  0  0  # atno 17394 bound_to 11000
  139.8703  134.9644  156.4493 LP  0  0  0  0  0  0  0  0  0  0  0  0  # atno 17395 bound_to 11000

$$$$
