AV-unprocessed.smi:2775|AV-procd|sdf|10690|dock1
  -GOLD-   2272015133D 1   1.00000     0.00000
 Structure written by MMmdl.
 42 45  0  0  0  0  0  0  0  0  1 V2000
  149.1395  130.3856  153.7666 C   0  0  0  0  0  0  0  0  0  0  0  0
  149.6953  131.6040  154.4801 C   0  0  0  0  0  0  0  0  0  0  0  0
  150.5479  131.3488  155.4964 N   0  0  0  0  0  0  0  0  0  0  0  0
  151.0674  132.3971  156.1672 C   0  0  0  0  0  0  0  0  0  0  0  0
  150.7722  133.7386  155.8589 C   0  0  0  0  0  0  0  0  0  0  0  0
  149.8899  134.0104  154.7855 C   0  0  0  0  0  0  0  0  0  0  0  0
  149.5048  135.3203  154.3878 N   0  0  0  0  0  0  0  0  0  0  0  0
  149.3832  136.4448  155.1197 C   0  0  0  0  0  0  0  0  0  0  0  0
  149.5962  136.5291  156.3269 O   0  0  0  0  0  0  0  0  0  0  0  0
  149.0054  137.5179  154.4028 N   0  0  0  0  0  0  0  0  0  0  0  0
  148.7852  138.8790  154.8942 C   0  0  2  0  0  0  0  0  0  0  0  0
  148.4564  139.8677  153.7598 C   0  0  1  0  0  0  0  0  0  0  0  0
  147.1132  140.5455  153.7251 C   0  0  0  0  0  0  0  0  0  0  0  0
  147.3988  141.9035  154.3719 C   0  0  0  0  0  0  0  0  0  0  0  0
  148.5737  141.6915  155.1511 O   0  0  0  0  0  0  0  0  0  0  0  0
  149.4375  140.8428  154.4010 C   0  0  1  0  0  0  0  0  0  0  0  0
  150.0712  139.6837  155.1794 C   0  0  0  0  0  0  0  0  0  0  0  0
  151.4771  139.1811  154.7982 C   0  0  0  0  0  0  0  0  0  0  0  0
  151.7470  138.9282  156.2838 C   0  0  0  0  0  0  0  0  0  0  0  0
  150.5908  139.8780  156.6106 C   0  0  0  0  0  0  0  0  0  0  0  0
  149.3306  132.9135  154.0885 C   0  0  0  0  0  0  0  0  0  0  0  0
  148.2238  133.1679  152.7798 Cl  0  0  0  0  0  0  0  0  0  0  0  0
  149.4112  130.4081  152.7111 H   0  0  0  0  0  0  0  0  0  0  0  0
  148.0522  130.3642  153.8432 H   0  0  0  0  0  0  0  0  0  0  0  0
  149.5252  129.4590  154.1940 H   0  0  0  0  0  0  0  0  0  0  0  0
  151.7375  132.1595  156.9804 H   0  0  0  0  0  0  0  0  0  0  0  0
  151.2169  134.5191  156.4556 H   0  0  0  0  0  0  0  0  0  0  0  0
  149.3480  135.4320  153.3966 H   0  0  0  0  0  0  0  0  0  0  0  0
  148.8487  137.3732  153.4157 H   0  0  0  0  0  0  0  0  0  0  0  0
  148.0619  138.9571  155.7090 H   0  0  0  0  0  0  0  0  0  0  0  0
  148.8185  139.5261  152.7881 H   0  0  0  0  0  0  0  0  0  0  0  0
  146.7244  140.6568  152.7127 H   0  0  0  0  0  0  0  0  0  0  0  0
  146.3794  139.9864  154.3066 H   0  0  0  0  0  0  0  0  0  0  0  0
  147.6101  142.6536  153.6084 H   0  0  0  0  0  0  0  0  0  0  0  0
  146.5702  142.2617  154.9831 H   0  0  0  0  0  0  0  0  0  0  0  0
  150.0809  141.3664  153.6927 H   0  0  0  0  0  0  0  0  0  0  0  0
  151.5172  138.2902  154.1717 H   0  0  0  0  0  0  0  0  0  0  0  0
  152.1086  139.9738  154.3942 H   0  0  0  0  0  0  0  0  0  0  0  0
  151.5477  137.8980  156.5809 H   0  0  0  0  0  0  0  0  0  0  0  0
  152.7238  139.2655  156.6313 H   0  0  0  0  0  0  0  0  0  0  0  0
  150.9259  140.8986  156.8011 H   0  0  0  0  0  0  0  0  0  0  0  0
  149.9200  139.5221  157.3928 H   0  0  0  0  0  0  0  0  0  0  0  0
  1  2  1  0  0  0  0
  1 23  1  0  0  0  0
  1 24  1  0  0  0  0
  1 25  1  0  0  0  0
  2 21  1  0  0  0  0
  2  3  2  0  0  0  0
  3  4  1  0  0  0  0
  4  5  2  0  0  0  0
  4 26  1  0  0  0  0
  5  6  1  0  0  0  0
  5 27  1  0  0  0  0
  6  7  1  0  0  0  0
  6 21  2  0  0  0  0
  7  8  1  0  0  0  0
  7 28  1  0  0  0  0
  8  9  2  0  0  0  0
  8 10  1  0  0  0  0
 10 11  1  0  0  0  0
 10 29  1  0  0  0  0
 11 17  1  0  0  0  0
 11 12  1  0  0  0  0
 11 30  1  0  0  0  0
 12 16  1  0  0  0  0
 12 13  1  0  0  0  0
 12 31  1  0  0  0  0
 13 14  1  0  0  0  0
 13 32  1  0  0  0  0
 13 33  1  0  0  0  0
 14 15  1  0  0  0  0
 14 34  1  0  0  0  0
 14 35  1  0  0  0  0
 15 16  1  0  0  0  0
 16 17  1  0  0  0  0
 16 36  1  0  0  0  0
 17 20  1  0  0  0  0
 17 18  1  0  0  0  0
 18 19  1  0  0  0  0
 18 37  1  0  0  0  0
 18 38  1  0  0  0  0
 19 20  1  0  0  0  0
 19 39  1  0  0  0  0
 19 40  1  0  0  0  0
 20 41  1  0  0  0  0
 20 42  1  0  0  0  0
 21 22  1  0  0  0  0
M  END
> <s_m_source_file>
AV-unprocessed.smi

> <i_m_source_file_index>
2775

> <i_lp_mmshare_version>
43012

> <i_f3d_flags>
0

> <s_epik_input>
W0NIM11jMW5bY0hdW2NIXWMoYzFDbClbTkhdQyg9TylbTkhdW0NAQEhdMltDQEhdKFtDSDJdW0NIMl1PMylbQ0BASF0zQzI0W0NIMl1bQ0gyXVtDSDJdNA==

> <s_epik_cmdline>
J2VwaWtfcHl0aG9uJywgJy1waCcsICc3LjAnLCAnLXRuJywgJzgnLCAnLW1hJywgJzIwMCcsICctbWV0YWxfYmluZGluZycsICctaW1hZScsICc8aW5maWxlLm1hZT4nLCAnLW9tYWUnLCAnPG91dGZpbGUubWFlPic=

> <r_epik_Ionization_Penalty>
0.01026

> <r_epik_Ionization_Penalty_Charging>
0

> <r_epik_Ionization_Penalty_Neutral>
0.01026

> <r_epik_State_Penalty>
0.00780685

> <r_epik_Charging_Adjusted_Penalty>
0.00780685

> <i_epik_Tot_Q>
0

> <i_epik_Tot_abs_Q>
0

> <r_epik_Metal_State_Penalty>
0.00767411

> <b_epik_Metal_Only>
0

> <s_lp_Force_Field>
OPLS_2005

> <r_lp_Energy>
55.7352

> <b_lp_Chiralities_Consistent>
1

> <s_lp_Variant>
AV-unprocessed.smi:2775-3

> <Gold.Version>
5.8.1

> <Gold.Id.Protein>
6NUR|6NUR_protein|mol2

> <Gold.PLP.Fitness>
42.5755

> <Gold.PLP.PLP>
-37.0215

> <Gold.PLP.part.hbond>
-2.0000

> <Gold.PLP.part.metal>
0.0000

> <Gold.PLP.part.buried>
-0.3995

> <Gold.PLP.part.nonpolar>
-34.9486

> <Gold.PLP.part.repulsive>
0.5525

> <Gold.PLP.ligand.clash>
0.0000

> <Gold.PLP.ligand.torsion>
0.3082

> <Gold.PLP.Chemscore.Hbond>
1.9920

> <Gold.PLP.Chemscore.CHOScore>
0.0000

> <Gold.PLP.Chemscore.Metal>
0.0000

> <Gold.Chemscore.Hbonds>
donor molecule, donor type, donor heavy atom, donor atom, acceptor molecule, acceptor atom, score
      L1  H     7    28       P1  7948  0.90
      L1  H    10    29       P1  7948  0.99

> <Gold.PLP.Chemscore.Internal.Correction>
0.1943

> <Gold.Rescore>
     Score         DG    S(hbond)    S(metal)    S(lipo)     H(rot)  DE(clash)    DE(int)     intcor
     17.05     -17.85       1.21        0.00      93.18       1.00       0.43       0.37       ----

> <Gold.Chemscore.Fitness>
17.0480

> <Gold.Chemscore.DG>
-17.8519

> <Gold.Chemscore.ZeroCoef>
-5.4800

> <Gold.Chemscore.Hbond>
1.2066

> <Gold.Chemscore.Metal>
0.0000

> <Gold.Chemscore.Lipo>
93.1774

> <Gold.Chemscore.Internal_Hbond>
0.0000

> <Gold.Chemscore.DEClash>
0.4294

> <Gold.Chemscore.DEInternal>
0.3745

> <Gold.Chemscore.Rot>
1.0000

> <Gold.Chemscore.Internal.Correction>
   9.000000E+99

> <Gold.Chemscore.Hbonds>
donor molecule, donor type, donor heavy atom, donor atom, acceptor molecule, acceptor atom, score
      L1  H     7    28       P1  7948  0.18
      L1  H    10    29       P1  7948  0.94

> <Gold.Chemscore.Hbond.Weighted>
-4.0301

> <Gold.Chemscore.Metal.Weighted>
-0.0000

> <Gold.Chemscore.Lipo.Weighted>
-10.9018

> <Gold.Chemscore.Internal_Hbond.Weighted>
0.0000

> <Gold.Chemscore.DEClash.Weighted>
0.4294

> <Gold.Chemscore.DEInternal.Weighted>
0.3745

> <Gold.Chemscore.Rot.Weighted>
2.5600

> <Gold.Chemscore.Internal.Correction.Weighted>
   9.000000E+99

> <Gold.Protein.RotatedTorsions>
[ 6907 6896 6895 6894 ] final  -71.26 input  -60.11 | X-H torsion
[ 7974 7965 7964 7962 ] final   24.43 input  175.53 | X-H torsion
[ 8008 7997 7996 7995 ] final  136.24 input   59.86 | X-H torsion
[ 10167 10162 10161 10158 ] final -162.11 input  -65.29 | X-H torsion
[ 10718 10713 10712 10709 ] final  -37.72 input   66.30 | X-H torsion
[ 10763 10752 10751 10750 ] final -149.02 input  -60.55 | X-H torsion
[ 11005 11000 10999 10996 ] final  111.80 input  -57.11 | X-H torsion

> <Gold.Protein.ActiveResidues>
 VAL166  LYS551  ARG553  GLY616  TRP617  ASP618  TYR619  PRO620  LYS621  CYS622 
 ASP623  PHE694  ASN695  SER759  ASP760  ASP761  ALA762  ILE779  LEU786  VAL792 
 PHE793  MET794  SER795  GLU796  ALA797  LYS798  CYS799  TRP800  GLU811  SER814 

> <Gold.Protein.RotatedAtoms>
  150.7220  134.5333  159.5710 H   0  0  0  0  0  0  0  0  0  0  0  0  # atno 6907 bound_to 6896
  152.2861  134.7771  160.0396 H   0  0  0  0  0  0  0  0  0  0  0  0  # atno 6908 bound_to 6896
  151.8400  133.3387  159.3677 H   0  0  0  0  0  0  0  0  0  0  0  0  # atno 6909 bound_to 6896
  146.1938  139.7606  142.8812 H   0  0  0  0  0  0  0  0  0  0  0  0  # atno 7974 bound_to 7965
  156.3004  140.2450  156.3712 H   0  0  0  0  0  0  0  0  0  0  0  0  # atno 8008 bound_to 7997
  154.8787  140.0413  157.1788 H   0  0  0  0  0  0  0  0  0  0  0  0  # atno 8009 bound_to 7997
  154.8719  140.2936  155.5480 H   0  0  0  0  0  0  0  0  0  0  0  0  # atno 8010 bound_to 7997
  139.6416  144.0249  152.2096 H   0  0  0  0  0  0  0  0  0  0  0  0  # atno 10167 bound_to 10162
  156.3119  130.4254  149.8042 H   0  0  0  0  0  0  0  0  0  0  0  0  # atno 10718 bound_to 10713
  154.8200  135.3319  154.7064 H   0  0  0  0  0  0  0  0  0  0  0  0  # atno 10763 bound_to 10752
  153.7699  135.6926  153.4913 H   0  0  0  0  0  0  0  0  0  0  0  0  # atno 10764 bound_to 10752
  153.2052  135.4502  155.0263 H   0  0  0  0  0  0  0  0  0  0  0  0  # atno 10765 bound_to 10752
  139.8912  134.9516  156.6488 H   0  0  0  0  0  0  0  0  0  0  0  0  # atno 11005 bound_to 11000
  145.3709  141.0342  143.3231 LP  0  0  0  0  0  0  0  0  0  0  0  0  # atno 17320 bound_to 7965
  144.8539  139.5280  143.6844 LP  0  0  0  0  0  0  0  0  0  0  0  0  # atno 17321 bound_to 7965
  139.9940  144.6341  150.7789 LP  0  0  0  0  0  0  0  0  0  0  0  0  # atno 17342 bound_to 10162
  140.7494  143.2937  151.3261 LP  0  0  0  0  0  0  0  0  0  0  0  0  # atno 17343 bound_to 10162
  156.5382  130.8288  151.3260 LP  0  0  0  0  0  0  0  0  0  0  0  0  # atno 17370 bound_to 10713
  157.7393  130.9829  150.2304 LP  0  0  0  0  0  0  0  0  0  0  0  0  # atno 17371 bound_to 10713
  140.7537  133.8876  155.8366 LP  0  0  0  0  0  0  0  0  0  0  0  0  # atno 17394 bound_to 11000
  140.9980  134.1189  157.4345 LP  0  0  0  0  0  0  0  0  0  0  0  0  # atno 17395 bound_to 11000

$$$$
