AV-unprocessed.smi:1414|AV-procd|sdf|5761|dock7
  -GOLD-   22720 5403D 1   1.00000     0.00000
 Structure written by MMmdl.
 45 46  0  0  0  0  0  0  0  0  1 V2000
  152.0698  141.2925  158.4852 C   0  0  0  0  0  0  0  0  0  0  0  0
  151.5695  140.8967  157.0918 C   0  0  2  0  0  0  0  0  0  0  0  0
  150.1658  140.2611  157.1401 C   0  0  0  0  0  0  0  0  0  0  0  0
  149.7670  139.7463  155.8192 N   0  0  0  0  0  0  0  0  0  0  0  0
  148.6266  140.6325  154.8510 S   0  0  0  0  0  0  0  0  0  0  0  0
  148.0006  141.6503  155.7090 O   0  0  0  0  0  0  0  0  0  0  0  0
  149.3085  141.0488  153.6159 O   0  0  0  0  0  0  0  0  0  0  0  0
  147.3437  139.3858  154.4100 C   0  0  0  0  0  0  0  0  0  0  0  0
  147.1272  139.3411  152.8902 C   0  0  0  0  0  0  0  0  0  0  0  0
  147.1379  137.9725  152.3852 N   0  0  0  0  0  0  0  0  0  0  0  0
  146.0875  137.1397  152.3965 C   0  0  0  0  0  0  0  0  0  0  0  0
  144.9827  137.4498  152.8413 O   0  0  0  0  0  0  0  0  0  0  0  0
  146.4116  135.9424  151.8783 N   0  0  0  0  0  0  0  0  0  0  0  0
  145.5868  134.7980  151.7014 C   0  0  0  0  0  0  0  0  0  0  0  0
  144.2101  134.7463  152.0294 C   0  0  0  0  0  0  0  0  0  0  0  0
  143.4985  133.5549  151.7899 C   0  0  0  0  0  0  0  0  0  0  0  0
  144.1854  132.4623  151.2263 C   0  0  0  0  0  0  0  0  0  0  0  0
  145.4933  132.5016  150.8959 N   0  0  0  0  0  0  0  0  0  0  0  0
  146.1688  133.6475  151.1276 C   0  0  0  0  0  0  0  0  0  0  0  0
  150.7964  138.9202  155.1668 C   0  0  0  0  0  0  0  0  0  0  0  0
  152.1714  139.6163  155.1986 C   0  0  2  0  0  0  0  0  0  0  0  0
  153.2863  138.7116  154.6630 C   0  0  0  0  0  0  0  0  0  0  0  0
  152.4927  139.9682  156.5380 O   0  0  0  0  0  0  0  0  0  0  0  0
  151.4008  142.0162  158.9510 H   0  0  0  0  0  0  0  0  0  0  0  0
  153.0603  141.7444  158.4291 H   0  0  0  0  0  0  0  0  0  0  0  0
  152.1360  140.4252  159.1427 H   0  0  0  0  0  0  0  0  0  0  0  0
  151.5544  141.7934  156.4725 H   0  0  0  0  0  0  0  0  0  0  0  0
  150.1652  139.4268  157.8427 H   0  0  0  0  0  0  0  0  0  0  0  0
  149.4315  140.9773  157.5081 H   0  0  0  0  0  0  0  0  0  0  0  0
  147.6736  138.4145  154.7752 H   0  0  0  0  0  0  0  0  0  0  0  0
  146.4187  139.6485  154.9210 H   0  0  0  0  0  0  0  0  0  0  0  0
  146.1640  139.7863  152.6406 H   0  0  0  0  0  0  0  0  0  0  0  0
  147.8857  139.9352  152.3776 H   0  0  0  0  0  0  0  0  0  0  0  0
  148.0111  137.6335  152.0083 H   0  0  0  0  0  0  0  0  0  0  0  0
  147.3808  135.8179  151.6255 H   0  0  0  0  0  0  0  0  0  0  0  0
  143.6838  135.5916  152.4435 H   0  0  0  0  0  0  0  0  0  0  0  0
  142.4481  133.4821  152.0300 H   0  0  0  0  0  0  0  0  0  0  0  0
  143.6688  131.5345  151.0300 H   0  0  0  0  0  0  0  0  0  0  0  0
  147.2123  133.6434  150.8480 H   0  0  0  0  0  0  0  0  0  0  0  0
  150.8542  137.9687  155.6967 H   0  0  0  0  0  0  0  0  0  0  0  0
  150.5061  138.6883  154.1422 H   0  0  0  0  0  0  0  0  0  0  0  0
  152.1483  140.5204  154.5900 H   0  0  0  0  0  0  0  0  0  0  0  0
  153.0922  138.4181  153.6311 H   0  0  0  0  0  0  0  0  0  0  0  0
  153.3785  137.8027  155.2584 H   0  0  0  0  0  0  0  0  0  0  0  0
  154.2480  139.2240  154.6873 H   0  0  0  0  0  0  0  0  0  0  0  0
  1  2  1  0  0  0  0
  1 24  1  0  0  0  0
  1 25  1  0  0  0  0
  1 26  1  0  0  0  0
  2 23  1  0  0  0  0
  2  3  1  0  0  0  0
  2 27  1  0  0  0  0
  3  4  1  0  0  0  0
  3 28  1  0  0  0  0
  3 29  1  0  0  0  0
  4  5  1  0  0  0  0
  4 20  1  0  0  0  0
  5  6  2  0  0  0  0
  5  7  2  0  0  0  0
  5  8  1  0  0  0  0
  8  9  1  0  0  0  0
  8 30  1  0  0  0  0
  8 31  1  0  0  0  0
  9 10  1  0  0  0  0
  9 32  1  0  0  0  0
  9 33  1  0  0  0  0
 10 11  1  0  0  0  0
 10 34  1  0  0  0  0
 11 12  2  0  0  0  0
 11 13  1  0  0  0  0
 13 14  1  0  0  0  0
 13 35  1  0  0  0  0
 14 19  1  0  0  0  0
 14 15  2  0  0  0  0
 15 16  1  0  0  0  0
 15 36  1  0  0  0  0
 16 17  2  0  0  0  0
 16 37  1  0  0  0  0
 17 18  1  0  0  0  0
 17 38  1  0  0  0  0
 18 19  2  0  0  0  0
 19 39  1  0  0  0  0
 20 21  1  0  0  0  0
 20 40  1  0  0  0  0
 20 41  1  0  0  0  0
 21 22  1  0  0  0  0
 21 23  1  0  0  0  0
 21 42  1  0  0  0  0
 22 43  1  0  0  0  0
 22 44  1  0  0  0  0
 22 45  1  0  0  0  0
M  END
> <s_m_source_file>
AV-unprocessed.smi

> <i_m_source_file_index>
1414

> <i_lp_mmshare_version>
43012

> <i_f3d_flags>
0

> <s_epik_input>
W0NIM11bQ0BASF0xW0NIMl1OKFtDSDJdW0NASF0oTzEpW0NIM10pUyg9TykoPU8pW0NIMl1bQ0gyXVtOSF1DKD1PKVtOSF1jMltjSF1bY0hdW2NIXW5bY0hdMg==

> <s_epik_cmdline>
J2VwaWtfcHl0aG9uJywgJy1waCcsICc3LjAnLCAnLXRuJywgJzgnLCAnLW1hJywgJzIwMCcsICctbWV0YWxfYmluZGluZycsICctaW1hZScsICc8aW5maWxlLm1hZT4nLCAnLW9tYWUnLCAnPG91dGZpbGUubWFlPic=

> <r_epik_Ionization_Penalty>
0.00437531

> <r_epik_Ionization_Penalty_Charging>
0

> <r_epik_Ionization_Penalty_Neutral>
0.00437531

> <r_epik_State_Penalty>
0.00312896

> <r_epik_Charging_Adjusted_Penalty>
0.00312896

> <i_epik_Tot_Q>
0

> <i_epik_Tot_abs_Q>
0

> <r_epik_Metal_State_Penalty>
-0

> <b_epik_Metal_Only>
0

> <s_lp_Force_Field>
OPLS_2005

> <r_lp_Energy>
4.57438

> <b_lp_Chiralities_Consistent>
1

> <s_lp_Variant>
AV-unprocessed.smi:1414-2

> <Gold.Version>
5.8.1

> <Gold.Id.Protein>
6NUR|6NUR_protein|mol2

> <Gold.PLP.Fitness>
46.3383

> <Gold.PLP.PLP>
-35.8196

> <Gold.PLP.part.hbond>
-5.0000

> <Gold.PLP.part.metal>
0.0000

> <Gold.PLP.part.buried>
-3.9199

> <Gold.PLP.part.nonpolar>
-29.4951

> <Gold.PLP.part.repulsive>
3.4536

> <Gold.PLP.ligand.clash>
0.0000

> <Gold.PLP.ligand.torsion>
1.6518

> <Gold.PLP.Chemscore.Hbond>
3.8903

> <Gold.PLP.Chemscore.CHOScore>
0.0000

> <Gold.PLP.Chemscore.Metal>
0.0000

> <Gold.Chemscore.Hbonds>
donor molecule, donor type, donor heavy atom, donor atom, acceptor molecule, acceptor atom, score
      L1  H    10    34       P1  7948  0.88
      L1  H    13    35       P1  7948  1.00
      P1  H  7989  7998       L1     7  0.10
      P1  H  7997  8008       L1    23  1.00
      P1  H  8011  8017       L1     7  1.00

> <Gold.PLP.Chemscore.Internal.Correction>
2.1515

> <Gold.Rescore>
     Score         DG    S(hbond)    S(metal)    S(lipo)     H(rot)  DE(clash)    DE(int)     intcor
     18.32     -23.40       3.76        0.00      80.19       1.57       2.28       2.80       ----

> <Gold.Chemscore.Fitness>
18.3210

> <Gold.Chemscore.DG>
-23.4040

> <Gold.Chemscore.ZeroCoef>
-5.4800

> <Gold.Chemscore.Hbond>
3.7599

> <Gold.Chemscore.Metal>
0.0000

> <Gold.Chemscore.Lipo>
80.1872

> <Gold.Chemscore.Internal_Hbond>
0.0000

> <Gold.Chemscore.DEClash>
2.2817

> <Gold.Chemscore.DEInternal>
2.8013

> <Gold.Chemscore.Rot>
1.5687

> <Gold.Chemscore.Internal.Correction>
   9.000000E+99

> <Gold.Chemscore.Hbonds>
donor molecule, donor type, donor heavy atom, donor atom, acceptor molecule, acceptor atom, score
      L1  H    10    34       P1  7948  0.86
      L1  H    13    35       P1  7948  0.93
      P1  H  7989  7998       L1     7  0.09
      P1  H  7997  8008       L1    23  0.58
      P1  H  8011  8017       L1     7  0.95

> <Gold.Chemscore.Hbond.Weighted>
-12.5580

> <Gold.Chemscore.Metal.Weighted>
-0.0000

> <Gold.Chemscore.Lipo.Weighted>
-9.3819

> <Gold.Chemscore.Internal_Hbond.Weighted>
0.0000

> <Gold.Chemscore.DEClash.Weighted>
2.2817

> <Gold.Chemscore.DEInternal.Weighted>
2.8013

> <Gold.Chemscore.Rot.Weighted>
4.0160

> <Gold.Chemscore.Internal.Correction.Weighted>
   9.000000E+99

> <Gold.Protein.RotatedTorsions>
[ 6907 6896 6895 6894 ] final   -8.67 input  -60.11 | X-H torsion
[ 7974 7965 7964 7962 ] final   24.28 input  175.53 | X-H torsion
[ 8008 7997 7996 7995 ] final  -61.57 input   59.86 | X-H torsion
[ 10167 10162 10161 10158 ] final -160.41 input  -65.29 | X-H torsion
[ 10718 10713 10712 10709 ] final  -78.21 input   66.30 | X-H torsion
[ 10763 10752 10751 10750 ] final   -4.58 input  -60.55 | X-H torsion
[ 11005 11000 10999 10996 ] final  -90.38 input  -57.11 | X-H torsion

> <Gold.Protein.ActiveResidues>
 VAL166  LYS551  ARG553  GLY616  TRP617  ASP618  TYR619  PRO620  LYS621  CYS622 
 ASP623  PHE694  ASN695  SER759  ASP760  ASP761  ALA762  ILE779  LEU786  VAL792 
 PHE793  MET794  SER795  GLU796  ALA797  LYS798  CYS799  TRP800  GLU811  SER814 

> <Gold.Protein.RotatedAtoms>
  151.4299  135.1008  159.9638 H   0  0  0  0  0  0  0  0  0  0  0  0  # atno 6907 bound_to 6896
  152.4960  133.8627  159.7269 H   0  0  0  0  0  0  0  0  0  0  0  0  # atno 6908 bound_to 6896
  150.9163  133.6877  159.2870 H   0  0  0  0  0  0  0  0  0  0  0  0  # atno 6909 bound_to 6896
  146.1945  139.7626  142.8807 H   0  0  0  0  0  0  0  0  0  0  0  0  # atno 7974 bound_to 7965
  154.4454  140.1015  156.6451 H   0  0  0  0  0  0  0  0  0  0  0  0  # atno 8008 bound_to 7997
  155.5459  140.3484  155.4439 H   0  0  0  0  0  0  0  0  0  0  0  0  # atno 8009 bound_to 7997
  156.0564  140.1316  156.9981 H   0  0  0  0  0  0  0  0  0  0  0  0  # atno 8010 bound_to 7997
  139.6542  144.0029  152.2182 H   0  0  0  0  0  0  0  0  0  0  0  0  # atno 10167 bound_to 10162
  156.0124  130.4512  150.3461 H   0  0  0  0  0  0  0  0  0  0  0  0  # atno 10718 bound_to 10713
  153.3868  135.7000  153.6524 H   0  0  0  0  0  0  0  0  0  0  0  0  # atno 10763 bound_to 10752
  153.5113  135.3631  155.2588 H   0  0  0  0  0  0  0  0  0  0  0  0  # atno 10764 bound_to 10752
  154.8698  135.4135  154.3177 H   0  0  0  0  0  0  0  0  0  0  0  0  # atno 10765 bound_to 10752
  141.1567  133.7688  156.9729 H   0  0  0  0  0  0  0  0  0  0  0  0  # atno 11005 bound_to 11000
  145.3688  141.0339  143.3243 LP  0  0  0  0  0  0  0  0  0  0  0  0  # atno 17320 bound_to 7965
  144.8552  139.5261  143.6838 LP  0  0  0  0  0  0  0  0  0  0  0  0  # atno 17321 bound_to 7965
  139.9751  144.6467  150.7952 LP  0  0  0  0  0  0  0  0  0  0  0  0  # atno 17342 bound_to 10162
  140.7551  143.3040  151.3008 LP  0  0  0  0  0  0  0  0  0  0  0  0  # atno 17343 bound_to 10162
  157.1555  131.0332  151.2865 LP  0  0  0  0  0  0  0  0  0  0  0  0  # atno 17370 bound_to 10713
  157.4356  130.7515  149.7026 LP  0  0  0  0  0  0  0  0  0  0  0  0  # atno 17371 bound_to 10713
  140.1117  134.9472  157.2075 LP  0  0  0  0  0  0  0  0  0  0  0  0  # atno 17394 bound_to 11000
  140.3185  134.2943  155.7251 LP  0  0  0  0  0  0  0  0  0  0  0  0  # atno 17395 bound_to 11000

$$$$
