AV-unprocessed.smi:2385|AV-procd|sdf|9464|dock2
  -GOLD-   2272013 93D 1   1.00000     0.00000
 Structure written by MMmdl.
 50 52  0  0  0  0  0  0  0  0  2 V2000
  153.0688  142.9185  160.5489 C   0  0  0  0  0  0  0  0  0  0  0  0
  152.2635  142.5306  159.3269 C   0  0  0  0  0  0  0  0  0  0  0  0
  152.0074  143.4631  158.3042 C   0  0  0  0  0  0  0  0  0  0  0  0
  151.2495  143.0568  157.1891 C   0  0  0  0  0  0  0  0  0  0  0  0
  150.7649  141.7311  157.1229 C   0  0  0  0  0  0  0  0  0  0  0  0
  150.0063  141.4247  155.9615 N   0  0  0  0  0  0  0  0  0  0  0  0
  149.4269  140.2565  155.6331 C   0  0  0  0  0  0  0  0  0  0  0  0
  149.4893  139.2190  156.2935 O   0  0  0  0  0  0  0  0  0  0  0  0
  148.7562  140.3520  154.4753 N   0  0  0  0  0  0  0  0  0  0  0  0
  147.9935  139.2689  153.8610 C   0  0  2  0  0  0  0  0  0  0  0  0
  147.3872  139.7089  152.5165 C   0  0  0  0  0  0  0  0  0  0  0  0
  146.5194  138.5932  151.9100 C   0  0  0  0  0  0  0  0  0  0  0  0
  145.4509  138.1648  152.8508 N   0  3  1  0  0  0  0  0  0  0  0  0
  144.5201  137.1753  152.2469 C   0  0  0  0  0  0  0  0  0  0  0  0
  145.2633  136.0085  151.5678 C   0  0  1  0  0  0  0  0  0  0  0  0
  145.8608  135.0253  152.5552 C   0  0  0  0  0  0  0  0  0  0  0  0
  146.1057  133.7980  151.6831 C   0  0  0  0  0  0  0  0  0  0  0  0
  145.0975  133.8304  150.6778 O   0  0  0  0  0  0  0  0  0  0  0  0
  144.3953  135.0676  150.7298 C   0  0  0  0  0  0  0  0  0  0  0  0
  146.0185  137.7120  154.1488 C   0  0  0  0  0  0  0  0  0  0  0  0
  146.8677  138.8148  154.8021 C   0  0  0  0  0  0  0  0  0  0  0  0
  151.0176  140.8394  158.1135 N   0  0  0  0  0  0  0  0  0  0  0  0
  151.7444  141.2293  159.1817 C   0  0  0  0  0  0  0  0  0  0  0  0
  153.8938  143.5756  160.2727 H   0  0  0  0  0  0  0  0  0  0  0  0
  153.4862  142.0379  161.0384 H   0  0  0  0  0  0  0  0  0  0  0  0
  152.4359  143.4423  161.2655 H   0  0  0  0  0  0  0  0  0  0  0  0
  152.3829  144.4738  158.3708 H   0  0  0  0  0  0  0  0  0  0  0  0
  151.0432  143.7608  156.3961 H   0  0  0  0  0  0  0  0  0  0  0  0
  149.8755  142.1896  155.3163 H   0  0  0  0  0  0  0  0  0  0  0  0
  148.7581  141.2405  153.9959 H   0  0  0  0  0  0  0  0  0  0  0  0
  148.6586  138.4197  153.6909 H   0  0  0  0  0  0  0  0  0  0  0  0
  146.7814  140.6056  152.6570 H   0  0  0  0  0  0  0  0  0  0  0  0
  148.1777  139.9776  151.8148 H   0  0  0  0  0  0  0  0  0  0  0  0
  146.0712  138.9575  150.9848 H   0  0  0  0  0  0  0  0  0  0  0  0
  147.1401  137.7349  151.6474 H   0  0  0  0  0  0  0  0  0  0  0  0
  143.8944  136.7462  153.0310 H   0  0  0  0  0  0  0  0  0  0  0  0
  143.8295  137.6625  151.5567 H   0  0  0  0  0  0  0  0  0  0  0  0
  146.0705  136.3996  150.9458 H   0  0  0  0  0  0  0  0  0  0  0  0
  146.7699  135.3935  153.0317 H   0  0  0  0  0  0  0  0  0  0  0  0
  145.1396  134.7860  153.3384 H   0  0  0  0  0  0  0  0  0  0  0  0
  147.0810  133.8624  151.1988 H   0  0  0  0  0  0  0  0  0  0  0  0
  146.0712  132.8694  152.2534 H   0  0  0  0  0  0  0  0  0  0  0  0
  143.4326  134.8942  151.2128 H   0  0  0  0  0  0  0  0  0  0  0  0
  144.2090  135.4522  149.7268 H   0  0  0  0  0  0  0  0  0  0  0  0
  145.2205  137.4265  154.8322 H   0  0  0  0  0  0  0  0  0  0  0  0
  146.6267  136.8200  153.9894 H   0  0  0  0  0  0  0  0  0  0  0  0
  147.2882  138.4481  155.7393 H   0  0  0  0  0  0  0  0  0  0  0  0
  146.2292  139.6617  155.0585 H   0  0  0  0  0  0  0  0  0  0  0  0
  151.9138  140.4797  159.9407 H   0  0  0  0  0  0  0  0  0  0  0  0
  144.9024  138.9916  153.0402 H   0  0  0  0  0  0  0  0  0  0  0  0
  1  2  1  0  0  0  0
  1 24  1  0  0  0  0
  1 25  1  0  0  0  0
  1 26  1  0  0  0  0
  2 23  1  0  0  0  0
  2  3  2  0  0  0  0
  3  4  1  0  0  0  0
  3 27  1  0  0  0  0
  4  5  2  0  0  0  0
  4 28  1  0  0  0  0
  5  6  1  0  0  0  0
  5 22  1  0  0  0  0
  6  7  1  0  0  0  0
  6 29  1  0  0  0  0
  7  8  2  0  0  0  0
  7  9  1  0  0  0  0
  9 10  1  0  0  0  0
  9 30  1  0  0  0  0
 10 21  1  0  0  0  0
 10 11  1  0  0  0  0
 10 31  1  0  0  0  0
 11 12  1  0  0  0  0
 11 32  1  0  0  0  0
 11 33  1  0  0  0  0
 12 13  1  0  0  0  0
 12 34  1  0  0  0  0
 12 35  1  0  0  0  0
 13 14  1  0  0  0  0
 13 20  1  0  0  0  0
 13 50  1  0  0  0  0
 14 15  1  0  0  0  0
 14 36  1  0  0  0  0
 14 37  1  0  0  0  0
 15 19  1  0  0  0  0
 15 16  1  0  0  0  0
 15 38  1  0  0  0  0
 16 17  1  0  0  0  0
 16 39  1  0  0  0  0
 16 40  1  0  0  0  0
 17 18  1  0  0  0  0
 17 41  1  0  0  0  0
 17 42  1  0  0  0  0
 18 19  1  0  0  0  0
 19 43  1  0  0  0  0
 19 44  1  0  0  0  0
 20 21  1  0  0  0  0
 20 45  1  0  0  0  0
 20 46  1  0  0  0  0
 21 47  1  0  0  0  0
 21 48  1  0  0  0  0
 22 23  2  0  0  0  0
 23 49  1  0  0  0  0
M  CHG  1  13   1
M  END
> <s_m_source_file>
AV-unprocessed.smi

> <i_m_source_file_index>
2385

> <i_lp_mmshare_version>
43012

> <i_f3d_flags>
0

> <s_epik_input>
W0NIM11jMVtjSF1bY0hdYyhuW2NIXTEpW05IXUMoPU8pW05IXVtDSF0yW0NIMl1bQ0gyXU4oW0NIMl1bQ0gyXTIpW0NIMl1bQ0BASF0zW0NIMl1bQ0gyXU9bQ0gyXTM=

> <s_epik_cmdline>
J2VwaWtfcHl0aG9uJywgJy1waCcsICc3LjAnLCAnLXRuJywgJzgnLCAnLW1hJywgJzIwMCcsICctbWV0YWxfYmluZGluZycsICctaW1hZScsICc8aW5maWxlLm1hZT4nLCAnLW9tYWUnLCAnPG91dGZpbGUubWFlPic=

> <r_epik_Ionization_Penalty>
0.00752367

> <r_epik_Ionization_Penalty_Charging>
0.00747775

> <r_epik_Ionization_Penalty_Neutral>
4.59207e-05

> <r_epik_State_Penalty>
0.00558817

> <r_epik_Charging_Adjusted_Penalty>
0.0130659

> <i_epik_Tot_Q>
1

> <i_epik_Tot_abs_Q>
1

> <r_epik_Metal_State_Penalty>
-0

> <b_epik_Metal_Only>
0

> <s_lp_Force_Field>
OPLS_2005

> <r_lp_Energy>
36.1133

> <b_lp_Chiralities_Consistent>
1

> <s_lp_Variant>
AV-unprocessed.smi:2385-2

> <Gold.Version>
5.8.1

> <Gold.Id.Protein>
6NUR|6NUR_protein|mol2

> <Gold.PLP.Fitness>
42.4054

> <Gold.PLP.PLP>
-36.7095

> <Gold.PLP.part.hbond>
-1.0000

> <Gold.PLP.part.metal>
0.0000

> <Gold.PLP.part.buried>
0.6542

> <Gold.PLP.part.nonpolar>
-37.0528

> <Gold.PLP.part.repulsive>
0.3738

> <Gold.PLP.ligand.clash>
0.0000

> <Gold.PLP.ligand.torsion>
0.1790

> <Gold.PLP.Chemscore.Hbond>
2.0000

> <Gold.PLP.Chemscore.CHOScore>
0.0000

> <Gold.PLP.Chemscore.Metal>
0.0000

> <Gold.Chemscore.Hbonds>
donor molecule, donor type, donor heavy atom, donor atom, acceptor molecule, acceptor atom, score
      L1  H    13    50       P1 10175  2.00

> <Gold.PLP.Chemscore.Internal.Correction>
0.0539

> <Gold.Rescore>
     Score         DG    S(hbond)    S(metal)    S(lipo)     H(rot)  DE(clash)    DE(int)     intcor
     14.18     -17.34       0.92        0.00     105.79       1.41       1.65       1.51       ----

> <Gold.Chemscore.Fitness>
14.1772

> <Gold.Chemscore.DG>
-17.3447

> <Gold.Chemscore.ZeroCoef>
-5.4800

> <Gold.Chemscore.Hbond>
0.9239

> <Gold.Chemscore.Metal>
0.0000

> <Gold.Chemscore.Lipo>
105.7870

> <Gold.Chemscore.Internal_Hbond>
0.0000

> <Gold.Chemscore.DEClash>
1.6541

> <Gold.Chemscore.DEInternal>
1.5134

> <Gold.Chemscore.Rot>
1.4056

> <Gold.Chemscore.Internal.Correction>
   9.000000E+99

> <Gold.Chemscore.Hbonds>
donor molecule, donor type, donor heavy atom, donor atom, acceptor molecule, acceptor atom, score
      L1  H    13    50       P1 10175  0.93

> <Gold.Chemscore.Hbond.Weighted>
-3.0859

> <Gold.Chemscore.Metal.Weighted>
-0.0000

> <Gold.Chemscore.Lipo.Weighted>
-12.3771

> <Gold.Chemscore.Internal_Hbond.Weighted>
0.0000

> <Gold.Chemscore.DEClash.Weighted>
1.6541

> <Gold.Chemscore.DEInternal.Weighted>
1.5134

> <Gold.Chemscore.Rot.Weighted>
3.5982

> <Gold.Chemscore.Internal.Correction.Weighted>
   9.000000E+99

> <Gold.Protein.RotatedTorsions>
[ 6907 6896 6895 6894 ] final  -56.79 input  -60.11 | X-H torsion
[ 7974 7965 7964 7962 ] final  -12.22 input  175.53 | X-H torsion
[ 8008 7997 7996 7995 ] final   76.02 input   59.86 | X-H torsion
[ 10167 10162 10161 10158 ] final  -71.47 input  -65.29 | X-H torsion
[ 10718 10713 10712 10709 ] final  156.48 input   66.30 | X-H torsion
[ 10763 10752 10751 10750 ] final -155.52 input  -60.55 | X-H torsion
[ 11005 11000 10999 10996 ] final  153.72 input  -57.11 | X-H torsion

> <Gold.Protein.ActiveResidues>
 VAL166  LYS551  ARG553  GLY616  TRP617  ASP618  TYR619  PRO620  LYS621  CYS622 
 ASP623  PHE694  ASN695  SER759  ASP760  ASP761  ALA762  ILE779  LEU786  VAL792 
 PHE793  MET794  SER795  GLU796  ALA797  LYS798  CYS799  TRP800  GLU811  SER814 

> <Gold.Protein.RotatedAtoms>
  150.8139  134.7310  159.6712 H   0  0  0  0  0  0  0  0  0  0  0  0  # atno 6907 bound_to 6896
  152.4258  134.5867  159.9973 H   0  0  0  0  0  0  0  0  0  0  0  0  # atno 6908 bound_to 6896
  151.6069  133.3313  159.3095 H   0  0  0  0  0  0  0  0  0  0  0  0  # atno 6909 bound_to 6896
  146.2160  140.3025  142.8376 H   0  0  0  0  0  0  0  0  0  0  0  0  # atno 7974 bound_to 7965
  155.8213  140.3469  155.5516 H   0  0  0  0  0  0  0  0  0  0  0  0  # atno 8008 bound_to 7997
  155.8339  140.0931  157.1796 H   0  0  0  0  0  0  0  0  0  0  0  0  # atno 8009 bound_to 7997
  154.4004  140.1407  156.3634 H   0  0  0  0  0  0  0  0  0  0  0  0  # atno 8010 bound_to 7997
  140.5270  143.2325  151.7329 H   0  0  0  0  0  0  0  0  0  0  0  0  # atno 10167 bound_to 10162
  157.2043  131.0683  151.2007 H   0  0  0  0  0  0  0  0  0  0  0  0  # atno 10718 bound_to 10713
  154.7781  135.3166  154.8049 H   0  0  0  0  0  0  0  0  0  0  0  0  # atno 10763 bound_to 10752
  153.8768  135.6839  153.4774 H   0  0  0  0  0  0  0  0  0  0  0  0  # atno 10764 bound_to 10752
  153.1409  135.4739  154.9431 H   0  0  0  0  0  0  0  0  0  0  0  0  # atno 10765 bound_to 10752
  140.1423  134.8730  157.2348 H   0  0  0  0  0  0  0  0  0  0  0  0  # atno 11005 bound_to 11000
  144.9046  140.7685  143.5845 LP  0  0  0  0  0  0  0  0  0  0  0  0  # atno 17320 bound_to 7965
  145.2953  139.1869  143.4718 LP  0  0  0  0  0  0  0  0  0  0  0  0  # atno 17321 bound_to 7965
  139.4941  144.4171  152.0018 LP  0  0  0  0  0  0  0  0  0  0  0  0  # atno 17342 bound_to 10162
  140.3270  144.3360  150.5996 LP  0  0  0  0  0  0  0  0  0  0  0  0  # atno 17343 bound_to 10162
  157.3736  130.7194  149.6581 LP  0  0  0  0  0  0  0  0  0  0  0  0  # atno 17370 bound_to 10713
  155.9697  130.4192  150.4364 LP  0  0  0  0  0  0  0  0  0  0  0  0  # atno 17371 bound_to 10713
  140.2706  134.3464  155.7375 LP  0  0  0  0  0  0  0  0  0  0  0  0  # atno 17394 bound_to 11000
  141.2188  133.7421  156.9217 LP  0  0  0  0  0  0  0  0  0  0  0  0  # atno 17395 bound_to 11000

$$$$
