AV-unprocessed.smi:3061|AV-procd|sdf|11679|dock3
  -GOLD-   2272017 83D 1   1.00000     0.00000
 Structure written by MMmdl.
 35 36  0  0  0  0  0  0  0  0  1 V2000
  150.0212  139.7979  157.2019 C   0  0  0  0  0  0  0  0  0  0  0  0
  150.0686  141.3200  156.9992 C   0  0  2  0  0  0  0  0  0  0  0  0
  150.1461  141.6895  155.5053 C   0  0  0  0  0  0  0  0  0  0  0  0
  149.0199  141.1710  154.7496 N   0  0  0  0  0  0  0  0  0  0  0  0
  148.0031  141.8039  154.1623 C   0  0  0  0  0  0  0  0  0  0  0  0
  147.1421  140.9931  153.5635 N   0  0  0  0  0  0  0  0  0  0  0  0
  147.7327  139.7915  153.8370 C   0  0  0  0  0  0  0  0  0  0  0  0
  148.8603  139.8425  154.5462 N   0  0  0  0  0  0  0  0  0  0  0  0
  151.2150  141.8807  157.7117 N   0  0  0  0  0  0  0  0  0  0  0  0
  151.1515  142.6445  158.8128 C   0  0  0  0  0  0  0  0  0  0  0  0
  150.0947  142.9426  159.3701 O   0  0  0  0  0  0  0  0  0  0  0  0
  152.4908  143.1545  159.3669 C   0  0  2  0  0  0  0  0  0  0  0  0
  153.5037  142.0054  159.5479 C   0  0  0  0  0  0  0  0  0  0  0  0
  153.6995  141.9186  161.0523 C   0  0  0  0  0  0  0  0  0  0  0  0
  154.3891  141.0520  161.5876 O   0  0  0  0  0  0  0  0  0  0  0  0
  153.0272  142.8880  161.6789 N   0  0  0  0  0  0  0  0  0  0  0  0
  152.9895  143.1041  163.1188 C   0  0  0  0  0  0  0  0  0  0  0  0
  152.3434  143.7895  160.7674 C   0  0  0  0  0  0  0  0  0  0  0  0
  149.1638  139.3615  156.6889 H   0  0  0  0  0  0  0  0  0  0  0  0
  149.9347  139.5425  158.2587 H   0  0  0  0  0  0  0  0  0  0  0  0
  150.9203  139.3170  156.8151 H   0  0  0  0  0  0  0  0  0  0  0  0
  149.1472  141.7433  157.4041 H   0  0  0  0  0  0  0  0  0  0  0  0
  150.1842  142.7722  155.3775 H   0  0  0  0  0  0  0  0  0  0  0  0
  151.0618  141.2917  155.0652 H   0  0  0  0  0  0  0  0  0  0  0  0
  147.8872  142.8778  154.1788 H   0  0  0  0  0  0  0  0  0  0  0  0
  147.3187  138.8512  153.5042 H   0  0  0  0  0  0  0  0  0  0  0  0
  152.1278  141.6836  157.3281 H   0  0  0  0  0  0  0  0  0  0  0  0
  152.9004  143.8958  158.6784 H   0  0  0  0  0  0  0  0  0  0  0  0
  153.1573  141.0480  159.1549 H   0  0  0  0  0  0  0  0  0  0  0  0
  154.4549  142.2408  159.0697 H   0  0  0  0  0  0  0  0  0  0  0  0
  153.9768  143.3831  163.4881 H   0  0  0  0  0  0  0  0  0  0  0  0
  152.6718  142.1978  163.6359 H   0  0  0  0  0  0  0  0  0  0  0  0
  152.2926  143.9018  163.3778 H   0  0  0  0  0  0  0  0  0  0  0  0
  152.8215  144.7693  160.8009 H   0  0  0  0  0  0  0  0  0  0  0  0
  151.3029  143.9215  161.0704 H   0  0  0  0  0  0  0  0  0  0  0  0
  1  2  1  0  0  0  0
  1 19  1  0  0  0  0
  1 20  1  0  0  0  0
  1 21  1  0  0  0  0
  2  3  1  0  0  0  0
  2  9  1  0  0  0  0
  2 22  1  0  0  0  0
  3  4  1  0  0  0  0
  3 23  1  0  0  0  0
  3 24  1  0  0  0  0
  4  8  1  0  0  0  0
  4  5  1  0  0  0  0
  5  6  2  0  0  0  0
  5 25  1  0  0  0  0
  6  7  1  0  0  0  0
  7  8  2  0  0  0  0
  7 26  1  0  0  0  0
  9 10  1  0  0  0  0
  9 27  1  0  0  0  0
 10 11  2  0  0  0  0
 10 12  1  0  0  0  0
 12 18  1  0  0  0  0
 12 13  1  0  0  0  0
 12 28  1  0  0  0  0
 13 14  1  0  0  0  0
 13 29  1  0  0  0  0
 13 30  1  0  0  0  0
 14 15  2  0  0  0  0
 14 16  1  0  0  0  0
 16 17  1  0  0  0  0
 16 18  1  0  0  0  0
 17 31  1  0  0  0  0
 17 32  1  0  0  0  0
 17 33  1  0  0  0  0
 18 34  1  0  0  0  0
 18 35  1  0  0  0  0
M  END
> <s_m_source_file>
AV-unprocessed.smi

> <i_m_source_file_index>
3061

> <i_lp_mmshare_version>
43012

> <i_f3d_flags>
0

> <s_epik_input>
bjFbY0hdbltjSF1uMVtDSDJdW0NAQEhdKFtDSDNdKVtOSF1DKD1PKVtDQEBIXTJbQ0gyXUMoPU8pTihbQ0gzXSlbQ0gyXTI=

> <s_epik_cmdline>
J2VwaWtfcHl0aG9uJywgJy1waCcsICc3LjAnLCAnLXRuJywgJzgnLCAnLW1hJywgJzIwMCcsICctbWV0YWxfYmluZGluZycsICctaW1hZScsICc8aW5maWxlLm1hZT4nLCAnLW9tYWUnLCAnPG91dGZpbGUubWFlPic=

> <r_lp_tautomer_probability>
1

> <r_epik_Ionization_Penalty>
4.97611e-05

> <r_epik_Ionization_Penalty_Charging>
0

> <r_epik_Ionization_Penalty_Neutral>
4.97611e-05

> <r_epik_State_Penalty>
-0

> <r_epik_Charging_Adjusted_Penalty>
0

> <i_epik_Tot_Q>
0

> <i_epik_Tot_abs_Q>
0

> <r_epik_Metal_State_Penalty>
-0

> <b_epik_Metal_Only>
0

> <s_lp_Force_Field>
OPLS_2005

> <r_lp_Energy>
14.0738

> <b_lp_Chiralities_Consistent>
1

> <s_lp_Variant>
AV-unprocessed.smi:3061-1

> <Gold.Version>
5.8.1

> <Gold.Id.Protein>
6NUR|6NUR_protein|mol2

> <Gold.PLP.Fitness>
41.7563

> <Gold.PLP.PLP>
-39.4064

> <Gold.PLP.part.hbond>
-1.5210

> <Gold.PLP.part.metal>
0.0000

> <Gold.PLP.part.buried>
-4.8084

> <Gold.PLP.part.nonpolar>
-33.0523

> <Gold.PLP.part.repulsive>
0.3976

> <Gold.PLP.ligand.clash>
0.0000

> <Gold.PLP.ligand.torsion>
0.3352

> <Gold.PLP.Chemscore.Hbond>
0.0000

> <Gold.PLP.Chemscore.CHOScore>
1.0000

> <Gold.PLP.Chemscore.Metal>
0.0000

> <Gold.Chemscore.Hbonds>
donor molecule, donor type, donor heavy atom, donor atom, acceptor molecule, acceptor atom, score
      L1  C     5    25       P1  8028  1.00

> <Gold.PLP.Chemscore.Internal.Correction>
0.0204

> <Gold.Rescore>
     Score         DG    S(hbond)    S(metal)    S(lipo)     H(rot)  DE(clash)    DE(int)     intcor
      5.30      -6.85       0.00        0.00      64.62       2.42       0.15       1.39       ----

> <Gold.Chemscore.Fitness>
5.2991

> <Gold.Chemscore.DG>
-6.8459

> <Gold.Chemscore.ZeroCoef>
-5.4800

> <Gold.Chemscore.Hbond>
0.0000

> <Gold.Chemscore.Metal>
0.0000

> <Gold.Chemscore.Lipo>
64.6180

> <Gold.Chemscore.Internal_Hbond>
0.0000

> <Gold.Chemscore.DEClash>
0.1548

> <Gold.Chemscore.DEInternal>
1.3920

> <Gold.Chemscore.Rot>
2.4197

> <Gold.Chemscore.Internal.Correction>
   9.000000E+99

> <Gold.Chemscore.Hbond.Weighted>
-0.0001

> <Gold.Chemscore.Metal.Weighted>
-0.0000

> <Gold.Chemscore.Lipo.Weighted>
-7.5603

> <Gold.Chemscore.Internal_Hbond.Weighted>
0.0000

> <Gold.Chemscore.DEClash.Weighted>
0.1548

> <Gold.Chemscore.DEInternal.Weighted>
1.3920

> <Gold.Chemscore.Rot.Weighted>
6.1945

> <Gold.Chemscore.Internal.Correction.Weighted>
   9.000000E+99

> <Gold.Protein.RotatedTorsions>
[ 6907 6896 6895 6894 ] final    0.34 input  -60.11 | X-H torsion
[ 7974 7965 7964 7962 ] final  177.55 input  175.53 | X-H torsion
[ 8008 7997 7996 7995 ] final   -9.08 input   59.86 | X-H torsion
[ 10167 10162 10161 10158 ] final  -34.42 input  -65.29 | X-H torsion
[ 10718 10713 10712 10709 ] final  -85.70 input   66.30 | X-H torsion
[ 10763 10752 10751 10750 ] final  136.10 input  -60.55 | X-H torsion
[ 11005 11000 10999 10996 ] final -163.01 input  -57.11 | X-H torsion

> <Gold.Protein.ActiveResidues>
 VAL166  LYS551  ARG553  GLY616  TRP617  ASP618  TYR619  PRO620  LYS621  CYS622 
 ASP623  PHE694  ASN695  SER759  ASP760  ASP761  ALA762  ILE779  LEU786  VAL792 
 PHE793  MET794  SER795  GLU796  ALA797  LYS798  CYS799  TRP800  GLU811  SER814 

> <Gold.Protein.RotatedAtoms>
  151.5748  135.1061  160.0003 H   0  0  0  0  0  0  0  0  0  0  0  0  # atno 6907 bound_to 6896
  152.4383  133.7397  159.6644 H   0  0  0  0  0  0  0  0  0  0  0  0  # atno 6908 bound_to 6896
  150.8284  133.8063  159.3132 H   0  0  0  0  0  0  0  0  0  0  0  0  # atno 6909 bound_to 6896
  144.7167  140.0263  143.6439 H   0  0  0  0  0  0  0  0  0  0  0  0  # atno 7974 bound_to 7965
  154.5680  140.2364  155.8234 H   0  0  0  0  0  0  0  0  0  0  0  0  # atno 8008 bound_to 7997
  156.2084  140.3033  155.9636 H   0  0  0  0  0  0  0  0  0  0  0  0  # atno 8009 bound_to 7997
  155.2765  140.0420  157.3002 H   0  0  0  0  0  0  0  0  0  0  0  0  # atno 8010 bound_to 7997
  140.7186  143.3549  151.2080 H   0  0  0  0  0  0  0  0  0  0  0  0  # atno 10167 bound_to 10162
  155.9995  130.4740  150.4602 H   0  0  0  0  0  0  0  0  0  0  0  0  # atno 10718 bound_to 10713
  153.8510  135.3079  155.3432 H   0  0  0  0  0  0  0  0  0  0  0  0  # atno 10763 bound_to 10752
  154.7891  135.4793  154.0015 H   0  0  0  0  0  0  0  0  0  0  0  0  # atno 10764 bound_to 10752
  153.1518  135.6844  153.8964 H   0  0  0  0  0  0  0  0  0  0  0  0  # atno 10765 bound_to 10752
  140.6029  134.4929  157.5207 H   0  0  0  0  0  0  0  0  0  0  0  0  # atno 11005 bound_to 11000
  146.0139  139.3193  143.0854 LP  0  0  0  0  0  0  0  0  0  0  0  0  # atno 17320 bound_to 7965
  145.8649  140.9454  143.0681 LP  0  0  0  0  0  0  0  0  0  0  0  0  # atno 17321 bound_to 7965
  139.7088  143.9411  152.2938 LP  0  0  0  0  0  0  0  0  0  0  0  0  # atno 17342 bound_to 10162
  139.9129  144.6846  150.8543 LP  0  0  0  0  0  0  0  0  0  0  0  0  # atno 17343 bound_to 10162
  157.2627  131.0570  151.2310 LP  0  0  0  0  0  0  0  0  0  0  0  0  # atno 17370 bound_to 10713
  157.3419  130.7038  149.6387 LP  0  0  0  0  0  0  0  0  0  0  0  0  # atno 17371 bound_to 10713
  139.9225  134.8121  156.1168 LP  0  0  0  0  0  0  0  0  0  0  0  0  # atno 17394 bound_to 11000
  141.0860  133.6734  156.2438 LP  0  0  0  0  0  0  0  0  0  0  0  0  # atno 17395 bound_to 11000

$$$$
