#       Name:                AV-unprocessed.smi:2027
#       Creating user name   scv26
#       Creation time:       Fri Mar 27 10:49:03 2020


#       File generated by GOLD software.
#

@<TRIPOS>MOLECULE
AV-unprocessed.smi:2027
    54    56     1
SMALL
NO_CHARGES


@<TRIPOS>ATOM
      1 ****         1.3518   4.5921   2.2351 C.3            1 S1                 0.0000
      2 ****         0.3289   3.5206   1.8988 C.ar           1 S1                 0.0000
      3 ****        -0.5508   3.0845   2.9153 C.ar           1 S1                 0.0000
      4 ****        -1.4691   2.0966   2.5795 C.ar           1 S1                 0.0000
      5 ****        -2.4494   1.4614   3.3450 N.pl3          1 S1                 1.0000
      6 ****        -3.1021   0.5445   2.5782 C.2            1 S1                 0.0000
      7 ****        -2.5517   0.5824   1.3342 N.pl3          1 S1                 0.0000
      8 ****        -2.8850  -0.2057   0.1387 C.3            1 S1                 0.0000
      9 ****        -2.1760  -1.5769   0.0898 C.3            1 S1                 0.0000
     10 ****        -2.5290  -2.1795  -1.1392 O.3            1 S1                 0.0000
     11 ****        -0.6363  -1.4771   0.1898 C.3            1 S1                 0.0000
     12 ****         0.0761  -2.7759   0.0351 N.4            1 S1                 1.0000
     13 ****        -0.2113  -3.7311   1.1318 C.3            1 S1                 0.0000
     14 ****         1.5399  -2.6118  -0.1686 C.3            1 S1                 0.0000
     15 ****         1.8586  -1.9078  -1.4619 C.2            1 S1                 0.0000
     16 ****         2.2465  -0.5486  -1.6447 C.2            1 S1                 0.0000
     17 ****         2.4364  -0.2342  -2.9147 N.2            1 S1                 0.0000
     18 ****         2.1916  -1.3790  -3.5846 N.pl3          1 S1                 0.0000
     19 ****         2.3101  -1.4012  -5.0268 C.3            1 S1                 0.0000
     20 ****         1.8457  -2.4068  -2.7341 C.2            1 S1                 0.0000
     21 ****        -1.5362   1.5467   1.2844 C.ar           1 S1                 0.0000
     22 ****        -0.6845   1.9757   0.2679 C.ar           1 S1                 0.0000
     23 ****         0.2617   2.9737   0.5913 C.ar           1 S1                 0.0000
     24 ****         1.2119   3.4485  -0.4951 C.3            1 S1                 0.0000
     25 ****         1.3001   4.8776   3.2862 H              1 S1                 0.0000
     26 ****         1.1790   5.4869   1.6367 H              1 S1                 0.0000
     27 ****         2.3622   4.2331   2.0384 H              1 S1                 0.0000
     28 ****        -0.5068   3.4987   3.9122 H              1 S1                 0.0000
     29 ****        -3.9094  -0.0979   2.9000 H              1 S1                 0.0000
     30 ****        -3.9668  -0.3469   0.1390 H              1 S1                 0.0000
     31 ****        -2.6603   0.3865  -0.7490 H              1 S1                 0.0000
     32 ****        -2.5702  -2.1905   0.8994 H              1 S1                 0.0000
     33 ****        -2.2906  -3.0935  -1.1143 H              1 S1                 0.0000
     34 ****        -0.3073  -0.7849  -0.5833 H              1 S1                 0.0000
     35 ****        -0.3423  -1.0362   1.1431 H              1 S1                 0.0000
     36 ****         0.0897  -3.3211   2.0967 H              1 S1                 0.0000
     37 ****         0.3251  -4.6685   0.9800 H              1 S1                 0.0000
     38 ****        -1.2703  -3.9808   1.1791 H              1 S1                 0.0000
     39 ****         1.9597  -2.0766   0.6846 H              1 S1                 0.0000
     40 ****         2.0124  -3.5948  -0.1650 H              1 S1                 0.0000
     41 ****         2.3820   0.2181  -0.8959 H              1 S1                 0.0000
     42 ****         2.0510  -2.3893  -5.4082 H              1 S1                 0.0000
     43 ****         3.3347  -1.1668  -5.3171 H              1 S1                 0.0000
     44 ****         1.6353  -0.6650  -5.4647 H              1 S1                 0.0000
     45 ****         1.6146  -3.3960  -3.1016 H              1 S1                 0.0000
     46 ****        -0.7317   1.5644  -0.7294 H              1 S1                 0.0000
     47 ****         1.0154   2.9492  -1.4445 H              1 S1                 0.0000
     48 ****         2.2453   3.2392  -0.2182 H              1 S1                 0.0000
     49 ****         1.1060   4.5216  -0.6553 H              1 S1                 0.0000
     50 ****        -0.2748  -3.1982  -0.8127 H              1 S1                 0.0000
     51 ****        -2.6609   1.6399   4.3188 H              1 S1                 0.0000
     52 ****        -2.0425  -1.7266  -1.8864 LP             1 S1                 0.0000
     53 ****        -3.5149  -2.0942  -1.2832 LP             1 S1                 0.0000
     54 ****         2.7018   0.6525  -3.2933 LP             1 S1                 0.0000
@<TRIPOS>BOND
    1    1    2 1     
    2    1   25 1     
    3    1   26 1     
    4    1   27 1     
    5    2   23 ar    
    6    2    3 ar    
    7    3    4 ar    
    8    3   28 1     
    9    4   21 ar    
   10    4    5 1     
   11    5    6 2     
   12    5   51 1     
   13    6    7 1     
   14    6   29 1     
   15    7    8 1     
   16    7   21 1     
   17    8    9 1     
   18    8   30 1     
   19    8   31 1     
   20    9   10 1     
   21    9   11 1     
   22    9   32 1     
   23   10   33 1     
   24   11   12 1     
   25   11   34 1     
   26   11   35 1     
   27   12   13 1     
   28   12   14 1     
   29   12   50 1     
   30   13   36 1     
   31   13   37 1     
   32   13   38 1     
   33   14   15 1     
   34   14   39 1     
   35   14   40 1     
   36   15   20 2     
   37   15   16 1     
   38   16   17 2     
   39   16   41 1     
   40   17   18 1     
   41   18   19 1     
   42   18   20 1     
   43   19   42 1     
   44   19   43 1     
   45   19   44 1     
   46   20   45 1     
   47   21   22 ar    
   48   22   23 ar    
   49   22   46 1     
   50   23   24 1     
   51   24   47 1     
   52   24   48 1     
   53   24   49 1     
   54   10   52 1     
   55   10   53 1     
   56   17   54 1     
@<TRIPOS>SUBSTRUCTURE
      1 S1             1
@<TRIPOS>SET
LONE_PAIRS      STATIC     ATOMS    <user>   **** ""
3 52 53 54
DONOR_HYDROGENS      STATIC     ATOMS    <user>   **** ""
3 51 33 50
ATOM$BLUE        STATIC     ATOMS    COLORGROUP SYSTEM
3 52 53 54
ATOM$RED        STATIC     ATOMS    COLORGROUP SYSTEM
3 51 33 50
