AV-unprocessed.smi:308|AV-procd|sdf|2290|dock2
  -GOLD-   2262022193D 1   1.00000     0.00000
 Structure written by MMmdl.
 50 51  0  0  0  0  0  0  0  0  4 V2000
  143.9053  133.9954  152.1294 C   0  0  0  0  0  0  0  0  0  0  0  0
  145.3822  134.1789  151.7386 C   0  0  2  0  0  0  0  0  0  0  0  0
  146.3035  134.3622  152.9587 C   0  0  0  0  0  0  0  0  0  0  0  0
  146.1545  135.7548  153.5967 C   0  0  0  0  0  0  0  0  0  0  0  0
  146.3887  136.8311  152.5950 N   0  3  2  0  0  0  0  0  0  0  0  0
  146.4176  138.2001  153.1784 C   0  0  0  0  0  0  0  0  0  0  0  0
  147.4159  138.3128  154.3475 C   0  0  0  0  0  0  0  0  0  0  0  0
  148.6621  138.9242  153.8787 N   0  5  0  0  0  0  0  0  0  0  0  0
  149.2306  140.0372  154.4148 C   0  0  0  0  0  0  0  0  0  0  0  0
  149.3601  141.1467  153.8854 O   0  0  0  0  0  0  0  0  0  0  0  0
  149.6956  139.8178  155.6577 N   0  0  0  0  0  0  0  0  0  0  0  0
  150.3168  140.7248  156.5585 C   0  0  0  0  0  0  0  0  0  0  0  0
  150.7599  140.2211  157.7984 C   0  0  0  0  0  0  0  0  0  0  0  0
  151.3623  141.0879  158.7333 C   0  0  0  0  0  0  0  0  0  0  0  0
  151.5094  142.4630  158.4264 C   0  0  0  0  0  0  0  0  0  0  0  0
  152.0996  143.3933  159.3090 N   0  0  0  0  0  0  0  0  0  0  0  0
  152.6168  142.9432  160.5965 C   0  0  0  0  0  0  0  0  0  0  0  0
  152.2231  144.7901  158.9134 C   0  0  0  0  0  0  0  0  0  0  0  0
  151.0543  142.9025  157.2276 N   0  3  0  0  0  0  0  0  0  0  0  0
  150.4728  142.1076  156.3037 C   0  0  0  0  0  0  0  0  0  0  0  0
  145.4629  136.7164  151.4393 C   0  0  0  0  0  0  0  0  0  0  0  0
  145.5966  135.3440  150.7553 C   0  0  0  0  0  0  0  0  0  0  0  0
  143.5034  134.8676  152.6444 H   0  0  0  0  0  0  0  0  0  0  0  0
  143.7801  133.1367  152.7894 H   0  0  0  0  0  0  0  0  0  0  0  0
  143.2885  133.8213  151.2473 H   0  0  0  0  0  0  0  0  0  0  0  0
  145.6835  133.2606  151.2329 H   0  0  0  0  0  0  0  0  0  0  0  0
  146.1082  133.5870  153.7004 H   0  0  0  0  0  0  0  0  0  0  0  0
  147.3403  134.2272  152.6472 H   0  0  0  0  0  0  0  0  0  0  0  0
  145.1625  135.8704  154.0346 H   0  0  0  0  0  0  0  0  0  0  0  0
  146.8676  135.8464  154.4164 H   0  0  0  0  0  0  0  0  0  0  0  0
  146.7036  138.9288  152.4180 H   0  0  0  0  0  0  0  0  0  0  0  0
  145.4170  138.4905  153.5017 H   0  0  0  0  0  0  0  0  0  0  0  0
  146.9610  138.9025  155.1433 H   0  0  0  0  0  0  0  0  0  0  0  0
  147.5707  137.3182  154.7677 H   0  0  0  0  0  0  0  0  0  0  0  0
  149.6414  138.8605  155.9738 H   0  0  0  0  0  0  0  0  0  0  0  0
  150.6452  139.1730  158.0342 H   0  0  0  0  0  0  0  0  0  0  0  0
  151.7014  140.6801  159.6737 H   0  0  0  0  0  0  0  0  0  0  0  0
  151.8173  142.5129  161.2005 H   0  0  0  0  0  0  0  0  0  0  0  0
  153.0536  143.7677  161.1602 H   0  0  0  0  0  0  0  0  0  0  0  0
  153.3912  142.1885  160.4561 H   0  0  0  0  0  0  0  0  0  0  0  0
  152.8185  144.8796  158.0043 H   0  0  0  0  0  0  0  0  0  0  0  0
  152.7103  145.3808  159.6896 H   0  0  0  0  0  0  0  0  0  0  0  0
  151.2401  145.2255  158.7320 H   0  0  0  0  0  0  0  0  0  0  0  0
  150.1462  142.6150  155.4085 H   0  0  0  0  0  0  0  0  0  0  0  0
  144.4381  136.8857  151.7721 H   0  0  0  0  0  0  0  0  0  0  0  0
  145.6909  137.4955  150.7109 H   0  0  0  0  0  0  0  0  0  0  0  0
  146.5939  135.2640  150.3200 H   0  0  0  0  0  0  0  0  0  0  0  0
  144.8970  135.2702  149.9217 H   0  0  0  0  0  0  0  0  0  0  0  0
  147.3168  136.6898  152.2200 H   0  0  0  0  0  0  0  0  0  0  0  0
  151.1528  143.8941  157.0096 H   0  0  0  0  0  0  0  0  0  0  0  0
  1  2  1  0  0  0  0
  1 23  1  0  0  0  0
  1 24  1  0  0  0  0
  1 25  1  0  0  0  0
  2 22  1  0  0  0  0
  2  3  1  0  0  0  0
  2 26  1  0  0  0  0
  3  4  1  0  0  0  0
  3 27  1  0  0  0  0
  3 28  1  0  0  0  0
  4  5  1  0  0  0  0
  4 29  1  0  0  0  0
  4 30  1  0  0  0  0
  5  6  1  0  0  0  0
  5 21  1  0  0  0  0
  5 49  1  0  0  0  0
  6  7  1  0  0  0  0
  6 31  1  0  0  0  0
  6 32  1  0  0  0  0
  7  8  1  0  0  0  0
  7 33  1  0  0  0  0
  7 34  1  0  0  0  0
  8  9  1  0  0  0  0
  9 10  2  0  0  0  0
  9 11  1  0  0  0  0
 11 12  1  0  0  0  0
 11 35  1  0  0  0  0
 12 20  1  0  0  0  0
 12 13  2  0  0  0  0
 13 14  1  0  0  0  0
 13 36  1  0  0  0  0
 14 15  2  0  0  0  0
 14 37  1  0  0  0  0
 15 16  1  0  0  0  0
 15 19  1  0  0  0  0
 16 17  1  0  0  0  0
 16 18  1  0  0  0  0
 17 38  1  0  0  0  0
 17 39  1  0  0  0  0
 17 40  1  0  0  0  0
 18 41  1  0  0  0  0
 18 42  1  0  0  0  0
 18 43  1  0  0  0  0
 19 20  2  0  0  0  0
 19 50  1  0  0  0  0
 20 44  1  0  0  0  0
 21 22  1  0  0  0  0
 21 45  1  0  0  0  0
 21 46  1  0  0  0  0
 22 47  1  0  0  0  0
 22 48  1  0  0  0  0
M  CHG  1   5   1
M  CHG  1   8  -1
M  CHG  1  19   1
M  END
> <s_m_source_file>
AV-unprocessed.smi

> <i_m_source_file_index>
308

> <i_lp_mmshare_version>
43012

> <i_f3d_flags>
0

> <s_epik_input>
W0NIM11bQ0hdMVtDSDJdW0NIMl1OKFtDSDJdW0NIMl0xKVtDSDJdW0NIMl1bTkhdQyg9TylbTkhdYzJbY0hdW2NIXWMoTihbQ0gzXSlbQ0gzXSluW2NIXTI=

> <s_epik_cmdline>
J2VwaWtfcHl0aG9uJywgJy1waCcsICc3LjAnLCAnLXRuJywgJzgnLCAnLW1hJywgJzIwMCcsICctbWV0YWxfYmluZGluZycsICctaW1hZScsICc8aW5maWxlLm1hZT4nLCAnLW9tYWUnLCAnPG91dGZpbGUubWFlPic=

> <r_lp_tautomer_probability>
0.999994

> <r_epik_Ionization_Penalty>
7.42107

> <r_epik_Ionization_Penalty_Charging>
7.42107

> <r_epik_Ionization_Penalty_Neutral>
3.68925e-06

> <r_epik_State_Penalty>
7.0982

> <r_epik_Charging_Adjusted_Penalty>
14.5193

> <i_epik_Tot_Q>
1

> <i_epik_Tot_abs_Q>
3

> <r_epik_Metal_State_Penalty>
3.28646

> <b_epik_Metal_Only>
1

> <s_lp_Force_Field>
OPLS_2005

> <r_lp_Energy>
21.4752

> <b_lp_Chiralities_Consistent>
1

> <s_lp_Variant>
AV-unprocessed.smi:308-6

> <Gold.Version>
5.8.1

> <Gold.Id.Protein>
6NUR|6NUR_protein|mol2

> <Gold.PLP.Fitness>
47.6429

> <Gold.PLP.PLP>
-39.9510

> <Gold.PLP.part.hbond>
-3.0000

> <Gold.PLP.part.metal>
0.0000

> <Gold.PLP.part.buried>
-3.0595

> <Gold.PLP.part.nonpolar>
-34.7790

> <Gold.PLP.part.repulsive>
2.5616

> <Gold.PLP.ligand.clash>
0.0000

> <Gold.PLP.ligand.torsion>
0.9461

> <Gold.PLP.Chemscore.Hbond>
3.1277

> <Gold.PLP.Chemscore.CHOScore>
0.0000

> <Gold.PLP.Chemscore.Metal>
0.0000

> <Gold.Chemscore.Hbonds>
donor molecule, donor type, donor heavy atom, donor atom, acceptor molecule, acceptor atom, score
      L1  H     5    49       P1  7948  2.00
      P1  H  7989  7998       L1    10  0.09
      P1  H  8011  8017       L1    10  0.83

> <Gold.PLP.Chemscore.Internal.Correction>
0.2010

> <Gold.Rescore>
     Score         DG    S(hbond)    S(metal)    S(lipo)     H(rot)  DE(clash)    DE(int)     intcor
     14.30     -18.08       2.01        0.00      81.33       1.42       1.55       2.23       ----

> <Gold.Chemscore.Fitness>
14.2976

> <Gold.Chemscore.DG>
-18.0752

> <Gold.Chemscore.ZeroCoef>
-5.4800

> <Gold.Chemscore.Hbond>
2.0136

> <Gold.Chemscore.Metal>
0.0000

> <Gold.Chemscore.Lipo>
81.3282

> <Gold.Chemscore.Internal_Hbond>
0.0000

> <Gold.Chemscore.DEClash>
1.5466

> <Gold.Chemscore.DEInternal>
2.2309

> <Gold.Chemscore.Rot>
1.4241

> <Gold.Chemscore.Internal.Correction>
   9.000000E+99

> <Gold.Chemscore.Hbonds>
donor molecule, donor type, donor heavy atom, donor atom, acceptor molecule, acceptor atom, score
      L1  H     5    49       P1  7948  1.00
      P1  H  7989  7998       L1    10  0.01
      P1  H  8011  8017       L1    10  0.78

> <Gold.Chemscore.Hbond.Weighted>
-6.7254

> <Gold.Chemscore.Metal.Weighted>
-0.0000

> <Gold.Chemscore.Lipo.Weighted>
-9.5154

> <Gold.Chemscore.Internal_Hbond.Weighted>
0.0000

> <Gold.Chemscore.DEClash.Weighted>
1.5466

> <Gold.Chemscore.DEInternal.Weighted>
2.2309

> <Gold.Chemscore.Rot.Weighted>
3.6456

> <Gold.Chemscore.Internal.Correction.Weighted>
   9.000000E+99

> <Gold.Protein.RotatedTorsions>
[ 6907 6896 6895 6894 ] final  -16.27 input  -60.11 | X-H torsion
[ 7974 7965 7964 7962 ] final   90.51 input  175.53 | X-H torsion
[ 8008 7997 7996 7995 ] final -169.17 input   59.86 | X-H torsion
[ 10167 10162 10161 10158 ] final   20.97 input  -65.29 | X-H torsion
[ 10718 10713 10712 10709 ] final  155.54 input   66.30 | X-H torsion
[ 10763 10752 10751 10750 ] final -115.22 input  -60.55 | X-H torsion
[ 11005 11000 10999 10996 ] final  116.00 input  -57.11 | X-H torsion

> <Gold.Protein.ActiveResidues>
 VAL166  LYS551  ARG553  GLY616  TRP617  ASP618  TYR619  PRO620  LYS621  CYS622 
 ASP623  PHE694  ASN695  SER759  ASP760  ASP761  ALA762  ILE779  LEU786  VAL792 
 PHE793  MET794  SER795  GLU796  ALA797  LYS798  CYS799  TRP800  GLU811  SER814 

> <Gold.Protein.RotatedAtoms>
  151.3112  135.0795  159.9272 H   0  0  0  0  0  0  0  0  0  0  0  0  # atno 6907 bound_to 6896
  152.5277  133.9733  159.7783 H   0  0  0  0  0  0  0  0  0  0  0  0  # atno 6908 bound_to 6896
  151.0037  133.5979  159.2722 H   0  0  0  0  0  0  0  0  0  0  0  0  # atno 6909 bound_to 6896
  145.5180  139.2278  143.2687 H   0  0  0  0  0  0  0  0  0  0  0  0  # atno 7974 bound_to 7965
  155.9014  140.1041  157.1347 H   0  0  0  0  0  0  0  0  0  0  0  0  # atno 8008 bound_to 7997
  154.4027  140.1292  156.4505 H   0  0  0  0  0  0  0  0  0  0  0  0  # atno 8009 bound_to 7997
  155.7418  140.3466  155.5110 H   0  0  0  0  0  0  0  0  0  0  0  0  # atno 8010 bound_to 7997
  140.5463  143.9589  150.6550 H   0  0  0  0  0  0  0  0  0  0  0  0  # atno 10167 bound_to 10162
  157.2169  131.0710  151.1935 H   0  0  0  0  0  0  0  0  0  0  0  0  # atno 10718 bound_to 10713
  154.8472  135.4389  154.1629 H   0  0  0  0  0  0  0  0  0  0  0  0  # atno 10763 bound_to 10752
  153.2761  135.6949  153.7438 H   0  0  0  0  0  0  0  0  0  0  0  0  # atno 10764 bound_to 10752
  153.6660  135.3427  155.3115 H   0  0  0  0  0  0  0  0  0  0  0  0  # atno 10765 bound_to 10752
  139.9027  134.9592  156.7131 H   0  0  0  0  0  0  0  0  0  0  0  0  # atno 11005 bound_to 11000
  146.2124  140.5991  142.9053 LP  0  0  0  0  0  0  0  0  0  0  0  0  # atno 17320 bound_to 7965
  144.7691  140.5598  143.6682 LP  0  0  0  0  0  0  0  0  0  0  0  0  # atno 17321 bound_to 7965
  140.3003  143.3265  152.0978 LP  0  0  0  0  0  0  0  0  0  0  0  0  # atno 17342 bound_to 10162
  139.5009  144.6701  151.6263 LP  0  0  0  0  0  0  0  0  0  0  0  0  # atno 17343 bound_to 10162
  157.3615  130.7134  149.6505 LP  0  0  0  0  0  0  0  0  0  0  0  0  # atno 17370 bound_to 10713
  155.9685  130.4224  150.4515 LP  0  0  0  0  0  0  0  0  0  0  0  0  # atno 17371 bound_to 10713
  140.7059  133.9265  155.8054 LP  0  0  0  0  0  0  0  0  0  0  0  0  # atno 17394 bound_to 11000
  141.0336  134.0721  157.3985 LP  0  0  0  0  0  0  0  0  0  0  0  0  # atno 17395 bound_to 11000

$$$$
