AV-unprocessed.smi:1954|AV-procd|sdf|7895|dock3
  -GOLD-   2272010 53D 1   1.00000     0.00000
 Structure written by MMmdl.
 44 46  0  0  0  0  0  0  0  0  1 V2000
  144.7337  136.1894  153.5520 O   0  0  0  0  0  0  0  0  0  0  0  0
  145.8573  136.2252  153.0498 C   0  0  0  0  0  0  0  0  0  0  0  0
  146.7862  137.1355  153.3752 N   0  0  0  0  0  0  0  0  0  0  0  0
  146.6268  138.2058  154.3593 C   0  0  0  0  0  0  0  0  0  0  0  0
  147.9443  139.0177  154.5925 C   0  0  2  0  0  0  0  0  0  0  0  0
  149.1244  138.0987  154.6112 N   0  0  0  0  0  0  0  0  0  0  0  0
  149.0763  137.0041  155.5914 C   0  0  0  0  0  0  0  0  0  0  0  0
  150.2888  136.0643  155.4810 C   0  0  0  0  0  0  0  0  0  0  0  0
  151.4899  136.8090  155.6292 O   0  0  0  0  0  0  0  0  0  0  0  0
  151.6117  137.8293  154.6480 C   0  0  0  0  0  0  0  0  0  0  0  0
  150.4143  138.7892  154.7472 C   0  0  0  0  0  0  0  0  0  0  0  0
  147.7795  139.8388  155.9048 C   0  0  0  0  0  0  0  0  0  0  0  0
  146.7627  140.9614  155.6735 C   0  0  0  0  0  0  0  0  0  0  0  0
  146.9300  141.4888  153.9523 S   0  0  0  0  0  0  0  0  0  0  0  0
  148.0309  140.1177  153.5033 C   0  0  0  0  0  0  0  0  0  0  0  0
  146.3204  135.3727  152.1189 N   0  0  0  0  0  0  0  0  0  0  0  0
  145.6486  134.2709  151.5256 C   0  0  0  0  0  0  0  0  0  0  0  0
  146.4931  133.2812  150.9734 C   0  0  0  0  0  0  0  0  0  0  0  0
  145.9242  132.1480  150.3605 C   0  0  0  0  0  0  0  0  0  0  0  0
  144.5235  132.0325  150.3167 C   0  0  0  0  0  0  0  0  0  0  0  0
  143.7552  133.0619  150.8912 C   0  0  0  0  0  0  0  0  0  0  0  0
  144.2982  134.1490  151.4787 N   0  0  0  0  0  0  0  0  0  0  0  0
  147.6845  137.0780  152.9184 H   0  0  0  0  0  0  0  0  0  0  0  0
  145.8260  138.8549  154.0080 H   0  0  0  0  0  0  0  0  0  0  0  0
  146.2284  137.8028  155.2903 H   0  0  0  0  0  0  0  0  0  0  0  0
  149.0303  137.3978  156.6060 H   0  0  0  0  0  0  0  0  0  0  0  0
  148.1940  136.3857  155.4451 H   0  0  0  0  0  0  0  0  0  0  0  0
  150.2463  135.2996  156.2568 H   0  0  0  0  0  0  0  0  0  0  0  0
  150.2888  135.5455  154.5209 H   0  0  0  0  0  0  0  0  0  0  0  0
  152.5441  138.3695  154.8114 H   0  0  0  0  0  0  0  0  0  0  0  0
  151.6691  137.3849  153.6531 H   0  0  0  0  0  0  0  0  0  0  0  0
  150.5414  139.5410  153.9715 H   0  0  0  0  0  0  0  0  0  0  0  0
  150.4578  139.3127  155.7029 H   0  0  0  0  0  0  0  0  0  0  0  0
  147.5141  139.2223  156.7632 H   0  0  0  0  0  0  0  0  0  0  0  0
  148.7035  140.3474  156.1702 H   0  0  0  0  0  0  0  0  0  0  0  0
  145.7455  140.6053  155.8360 H   0  0  0  0  0  0  0  0  0  0  0  0
  146.9239  141.7996  156.3519 H   0  0  0  0  0  0  0  0  0  0  0  0
  149.0328  140.5390  153.4386 H   0  0  0  0  0  0  0  0  0  0  0  0
  147.7804  139.7444  152.5099 H   0  0  0  0  0  0  0  0  0  0  0  0
  147.2633  135.5306  151.7958 H   0  0  0  0  0  0  0  0  0  0  0  0
  147.5676  133.3859  151.0153 H   0  0  0  0  0  0  0  0  0  0  0  0
  146.5525  131.3812  149.9318 H   0  0  0  0  0  0  0  0  0  0  0  0
  144.0504  131.1785  149.8553 H   0  0  0  0  0  0  0  0  0  0  0  0
  142.6765  133.0117  150.8795 H   0  0  0  0  0  0  0  0  0  0  0  0
  1  2  2  0  0  0  0
  2  3  1  0  0  0  0
  2 16  1  0  0  0  0
  3  4  1  0  0  0  0
  3 23  1  0  0  0  0
  4  5  1  0  0  0  0
  4 24  1  0  0  0  0
  4 25  1  0  0  0  0
  5 15  1  0  0  0  0
  5  6  1  0  0  0  0
  5 12  1  0  0  0  0
  6 11  1  0  0  0  0
  6  7  1  0  0  0  0
  7  8  1  0  0  0  0
  7 26  1  0  0  0  0
  7 27  1  0  0  0  0
  8  9  1  0  0  0  0
  8 28  1  0  0  0  0
  8 29  1  0  0  0  0
  9 10  1  0  0  0  0
 10 11  1  0  0  0  0
 10 30  1  0  0  0  0
 10 31  1  0  0  0  0
 11 32  1  0  0  0  0
 11 33  1  0  0  0  0
 12 13  1  0  0  0  0
 12 34  1  0  0  0  0
 12 35  1  0  0  0  0
 13 14  1  0  0  0  0
 13 36  1  0  0  0  0
 13 37  1  0  0  0  0
 14 15  1  0  0  0  0
 15 38  1  0  0  0  0
 15 39  1  0  0  0  0
 16 17  1  0  0  0  0
 16 40  1  0  0  0  0
 17 22  1  0  0  0  0
 17 18  2  0  0  0  0
 18 19  1  0  0  0  0
 18 41  1  0  0  0  0
 19 20  2  0  0  0  0
 19 42  1  0  0  0  0
 20 21  1  0  0  0  0
 20 43  1  0  0  0  0
 21 22  2  0  0  0  0
 21 44  1  0  0  0  0
M  END
> <s_m_source_file>
AV-unprocessed.smi

> <i_m_source_file_index>
1954

> <i_lp_mmshare_version>
43012

> <i_f3d_flags>
0

> <s_epik_input>
bjFbY0hdW2NIXVtjSF1bY0hdYzFbTkhdQyg9TylbTkhdW0NIMl1bQ0BdMihbQ0gyXVtDSDJdU1tDSDJdMilOM1tDSDJdW0NIMl1PW0NIMl1bQ0gyXTM=

> <s_epik_cmdline>
J2VwaWtfcHl0aG9uJywgJy1waCcsICc3LjAnLCAnLXRuJywgJzgnLCAnLW1hJywgJzIwMCcsICctbWV0YWxfYmluZGluZycsICctaW1hZScsICc8aW5maWxlLm1hZT4nLCAnLW9tYWUnLCAnPG91dGZpbGUubWFlPic=

> <r_epik_Ionization_Penalty>
0.0195535

> <r_epik_Ionization_Penalty_Charging>
0

> <r_epik_Ionization_Penalty_Neutral>
0.0195535

> <r_epik_State_Penalty>
0.0155843

> <r_epik_Charging_Adjusted_Penalty>
0.0155843

> <i_epik_Tot_Q>
0

> <i_epik_Tot_abs_Q>
0

> <r_epik_Metal_State_Penalty>
0.0155842

> <b_epik_Metal_Only>
0

> <s_lp_Force_Field>
OPLS_2005

> <r_lp_Energy>
55.0934

> <b_lp_Chiralities_Consistent>
1

> <s_lp_Variant>
AV-unprocessed.smi:1954-2

> <Gold.Version>
5.8.1

> <Gold.Id.Protein>
6NUR|6NUR_protein|mol2

> <Gold.PLP.Fitness>
43.7010

> <Gold.PLP.PLP>
-32.7171

> <Gold.PLP.part.hbond>
-3.0000

> <Gold.PLP.part.metal>
0.0000

> <Gold.PLP.part.buried>
-4.5735

> <Gold.PLP.part.nonpolar>
-26.6548

> <Gold.PLP.part.repulsive>
0.5604

> <Gold.PLP.ligand.clash>
0.0000

> <Gold.PLP.ligand.torsion>
0.4321

> <Gold.PLP.Chemscore.Hbond>
3.0000

> <Gold.PLP.Chemscore.CHOScore>
0.9265

> <Gold.PLP.Chemscore.Metal>
0.0000

> <Gold.Chemscore.Hbonds>
donor molecule, donor type, donor heavy atom, donor atom, acceptor molecule, acceptor atom, score
      L1  H     3    23       P1  7948  1.00
      L1  H    16    40       P1  7948  1.00
      P1  H 10752 10764       L1     9  0.33
      L1  C    21    44       P1 10186  0.94

> <Gold.PLP.Chemscore.Internal.Correction>
0.0686

> <Gold.Rescore>
     Score         DG    S(hbond)    S(metal)    S(lipo)     H(rot)  DE(clash)    DE(int)     intcor
     16.14     -18.14       2.09        0.00      81.13       1.49       0.48       1.52       ----

> <Gold.Chemscore.Fitness>
16.1433

> <Gold.Chemscore.DG>
-18.1397

> <Gold.Chemscore.ZeroCoef>
-5.4800

> <Gold.Chemscore.Hbond>
2.0935

> <Gold.Chemscore.Metal>
0.0000

> <Gold.Chemscore.Lipo>
81.1279

> <Gold.Chemscore.Internal_Hbond>
0.0000

> <Gold.Chemscore.DEClash>
0.4758

> <Gold.Chemscore.DEInternal>
1.5206

> <Gold.Chemscore.Rot>
1.4940

> <Gold.Chemscore.Internal.Correction>
   9.000000E+99

> <Gold.Chemscore.Hbonds>
donor molecule, donor type, donor heavy atom, donor atom, acceptor molecule, acceptor atom, score
      L1  H     3    23       P1  7948  0.97
      L1  H    16    40       P1  7948  0.99
      P1  H 10752 10764       L1     9  0.01

> <Gold.Chemscore.Hbond.Weighted>
-6.9924

> <Gold.Chemscore.Metal.Weighted>
-0.0000

> <Gold.Chemscore.Lipo.Weighted>
-9.4920

> <Gold.Chemscore.Internal_Hbond.Weighted>
0.0000

> <Gold.Chemscore.DEClash.Weighted>
0.4758

> <Gold.Chemscore.DEInternal.Weighted>
1.5206

> <Gold.Chemscore.Rot.Weighted>
3.8246

> <Gold.Chemscore.Internal.Correction.Weighted>
   9.000000E+99

> <Gold.Protein.RotatedTorsions>
[ 6907 6896 6895 6894 ] final   -5.33 input  -60.11 | X-H torsion
[ 7974 7965 7964 7962 ] final  100.50 input  175.53 | X-H torsion
[ 8008 7997 7996 7995 ] final -141.41 input   59.86 | X-H torsion
[ 10167 10162 10161 10158 ] final  -45.06 input  -65.29 | X-H torsion
[ 10718 10713 10712 10709 ] final  119.27 input   66.30 | X-H torsion
[ 10763 10752 10751 10750 ] final  -62.63 input  -60.55 | X-H torsion
[ 11005 11000 10999 10996 ] final   40.68 input  -57.11 | X-H torsion

> <Gold.Protein.ActiveResidues>
 VAL166  LYS551  ARG553  GLY616  TRP617  ASP618  TYR619  PRO620  LYS621  CYS622 
 ASP623  PHE694  ASN695  SER759  ASP760  ASP761  ALA762  ILE779  LEU786  VAL792 
 PHE793  MET794  SER795  GLU796  ALA797  LYS798  CYS799  TRP800  GLU811  SER814 

> <Gold.Protein.RotatedAtoms>
  151.4833  135.1053  159.9783 H   0  0  0  0  0  0  0  0  0  0  0  0  # atno 6907 bound_to 6896
  152.4770  133.8159  159.7038 H   0  0  0  0  0  0  0  0  0  0  0  0  # atno 6908 bound_to 6896
  150.8815  133.7303  159.2957 H   0  0  0  0  0  0  0  0  0  0  0  0  # atno 6909 bound_to 6896
  145.3848  139.2373  143.3384 H   0  0  0  0  0  0  0  0  0  0  0  0  # atno 7974 bound_to 7965
  155.4774  140.0557  157.2971 H   0  0  0  0  0  0  0  0  0  0  0  0  # atno 8008 bound_to 7997
  154.4674  140.2025  156.0036 H   0  0  0  0  0  0  0  0  0  0  0  0  # atno 8009 bound_to 7997
  156.0998  140.3221  155.7930 H   0  0  0  0  0  0  0  0  0  0  0  0  # atno 8010 bound_to 7997
  140.6873  143.2898  151.3585 H   0  0  0  0  0  0  0  0  0  0  0  0  # atno 10167 bound_to 10162
  157.5973  131.1056  150.7873 H   0  0  0  0  0  0  0  0  0  0  0  0  # atno 10718 bound_to 10713
  154.3028  135.6231  153.5432 H   0  0  0  0  0  0  0  0  0  0  0  0  # atno 10763 bound_to 10752
  152.9838  135.5682  154.5265 H   0  0  0  0  0  0  0  0  0  0  0  0  # atno 10764 bound_to 10752
  154.4898  135.2867  155.1481 H   0  0  0  0  0  0  0  0  0  0  0  0  # atno 10765 bound_to 10752
  140.1907  134.3990  155.8148 H   0  0  0  0  0  0  0  0  0  0  0  0  # atno 11005 bound_to 11000
  146.2825  140.4521  142.8771 LP  0  0  0  0  0  0  0  0  0  0  0  0  # atno 17320 bound_to 7965
  144.8482  140.6961  143.6185 LP  0  0  0  0  0  0  0  0  0  0  0  0  # atno 17321 bound_to 7965
  139.6242  144.0847  152.2419 LP  0  0  0  0  0  0  0  0  0  0  0  0  # atno 17342 bound_to 10162
  140.0301  144.6088  150.7495 LP  0  0  0  0  0  0  0  0  0  0  0  0  # atno 17343 bound_to 10162
  156.8280  130.5006  149.5335 LP  0  0  0  0  0  0  0  0  0  0  0  0  # atno 17370 bound_to 10713
  156.1038  130.5989  150.9938 LP  0  0  0  0  0  0  0  0  0  0  0  0  # atno 17371 bound_to 10713
  141.2226  133.7045  156.8091 LP  0  0  0  0  0  0  0  0  0  0  0  0  # atno 17394 bound_to 11000
  140.2163  134.8790  157.3329 LP  0  0  0  0  0  0  0  0  0  0  0  0  # atno 17395 bound_to 11000

$$$$
