AV-unprocessed.smi:1768|AV-procd|sdf|7149|dock9
  -GOLD-   22720 8383D 1   1.00000     0.00000
 Structure written by MMmdl.
 32 33  0  0  0  0  0  0  0  0  2 V2000
  145.9194  134.5360  162.5714 C   0  0  0  0  0  0  0  0  0  0  0  0
  146.9070  135.3567  161.8154 C   0  0  0  0  0  0  0  0  0  0  0  0
  147.0966  136.6569  162.0524 N   0  0  0  0  0  0  0  0  0  0  0  0
  148.0687  137.2020  161.2259 N   0  0  0  0  0  0  0  0  0  0  0  0
  148.6065  136.3072  160.3849 C   0  0  0  0  0  0  0  0  0  0  0  0
  149.5644  136.6350  159.5020 N   0  5  0  0  0  0  0  0  0  0  0  0
  149.4881  137.8034  158.8246 C   0  0  0  0  0  0  0  0  0  0  0  0
  148.4859  138.2626  158.2716 O   0  0  0  0  0  0  0  0  0  0  0  0
  150.6449  138.4802  158.7845 N   0  0  0  0  0  0  0  0  0  0  0  0
  150.8694  139.7699  158.1350 C   0  0  2  0  0  0  0  0  0  0  0  0
  151.7468  139.5740  156.8857 C   0  0  0  0  0  0  0  0  0  0  0  0
  151.5068  140.7395  159.1486 C   0  0  1  0  0  0  0  0  0  0  0  0
  152.9395  140.3908  159.5573 C   0  0  0  0  0  0  0  0  0  0  0  0
  153.5376  141.7291  159.9639 C   0  0  0  0  0  0  0  0  0  0  0  0
  152.5462  142.7617  159.4222 C   0  0  0  0  0  0  0  0  0  0  0  0
  151.6757  142.0271  158.5747 O   0  0  0  0  0  0  0  0  0  0  0  0
  147.9167  134.6918  160.5424 S   0  0  0  0  0  0  0  0  0  0  0  0
  146.3249  134.2727  163.5484 H   0  0  0  0  0  0  0  0  0  0  0  0
  145.6931  133.6192  162.0267 H   0  0  0  0  0  0  0  0  0  0  0  0
  144.9938  135.0945  162.7129 H   0  0  0  0  0  0  0  0  0  0  0  0
  151.4364  138.0666  159.2548 H   0  0  0  0  0  0  0  0  0  0  0  0
  149.9085  140.1853  157.8259 H   0  0  0  0  0  0  0  0  0  0  0  0
  151.9046  140.5149  156.3587 H   0  0  0  0  0  0  0  0  0  0  0  0
  151.2817  138.8845  156.1805 H   0  0  0  0  0  0  0  0  0  0  0  0
  152.7251  139.1704  157.1483 H   0  0  0  0  0  0  0  0  0  0  0  0
  150.8796  140.8301  160.0380 H   0  0  0  0  0  0  0  0  0  0  0  0
  152.9796  139.6506  160.3571 H   0  0  0  0  0  0  0  0  0  0  0  0
  153.4888  139.9923  158.7031 H   0  0  0  0  0  0  0  0  0  0  0  0
  153.6305  141.8158  161.0469 H   0  0  0  0  0  0  0  0  0  0  0  0
  154.5298  141.8581  159.5301 H   0  0  0  0  0  0  0  0  0  0  0  0
  151.9674  143.2012  160.2358 H   0  0  0  0  0  0  0  0  0  0  0  0
  153.0360  143.5690  158.8774 H   0  0  0  0  0  0  0  0  0  0  0  0
  1  2  1  0  0  0  0
  1 18  1  0  0  0  0
  1 19  1  0  0  0  0
  1 20  1  0  0  0  0
  2 17  1  0  0  0  0
  2  3  2  0  0  0  0
  3  4  1  0  0  0  0
  4  5  2  0  0  0  0
  5  6  1  0  0  0  0
  5 17  1  0  0  0  0
  6  7  1  0  0  0  0
  7  8  2  0  0  0  0
  7  9  1  0  0  0  0
  9 10  1  0  0  0  0
  9 21  1  0  0  0  0
 10 11  1  0  0  0  0
 10 12  1  0  0  0  0
 10 22  1  0  0  0  0
 11 23  1  0  0  0  0
 11 24  1  0  0  0  0
 11 25  1  0  0  0  0
 12 16  1  0  0  0  0
 12 13  1  0  0  0  0
 12 26  1  0  0  0  0
 13 14  1  0  0  0  0
 13 27  1  0  0  0  0
 13 28  1  0  0  0  0
 14 15  1  0  0  0  0
 14 29  1  0  0  0  0
 14 30  1  0  0  0  0
 15 16  1  0  0  0  0
 15 31  1  0  0  0  0
 15 32  1  0  0  0  0
M  CHG  1   6  -1
M  END
> <s_m_source_file>
AV-unprocessed.smi

> <i_m_source_file_index>
1768

> <i_lp_mmshare_version>
43012

> <i_f3d_flags>
0

> <s_epik_input>
W0NIM11jMW5uYyhzMSlbTkhdQyg9TylbTkhdW0NASF0oW0NIM10pW0NAQEhdMltDSDJdW0NIMl1bQ0gyXU8y

> <s_epik_cmdline>
J2VwaWtfcHl0aG9uJywgJy1waCcsICc3LjAnLCAnLXRuJywgJzgnLCAnLW1hJywgJzIwMCcsICctbWV0YWxfYmluZGluZycsICctaW1hZScsICc8aW5maWxlLm1hZT4nLCAnLW9tYWUnLCAnPG91dGZpbGUubWFlPic=

> <r_lp_tautomer_probability>
1

> <r_epik_Ionization_Penalty>
4.3376

> <r_epik_Ionization_Penalty_Charging>
4.19392

> <r_epik_Ionization_Penalty_Neutral>
0.143681

> <r_epik_State_Penalty>
4.19342

> <r_epik_Charging_Adjusted_Penalty>
8.38735

> <i_epik_Tot_Q>
-1

> <i_epik_Tot_abs_Q>
1

> <r_epik_Metal_State_Penalty>
0.686065

> <b_epik_Metal_Only>
1

> <s_lp_Force_Field>
OPLS_2005

> <r_lp_Energy>
16.4236

> <b_lp_Chiralities_Consistent>
1

> <s_lp_Variant>
AV-unprocessed.smi:1768-7

> <Gold.Version>
5.8.1

> <Gold.Id.Protein>
6NUR|6NUR_protein|mol2

> <Gold.PLP.Fitness>
37.7568

> <Gold.PLP.PLP>
-28.7398

> <Gold.PLP.part.hbond>
-2.9586

> <Gold.PLP.part.metal>
0.0000

> <Gold.PLP.part.buried>
-4.4266

> <Gold.PLP.part.nonpolar>
-22.0730

> <Gold.PLP.part.repulsive>
0.1699

> <Gold.PLP.ligand.clash>
0.0000

> <Gold.PLP.ligand.torsion>
0.8195

> <Gold.PLP.Chemscore.Hbond>
3.5421

> <Gold.PLP.Chemscore.CHOScore>
0.0000

> <Gold.PLP.Chemscore.Metal>
0.0000

> <Gold.Chemscore.Hbonds>
donor molecule, donor type, donor heavy atom, donor atom, acceptor molecule, acceptor atom, score
      P1  H  6896  6907       L1     6  1.27
      P1  H  6931  6943       L1     4  1.00
      P1  H  6934  6947       L1     4  0.59

> <Gold.PLP.Chemscore.Internal.Correction>
0.0297

> <Gold.Rescore>
     Score         DG    S(hbond)    S(metal)    S(lipo)     H(rot)  DE(clash)    DE(int)     intcor
     14.59     -15.38       1.63        0.00      66.20       1.28       0.00       0.79       ----

> <Gold.Chemscore.Fitness>
14.5916

> <Gold.Chemscore.DG>
-15.3843

> <Gold.Chemscore.ZeroCoef>
-5.4800

> <Gold.Chemscore.Hbond>
1.6257

> <Gold.Chemscore.Metal>
0.0000

> <Gold.Chemscore.Lipo>
66.1968

> <Gold.Chemscore.Internal_Hbond>
0.0000

> <Gold.Chemscore.DEClash>
0.0000

> <Gold.Chemscore.DEInternal>
0.7927

> <Gold.Chemscore.Rot>
1.2776

> <Gold.Chemscore.Internal.Correction>
   9.000000E+99

> <Gold.Chemscore.Hbonds>
donor molecule, donor type, donor heavy atom, donor atom, acceptor molecule, acceptor atom, score
      P1  H  6896  6907       L1     6  0.17
      P1  H  6931  6943       L1     4  0.83
      P1  H  6934  6947       L1     4  0.11

> <Gold.Chemscore.Hbond.Weighted>
-5.4299

> <Gold.Chemscore.Metal.Weighted>
-0.0000

> <Gold.Chemscore.Lipo.Weighted>
-7.7450

> <Gold.Chemscore.Internal_Hbond.Weighted>
0.0000

> <Gold.Chemscore.DEClash.Weighted>
0.0000

> <Gold.Chemscore.DEInternal.Weighted>
0.7927

> <Gold.Chemscore.Rot.Weighted>
3.2706

> <Gold.Chemscore.Internal.Correction.Weighted>
   9.000000E+99

> <Gold.Protein.RotatedTorsions>
[ 6907 6896 6895 6894 ] final  -43.90 input  -60.11 | X-H torsion
[ 7974 7965 7964 7962 ] final   23.35 input  175.53 | X-H torsion
[ 8008 7997 7996 7995 ] final  -31.24 input   59.86 | X-H torsion
[ 10167 10162 10161 10158 ] final   32.30 input  -65.29 | X-H torsion
[ 10718 10713 10712 10709 ] final   34.68 input   66.30 | X-H torsion
[ 10763 10752 10751 10750 ] final  -29.61 input  -60.55 | X-H torsion
[ 11005 11000 10999 10996 ] final  149.58 input  -57.11 | X-H torsion

> <Gold.Protein.ActiveResidues>
 VAL166  LYS551  ARG553  GLY616  TRP617  ASP618  TYR619  PRO620  LYS621  CYS622 
 ASP623  PHE694  ASN695  SER759  ASP760  ASP761  ALA762  ILE779  LEU786  VAL792 
 PHE793  MET794  SER795  GLU796  ALA797  LYS798  CYS799  TRP800  GLU811  SER814 

> <Gold.Protein.RotatedAtoms>
  150.9388  134.8799  159.7598 H   0  0  0  0  0  0  0  0  0  0  0  0  # atno 6907 bound_to 6896
  152.5071  134.3972  159.9414 H   0  0  0  0  0  0  0  0  0  0  0  0  # atno 6908 bound_to 6896
  151.3994  133.3722  159.2765 H   0  0  0  0  0  0  0  0  0  0  0  0  # atno 6909 bound_to 6896
  146.1988  139.7756  142.8777 H   0  0  0  0  0  0  0  0  0  0  0  0  # atno 7974 bound_to 7965
  154.4221  140.1769  156.1536 H   0  0  0  0  0  0  0  0  0  0  0  0  # atno 8008 bound_to 7997
  155.9895  140.3370  155.6715 H   0  0  0  0  0  0  0  0  0  0  0  0  # atno 8009 bound_to 7997
  155.6391  140.0678  157.2615 H   0  0  0  0  0  0  0  0  0  0  0  0  # atno 8010 bound_to 7997
  140.4511  144.1047  150.6192 H   0  0  0  0  0  0  0  0  0  0  0  0  # atno 10167 bound_to 10162
  157.3134  130.7411  149.6739 H   0  0  0  0  0  0  0  0  0  0  0  0  # atno 10718 bound_to 10713
  153.7674  135.6915  153.4913 H   0  0  0  0  0  0  0  0  0  0  0  0  # atno 10763 bound_to 10752
  153.1897  135.4475  155.0132 H   0  0  0  0  0  0  0  0  0  0  0  0  # atno 10764 bound_to 10752
  154.8130  135.3386  154.7186 H   0  0  0  0  0  0  0  0  0  0  0  0  # atno 10765 bound_to 10752
  140.1057  134.8955  157.1863 H   0  0  0  0  0  0  0  0  0  0  0  0  # atno 11005 bound_to 11000
  145.3554  141.0315  143.3315 LP  0  0  0  0  0  0  0  0  0  0  0  0  # atno 17320 bound_to 7965
  144.8638  139.5138  143.6800 LP  0  0  0  0  0  0  0  0  0  0  0  0  # atno 17321 bound_to 7965
  140.4206  143.2613  151.9720 LP  0  0  0  0  0  0  0  0  0  0  0  0  # atno 17342 bound_to 10162
  139.4797  144.5834  151.7895 LP  0  0  0  0  0  0  0  0  0  0  0  0  # atno 17343 bound_to 10162
  155.9679  130.4244  150.4609 LP  0  0  0  0  0  0  0  0  0  0  0  0  # atno 17370 bound_to 10713
  157.2611  131.0567  151.2319 LP  0  0  0  0  0  0  0  0  0  0  0  0  # atno 17371 bound_to 10713
  140.3159  134.2971  155.7256 LP  0  0  0  0  0  0  0  0  0  0  0  0  # atno 17394 bound_to 11000
  141.2117  133.7679  156.9842 LP  0  0  0  0  0  0  0  0  0  0  0  0  # atno 17395 bound_to 11000

$$$$
