AV-unprocessed.smi:2803|AV-procd|sdf|10807|dock5
  -GOLD-   2272015243D 1   1.00000     0.00000
 Structure written by MMmdl.
 42 43  0  0  0  0  0  0  0  0  1 V2000
  155.1192  137.4217  161.2773 C   0  0  0  0  0  0  0  0  0  0  0  0
  155.0065  137.9599  162.7171 C   0  0  1  0  0  0  0  0  0  0  0  0
  156.3209  137.8855  163.3822 C   0  0  0  0  0  0  0  0  0  0  0  0
  157.3517  137.8281  163.9051 N   0  0  0  0  0  0  0  0  0  0  0  0
  154.5323  139.3451  162.6843 N   0  0  0  0  0  0  0  0  0  0  0  0
  155.0916  140.4079  162.0793 C   0  0  0  0  0  0  0  0  0  0  0  0
  156.1261  140.3366  161.4185 O   0  0  0  0  0  0  0  0  0  0  0  0
  154.4003  141.7729  162.2437 C   0  0  0  0  0  0  0  0  0  0  0  0
  153.5904  142.1938  161.0946 N   0  0  0  0  0  0  0  0  0  0  0  0
  153.3942  141.4055  159.9867 C   0  0  0  0  0  0  0  0  0  0  0  0
  152.6965  142.0090  159.0889 N   0  0  0  0  0  0  0  0  0  0  0  0
  152.4357  143.2283  159.6474 N   0  0  0  0  0  0  0  0  0  0  0  0
  151.6558  144.2422  158.8922 C   0  0  0  0  0  0  0  0  0  0  0  0
  151.3485  143.7108  157.4755 C   0  0  0  0  0  0  0  0  0  0  0  0
  152.4310  145.5747  158.7413 C   0  0  0  0  0  0  0  0  0  0  0  0
  150.3371  144.5444  159.6366 C   0  0  0  0  0  0  0  0  0  0  0  0
  152.9740  143.3522  160.8761 C   0  0  0  0  0  0  0  0  0  0  0  0
  152.9383  144.3227  161.6318 O   0  0  0  0  0  0  0  0  0  0  0  0
  154.0675  137.0523  163.5076 C   0  0  0  0  0  0  0  0  0  0  0  0
  154.0662  137.0069  165.0198 C   0  0  0  0  0  0  0  0  0  0  0  0
  154.5602  135.8160  164.2284 C   0  0  0  0  0  0  0  0  0  0  0  0
  155.4400  136.3795  161.2718 H   0  0  0  0  0  0  0  0  0  0  0  0
  155.8448  137.9816  160.6870 H   0  0  0  0  0  0  0  0  0  0  0  0
  154.1607  137.4736  160.7597 H   0  0  0  0  0  0  0  0  0  0  0  0
  153.6803  139.5191  163.1970 H   0  0  0  0  0  0  0  0  0  0  0  0
  153.7849  141.7450  163.1447 H   0  0  0  0  0  0  0  0  0  0  0  0
  155.1690  142.5247  162.4277 H   0  0  0  0  0  0  0  0  0  0  0  0
  153.8207  140.4016  159.9532 H   0  0  0  0  0  0  0  0  0  0  0  0
  150.8216  144.4571  156.8799 H   0  0  0  0  0  0  0  0  0  0  0  0
  150.7198  142.8207  157.4951 H   0  0  0  0  0  0  0  0  0  0  0  0
  152.2653  143.4554  156.9430 H   0  0  0  0  0  0  0  0  0  0  0  0
  153.3697  145.4378  158.2029 H   0  0  0  0  0  0  0  0  0  0  0  0
  152.6611  146.0211  159.7098 H   0  0  0  0  0  0  0  0  0  0  0  0
  151.8482  146.3085  158.1836 H   0  0  0  0  0  0  0  0  0  0  0  0
  149.7647  145.3188  159.1247 H   0  0  0  0  0  0  0  0  0  0  0  0
  150.5288  144.8968  160.6507 H   0  0  0  0  0  0  0  0  0  0  0  0
  149.6914  143.6694  159.7077 H   0  0  0  0  0  0  0  0  0  0  0  0
  153.0884  136.9499  163.0422 H   0  0  0  0  0  0  0  0  0  0  0  0
  154.8066  137.5992  165.5534 H   0  0  0  0  0  0  0  0  0  0  0  0
  153.1029  136.9140  165.5168 H   0  0  0  0  0  0  0  0  0  0  0  0
  153.9240  134.9338  164.2003 H   0  0  0  0  0  0  0  0  0  0  0  0
  155.6296  135.6149  164.2428 H   0  0  0  0  0  0  0  0  0  0  0  0
  1  2  1  0  0  0  0
  1 22  1  0  0  0  0
  1 23  1  0  0  0  0
  1 24  1  0  0  0  0
  2  3  1  0  0  0  0
  2  5  1  0  0  0  0
  2 19  1  0  0  0  0
  3  4  3  0  0  0  0
  5  6  1  0  0  0  0
  5 25  1  0  0  0  0
  6  7  2  0  0  0  0
  6  8  1  0  0  0  0
  8  9  1  0  0  0  0
  8 26  1  0  0  0  0
  8 27  1  0  0  0  0
  9 17  1  0  0  0  0
  9 10  1  0  0  0  0
 10 11  2  0  0  0  0
 10 28  1  0  0  0  0
 11 12  1  0  0  0  0
 12 13  1  0  0  0  0
 12 17  1  0  0  0  0
 13 14  1  0  0  0  0
 13 15  1  0  0  0  0
 13 16  1  0  0  0  0
 14 29  1  0  0  0  0
 14 30  1  0  0  0  0
 14 31  1  0  0  0  0
 15 32  1  0  0  0  0
 15 33  1  0  0  0  0
 15 34  1  0  0  0  0
 16 35  1  0  0  0  0
 16 36  1  0  0  0  0
 16 37  1  0  0  0  0
 17 18  2  0  0  0  0
 19 21  1  0  0  0  0
 19 20  1  0  0  0  0
 19 38  1  0  0  0  0
 20 21  1  0  0  0  0
 20 39  1  0  0  0  0
 20 40  1  0  0  0  0
 21 41  1  0  0  0  0
 21 42  1  0  0  0  0
M  END
> <s_m_source_file>
AV-unprocessed.smi

> <i_m_source_file_index>
2803

> <i_lp_mmshare_version>
43012

> <i_f3d_flags>
0

> <s_epik_input>
W0NIMl0xW0NIMl1bQ0hdMVtDQF0oW0NIM10pKEMjTilbTkhdQyg9TylbQ0gyXW4yW2NIXW5uKGMyPU8pQyhbQ0gzXSkoW0NIM10pW0NIM10=

> <s_epik_cmdline>
J2VwaWtfcHl0aG9uJywgJy1waCcsICc3LjAnLCAnLXRuJywgJzgnLCAnLW1hJywgJzIwMCcsICctbWV0YWxfYmluZGluZycsICctaW1hZScsICc8aW5maWxlLm1hZT4nLCAnLW9tYWUnLCAnPG91dGZpbGUubWFlPic=

> <r_lp_tautomer_probability>
1

> <r_epik_Ionization_Penalty>
4.88615e-06

> <r_epik_Ionization_Penalty_Charging>
4.80261e-08

> <r_epik_Ionization_Penalty_Neutral>
4.83813e-06

> <r_epik_State_Penalty>
-0

> <r_epik_Charging_Adjusted_Penalty>
4.80261e-08

> <i_epik_Tot_Q>
0

> <i_epik_Tot_abs_Q>
0

> <r_epik_Metal_State_Penalty>
-0

> <b_epik_Metal_Only>
0

> <s_lp_Force_Field>
OPLS_2005

> <r_lp_Energy>
32.3619

> <b_lp_Chiralities_Consistent>
1

> <s_lp_Variant>
AV-unprocessed.smi:2803-1

> <Gold.Version>
5.8.1

> <Gold.Id.Protein>
6NUR|6NUR_protein|mol2

> <Gold.PLP.Fitness>
45.6086

> <Gold.PLP.PLP>
-46.3238

> <Gold.PLP.part.hbond>
-1.0000

> <Gold.PLP.part.metal>
0.0000

> <Gold.PLP.part.buried>
-3.6071

> <Gold.PLP.part.nonpolar>
-42.0781

> <Gold.PLP.part.repulsive>
0.1793

> <Gold.PLP.ligand.clash>
0.0000

> <Gold.PLP.ligand.torsion>
1.1314

> <Gold.PLP.Chemscore.Hbond>
0.0000

> <Gold.PLP.Chemscore.CHOScore>
0.0000

> <Gold.PLP.Chemscore.Metal>
0.0000

> <Gold.PLP.Chemscore.Internal.Correction>
1.5475

> <Gold.Rescore>
     Score         DG    S(hbond)    S(metal)    S(lipo)     H(rot)  DE(clash)    DE(int)     intcor
      7.37     -10.07       0.00        0.00      83.99       2.05       1.38       1.32       ----

> <Gold.Chemscore.Fitness>
7.3680

> <Gold.Chemscore.DG>
-10.0703

> <Gold.Chemscore.ZeroCoef>
-5.4800

> <Gold.Chemscore.Hbond>
0.0000

> <Gold.Chemscore.Metal>
0.0000

> <Gold.Chemscore.Lipo>
83.9936

> <Gold.Chemscore.Internal_Hbond>
0.0000

> <Gold.Chemscore.DEClash>
1.3803

> <Gold.Chemscore.DEInternal>
1.3221

> <Gold.Chemscore.Rot>
2.0457

> <Gold.Chemscore.Internal.Correction>
   9.000000E+99

> <Gold.Chemscore.Hbond.Weighted>
-0.0000

> <Gold.Chemscore.Metal.Weighted>
-0.0000

> <Gold.Chemscore.Lipo.Weighted>
-9.8273

> <Gold.Chemscore.Internal_Hbond.Weighted>
0.0000

> <Gold.Chemscore.DEClash.Weighted>
1.3803

> <Gold.Chemscore.DEInternal.Weighted>
1.3221

> <Gold.Chemscore.Rot.Weighted>
5.2370

> <Gold.Chemscore.Internal.Correction.Weighted>
   9.000000E+99

> <Gold.Protein.RotatedTorsions>
[ 6907 6896 6895 6894 ] final -158.32 input  -60.11 | X-H torsion
[ 7974 7965 7964 7962 ] final  113.04 input  175.53 | X-H torsion
[ 8008 7997 7996 7995 ] final  116.93 input   59.86 | X-H torsion
[ 10167 10162 10161 10158 ] final -116.40 input  -65.29 | X-H torsion
[ 10718 10713 10712 10709 ] final  -11.22 input   66.30 | X-H torsion
[ 10763 10752 10751 10750 ] final    5.74 input  -60.55 | X-H torsion
[ 11005 11000 10999 10996 ] final  -31.62 input  -57.11 | X-H torsion

> <Gold.Protein.ActiveResidues>
 VAL166  LYS551  ARG553  GLY616  TRP617  ASP618  TYR619  PRO620  LYS621  CYS622 
 ASP623  PHE694  ASN695  SER759  ASP760  ASP761  ALA762  ILE779  LEU786  VAL792 
 PHE793  MET794  SER795  GLU796  ALA797  LYS798  CYS799  TRP800  GLU811  SER814 

> <Gold.Protein.RotatedAtoms>
  151.3163  133.4059  159.2650 H   0  0  0  0  0  0  0  0  0  0  0  0  # atno 6907 bound_to 6896
  151.0072  134.9369  159.7997 H   0  0  0  0  0  0  0  0  0  0  0  0  # atno 6908 bound_to 6896
  152.5291  134.3128  159.9172 H   0  0  0  0  0  0  0  0  0  0  0  0  # atno 6909 bound_to 6896
  145.2220  139.2858  143.4213 H   0  0  0  0  0  0  0  0  0  0  0  0  # atno 7974 bound_to 7965
  156.2466  140.2907  156.0599 H   0  0  0  0  0  0  0  0  0  0  0  0  # atno 8008 bound_to 7997
  155.1787  140.0403  157.2895 H   0  0  0  0  0  0  0  0  0  0  0  0  # atno 8009 bound_to 7997
  154.6275  140.2491  155.7481 H   0  0  0  0  0  0  0  0  0  0  0  0  # atno 8010 bound_to 7997
  140.0796  143.4800  152.1933 H   0  0  0  0  0  0  0  0  0  0  0  0  # atno 10167 bound_to 10162
  156.6622  130.4985  149.6027 H   0  0  0  0  0  0  0  0  0  0  0  0  # atno 10718 bound_to 10713
  153.2559  135.6918  153.7630 H   0  0  0  0  0  0  0  0  0  0  0  0  # atno 10763 bound_to 10752
  153.6707  135.3345  155.3153 H   0  0  0  0  0  0  0  0  0  0  0  0  # atno 10764 bound_to 10752
  154.8412  135.4499  154.1532 H   0  0  0  0  0  0  0  0  0  0  0  0  # atno 10765 bound_to 10752
  140.9484  133.7236  156.1182 H   0  0  0  0  0  0  0  0  0  0  0  0  # atno 11005 bound_to 11000
  146.3374  140.2529  142.8599 LP  0  0  0  0  0  0  0  0  0  0  0  0  # atno 17320 bound_to 7965
  144.9756  140.8411  143.5428 LP  0  0  0  0  0  0  0  0  0  0  0  0  # atno 17321 bound_to 7965
  139.5787  144.7500  151.3696 LP  0  0  0  0  0  0  0  0  0  0  0  0  # atno 17342 bound_to 10162
  140.7084  143.7454  150.7523 LP  0  0  0  0  0  0  0  0  0  0  0  0  # atno 17343 bound_to 10162
  156.2002  130.6615  151.1159 LP  0  0  0  0  0  0  0  0  0  0  0  0  # atno 17370 bound_to 10713
  157.7106  131.0736  150.6515 LP  0  0  0  0  0  0  0  0  0  0  0  0  # atno 17371 bound_to 10713
  140.7637  134.3910  157.5521 LP  0  0  0  0  0  0  0  0  0  0  0  0  # atno 17394 bound_to 11000
  139.8840  134.8978  156.2731 LP  0  0  0  0  0  0  0  0  0  0  0  0  # atno 17395 bound_to 11000

$$$$
