AV-unprocessed.smi:2597|AV-procd|sdf|10170|dock9
  -GOLD-   2272014183D 1   1.00000     0.00000
 Structure written by MMmdl.
 31 32  0  0  0  0  0  0  0  0  2 V2000
  142.4574  133.3062  151.4160 N   0  3  0  0  0  0  0  0  0  0  0  0
  143.7600  132.6744  151.1323 C   0  0  1  0  0  0  0  0  0  0  0  0
  144.1072  132.7711  149.6326 C   0  0  0  0  0  0  0  0  0  0  0  0
  145.4604  132.1083  149.3298 C   0  0  0  0  0  0  0  0  0  0  0  0
  146.5875  132.6994  150.1909 C   0  0  0  0  0  0  0  0  0  0  0  0
  146.2538  132.6138  151.6922 C   0  0  0  0  0  0  0  0  0  0  0  0
  144.8799  133.2226  152.0585 C   0  0  1  0  0  0  0  0  0  0  0  0
  144.9155  134.6830  152.1535 N   0  0  0  0  0  0  0  0  0  0  0  0
  145.9921  135.5115  151.9060 C   0  0  0  0  0  0  0  0  0  0  0  0
  145.5055  136.7627  152.1574 C   0  0  0  0  0  0  0  0  0  0  0  0
  146.2013  138.0869  152.0758 C   0  0  0  0  0  0  0  0  0  0  0  0
  146.5495  138.2784  150.7216 O   0  0  0  0  0  0  0  0  0  0  0  0
  144.1699  136.6512  152.5362 N   0  0  0  0  0  0  0  0  0  0  0  0
  143.8276  135.4027  152.5260 N   0  0  0  0  0  0  0  0  0  0  0  0
  143.6365  131.6157  151.3645 H   0  0  0  0  0  0  0  0  0  0  0  0
  144.6500  132.8735  153.0666 H   0  0  0  0  0  0  0  0  0  0  0  0
  141.9936  133.5247  150.5455 H   0  0  0  0  0  0  0  0  0  0  0  0
  142.6014  134.1568  151.9412 H   0  0  0  0  0  0  0  0  0  0  0  0
  143.3301  132.2842  149.0422 H   0  0  0  0  0  0  0  0  0  0  0  0
  144.1238  133.8095  149.3028 H   0  0  0  0  0  0  0  0  0  0  0  0
  145.3888  131.0356  149.5133 H   0  0  0  0  0  0  0  0  0  0  0  0
  145.7023  132.2238  148.2728 H   0  0  0  0  0  0  0  0  0  0  0  0
  147.5166  132.1640  149.9935 H   0  0  0  0  0  0  0  0  0  0  0  0
  146.7736  133.7321  149.8988 H   0  0  0  0  0  0  0  0  0  0  0  0
  146.2553  131.5623  151.9829 H   0  0  0  0  0  0  0  0  0  0  0  0
  147.0441  133.0852  152.2779 H   0  0  0  0  0  0  0  0  0  0  0  0
  146.9648  135.1603  151.5941 H   0  0  0  0  0  0  0  0  0  0  0  0
  145.5500  138.8965  152.4054 H   0  0  0  0  0  0  0  0  0  0  0  0
  147.1007  138.1103  152.6920 H   0  0  0  0  0  0  0  0  0  0  0  0
  145.7580  138.4271  150.2271 H   0  0  0  0  0  0  0  0  0  0  0  0
  141.8832  132.6720  151.9529 H   0  0  0  0  0  0  0  0  0  0  0  0
  1  2  1  0  0  0  0
  1 17  1  0  0  0  0
  1 18  1  0  0  0  0
  1 31  1  0  0  0  0
  2 15  1  0  0  0  0
  2  7  1  0  0  0  0
  2  3  1  0  0  0  0
  3  4  1  0  0  0  0
  3 19  1  0  0  0  0
  3 20  1  0  0  0  0
  4  5  1  0  0  0  0
  4 21  1  0  0  0  0
  4 22  1  0  0  0  0
  5  6  1  0  0  0  0
  5 23  1  0  0  0  0
  5 24  1  0  0  0  0
  6  7  1  0  0  0  0
  6 25  1  0  0  0  0
  6 26  1  0  0  0  0
  7 16  1  0  0  0  0
  7  8  1  0  0  0  0
  8 14  1  0  0  0  0
  8  9  1  0  0  0  0
  9 10  2  0  0  0  0
  9 27  1  0  0  0  0
 10 11  1  0  0  0  0
 10 13  1  0  0  0  0
 11 12  1  0  0  0  0
 11 28  1  0  0  0  0
 11 29  1  0  0  0  0
 12 30  1  0  0  0  0
 13 14  2  0  0  0  0
M  CHG  1   1   1
M  END
> <s_m_source_file>
AV-unprocessed.smi

> <i_m_source_file_index>
2597

> <i_lp_mmshare_version>
43012

> <i_f3d_flags>
0

> <s_epik_input>
W05IMl1bQ0BIXTFbQ0gyXVtDSDJdW0NIMl1bQ0gyXVtDQEhdMW4yW2NIXWMobm4yKVtDSDJdW09IXQ==

> <s_epik_cmdline>
J2VwaWtfcHl0aG9uJywgJy1waCcsICc3LjAnLCAnLXRuJywgJzgnLCAnLW1hJywgJzIwMCcsICctbWV0YWxfYmluZGluZycsICctaW1hZScsICc8aW5maWxlLm1hZT4nLCAnLW9tYWUnLCAnPG91dGZpbGUubWFlPic=

> <r_lp_tautomer_probability>
1

> <r_epik_Ionization_Penalty>
0.014346

> <r_epik_Ionization_Penalty_Charging>
0.014316

> <r_epik_Ionization_Penalty_Neutral>
3.00097e-05

> <r_epik_State_Penalty>
0.0111909

> <r_epik_Charging_Adjusted_Penalty>
0.0255069

> <i_epik_Tot_Q>
1

> <i_epik_Tot_abs_Q>
1

> <r_epik_Metal_State_Penalty>
0.011192

> <b_epik_Metal_Only>
0

> <s_lp_Force_Field>
OPLS_2005

> <r_lp_Energy>
16.1833

> <b_lp_Chiralities_Consistent>
1

> <s_lp_Variant>
AV-unprocessed.smi:2597-1

> <Gold.Version>
5.8.1

> <Gold.Id.Protein>
6NUR|6NUR_protein|mol2

> <Gold.PLP.Fitness>
42.9015

> <Gold.PLP.PLP>
-28.1173

> <Gold.PLP.part.hbond>
-3.0400

> <Gold.PLP.part.metal>
0.0000

> <Gold.PLP.part.buried>
-1.7946

> <Gold.PLP.part.nonpolar>
-22.6049

> <Gold.PLP.part.repulsive>
0.2968

> <Gold.PLP.ligand.clash>
0.0000

> <Gold.PLP.ligand.torsion>
0.0510

> <Gold.PLP.Chemscore.Hbond>
3.9760

> <Gold.PLP.Chemscore.CHOScore>
0.9644

> <Gold.PLP.Chemscore.Metal>
0.0000

> <Gold.Chemscore.Hbonds>
donor molecule, donor type, donor heavy atom, donor atom, acceptor molecule, acceptor atom, score
      L1  H     1    17       P1 10186  2.00
      L1  H    12    30       P1 10171  1.00
      P1  H  7954  7966       L1    12  0.98
      L1  C     9    27       P1  7948  0.97

> <Gold.PLP.Chemscore.Internal.Correction>
0.0650

> <Gold.Rescore>
     Score         DG    S(hbond)    S(metal)    S(lipo)     H(rot)  DE(clash)    DE(int)     intcor
     16.82     -18.95       2.86        0.00      74.21       1.86       0.59       1.54       ----

> <Gold.Chemscore.Fitness>
16.8204

> <Gold.Chemscore.DG>
-18.9523

> <Gold.Chemscore.ZeroCoef>
-5.4800

> <Gold.Chemscore.Hbond>
2.8558

> <Gold.Chemscore.Metal>
0.0000

> <Gold.Chemscore.Lipo>
74.2136

> <Gold.Chemscore.Internal_Hbond>
0.0000

> <Gold.Chemscore.DEClash>
0.5875

> <Gold.Chemscore.DEInternal>
1.5444

> <Gold.Chemscore.Rot>
1.8551

> <Gold.Chemscore.Internal.Correction>
   9.000000E+99

> <Gold.Chemscore.Hbonds>
donor molecule, donor type, donor heavy atom, donor atom, acceptor molecule, acceptor atom, score
      L1  H     1    17       P1 10186  0.92
      L1  H    12    30       P1 10171  0.99
      P1  H  7954  7966       L1    12  0.92

> <Gold.Chemscore.Hbond.Weighted>
-9.5383

> <Gold.Chemscore.Metal.Weighted>
-0.0000

> <Gold.Chemscore.Lipo.Weighted>
-8.6830

> <Gold.Chemscore.Internal_Hbond.Weighted>
0.0000

> <Gold.Chemscore.DEClash.Weighted>
0.5875

> <Gold.Chemscore.DEInternal.Weighted>
1.5444

> <Gold.Chemscore.Rot.Weighted>
4.7489

> <Gold.Chemscore.Internal.Correction.Weighted>
   9.000000E+99

> <Gold.Protein.RotatedTorsions>
[ 6907 6896 6895 6894 ] final   32.82 input  -60.11 | X-H torsion
[ 7974 7965 7964 7962 ] final  -79.91 input  175.53 | X-H torsion
[ 8008 7997 7996 7995 ] final -173.01 input   59.86 | X-H torsion
[ 10167 10162 10161 10158 ] final  110.63 input  -65.29 | X-H torsion
[ 10718 10713 10712 10709 ] final  106.55 input   66.30 | X-H torsion
[ 10763 10752 10751 10750 ] final   14.44 input  -60.55 | X-H torsion
[ 11005 11000 10999 10996 ] final   85.43 input  -57.11 | X-H torsion

> <Gold.Protein.ActiveResidues>
 VAL166  LYS551  ARG553  GLY616  TRP617  ASP618  TYR619  PRO620  LYS621  CYS622 
 ASP623  PHE694  ASN695  SER759  ASP760  ASP761  ALA762  ILE779  LEU786  VAL792 
 PHE793  MET794  SER795  GLU796  ALA797  LYS798  CYS799  TRP800  GLU811  SER814 

> <Gold.Protein.RotatedAtoms>
  152.0799  134.9478  160.0573 H   0  0  0  0  0  0  0  0  0  0  0  0  # atno 6907 bound_to 6896
  152.0771  133.4130  159.4493 H   0  0  0  0  0  0  0  0  0  0  0  0  # atno 6908 bound_to 6896
  150.6836  134.2945  159.4724 H   0  0  0  0  0  0  0  0  0  0  0  0  # atno 6909 bound_to 6896
  145.5669  140.9472  143.1417 H   0  0  0  0  0  0  0  0  0  0  0  0  # atno 7974 bound_to 7965
  155.9520  140.1128  157.0969 H   0  0  0  0  0  0  0  0  0  0  0  0  # atno 8008 bound_to 7997
  154.4112  140.1198  156.5131 H   0  0  0  0  0  0  0  0  0  0  0  0  # atno 8009 bound_to 7997
  155.6830  140.3473  155.4865 H   0  0  0  0  0  0  0  0  0  0  0  0  # atno 8010 bound_to 7997
  139.6673  144.7127  151.1753 H   0  0  0  0  0  0  0  0  0  0  0  0  # atno 10167 bound_to 10162
  157.6664  131.0853  150.6023 H   0  0  0  0  0  0  0  0  0  0  0  0  # atno 10718 bound_to 10713
  153.1621  135.6798  153.8727 H   0  0  0  0  0  0  0  0  0  0  0  0  # atno 10763 bound_to 10752
  153.8119  135.3142  155.3403 H   0  0  0  0  0  0  0  0  0  0  0  0  # atno 10764 bound_to 10752
  154.7940  135.4818  154.0207 H   0  0  0  0  0  0  0  0  0  0  0  0  # atno 10765 bound_to 10752
  139.8971  134.8286  156.2582 H   0  0  0  0  0  0  0  0  0  0  0  0  # atno 11005 bound_to 11000
  144.7456  139.7329  143.7293 LP  0  0  0  0  0  0  0  0  0  0  0  0  # atno 17320 bound_to 7965
  146.1812  139.5005  142.9865 LP  0  0  0  0  0  0  0  0  0  0  0  0  # atno 17321 bound_to 7965
  140.7604  143.5899  150.8807 LP  0  0  0  0  0  0  0  0  0  0  0  0  # atno 17342 bound_to 10162
  139.9561  143.6216  152.3015 LP  0  0  0  0  0  0  0  0  0  0  0  0  # atno 17343 bound_to 10162
  156.6323  130.4435  149.5782 LP  0  0  0  0  0  0  0  0  0  0  0  0  # atno 17370 bound_to 10713
  156.2272  130.6773  151.1427 LP  0  0  0  0  0  0  0  0  0  0  0  0  # atno 17371 bound_to 10713
  141.0180  133.7057  156.1220 LP  0  0  0  0  0  0  0  0  0  0  0  0  # atno 17394 bound_to 11000
  140.7274  134.4292  157.5569 LP  0  0  0  0  0  0  0  0  0  0  0  0  # atno 17395 bound_to 11000

$$$$
