AV-unprocessed.smi:703|AV-procd|sdf|3431|dock9
  -GOLD-   22720 0413D 1   1.00000     0.00000
 Structure written by MMmdl.
 38 39  0  0  0  0  0  0  0  0  2 V2000
  145.2061  132.0247  150.1435 C   0  0  0  0  0  0  0  0  0  0  0  0
  145.5984  131.7903  151.6086 C   0  0  0  0  0  0  0  0  0  0  0  0
  146.5296  130.6480  151.7641 N   0  3  2  0  0  0  0  0  0  0  0  0
  145.9868  129.3359  151.3540 C   0  0  0  0  0  0  0  0  0  0  0  0
  146.7931  128.2896  152.1277 C   0  0  1  0  0  0  0  0  0  0  0  0
  148.0783  127.8926  151.3827 C   0  0  0  0  0  0  0  0  0  0  0  0
  147.0863  128.9937  153.4594 C   0  0  2  0  0  0  0  0  0  0  0  0
  146.0373  128.6742  154.4331 N   0  0  0  0  0  0  0  0  0  0  0  0
  145.8513  127.0295  154.9212 S   0  0  0  0  0  0  0  0  0  0  0  0
  144.4512  126.6546  154.6725 O   0  0  0  0  0  0  0  0  0  0  0  0
  146.9394  126.2529  154.3074 O   0  0  0  0  0  0  0  0  0  0  0  0
  146.1416  127.1130  156.7382 C   0  0  0  0  0  0  0  0  0  0  0  0
  145.0421  127.9066  157.3842 C   0  0  0  0  0  0  0  0  0  0  0  0
  143.6626  127.5790  157.4939 C   0  0  0  0  0  0  0  0  0  0  0  0
  143.1353  128.6424  158.1681 C   0  0  0  0  0  0  0  0  0  0  0  0
  144.1012  129.5531  158.4488 O   0  0  0  0  0  0  0  0  0  0  0  0
  145.3152  129.0749  157.9429 N   0  0  0  0  0  0  0  0  0  0  0  0
  147.0852  130.4979  153.1285 C   0  0  0  0  0  0  0  0  0  0  0  0
  144.5687  132.9043  150.0521 H   0  0  0  0  0  0  0  0  0  0  0  0
  144.6547  131.1785  149.7333 H   0  0  0  0  0  0  0  0  0  0  0  0
  146.0858  132.1879  149.5203 H   0  0  0  0  0  0  0  0  0  0  0  0
  146.0850  132.6902  151.9873 H   0  0  0  0  0  0  0  0  0  0  0  0
  144.7091  131.6331  152.2207 H   0  0  0  0  0  0  0  0  0  0  0  0
  144.9381  129.2694  151.6488 H   0  0  0  0  0  0  0  0  0  0  0  0
  146.0357  129.1964  150.2735 H   0  0  0  0  0  0  0  0  0  0  0  0
  146.2006  127.3848  152.2741 H   0  0  0  0  0  0  0  0  0  0  0  0
  148.7198  128.7550  151.1987 H   0  0  0  0  0  0  0  0  0  0  0  0
  147.8475  127.4375  150.4191 H   0  0  0  0  0  0  0  0  0  0  0  0
  148.6545  127.1673  151.9579 H   0  0  0  0  0  0  0  0  0  0  0  0
  148.0460  128.6758  153.8701 H   0  0  0  0  0  0  0  0  0  0  0  0
  145.1416  129.0685  154.1458 H   0  0  0  0  0  0  0  0  0  0  0  0
  146.1805  126.0953  157.1275 H   0  0  0  0  0  0  0  0  0  0  0  0
  147.1124  127.5755  156.9139 H   0  0  0  0  0  0  0  0  0  0  0  0
  143.1436  126.7009  157.1389 H   0  0  0  0  0  0  0  0  0  0  0  0
  142.1391  128.8866  158.5064 H   0  0  0  0  0  0  0  0  0  0  0  0
  148.1001  130.8963  153.1345 H   0  0  0  0  0  0  0  0  0  0  0  0
  146.5118  131.0712  153.8591 H   0  0  0  0  0  0  0  0  0  0  0  0
  147.3236  130.8256  151.1656 H   0  0  0  0  0  0  0  0  0  0  0  0
  1  2  1  0  0  0  0
  1 19  1  0  0  0  0
  1 20  1  0  0  0  0
  1 21  1  0  0  0  0
  2  3  1  0  0  0  0
  2 22  1  0  0  0  0
  2 23  1  0  0  0  0
  3 18  1  0  0  0  0
  3  4  1  0  0  0  0
  3 38  1  0  0  0  0
  4  5  1  0  0  0  0
  4 24  1  0  0  0  0
  4 25  1  0  0  0  0
  5  6  1  0  0  0  0
  5  7  1  0  0  0  0
  5 26  1  0  0  0  0
  6 27  1  0  0  0  0
  6 28  1  0  0  0  0
  6 29  1  0  0  0  0
  7  8  1  0  0  0  0
  7 18  1  0  0  0  0
  7 30  1  0  0  0  0
  8  9  1  0  0  0  0
  8 31  1  0  0  0  0
  9 10  2  0  0  0  0
  9 11  2  0  0  0  0
  9 12  1  0  0  0  0
 12 13  1  0  0  0  0
 12 32  1  0  0  0  0
 12 33  1  0  0  0  0
 13 17  2  0  0  0  0
 13 14  1  0  0  0  0
 14 15  2  0  0  0  0
 14 34  1  0  0  0  0
 15 16  1  0  0  0  0
 15 35  1  0  0  0  0
 16 17  1  0  0  0  0
 18 36  1  0  0  0  0
 18 37  1  0  0  0  0
M  CHG  1   3   1
M  END
> <s_m_source_file>
AV-unprocessed.smi

> <i_m_source_file_index>
703

> <i_lp_mmshare_version>
43012

> <i_f3d_flags>
0

> <s_epik_input>
W0NIM11bQ0gyXU4xW0NIMl1bQ0BASF0oW0NIM10pW0NASF0oW0NIMl0xKVtOSF1TKD1PKSg9TylbQ0gyXWMyW2NIXVtjSF1vbjI=

> <s_epik_cmdline>
J2VwaWtfcHl0aG9uJywgJy1waCcsICc3LjAnLCAnLXRuJywgJzgnLCAnLW1hJywgJzIwMCcsICctbWV0YWxfYmluZGluZycsICctaW1hZScsICc8aW5maWxlLm1hZT4nLCAnLW9tYWUnLCAnPG91dGZpbGUubWFlPic=

> <r_epik_Ionization_Penalty>
0.00324529

> <r_epik_Ionization_Penalty_Charging>
0.0019384

> <r_epik_Ionization_Penalty_Neutral>
0.00130689

> <r_epik_State_Penalty>
0.00218682

> <r_epik_Charging_Adjusted_Penalty>
0.00412522

> <i_epik_Tot_Q>
1

> <i_epik_Tot_abs_Q>
1

> <r_epik_Metal_State_Penalty>
0.310831

> <b_epik_Metal_Only>
0

> <s_lp_Force_Field>
OPLS_2005

> <r_lp_Energy>
19.6136

> <b_lp_Chiralities_Consistent>
1

> <s_lp_Variant>
AV-unprocessed.smi:703-6

> <Gold.Version>
5.8.1

> <Gold.Id.Protein>
6NUR|6NUR_protein|mol2

> <Gold.PLP.Fitness>
33.4285

> <Gold.PLP.PLP>
-27.8607

> <Gold.PLP.part.hbond>
-3.8377

> <Gold.PLP.part.metal>
0.0000

> <Gold.PLP.part.buried>
-5.5246

> <Gold.PLP.part.nonpolar>
-19.5361

> <Gold.PLP.part.repulsive>
0.4402

> <Gold.PLP.ligand.clash>
0.0000

> <Gold.PLP.ligand.torsion>
0.1739

> <Gold.PLP.Chemscore.Hbond>
1.9199

> <Gold.PLP.Chemscore.CHOScore>
0.0000

> <Gold.PLP.Chemscore.Metal>
0.0000

> <Gold.Chemscore.Hbonds>
donor molecule, donor type, donor heavy atom, donor atom, acceptor molecule, acceptor atom, score
      L1  H     3    38       P1 10747  1.00
      L1  H     8    31       P1 10956  0.90

> <Gold.PLP.Chemscore.Internal.Correction>
0.1560

> <Gold.Rescore>
     Score         DG    S(hbond)    S(metal)    S(lipo)     H(rot)  DE(clash)    DE(int)     intcor
     14.34     -14.61       1.88        0.00      66.99       1.94       0.01       0.27       ----

> <Gold.Chemscore.Fitness>
14.3382

> <Gold.Chemscore.DG>
-14.6146

> <Gold.Chemscore.ZeroCoef>
-5.4800

> <Gold.Chemscore.Hbond>
1.8753

> <Gold.Chemscore.Metal>
0.0000

> <Gold.Chemscore.Lipo>
66.9892

> <Gold.Chemscore.Internal_Hbond>
0.0000

> <Gold.Chemscore.DEClash>
0.0052

> <Gold.Chemscore.DEInternal>
0.2712

> <Gold.Chemscore.Rot>
1.9400

> <Gold.Chemscore.Internal.Correction>
   9.000000E+99

> <Gold.Chemscore.Hbonds>
donor molecule, donor type, donor heavy atom, donor atom, acceptor molecule, acceptor atom, score
      L1  H     3    38       P1 10747  1.00
      L1  H     8    31       P1 10956  0.82

> <Gold.Chemscore.Hbond.Weighted>
-6.2633

> <Gold.Chemscore.Metal.Weighted>
-0.0000

> <Gold.Chemscore.Lipo.Weighted>
-7.8377

> <Gold.Chemscore.Internal_Hbond.Weighted>
0.0000

> <Gold.Chemscore.DEClash.Weighted>
0.0052

> <Gold.Chemscore.DEInternal.Weighted>
0.2712

> <Gold.Chemscore.Rot.Weighted>
4.9665

> <Gold.Chemscore.Internal.Correction.Weighted>
   9.000000E+99

> <Gold.Protein.RotatedTorsions>
[ 6907 6896 6895 6894 ] final   32.80 input  -60.11 | X-H torsion
[ 7974 7965 7964 7962 ] final  109.73 input  175.53 | X-H torsion
[ 8008 7997 7996 7995 ] final  169.78 input   59.86 | X-H torsion
[ 10167 10162 10161 10158 ] final  -35.70 input  -65.29 | X-H torsion
[ 10718 10713 10712 10709 ] final  130.69 input   66.30 | X-H torsion
[ 10763 10752 10751 10750 ] final  -71.41 input  -60.55 | X-H torsion
[ 11005 11000 10999 10996 ] final -152.62 input  -57.11 | X-H torsion

> <Gold.Protein.ActiveResidues>
 VAL166  LYS551  ARG553  GLY616  TRP617  ASP618  TYR619  PRO620  LYS621  CYS622 
 ASP623  PHE694  ASN695  SER759  ASP760  ASP761  ALA762  ILE779  LEU786  VAL792 
 PHE793  MET794  SER795  GLU796  ALA797  LYS798  CYS799  TRP800  GLU811  SER814 

> <Gold.Protein.RotatedAtoms>
  152.0795  134.9480  160.0573 H   0  0  0  0  0  0  0  0  0  0  0  0  # atno 6907 bound_to 6896
  152.0774  133.4131  159.4494 H   0  0  0  0  0  0  0  0  0  0  0  0  # atno 6908 bound_to 6896
  150.6836  134.2941  159.4722 H   0  0  0  0  0  0  0  0  0  0  0  0  # atno 6909 bound_to 6896
  145.2641  139.2691  143.4001 H   0  0  0  0  0  0  0  0  0  0  0  0  # atno 7974 bound_to 7965
  156.1426  140.1555  156.8897 H   0  0  0  0  0  0  0  0  0  0  0  0  # atno 8008 bound_to 7997
  154.5000  140.0828  156.7817 H   0  0  0  0  0  0  0  0  0  0  0  0  # atno 8009 bound_to 7997
  155.4050  140.3416  155.4262 H   0  0  0  0  0  0  0  0  0  0  0  0  # atno 8010 bound_to 7997
  140.7159  143.3459  151.2257 H   0  0  0  0  0  0  0  0  0  0  0  0  # atno 10167 bound_to 10162
  157.5038  131.1095  150.9389 H   0  0  0  0  0  0  0  0  0  0  0  0  # atno 10718 bound_to 10713
  154.4314  135.5963  153.6071 H   0  0  0  0  0  0  0  0  0  0  0  0  # atno 10763 bound_to 10752
  152.9799  135.5976  154.3834 H   0  0  0  0  0  0  0  0  0  0  0  0  # atno 10764 bound_to 10752
  154.3673  135.2841  155.2265 H   0  0  0  0  0  0  0  0  0  0  0  0  # atno 10765 bound_to 10752
  140.7169  134.3771  157.5189 H   0  0  0  0  0  0  0  0  0  0  0  0  # atno 11005 bound_to 11000
  146.3266  140.3066  142.8624 LP  0  0  0  0  0  0  0  0  0  0  0  0  # atno 17320 bound_to 7965
  144.9392  140.8060  143.5641 LP  0  0  0  0  0  0  0  0  0  0  0  0  # atno 17321 bound_to 7965
  139.6978  143.9583  152.2891 LP  0  0  0  0  0  0  0  0  0  0  0  0  # atno 17342 bound_to 10162
  139.9266  144.6767  150.8406 LP  0  0  0  0  0  0  0  0  0  0  0  0  # atno 17343 bound_to 10162
  157.0051  130.5615  149.5315 LP  0  0  0  0  0  0  0  0  0  0  0  0  # atno 17370 bound_to 10713
  156.0246  130.5340  150.8370 LP  0  0  0  0  0  0  0  0  0  0  0  0  # atno 17371 bound_to 10713
  139.8858  134.8928  156.2624 LP  0  0  0  0  0  0  0  0  0  0  0  0  # atno 17394 bound_to 11000
  141.0037  133.7136  156.1000 LP  0  0  0  0  0  0  0  0  0  0  0  0  # atno 17395 bound_to 11000

$$$$
