AV-unprocessed.smi:2005|AV-procd|sdf|8127|dock1
  -GOLD-   2272010363D 1   1.00000     0.00000
 Structure written by MMmdl.
 38 39  0  0  0  0  0  0  0  0  2 V2000
  152.6971  131.8419  157.5708 C   0  0  0  0  0  0  0  0  0  0  0  0
  152.0217  130.7807  156.6900 C   0  0  0  0  0  0  0  0  0  0  0  0
  153.0204  129.9593  155.8614 C   0  0  0  0  0  0  0  0  0  0  0  0
  150.9300  131.3617  155.8469 C   0  0  0  0  0  0  0  0  0  0  0  0
  150.1552  130.6246  155.0449 N   0  0  0  0  0  0  0  0  0  0  0  0
  149.2239  131.3940  154.3633 N   0  0  0  0  0  0  0  0  0  0  0  0
  149.3119  132.7007  154.6480 C   0  0  0  0  0  0  0  0  0  0  0  0
  148.5024  133.6159  154.0898 N   0  5  0  0  0  0  0  0  0  0  0  0
  147.4690  133.2181  153.3128 C   0  0  0  0  0  0  0  0  0  0  0  0
  146.6934  132.2889  153.5493 O   0  0  0  0  0  0  0  0  0  0  0  0
  147.3251  133.9427  152.1934 N   0  0  0  0  0  0  0  0  0  0  0  0
  146.3013  133.7519  151.1692 C   0  0  2  0  0  0  0  0  0  0  0  0
  144.9064  133.9560  151.7909 C   0  0  0  0  0  0  0  0  0  0  0  0
  143.7899  133.7027  150.7649 C   0  0  0  0  0  0  0  0  0  0  0  0
  143.9136  132.2989  150.1484 C   0  0  1  0  0  0  0  0  0  0  0  0
  142.9152  132.1250  149.1650 O   0  0  0  0  0  0  0  0  0  0  0  0
  145.3000  132.0954  149.5143 C   0  0  0  0  0  0  0  0  0  0  0  0
  146.4194  132.3489  150.5369 C   0  0  0  0  0  0  0  0  0  0  0  0
  150.5651  133.0797  155.8286 S   0  0  0  0  0  0  0  0  0  0  0  0
  151.9677  132.3438  158.2076 H   0  0  0  0  0  0  0  0  0  0  0  0
  153.1916  132.6032  156.9665 H   0  0  0  0  0  0  0  0  0  0  0  0
  153.4491  131.3929  158.2201 H   0  0  0  0  0  0  0  0  0  0  0  0
  151.5412  130.0784  157.3722 H   0  0  0  0  0  0  0  0  0  0  0  0
  152.5145  129.1631  155.3145 H   0  0  0  0  0  0  0  0  0  0  0  0
  153.7722  129.4952  156.5000 H   0  0  0  0  0  0  0  0  0  0  0  0
  153.5418  130.5838  155.1352 H   0  0  0  0  0  0  0  0  0  0  0  0
  147.9841  134.6924  152.0430 H   0  0  0  0  0  0  0  0  0  0  0  0
  146.4349  134.5040  150.3892 H   0  0  0  0  0  0  0  0  0  0  0  0
  144.7768  133.2811  152.6382 H   0  0  0  0  0  0  0  0  0  0  0  0
  144.8184  134.9685  152.1863 H   0  0  0  0  0  0  0  0  0  0  0  0
  142.8165  133.8188  151.2427 H   0  0  0  0  0  0  0  0  0  0  0  0
  143.8426  134.4591  149.9801 H   0  0  0  0  0  0  0  0  0  0  0  0
  143.7562  131.5482  150.9238 H   0  0  0  0  0  0  0  0  0  0  0  0
  142.3441  132.8779  149.1822 H   0  0  0  0  0  0  0  0  0  0  0  0
  145.3871  131.0835  149.1171 H   0  0  0  0  0  0  0  0  0  0  0  0
  145.4249  132.7731  148.6684 H   0  0  0  0  0  0  0  0  0  0  0  0
  147.3886  132.2347  150.0504 H   0  0  0  0  0  0  0  0  0  0  0  0
  146.3753  131.5878  151.3173 H   0  0  0  0  0  0  0  0  0  0  0  0
  1  2  1  0  0  0  0
  1 20  1  0  0  0  0
  1 21  1  0  0  0  0
  1 22  1  0  0  0  0
  2  3  1  0  0  0  0
  2  4  1  0  0  0  0
  2 23  1  0  0  0  0
  3 24  1  0  0  0  0
  3 25  1  0  0  0  0
  3 26  1  0  0  0  0
  4 19  1  0  0  0  0
  4  5  2  0  0  0  0
  5  6  1  0  0  0  0
  6  7  2  0  0  0  0
  7  8  1  0  0  0  0
  7 19  1  0  0  0  0
  8  9  1  0  0  0  0
  9 10  2  0  0  0  0
  9 11  1  0  0  0  0
 11 12  1  0  0  0  0
 11 27  1  0  0  0  0
 12 18  1  0  0  0  0
 12 13  1  0  0  0  0
 12 28  1  0  0  0  0
 13 14  1  0  0  0  0
 13 29  1  0  0  0  0
 13 30  1  0  0  0  0
 14 15  1  0  0  0  0
 14 31  1  0  0  0  0
 14 32  1  0  0  0  0
 15 16  1  0  0  0  0
 15 17  1  0  0  0  0
 15 33  1  0  0  0  0
 16 34  1  0  0  0  0
 17 18  1  0  0  0  0
 17 35  1  0  0  0  0
 17 36  1  0  0  0  0
 18 37  1  0  0  0  0
 18 38  1  0  0  0  0
M  CHG  1   8  -1
M  END
> <s_m_source_file>
AV-unprocessed.smi

> <i_m_source_file_index>
2005

> <i_lp_mmshare_version>
43012

> <i_f3d_flags>
0

> <s_epik_input>
W0NIM11bQ0hdKFtDSDNdKWMxbm5jKHMxKVtOSF1DKD1PKVtOSF1bQ0BASF0yW0NIMl1bQ0gyXVtDQEBIXShbT0hdKVtDSDJdW0NIMl0y

> <s_epik_cmdline>
J2VwaWtfcHl0aG9uJywgJy1waCcsICc3LjAnLCAnLXRuJywgJzgnLCAnLW1hJywgJzIwMCcsICctbWV0YWxfYmluZGluZycsICctaW1hZScsICc8aW5maWxlLm1hZT4nLCAnLW9tYWUnLCAnPG91dGZpbGUubWFlPic=

> <r_lp_tautomer_probability>
1

> <r_epik_Ionization_Penalty>
4.58298

> <r_epik_Ionization_Penalty_Charging>
4.41114

> <r_epik_Ionization_Penalty_Neutral>
0.171842

> <r_epik_State_Penalty>
4.41079

> <r_epik_Charging_Adjusted_Penalty>
8.82193

> <i_epik_Tot_Q>
-1

> <i_epik_Tot_abs_Q>
1

> <r_epik_Metal_State_Penalty>
0.7766

> <b_epik_Metal_Only>
1

> <s_lp_Force_Field>
OPLS_2005

> <r_lp_Energy>
-0.643196

> <b_lp_Chiralities_Consistent>
1

> <s_lp_Variant>
AV-unprocessed.smi:2005-3

> <Gold.Version>
5.8.1

> <Gold.Id.Protein>
6NUR|6NUR_protein|mol2

> <Gold.PLP.Fitness>
42.5520

> <Gold.PLP.PLP>
-34.6165

> <Gold.PLP.part.hbond>
-4.0000

> <Gold.PLP.part.metal>
0.0000

> <Gold.PLP.part.buried>
-3.7399

> <Gold.PLP.part.nonpolar>
-27.2081

> <Gold.PLP.part.repulsive>
0.3889

> <Gold.PLP.ligand.clash>
0.0000

> <Gold.PLP.ligand.torsion>
0.4038

> <Gold.PLP.Chemscore.Hbond>
2.8763

> <Gold.PLP.Chemscore.CHOScore>
0.0000

> <Gold.PLP.Chemscore.Metal>
0.0000

> <Gold.Chemscore.Hbonds>
donor molecule, donor type, donor heavy atom, donor atom, acceptor molecule, acceptor atom, score
      L1  H    11    27       P1  7948  1.00
      L1  H    16    34       P1 10186  0.91
      P1  H 10785 10796       L1    16  0.96

> <Gold.PLP.Chemscore.Internal.Correction>
0.1143

> <Gold.Rescore>
     Score         DG    S(hbond)    S(metal)    S(lipo)     H(rot)  DE(clash)    DE(int)     intcor
     13.56     -16.68       2.08        0.00      73.48       1.70       0.09       3.03       ----

> <Gold.Chemscore.Fitness>
13.5601

> <Gold.Chemscore.DG>
-16.6842

> <Gold.Chemscore.ZeroCoef>
-5.4800

> <Gold.Chemscore.Hbond>
2.0811

> <Gold.Chemscore.Metal>
0.0000

> <Gold.Chemscore.Lipo>
73.4812

> <Gold.Chemscore.Internal_Hbond>
0.0000

> <Gold.Chemscore.DEClash>
0.0921

> <Gold.Chemscore.DEInternal>
3.0320

> <Gold.Chemscore.Rot>
1.6968

> <Gold.Chemscore.Internal.Correction>
   9.000000E+99

> <Gold.Chemscore.Hbonds>
donor molecule, donor type, donor heavy atom, donor atom, acceptor molecule, acceptor atom, score
      L1  H    11    27       P1  7948  0.30
      L1  H    16    34       P1 10186  0.89
      P1  H 10785 10796       L1    16  0.23

> <Gold.Chemscore.Hbond.Weighted>
-6.9508

> <Gold.Chemscore.Metal.Weighted>
-0.0000

> <Gold.Chemscore.Lipo.Weighted>
-8.5973

> <Gold.Chemscore.Internal_Hbond.Weighted>
0.0000

> <Gold.Chemscore.DEClash.Weighted>
0.0921

> <Gold.Chemscore.DEInternal.Weighted>
3.0320

> <Gold.Chemscore.Rot.Weighted>
4.3439

> <Gold.Chemscore.Internal.Correction.Weighted>
   9.000000E+99

> <Gold.Protein.RotatedTorsions>
[ 6907 6896 6895 6894 ] final -130.88 input  -60.11 | X-H torsion
[ 7974 7965 7964 7962 ] final  -16.50 input  175.53 | X-H torsion
[ 8008 7997 7996 7995 ] final  129.58 input   59.86 | X-H torsion
[ 10167 10162 10161 10158 ] final -121.27 input  -65.29 | X-H torsion
[ 10718 10713 10712 10709 ] final   -1.45 input   66.30 | X-H torsion
[ 10763 10752 10751 10750 ] final  116.88 input  -60.55 | X-H torsion
[ 11005 11000 10999 10996 ] final -148.93 input  -57.11 | X-H torsion

> <Gold.Protein.ActiveResidues>
 VAL166  LYS551  ARG553  GLY616  TRP617  ASP618  TYR619  PRO620  LYS621  CYS622 
 ASP623  PHE694  ASN695  SER759  ASP760  ASP761  ALA762  ILE779  LEU786  VAL792 
 PHE793  MET794  SER795  GLU796  ALA797  LYS798  CYS799  TRP800  GLU811  SER814 

> <Gold.Protein.RotatedAtoms>
  150.9446  133.6617  159.2783 H   0  0  0  0  0  0  0  0  0  0  0  0  # atno 6907 bound_to 6896
  151.3994  135.0967  159.9561 H   0  0  0  0  0  0  0  0  0  0  0  0  # atno 6908 bound_to 6896
  152.5084  133.8944  159.7464 H   0  0  0  0  0  0  0  0  0  0  0  0  # atno 6909 bound_to 6896
  146.1984  140.3646  142.8432 H   0  0  0  0  0  0  0  0  0  0  0  0  # atno 7974 bound_to 7965
  156.2939  140.2617  156.2622 H   0  0  0  0  0  0  0  0  0  0  0  0  # atno 8008 bound_to 7997
  154.9777  140.0390  157.2282 H   0  0  0  0  0  0  0  0  0  0  0  0  # atno 8009 bound_to 7997
  154.7800  140.2793  155.6075 H   0  0  0  0  0  0  0  0  0  0  0  0  # atno 8010 bound_to 7997
  140.0269  143.5288  152.2195 H   0  0  0  0  0  0  0  0  0  0  0  0  # atno 10167 bound_to 10162
  156.8054  130.5407  149.5716 H   0  0  0  0  0  0  0  0  0  0  0  0  # atno 10718 bound_to 10713
  153.5439  135.3553  155.2730 H   0  0  0  0  0  0  0  0  0  0  0  0  # atno 10763 bound_to 10752
  154.8714  135.4098  154.3012 H   0  0  0  0  0  0  0  0  0  0  0  0  # atno 10764 bound_to 10752
  153.3725  135.7065  153.6695 H   0  0  0  0  0  0  0  0  0  0  0  0  # atno 10765 bound_to 10752
  140.7561  134.3351  157.5114 H   0  0  0  0  0  0  0  0  0  0  0  0  # atno 11005 bound_to 11000
  144.8630  140.7167  143.6095 LP  0  0  0  0  0  0  0  0  0  0  0  0  # atno 17320 bound_to 7965
  145.3565  139.1692  143.4406 LP  0  0  0  0  0  0  0  0  0  0  0  0  # atno 17321 bound_to 7965
  139.6102  144.7607  151.2969 LP  0  0  0  0  0  0  0  0  0  0  0  0  # atno 17342 bound_to 10162
  140.7319  143.6839  150.7978 LP  0  0  0  0  0  0  0  0  0  0  0  0  # atno 17343 bound_to 10162
  156.1076  130.6016  150.9996 LP  0  0  0  0  0  0  0  0  0  0  0  0  # atno 17370 bound_to 10713
  157.6533  131.0893  150.8003 LP  0  0  0  0  0  0  0  0  0  0  0  0  # atno 17371 bound_to 10713
  139.8779  134.9173  156.3174 LP  0  0  0  0  0  0  0  0  0  0  0  0  # atno 17394 bound_to 11000
  140.9706  133.7330  156.0529 LP  0  0  0  0  0  0  0  0  0  0  0  0  # atno 17395 bound_to 11000

$$$$
