#       Name:                AV-unprocessed.smi:1870
#       Creating user name   scv26
#       Creation time:       Fri Mar 27 09:31:20 2020


#       File generated by GOLD software.
#

@<TRIPOS>MOLECULE
AV-unprocessed.smi:1870
    54    56     1
SMALL
NO_CHARGES


@<TRIPOS>ATOM
      1 ****        -4.1647   0.3157   2.5000 C.3            1 S1                 0.0000
      2 ****        -3.4917  -0.9537   2.0524 C.2            1 S1                 0.0000
      3 ****        -2.1993  -0.9517   2.0366 N.2            1 S1                 0.0000
      4 ****        -1.4824  -2.0640   1.6391 N.am           1 S1                 0.0000
      5 ****        -0.0263  -1.8792   1.6739 C.3            1 S1                 0.0000
      6 ****         0.5009  -1.1962   0.3936 C.3            1 S1                 0.0000
      7 ****         0.6940  -2.1861  -0.5968 O.3            1 S1                 0.0000
      8 ****         1.8720  -0.5316   0.6376 C.3            1 S1                 0.0000
      9 ****         2.3978   0.2634  -0.4746 N.3            1 S1                 0.0000
     10 ****         3.7893   0.6348  -0.2371 C.3            1 S1                 0.0000
     11 ****         4.4382   1.2445  -1.4891 C.3            1 S1                 0.0000
     12 ****         3.5592   2.3038  -2.1320 C.ar           1 S1                 0.0000
     13 ****         4.0961   3.1779  -3.0992 C.ar           1 S1                 0.0000
     14 ****         3.2736   4.1420  -3.7132 C.ar           1 S1                 0.0000
     15 ****         1.9128   4.2337  -3.3627 C.ar           1 S1                 0.0000
     16 ****         1.3725   3.3613  -2.3980 C.ar           1 S1                 0.0000
     17 ****         2.1902   2.3910  -1.7831 C.ar           1 S1                 0.0000
     18 ****         1.6060   1.4758  -0.7141 C.3            1 S1                 0.0000
     19 ****        -2.0379  -3.2398   1.2289 C.2            1 S1                 0.0000
     20 ****        -1.3623  -4.2068   0.8741 O.2            1 S1                 0.0000
     21 ****        -3.5025  -3.2365   1.2537 C.2            1 S1                 0.0000
     22 ****        -4.1253  -4.4507   0.8356 C.1            1 S1                 0.0000
     23 ****        -4.6496  -5.4273   0.5017 N.1            1 S1                 0.0000
     24 ****        -4.2176  -2.1528   1.6469 C.2            1 S1                 0.0000
     25 ****        -5.7388  -2.0984   1.6893 C.3            1 S1                 0.0000
     26 ****        -4.7547   0.1438   3.4003 H              1 S1                 0.0000
     27 ****        -4.8315   0.6943   1.7252 H              1 S1                 0.0000
     28 ****        -3.4425   1.1020   2.7251 H              1 S1                 0.0000
     29 ****         0.2009  -1.2480   2.5349 H              1 S1                 0.0000
     30 ****         0.5062  -2.8121   1.8699 H              1 S1                 0.0000
     31 ****        -0.2270  -0.4652   0.0436 H              1 S1                 0.0000
     32 ****         1.0518  -1.7703  -1.3667 H              1 S1                 0.0000
     33 ****         1.8119   0.1025   1.5235 H              1 S1                 0.0000
     34 ****         2.5854  -1.3182   0.8894 H              1 S1                 0.0000
     35 ****         3.8415   1.3447   0.5901 H              1 S1                 0.0000
     36 ****         4.3701  -0.2369   0.0666 H              1 S1                 0.0000
     37 ****         5.4092   1.6721  -1.2373 H              1 S1                 0.0000
     38 ****         4.6180   0.4622  -2.2273 H              1 S1                 0.0000
     39 ****         5.1382   3.1083  -3.3749 H              1 S1                 0.0000
     40 ****         3.6860   4.8105  -4.4543 H              1 S1                 0.0000
     41 ****         1.2835   4.9751  -3.8326 H              1 S1                 0.0000
     42 ****         0.3296   3.4413  -2.1285 H              1 S1                 0.0000
     43 ****         0.5953   1.2117  -1.0225 H              1 S1                 0.0000
     44 ****         1.5160   2.0529   0.2074 H              1 S1                 0.0000
     45 ****        -6.1940  -3.0526   1.4255 H              1 S1                 0.0000
     46 ****        -6.1132  -1.3510   0.9893 H              1 S1                 0.0000
     47 ****        -6.0872  -1.8383   2.6894 H              1 S1                 0.0000
     48 ****        -1.7077  -0.1275   2.3181 LP             1 S1                 0.0000
     49 ****        -0.1808  -2.6158  -0.8204 LP             1 S1                 0.0000
     50 ****         1.3304  -2.8806  -0.2611 LP             1 S1                 0.0000
     51 ****         2.3390  -0.3137  -1.2891 LP             1 S1                 0.0000
     52 ****        -0.3640  -4.1482   0.8796 LP             1 S1                 0.0000
     53 ****        -1.8121  -5.0503   0.5806 LP             1 S1                 0.0000
     54 ****        -5.1025  -6.2709   0.2133 LP             1 S1                 0.0000
@<TRIPOS>BOND
    1    1    2 1     
    2    1   26 1     
    3    1   27 1     
    4    1   28 1     
    5    2   24 1     
    6    2    3 2     
    7    3    4 1     
    8    4    5 1     
    9    4   19 am    
   10    5    6 1     
   11    5   29 1     
   12    5   30 1     
   13    6    7 1     
   14    6    8 1     
   15    6   31 1     
   16    7   32 1     
   17    8    9 1     
   18    8   33 1     
   19    8   34 1     
   20    9   18 1     
   21    9   10 1     
   22   10   11 1     
   23   10   35 1     
   24   10   36 1     
   25   11   12 1     
   26   11   37 1     
   27   11   38 1     
   28   12   17 ar    
   29   12   13 ar    
   30   13   14 ar    
   31   13   39 1     
   32   14   15 ar    
   33   14   40 1     
   34   15   16 ar    
   35   15   41 1     
   36   16   17 ar    
   37   16   42 1     
   38   17   18 1     
   39   18   43 1     
   40   18   44 1     
   41   19   20 2     
   42   19   21 1     
   43   21   22 1     
   44   21   24 2     
   45   22   23 3     
   46   24   25 1     
   47   25   45 1     
   48   25   46 1     
   49   25   47 1     
   50    3   48 1     
   51    7   49 1     
   52    7   50 1     
   53    9   51 1     
   54   20   52 1     
   55   20   53 1     
   56   23   54 1     
@<TRIPOS>SUBSTRUCTURE
      1 S1             1
@<TRIPOS>SET
LONE_PAIRS      STATIC     ATOMS    <user>   **** ""
7 48 49 50 51 52 53 54
DONOR_HYDROGENS      STATIC     ATOMS    <user>   **** ""
1 32
ATOM$BLUE        STATIC     ATOMS    COLORGROUP SYSTEM
7 48 49 50 51 52 53 54
ATOM$RED        STATIC     ATOMS    COLORGROUP SYSTEM
1 32
