AV-unprocessed.smi:1413|AV-procd|sdf|5759|dock8
  -GOLD-   22720 5393D 1   1.00000     0.00000
 Structure written by MMmdl.
 53 55  0  0  0  0  0  0  0  0  1 V2000
  152.0491  144.3968  157.6222 C   0  0  0  0  0  0  0  0  0  0  0  0
  151.2210  143.5908  158.6391 C   0  0  1  0  0  0  0  0  0  0  0  0
  150.3132  142.5297  157.9861 C   0  0  0  0  0  0  0  0  0  0  0  0
  151.0908  141.3765  157.5424 N   0  0  0  0  0  0  0  0  0  0  0  0
  150.4171  140.4874  156.6786 C   0  0  0  0  0  0  0  0  0  0  0  0
  149.4486  139.5963  157.1960 C   0  0  0  0  0  0  0  0  0  0  0  0
  148.7880  138.7162  156.3185 C   0  0  0  0  0  0  0  0  0  0  0  0
  149.1127  138.7373  154.9484 C   0  0  0  0  0  0  0  0  0  0  0  0
  148.4159  137.8530  154.0818 N   0  0  0  0  0  0  0  0  0  0  0  0
  147.1155  137.5152  154.1035 C   0  0  0  0  0  0  0  0  0  0  0  0
  146.2771  137.9669  154.8831 O   0  0  0  0  0  0  0  0  0  0  0  0
  146.8343  136.6231  153.1427 N   0  0  0  0  0  0  0  0  0  0  0  0
  145.5182  136.0541  152.8570 C   0  0  1  0  0  0  0  0  0  0  0  0
  144.5204  137.2027  152.6497 C   0  0  0  0  0  0  0  0  0  0  0  0
  145.5839  135.1267  151.6260 C   0  0  1  0  0  0  0  0  0  0  0  0
  146.5016  133.9126  151.7728 C   0  0  0  0  0  0  0  0  0  0  0  0
  145.9510  132.9335  150.7499 C   0  0  0  0  0  0  0  0  0  0  0  0
  144.5275  133.4338  150.4865 C   0  0  0  0  0  0  0  0  0  0  0  0
  144.3270  134.5099  151.3937 O   0  0  0  0  0  0  0  0  0  0  0  0
  150.0825  139.6735  154.5186 C   0  0  0  0  0  0  0  0  0  0  0  0
  150.7154  140.5216  155.3567 N   0  0  0  0  0  0  0  0  0  0  0  0
  151.9290  140.8100  158.5951 C   0  0  0  0  0  0  0  0  0  0  0  0
  152.8353  141.8967  159.2004 C   0  0  2  0  0  0  0  0  0  0  0  0
  153.6358  141.3714  160.3968 C   0  0  0  0  0  0  0  0  0  0  0  0
  152.0370  142.9916  159.6485 O   0  0  0  0  0  0  0  0  0  0  0  0
  151.3968  144.9464  156.9435 H   0  0  0  0  0  0  0  0  0  0  0  0
  152.6877  143.7603  157.0101 H   0  0  0  0  0  0  0  0  0  0  0  0
  152.6851  145.1237  158.1277 H   0  0  0  0  0  0  0  0  0  0  0  0
  150.5770  144.3040  159.1544 H   0  0  0  0  0  0  0  0  0  0  0  0
  149.5780  142.1827  158.7133 H   0  0  0  0  0  0  0  0  0  0  0  0
  149.7524  142.9838  157.1699 H   0  0  0  0  0  0  0  0  0  0  0  0
  149.1968  139.5902  158.2460 H   0  0  0  0  0  0  0  0  0  0  0  0
  148.0417  138.0333  156.6976 H   0  0  0  0  0  0  0  0  0  0  0  0
  148.9622  137.4677  153.3256 H   0  0  0  0  0  0  0  0  0  0  0  0
  147.5929  136.3142  152.5529 H   0  0  0  0  0  0  0  0  0  0  0  0
  145.1737  135.4706  153.7128 H   0  0  0  0  0  0  0  0  0  0  0  0
  143.5147  136.8236  152.4667 H   0  0  0  0  0  0  0  0  0  0  0  0
  144.8005  137.8243  151.7985 H   0  0  0  0  0  0  0  0  0  0  0  0
  144.4724  137.8442  153.5302 H   0  0  0  0  0  0  0  0  0  0  0  0
  145.8654  135.6954  150.7372 H   0  0  0  0  0  0  0  0  0  0  0  0
  147.5530  134.1510  151.6090 H   0  0  0  0  0  0  0  0  0  0  0  0
  146.4042  133.4877  152.7729 H   0  0  0  0  0  0  0  0  0  0  0  0
  146.5360  132.9578  149.8298 H   0  0  0  0  0  0  0  0  0  0  0  0
  145.9646  131.9118  151.1305 H   0  0  0  0  0  0  0  0  0  0  0  0
  144.4335  133.8014  149.4638 H   0  0  0  0  0  0  0  0  0  0  0  0
  143.7775  132.6573  150.6385 H   0  0  0  0  0  0  0  0  0  0  0  0
  150.3561  139.7779  153.4803 H   0  0  0  0  0  0  0  0  0  0  0  0
  151.2910  140.3763  159.3666 H   0  0  0  0  0  0  0  0  0  0  0  0
  152.5474  140.0068  158.1925 H   0  0  0  0  0  0  0  0  0  0  0  0
  153.5434  142.2429  158.4473 H   0  0  0  0  0  0  0  0  0  0  0  0
  154.2720  140.5350  160.1063 H   0  0  0  0  0  0  0  0  0  0  0  0
  152.9758  141.0286  161.1940 H   0  0  0  0  0  0  0  0  0  0  0  0
  154.2783  142.1505  160.8079 H   0  0  0  0  0  0  0  0  0  0  0  0
  1  2  1  0  0  0  0
  1 26  1  0  0  0  0
  1 27  1  0  0  0  0
  1 28  1  0  0  0  0
  2 25  1  0  0  0  0
  2  3  1  0  0  0  0
  2 29  1  0  0  0  0
  3  4  1  0  0  0  0
  3 30  1  0  0  0  0
  3 31  1  0  0  0  0
  4  5  1  0  0  0  0
  4 22  1  0  0  0  0
  5 21  1  0  0  0  0
  5  6  2  0  0  0  0
  6  7  1  0  0  0  0
  6 32  1  0  0  0  0
  7  8  2  0  0  0  0
  7 33  1  0  0  0  0
  8  9  1  0  0  0  0
  8 20  1  0  0  0  0
  9 10  1  0  0  0  0
  9 34  1  0  0  0  0
 10 11  2  0  0  0  0
 10 12  1  0  0  0  0
 12 13  1  0  0  0  0
 12 35  1  0  0  0  0
 13 14  1  0  0  0  0
 13 15  1  0  0  0  0
 13 36  1  0  0  0  0
 14 37  1  0  0  0  0
 14 38  1  0  0  0  0
 14 39  1  0  0  0  0
 15 19  1  0  0  0  0
 15 16  1  0  0  0  0
 15 40  1  0  0  0  0
 16 17  1  0  0  0  0
 16 41  1  0  0  0  0
 16 42  1  0  0  0  0
 17 18  1  0  0  0  0
 17 43  1  0  0  0  0
 17 44  1  0  0  0  0
 18 19  1  0  0  0  0
 18 45  1  0  0  0  0
 18 46  1  0  0  0  0
 20 21  2  0  0  0  0
 20 47  1  0  0  0  0
 22 23  1  0  0  0  0
 22 48  1  0  0  0  0
 22 49  1  0  0  0  0
 23 24  1  0  0  0  0
 23 25  1  0  0  0  0
 23 50  1  0  0  0  0
 24 51  1  0  0  0  0
 24 52  1  0  0  0  0
 24 53  1  0  0  0  0
M  END
> <s_m_source_file>
AV-unprocessed.smi

> <i_m_source_file_index>
1413

> <i_lp_mmshare_version>
43012

> <i_f3d_flags>
0

> <s_epik_input>
W0NIM11bQ0BASF0xW0NIMl1OKFtDSDJdW0NASF0oTzEpW0NIM10pYzJbY0hdW2NIXWMoW2NIXW4yKVtOSF1DKD1PKVtOSF1bQ0BIXShbQ0gzXSlbQ0BASF0zW0NIMl1bQ0gyXVtDSDJdTzM=

> <s_epik_cmdline>
J2VwaWtfcHl0aG9uJywgJy1waCcsICc3LjAnLCAnLXRuJywgJzgnLCAnLW1hJywgJzIwMCcsICctbWV0YWxfYmluZGluZycsICctaW1hZScsICc8aW5maWxlLm1hZT4nLCAnLW9tYWUnLCAnPG91dGZpbGUubWFlPic=

> <r_lp_tautomer_probability>
1

> <r_epik_Ionization_Penalty>
0.00271172

> <r_epik_Ionization_Penalty_Charging>
0

> <r_epik_Ionization_Penalty_Neutral>
0.00271172

> <r_epik_State_Penalty>
0.00186503

> <r_epik_Charging_Adjusted_Penalty>
0.00186503

> <i_epik_Tot_Q>
0

> <i_epik_Tot_abs_Q>
0

> <r_epik_Metal_State_Penalty>
-0

> <b_epik_Metal_Only>
0

> <s_lp_Force_Field>
OPLS_2005

> <r_lp_Energy>
37.0854

> <b_lp_Chiralities_Consistent>
1

> <s_lp_Variant>
AV-unprocessed.smi:1413-12

> <Gold.Version>
5.8.1

> <Gold.Id.Protein>
6NUR|6NUR_protein|mol2

> <Gold.PLP.Fitness>
47.8157

> <Gold.PLP.PLP>
-39.7983

> <Gold.PLP.part.hbond>
-2.9425

> <Gold.PLP.part.metal>
0.0000

> <Gold.PLP.part.buried>
-6.2063

> <Gold.PLP.part.nonpolar>
-31.3297

> <Gold.PLP.part.repulsive>
0.3102

> <Gold.PLP.ligand.clash>
0.0000

> <Gold.PLP.ligand.torsion>
0.5587

> <Gold.PLP.Chemscore.Hbond>
1.9280

> <Gold.PLP.Chemscore.CHOScore>
1.0000

> <Gold.PLP.Chemscore.Metal>
0.0000

> <Gold.Chemscore.Hbonds>
donor molecule, donor type, donor heavy atom, donor atom, acceptor molecule, acceptor atom, score
      L1  H     9    34       P1  7948  0.93
      L1  H    12    35       P1  7948  0.98
      L1  C    20    47       P1  7957  1.00

> <Gold.PLP.Chemscore.Internal.Correction>
0.3509

> <Gold.Rescore>
     Score         DG    S(hbond)    S(metal)    S(lipo)     H(rot)  DE(clash)    DE(int)     intcor
     18.74     -20.45       1.89        0.00     103.39       1.35       0.03       1.67       ----

> <Gold.Chemscore.Fitness>
18.7429

> <Gold.Chemscore.DG>
-20.4511

> <Gold.Chemscore.ZeroCoef>
-5.4800

> <Gold.Chemscore.Hbond>
1.8930

> <Gold.Chemscore.Metal>
0.0000

> <Gold.Chemscore.Lipo>
103.3923

> <Gold.Chemscore.Internal_Hbond>
0.0000

> <Gold.Chemscore.DEClash>
0.0349

> <Gold.Chemscore.DEInternal>
1.6733

> <Gold.Chemscore.Rot>
1.3471

> <Gold.Chemscore.Internal.Correction>
   9.000000E+99

> <Gold.Chemscore.Hbonds>
donor molecule, donor type, donor heavy atom, donor atom, acceptor molecule, acceptor atom, score
      L1  H     9    34       P1  7948  0.89
      L1  H    12    35       P1  7948  0.92

> <Gold.Chemscore.Hbond.Weighted>
-6.3227

> <Gold.Chemscore.Metal.Weighted>
-0.0000

> <Gold.Chemscore.Lipo.Weighted>
-12.0969

> <Gold.Chemscore.Internal_Hbond.Weighted>
0.0000

> <Gold.Chemscore.DEClash.Weighted>
0.0349

> <Gold.Chemscore.DEInternal.Weighted>
1.6733

> <Gold.Chemscore.Rot.Weighted>
3.4485

> <Gold.Chemscore.Internal.Correction.Weighted>
   9.000000E+99

> <Gold.Protein.RotatedTorsions>
[ 6907 6896 6895 6894 ] final -147.58 input  -60.11 | X-H torsion
[ 7974 7965 7964 7962 ] final   30.46 input  175.53 | X-H torsion
[ 8008 7997 7996 7995 ] final  -61.20 input   59.86 | X-H torsion
[ 10167 10162 10161 10158 ] final   47.69 input  -65.29 | X-H torsion
[ 10718 10713 10712 10709 ] final   33.32 input   66.30 | X-H torsion
[ 10763 10752 10751 10750 ] final -148.64 input  -60.55 | X-H torsion
[ 11005 11000 10999 10996 ] final  -50.14 input  -57.11 | X-H torsion

> <Gold.Protein.ActiveResidues>
 VAL166  LYS551  ARG553  GLY616  TRP617  ASP618  TYR619  PRO620  LYS621  CYS622 
 ASP623  PHE694  ASN695  SER759  ASP760  ASP761  ALA762  ILE779  LEU786  VAL792 
 PHE793  MET794  SER795  GLU796  ALA797  LYS798  CYS799  TRP800  GLU811  SER814 

> <Gold.Protein.RotatedAtoms>
  151.1577  133.4865  159.2594 H   0  0  0  0  0  0  0  0  0  0  0  0  # atno 6907 bound_to 6896
  151.1487  135.0216  159.8668 H   0  0  0  0  0  0  0  0  0  0  0  0  # atno 6908 bound_to 6896
  152.5463  134.1463  159.8553 H   0  0  0  0  0  0  0  0  0  0  0  0  # atno 6909 bound_to 6896
  146.1610  139.6786  142.9033 H   0  0  0  0  0  0  0  0  0  0  0  0  # atno 7974 bound_to 7965
  154.4436  140.1023  156.6393 H   0  0  0  0  0  0  0  0  0  0  0  0  # atno 8008 bound_to 7997
  155.5518  140.3486  155.4452 H   0  0  0  0  0  0  0  0  0  0  0  0  # atno 8009 bound_to 7997
  156.0523  140.1307  157.0025 H   0  0  0  0  0  0  0  0  0  0  0  0  # atno 8010 bound_to 7997
  140.3010  144.2934  150.6219 H   0  0  0  0  0  0  0  0  0  0  0  0  # atno 10167 bound_to 10162
  157.2963  130.7328  149.6640 H   0  0  0  0  0  0  0  0  0  0  0  0  # atno 10718 bound_to 10713
  154.8222  135.3329  154.7005 H   0  0  0  0  0  0  0  0  0  0  0  0  # atno 10763 bound_to 10752
  153.7637  135.6930  153.4925 H   0  0  0  0  0  0  0  0  0  0  0  0  # atno 10764 bound_to 10752
  153.2093  135.4488  155.0309 H   0  0  0  0  0  0  0  0  0  0  0  0  # atno 10765 bound_to 10752
  141.0799  133.6656  156.3688 H   0  0  0  0  0  0  0  0  0  0  0  0  # atno 11005 bound_to 11000
  145.4587  141.0432  143.2764 LP  0  0  0  0  0  0  0  0  0  0  0  0  # atno 17320 bound_to 7965
  144.8027  139.6109  143.7064 LP  0  0  0  0  0  0  0  0  0  0  0  0  # atno 17321 bound_to 7965
  140.5651  143.2187  151.7698 LP  0  0  0  0  0  0  0  0  0  0  0  0  # atno 17342 bound_to 10162
  139.4915  144.4295  151.9888 LP  0  0  0  0  0  0  0  0  0  0  0  0  # atno 17343 bound_to 10162
  155.9669  130.4293  150.4828 LP  0  0  0  0  0  0  0  0  0  0  0  0  # atno 17370 bound_to 10713
  157.2800  131.0605  151.2204 LP  0  0  0  0  0  0  0  0  0  0  0  0  # atno 17371 bound_to 10713
  140.5491  134.6045  157.5402 LP  0  0  0  0  0  0  0  0  0  0  0  0  # atno 17394 bound_to 11000
  139.9613  134.7448  156.0232 LP  0  0  0  0  0  0  0  0  0  0  0  0  # atno 17395 bound_to 11000

$$$$
