AV-unprocessed.smi:2557|AV-procd|sdf|10027|dock2
  -GOLD-   2272014 73D 1   1.00000     0.00000
 Structure written by MMmdl.
 38 40  0  0  0  0  0  0  0  0  2 V2000
  151.8283  136.9012  154.3523 O   0  5  0  0  0  0  0  0  0  0  0  0
  151.1648  137.2135  155.3694 C   0  0  0  0  0  0  0  0  0  0  0  0
  151.1862  138.3422  156.1924 C   0  0  0  0  0  0  0  0  0  0  0  0
  152.0927  139.4703  155.9247 C   0  0  0  0  0  0  0  0  0  0  0  0
  152.9023  139.5379  155.0006 O   0  0  0  0  0  0  0  0  0  0  0  0
  151.9839  140.4886  156.7999 N   0  0  0  0  0  0  0  0  0  0  0  0
  151.0912  140.4951  157.8737 C   0  0  0  0  0  0  0  0  0  0  0  0
  151.2083  141.7820  158.6922 C   0  0  0  0  0  0  0  0  0  0  0  0
  150.9296  143.0351  157.8310 C   0  0  0  0  0  0  0  0  0  0  0  0
  151.0034  144.3249  158.6655 C   0  0  0  0  0  0  0  0  0  0  0  0
  152.3531  144.4477  159.3889 C   0  0  0  0  0  0  0  0  0  0  0  0
  152.6286  143.2102  160.2562 C   0  0  0  0  0  0  0  0  0  0  0  0
  152.5671  141.9225  159.4188 C   0  0  0  0  0  0  0  0  0  0  0  0
  150.2730  139.5289  158.1628 N   0  0  0  0  0  0  0  0  0  0  0  0
  150.3258  138.4527  157.3081 N   0  0  0  0  0  0  0  0  0  0  0  0
  150.2636  136.0960  155.7115 C   0  0  0  0  0  0  0  0  0  0  0  0
  150.7789  134.8377  156.0933 C   0  0  0  0  0  0  0  0  0  0  0  0
  149.8769  133.8004  156.4013 C   0  0  0  0  0  0  0  0  0  0  0  0
  148.5354  133.9429  156.3482 N   0  0  0  0  0  0  0  0  0  0  0  0
  148.0457  135.1449  155.9756 C   0  0  0  0  0  0  0  0  0  0  0  0
  148.8609  136.2455  155.6467 C   0  0  0  0  0  0  0  0  0  0  0  0
  150.4379  141.7395  159.4645 H   0  0  0  0  0  0  0  0  0  0  0  0
  151.6520  143.0903  157.0150 H   0  0  0  0  0  0  0  0  0  0  0  0
  149.9455  142.9695  157.3653 H   0  0  0  0  0  0  0  0  0  0  0  0
  150.8455  145.1921  158.0237 H   0  0  0  0  0  0  0  0  0  0  0  0
  150.1952  144.3318  159.3978 H   0  0  0  0  0  0  0  0  0  0  0  0
  153.1523  144.5650  158.6559 H   0  0  0  0  0  0  0  0  0  0  0  0
  152.3649  145.3463  160.0063 H   0  0  0  0  0  0  0  0  0  0  0  0
  153.6066  143.2987  160.7303 H   0  0  0  0  0  0  0  0  0  0  0  0
  151.8969  143.1579  161.0634 H   0  0  0  0  0  0  0  0  0  0  0  0
  152.7384  141.0620  160.0672 H   0  0  0  0  0  0  0  0  0  0  0  0
  153.3823  141.9329  158.6936 H   0  0  0  0  0  0  0  0  0  0  0  0
  149.6860  137.6966  157.5261 H   0  0  0  0  0  0  0  0  0  0  0  0
  151.8449  134.6738  156.1489 H   0  0  0  0  0  0  0  0  0  0  0  0
  150.2435  132.8289  156.6981 H   0  0  0  0  0  0  0  0  0  0  0  0
  146.9701  135.2324  155.9379 H   0  0  0  0  0  0  0  0  0  0  0  0
  148.4206  137.1872  155.3530 H   0  0  0  0  0  0  0  0  0  0  0  0
  152.5842  141.2883  156.6645 H   0  0  0  0  0  0  0  0  0  0  0  0
  1  2  1  0  0  0  0
  2  3  2  0  0  0  0
  2 16  1  0  0  0  0
  3 15  1  0  0  0  0
  3  4  1  0  0  0  0
  4  5  2  0  0  0  0
  4  6  1  0  0  0  0
  6  7  1  0  0  0  0
  6 38  1  0  0  0  0
  7  8  1  0  0  0  0
  7 14  2  0  0  0  0
  8 13  1  0  0  0  0
  8  9  1  0  0  0  0
  8 22  1  0  0  0  0
  9 10  1  0  0  0  0
  9 23  1  0  0  0  0
  9 24  1  0  0  0  0
 10 11  1  0  0  0  0
 10 25  1  0  0  0  0
 10 26  1  0  0  0  0
 11 12  1  0  0  0  0
 11 27  1  0  0  0  0
 11 28  1  0  0  0  0
 12 13  1  0  0  0  0
 12 29  1  0  0  0  0
 12 30  1  0  0  0  0
 13 31  1  0  0  0  0
 13 32  1  0  0  0  0
 14 15  1  0  0  0  0
 15 33  1  0  0  0  0
 16 21  1  0  0  0  0
 16 17  2  0  0  0  0
 17 18  1  0  0  0  0
 17 34  1  0  0  0  0
 18 19  2  0  0  0  0
 18 35  1  0  0  0  0
 19 20  1  0  0  0  0
 20 21  2  0  0  0  0
 20 36  1  0  0  0  0
 21 37  1  0  0  0  0
M  CHG  1   1  -1
M  END
> <s_m_source_file>
AV-unprocessed.smi

> <i_m_source_file_index>
2557

> <i_lp_mmshare_version>
43012

> <i_f3d_flags>
0

> <s_epik_input>
W2NIXTFbY0hdbltjSF1bY0hdYzFDKD1PKUMyPUMoW09IXSlOPUMoW05IXVtOSF0yKVtDSF0zW0NIMl1bQ0gyXVtDSDJdW0NIMl1bQ0gyXTM=

> <s_epik_cmdline>
J2VwaWtfcHl0aG9uJywgJy1waCcsICc3LjAnLCAnLXRuJywgJzgnLCAnLW1hJywgJzIwMCcsICctbWV0YWxfYmluZGluZycsICctaW1hZScsICc8aW5maWxlLm1hZT4nLCAnLW9tYWUnLCAnPG91dGZpbGUubWFlPic=

> <r_epik_Ionization_Penalty>
0.0900605

> <r_epik_Ionization_Penalty_Charging>
0.000501436

> <r_epik_Ionization_Penalty_Neutral>
0.0895591

> <r_epik_State_Penalty>
0.142021

> <r_epik_Charging_Adjusted_Penalty>
0.142522

> <i_epik_Tot_Q>
-1

> <i_epik_Tot_abs_Q>
1

> <r_epik_Metal_State_Penalty>
0.0730028

> <b_epik_Metal_Only>
0

> <s_epik_Chemistry_Notes>
This compound has an imine and may undergo hydrolysis.

> <s_lp_Force_Field>
OPLS_2005

> <r_lp_Energy>
31.0156

> <b_lp_Chiralities_Consistent>
1

> <s_lp_Variant>
AV-unprocessed.smi:2557-1

> <Gold.Version>
5.8.1

> <Gold.Id.Protein>
6NUR|6NUR_protein|mol2

> <Gold.PLP.Fitness>
43.1961

> <Gold.PLP.PLP>
-33.7178

> <Gold.PLP.part.hbond>
-3.0000

> <Gold.PLP.part.metal>
0.0000

> <Gold.PLP.part.buried>
-5.9173

> <Gold.PLP.part.nonpolar>
-27.1242

> <Gold.PLP.part.repulsive>
0.7808

> <Gold.PLP.ligand.clash>
0.0000

> <Gold.PLP.ligand.torsion>
1.2827

> <Gold.PLP.Chemscore.Hbond>
3.2995

> <Gold.PLP.Chemscore.CHOScore>
0.0000

> <Gold.PLP.Chemscore.Metal>
0.0000

> <Gold.Chemscore.Hbonds>
donor molecule, donor type, donor heavy atom, donor atom, acceptor molecule, acceptor atom, score
      P1  H  7989  7998       L1     5  0.11
      P1  H  7997  8009       L1     5  1.00
      P1  H 10752 10764       L1     1  2.00

> <Gold.PLP.Chemscore.Internal.Correction>
2.1452

> <Gold.Rescore>
     Score         DG    S(hbond)    S(metal)    S(lipo)     H(rot)  DE(clash)    DE(int)     intcor
     17.85     -19.35       1.78        0.00      89.68       1.00       0.12       1.38       ----

> <Gold.Chemscore.Fitness>
17.8523

> <Gold.Chemscore.DG>
-19.3511

> <Gold.Chemscore.ZeroCoef>
-5.4800

> <Gold.Chemscore.Hbond>
1.7779

> <Gold.Chemscore.Metal>
0.0000

> <Gold.Chemscore.Lipo>
89.6841

> <Gold.Chemscore.Internal_Hbond>
0.0000

> <Gold.Chemscore.DEClash>
0.1230

> <Gold.Chemscore.DEInternal>
1.3758

> <Gold.Chemscore.Rot>
1.0000

> <Gold.Chemscore.Internal.Correction>
   9.000000E+99

> <Gold.Chemscore.Hbonds>
donor molecule, donor type, donor heavy atom, donor atom, acceptor molecule, acceptor atom, score
      P1  H  7989  7998       L1     5  0.03
      P1  H  7997  8009       L1     5  0.40
      P1  H 10752 10764       L1     1  0.95

> <Gold.Chemscore.Hbond.Weighted>
-5.9381

> <Gold.Chemscore.Metal.Weighted>
-0.0000

> <Gold.Chemscore.Lipo.Weighted>
-10.4930

> <Gold.Chemscore.Internal_Hbond.Weighted>
0.0000

> <Gold.Chemscore.DEClash.Weighted>
0.1230

> <Gold.Chemscore.DEInternal.Weighted>
1.3758

> <Gold.Chemscore.Rot.Weighted>
2.5600

> <Gold.Chemscore.Internal.Correction.Weighted>
   9.000000E+99

> <Gold.Protein.RotatedTorsions>
[ 6907 6896 6895 6894 ] final  -51.93 input  -60.11 | X-H torsion
[ 7974 7965 7964 7962 ] final -173.64 input  175.53 | X-H torsion
[ 8008 7997 7996 7995 ] final -132.70 input   59.86 | X-H torsion
[ 10167 10162 10161 10158 ] final  -34.69 input  -65.29 | X-H torsion
[ 10718 10713 10712 10709 ] final   27.38 input   66.30 | X-H torsion
[ 10763 10752 10751 10750 ] final  -91.19 input  -60.55 | X-H torsion
[ 11005 11000 10999 10996 ] final   85.86 input  -57.11 | X-H torsion

> <Gold.Protein.ActiveResidues>
 VAL166  LYS551  ARG553  GLY616  TRP617  ASP618  TYR619  PRO620  LYS621  CYS622 
 ASP623  PHE694  ASN695  SER759  ASP760  ASP761  ALA762  ILE779  LEU786  VAL792 
 PHE793  MET794  SER795  GLU796  ALA797  LYS798  CYS799  TRP800  GLU811  SER814 

> <Gold.Protein.RotatedAtoms>
  150.8565  134.7905  159.7049 H   0  0  0  0  0  0  0  0  0  0  0  0  # atno 6907 bound_to 6896
  152.4615  134.5170  159.9781 H   0  0  0  0  0  0  0  0  0  0  0  0  # atno 6908 bound_to 6896
  151.5282  133.3416  159.2949 H   0  0  0  0  0  0  0  0  0  0  0  0  # atno 6909 bound_to 6896
  144.7136  140.1591  143.6377 H   0  0  0  0  0  0  0  0  0  0  0  0  # atno 7974 bound_to 7965
  155.3333  140.0468  157.3043 H   0  0  0  0  0  0  0  0  0  0  0  0  # atno 8008 bound_to 7997
  154.5317  140.2259  155.8759 H   0  0  0  0  0  0  0  0  0  0  0  0  # atno 8009 bound_to 7997
  156.1795  140.3077  155.9127 H   0  0  0  0  0  0  0  0  0  0  0  0  # atno 8010 bound_to 7997
  140.7180  143.3530  151.2117 H   0  0  0  0  0  0  0  0  0  0  0  0  # atno 10167 bound_to 10162
  157.2194  130.6972  149.6263 H   0  0  0  0  0  0  0  0  0  0  0  0  # atno 10718 bound_to 10713
  154.6735  135.5277  153.8170 H   0  0  0  0  0  0  0  0  0  0  0  0  # atno 10763 bound_to 10752
  153.0517  135.6535  154.0687 H   0  0  0  0  0  0  0  0  0  0  0  0  # atno 10764 bound_to 10752
  154.0583  135.2964  155.3309 H   0  0  0  0  0  0  0  0  0  0  0  0  # atno 10765 bound_to 10752
  139.8960  134.8316  156.2641 H   0  0  0  0  0  0  0  0  0  0  0  0  # atno 11005 bound_to 11000
  145.9046  139.2451  143.1473 LP  0  0  0  0  0  0  0  0  0  0  0  0  # atno 17320 bound_to 7965
  145.9776  140.8709  143.0130 LP  0  0  0  0  0  0  0  0  0  0  0  0  # atno 17321 bound_to 7965
  139.7065  143.9447  152.2929 LP  0  0  0  0  0  0  0  0  0  0  0  0  # atno 17342 bound_to 10162
  139.9157  144.6830  150.8514 LP  0  0  0  0  0  0  0  0  0  0  0  0  # atno 17343 bound_to 10162
  155.9683  130.4525  150.5775 LP  0  0  0  0  0  0  0  0  0  0  0  0  # atno 17370 bound_to 10713
  157.3591  131.0746  151.1651 LP  0  0  0  0  0  0  0  0  0  0  0  0  # atno 17371 bound_to 10713
  141.0143  133.7077  156.1163 LP  0  0  0  0  0  0  0  0  0  0  0  0  # atno 17394 bound_to 11000
  140.7323  134.4241  157.5564 LP  0  0  0  0  0  0  0  0  0  0  0  0  # atno 17395 bound_to 11000

$$$$
