#       Name:                AV-unprocessed.smi:964
#       Creating user name   scv26
#       Creation time:       Fri Mar 27 02:18:55 2020


#       File generated by GOLD software.
#

@<TRIPOS>MOLECULE
AV-unprocessed.smi:964
    22    22     1
SMALL
NO_CHARGES


@<TRIPOS>ATOM
      1 ****        -3.5817   1.1720  -0.5286 C.3            1 S1                 0.0000
      2 ****        -2.3538   0.2902  -0.5391 C.2            1 S1                 0.0000
      3 ****        -1.0910   0.7401  -0.5425 N.2            1 S1                 0.0000
      4 ****        -0.3228  -0.3438  -0.5610 C.2            1 S1                 0.0000
      5 ****         1.1880  -0.3562  -0.5302 C.3            1 S1                 0.0000
      6 ****         1.7240  -0.3511   0.9057 C.3            1 S1                 0.0000
      7 ****         3.1955  -0.3571   0.9262 N.4            1 S1                 1.0000
      8 ****        -1.1180  -1.4272  -0.5478 N.pl3          1 S1                -1.0000
      9 ****        -2.3809  -1.0512  -0.5418 N.2            1 S1                 0.0000
     10 ****        -3.3016   2.2257  -0.5256 H              1 S1                 0.0000
     11 ****        -4.1821   0.9722   0.3588 H              1 S1                 0.0000
     12 ****        -4.1926   0.9797  -1.4106 H              1 S1                 0.0000
     13 ****         1.5410  -1.2392  -1.0644 H              1 S1                 0.0000
     14 ****         1.5561   0.5128  -1.0770 H              1 S1                 0.0000
     15 ****         1.3691   0.5318   1.4384 H              1 S1                 0.0000
     16 ****         1.3604  -1.2240   1.4489 H              1 S1                 0.0000
     17 ****         3.5184  -0.3539   1.8830 H              1 S1                 0.0000
     18 ****         3.5396   0.4647   0.4506 H              1 S1                 0.0000
     19 ****         3.5333  -1.1855   0.4576 H              1 S1                 0.0000
     20 ****        -0.7898   1.6936  -0.5331 LP             1 S1                 0.0000
     21 ****        -0.7995  -2.3751  -0.5433 LP             1 S1                 0.0000
     22 ****        -3.1886  -1.6408  -0.5397 LP             1 S1                 0.0000
@<TRIPOS>BOND
    1    1    2 1     
    2    1   10 1     
    3    1   11 1     
    4    1   12 1     
    5    2    9 2     
    6    2    3 1     
    7    3    4 2     
    8    4    5 1     
    9    4    8 1     
   10    5    6 1     
   11    5   13 1     
   12    5   14 1     
   13    6    7 1     
   14    6   15 1     
   15    6   16 1     
   16    7   17 1     
   17    7   18 1     
   18    7   19 1     
   19    8    9 1     
   20    3   20 1     
   21    8   21 1     
   22    9   22 1     
@<TRIPOS>SUBSTRUCTURE
      1 S1             1
@<TRIPOS>SET
LONE_PAIRS      STATIC     ATOMS    <user>   **** ""
3 20 21 22
DONOR_HYDROGENS      STATIC     ATOMS    <user>   **** ""
3 17 18 19
ATOM$BLUE        STATIC     ATOMS    COLORGROUP SYSTEM
3 20 21 22
ATOM$RED        STATIC     ATOMS    COLORGROUP SYSTEM
3 17 18 19
