#       Name:                AV-unprocessed.smi:1635
#       Creating user name   scv26
#       Creation time:       Fri Mar 27 07:22:31 2020


#       File generated by GOLD software.
#

@<TRIPOS>MOLECULE
AV-unprocessed.smi:1635
    42    43     1
SMALL
NO_CHARGES


@<TRIPOS>ATOM
      1 ****        -2.8496  -3.4261   0.3486 C.3            1 S1                 0.0000
      2 ****        -3.6390  -2.1286   0.4138 C.ar           1 S1                 0.0000
      3 ****        -5.0337  -2.1788   0.6228 C.ar           1 S1                 0.0000
      4 ****        -5.7618  -0.9784   0.6838 C.ar           1 S1                 0.0000
      5 ****        -5.0595   0.2294   0.5319 C.ar           1 S1                 0.0000
      6 ****        -3.7270   0.2867   0.3324 N.ar           1 S1                 0.0000
      7 ****        -3.0090  -0.8629   0.2716 C.ar           1 S1                 0.0000
      8 ****        -1.6013  -0.8790   0.0611 N.am           1 S1                 0.0000
      9 ****        -0.7598   0.1633  -0.0558 C.2            1 S1                 0.0000
     10 ****        -1.0791   1.3508   0.0124 O.2            1 S1                 0.0000
     11 ****         0.4994  -0.2540  -0.2534 N.am           1 S1                 0.0000
     12 ****         1.6692   0.6079  -0.4319 C.3            1 S1                 0.0000
     13 ****         2.2353   1.0235   0.9444 C.3            1 S1                 0.0000
     14 ****         3.0789   2.3079   0.9119 C.3            1 S1                 0.0000
     15 ****         4.3559   2.2191   0.0631 C.3            1 S1                 0.0000
     16 ****         4.0862   2.0321  -1.4398 C.3            1 S1                 0.0000
     17 ****         3.7579   0.6539  -1.7828 N.am           1 S1                 0.0000
     18 ****         2.6989  -0.0568  -1.3654 C.2            1 S1                 0.0000
     19 ****         2.5552  -1.2273  -1.7181 O.2            1 S1                 0.0000
     20 ****        -3.4963  -4.2922   0.4923 H              1 S1                 0.0000
     21 ****        -2.0847  -3.4468   1.1256 H              1 S1                 0.0000
     22 ****        -2.3622  -3.5285  -0.6214 H              1 S1                 0.0000
     23 ****        -5.5428  -3.1248   0.7355 H              1 S1                 0.0000
     24 ****        -6.8300  -0.9829   0.8424 H              1 S1                 0.0000
     25 ****        -5.5801   1.1748   0.5709 H              1 S1                 0.0000
     26 ****        -1.1860  -1.7964  -0.0045 H              1 S1                 0.0000
     27 ****         0.6680  -1.2484  -0.3006 H              1 S1                 0.0000
     28 ****         1.3260   1.5060  -0.9495 H              1 S1                 0.0000
     29 ****         1.4128   1.1958   1.6400 H              1 S1                 0.0000
     30 ****         2.8157   0.2054   1.3732 H              1 S1                 0.0000
     31 ****         2.4642   3.1376   0.5606 H              1 S1                 0.0000
     32 ****         3.3606   2.5608   1.9345 H              1 S1                 0.0000
     33 ****         4.9130   3.1470   0.1974 H              1 S1                 0.0000
     34 ****         5.0054   1.4252   0.4345 H              1 S1                 0.0000
     35 ****         3.3044   2.7083  -1.7885 H              1 S1                 0.0000
     36 ****         4.9860   2.2924  -1.9978 H              1 S1                 0.0000
     37 ****         4.4086   0.1838  -2.3953 H              1 S1                 0.0000
     38 ****        -3.2711   1.1708   0.2299 LP             1 S1                 0.0000
     39 ****        -2.0342   1.6037   0.1667 LP             1 S1                 0.0000
     40 ****        -0.3832   2.0621  -0.0865 LP             1 S1                 0.0000
     41 ****         1.7665  -1.7526  -1.3986 LP             1 S1                 0.0000
     42 ****         3.2271  -1.6530  -2.3242 LP             1 S1                 0.0000
@<TRIPOS>BOND
    1    1    2 1     
    2    1   20 1     
    3    1   21 1     
    4    1   22 1     
    5    2    7 ar    
    6    2    3 ar    
    7    3    4 ar    
    8    3   23 1     
    9    4    5 ar    
   10    4   24 1     
   11    5    6 ar    
   12    5   25 1     
   13    6    7 ar    
   14    7    8 1     
   15    8    9 am    
   16    8   26 1     
   17    9   10 2     
   18    9   11 am    
   19   11   12 1     
   20   11   27 1     
   21   12   18 1     
   22   12   13 1     
   23   12   28 1     
   24   13   14 1     
   25   13   29 1     
   26   13   30 1     
   27   14   15 1     
   28   14   31 1     
   29   14   32 1     
   30   15   16 1     
   31   15   33 1     
   32   15   34 1     
   33   16   17 1     
   34   16   35 1     
   35   16   36 1     
   36   17   18 am    
   37   17   37 1     
   38   18   19 2     
   39    6   38 1     
   40   10   39 1     
   41   10   40 1     
   42   19   41 1     
   43   19   42 1     
@<TRIPOS>SUBSTRUCTURE
      1 S1             1
@<TRIPOS>SET
LONE_PAIRS      STATIC     ATOMS    <user>   **** ""
5 38 39 40 41 42
DONOR_HYDROGENS      STATIC     ATOMS    <user>   **** ""
3 26 27 37
ATOM$BLUE        STATIC     ATOMS    COLORGROUP SYSTEM
5 38 39 40 41 42
ATOM$RED        STATIC     ATOMS    COLORGROUP SYSTEM
3 26 27 37
