AV-unprocessed.smi:2767|AV-procd|sdf|10647|dock5
  -GOLD-   2272015 93D 1   1.00000     0.00000
 Structure written by MMmdl.
 34 36  0  0  0  0  0  0  0  0  1 V2000
  149.6615  140.7292  157.4598 O   0  0  0  0  0  0  0  0  0  0  0  0
  149.5661  141.8784  157.0282 C   0  0  0  0  0  0  0  0  0  0  0  0
  150.0486  142.9516  157.6705 N   0  0  0  0  0  0  0  0  0  0  0  0
  150.7795  142.9103  158.9319 C   0  0  0  0  0  0  0  0  0  0  0  0
  151.9917  143.8292  159.0236 C   0  0  0  0  0  0  0  0  0  0  0  0
  153.1862  143.2440  159.7730 C   0  0  0  0  0  0  0  0  0  0  0  0
  153.3646  141.7459  159.8600 C   0  0  0  0  0  0  0  0  0  0  0  0
  153.0937  142.5436  161.1133 C   0  0  0  0  0  0  0  0  0  0  0  0
  152.3060  144.6777  157.8072 C   0  0  0  0  0  0  0  0  0  0  0  0
  151.7245  145.3265  159.0337 C   0  0  0  0  0  0  0  0  0  0  0  0
  148.9836  142.2279  155.8677 N   0  0  0  0  0  0  0  0  0  0  0  0
  148.3935  141.3817  154.8914 C   0  0  0  0  0  0  0  0  0  0  0  0
  149.0347  140.1344  154.7151 C   0  0  0  0  0  0  0  0  0  0  0  0
  148.5256  139.2202  153.7722 C   0  0  0  0  0  0  0  0  0  0  0  0
  147.3868  139.5793  153.0296 C   0  0  0  0  0  0  0  0  0  0  0  0
  146.8615  138.7336  152.1118 F   0  0  0  0  0  0  0  0  0  0  0  0
  146.8078  140.8400  153.2654 C   0  0  0  0  0  0  0  0  0  0  0  0
  147.2948  141.7169  154.1690 N   0  0  0  0  0  0  0  0  0  0  0  0
  149.9251  143.8589  157.2457 H   0  0  0  0  0  0  0  0  0  0  0  0
  150.0815  143.1954  159.7194 H   0  0  0  0  0  0  0  0  0  0  0  0
  151.0721  141.8817  159.1506 H   0  0  0  0  0  0  0  0  0  0  0  0
  154.1051  143.8106  159.6339 H   0  0  0  0  0  0  0  0  0  0  0  0
  152.5601  141.1180  159.4819 H   0  0  0  0  0  0  0  0  0  0  0  0
  154.3689  141.3531  159.7159 H   0  0  0  0  0  0  0  0  0  0  0  0
  153.9230  142.6784  161.8043 H   0  0  0  0  0  0  0  0  0  0  0  0
  152.1221  142.4235  161.5852 H   0  0  0  0  0  0  0  0  0  0  0  0
  153.3515  144.8806  157.5843 H   0  0  0  0  0  0  0  0  0  0  0  0
  151.6583  144.5803  156.9381 H   0  0  0  0  0  0  0  0  0  0  0  0
  150.6894  145.6573  158.9762 H   0  0  0  0  0  0  0  0  0  0  0  0
  152.3718  145.9750  159.6177 H   0  0  0  0  0  0  0  0  0  0  0  0
  148.9765  143.2134  155.6495 H   0  0  0  0  0  0  0  0  0  0  0  0
  149.9089  139.8759  155.2950 H   0  0  0  0  0  0  0  0  0  0  0  0
  149.0005  138.2618  153.6228 H   0  0  0  0  0  0  0  0  0  0  0  0
  145.9326  141.1534  152.7158 H   0  0  0  0  0  0  0  0  0  0  0  0
  1  2  2  0  0  0  0
  2  3  1  0  0  0  0
  2 11  1  0  0  0  0
  3  4  1  0  0  0  0
  3 19  1  0  0  0  0
  4  5  1  0  0  0  0
  4 20  1  0  0  0  0
  4 21  1  0  0  0  0
  5 10  1  0  0  0  0
  5  6  1  0  0  0  0
  5  9  1  0  0  0  0
  6  8  1  0  0  0  0
  6  7  1  0  0  0  0
  6 22  1  0  0  0  0
  7  8  1  0  0  0  0
  7 23  1  0  0  0  0
  7 24  1  0  0  0  0
  8 25  1  0  0  0  0
  8 26  1  0  0  0  0
  9 10  1  0  0  0  0
  9 27  1  0  0  0  0
  9 28  1  0  0  0  0
 10 29  1  0  0  0  0
 10 30  1  0  0  0  0
 11 12  1  0  0  0  0
 11 31  1  0  0  0  0
 12 18  1  0  0  0  0
 12 13  2  0  0  0  0
 13 14  1  0  0  0  0
 13 32  1  0  0  0  0
 14 15  2  0  0  0  0
 14 33  1  0  0  0  0
 15 16  1  0  0  0  0
 15 17  1  0  0  0  0
 17 18  2  0  0  0  0
 17 34  1  0  0  0  0
M  END
> <s_m_source_file>
AV-unprocessed.smi

> <i_m_source_file_index>
2767

> <i_lp_mmshare_version>
43012

> <i_f3d_flags>
0

> <s_epik_input>
W0NIMl0xW0NIMl1bQ0hdMUMyKFtDSDJdW0NIMl0yKVtDSDJdW05IXUMoPU8pW05IXWMzW2NIXVtjSF1jKEYpW2NIXW4z

> <s_epik_cmdline>
J2VwaWtfcHl0aG9uJywgJy1waCcsICc3LjAnLCAnLXRuJywgJzgnLCAnLW1hJywgJzIwMCcsICctbWV0YWxfYmluZGluZycsICctaW1hZScsICc8aW5maWxlLm1hZT4nLCAnLW9tYWUnLCAnPG91dGZpbGUubWFlPic=

> <r_lp_tautomer_probability>
1

> <r_epik_Ionization_Penalty>
3.94364e-05

> <r_epik_Ionization_Penalty_Charging>
0

> <r_epik_Ionization_Penalty_Neutral>
3.94364e-05

> <r_epik_State_Penalty>
-0

> <r_epik_Charging_Adjusted_Penalty>
0

> <i_epik_Tot_Q>
0

> <i_epik_Tot_abs_Q>
0

> <r_epik_Metal_State_Penalty>
-0

> <b_epik_Metal_Only>
0

> <s_lp_Force_Field>
OPLS_2005

> <r_lp_Energy>
31.6765

> <b_lp_Chiralities_Consistent>
1

> <s_lp_Variant>
AV-unprocessed.smi:2767-1

> <Gold.Version>
5.8.1

> <Gold.Id.Protein>
6NUR|6NUR_protein|mol2

> <Gold.PLP.Fitness>
48.8128

> <Gold.PLP.PLP>
-43.1126

> <Gold.PLP.part.hbond>
-1.8784

> <Gold.PLP.part.metal>
0.0000

> <Gold.PLP.part.buried>
-1.5983

> <Gold.PLP.part.nonpolar>
-40.0513

> <Gold.PLP.part.repulsive>
0.3343

> <Gold.PLP.ligand.clash>
0.0000

> <Gold.PLP.ligand.torsion>
2.0082

> <Gold.PLP.Chemscore.Hbond>
1.7488

> <Gold.PLP.Chemscore.CHOScore>
0.6480

> <Gold.PLP.Chemscore.Metal>
0.0000

> <Gold.Chemscore.Hbonds>
donor molecule, donor type, donor heavy atom, donor atom, acceptor molecule, acceptor atom, score
      L1  H     3    19       P1  8028  0.73
      L1  H    11    31       P1  8028  0.94
      L1  C    17    34       P1 10175  0.74

> <Gold.PLP.Chemscore.Internal.Correction>
2.5261

> <Gold.Rescore>
     Score         DG    S(hbond)    S(metal)    S(lipo)     H(rot)  DE(clash)    DE(int)     intcor
     17.06     -20.54       1.80        0.00     109.37       1.46       0.14       3.35       ----

> <Gold.Chemscore.Fitness>
17.0599

> <Gold.Chemscore.DG>
-20.5440

> <Gold.Chemscore.ZeroCoef>
-5.4800

> <Gold.Chemscore.Hbond>
1.7985

> <Gold.Chemscore.Metal>
0.0000

> <Gold.Chemscore.Lipo>
109.3735

> <Gold.Chemscore.Internal_Hbond>
0.0000

> <Gold.Chemscore.DEClash>
0.1383

> <Gold.Chemscore.DEInternal>
3.3458

> <Gold.Chemscore.Rot>
1.4608

> <Gold.Chemscore.Internal.Correction>
   9.000000E+99

> <Gold.Chemscore.Hbonds>
donor molecule, donor type, donor heavy atom, donor atom, acceptor molecule, acceptor atom, score
      L1  H     3    19       P1  8028  0.60
      L1  H    11    31       P1  8028  0.90

> <Gold.Chemscore.Hbond.Weighted>
-6.0069

> <Gold.Chemscore.Metal.Weighted>
-0.0000

> <Gold.Chemscore.Lipo.Weighted>
-12.7967

> <Gold.Chemscore.Internal_Hbond.Weighted>
0.0000

> <Gold.Chemscore.DEClash.Weighted>
0.1383

> <Gold.Chemscore.DEInternal.Weighted>
3.3458

> <Gold.Chemscore.Rot.Weighted>
3.7396

> <Gold.Chemscore.Internal.Correction.Weighted>
   9.000000E+99

> <Gold.Protein.RotatedTorsions>
[ 6907 6896 6895 6894 ] final  -56.60 input  -60.11 | X-H torsion
[ 7974 7965 7964 7962 ] final  159.89 input  175.53 | X-H torsion
[ 8008 7997 7996 7995 ] final  117.75 input   59.86 | X-H torsion
[ 10167 10162 10161 10158 ] final  121.33 input  -65.29 | X-H torsion
[ 10718 10713 10712 10709 ] final    6.00 input   66.30 | X-H torsion
[ 10763 10752 10751 10750 ] final  -12.74 input  -60.55 | X-H torsion
[ 11005 11000 10999 10996 ] final  174.58 input  -57.11 | X-H torsion

> <Gold.Protein.ActiveResidues>
 VAL166  LYS551  ARG553  GLY616  TRP617  ASP618  TYR619  PRO620  LYS621  CYS622 
 ASP623  PHE694  ASN695  SER759  ASP760  ASP761  ALA762  ILE779  LEU786  VAL792 
 PHE793  MET794  SER795  GLU796  ALA797  LYS798  CYS799  TRP800  GLU811  SER814 

> <Gold.Protein.RotatedAtoms>
  150.8154  134.7333  159.6725 H   0  0  0  0  0  0  0  0  0  0  0  0  # atno 6907 bound_to 6896
  152.4273  134.5841  159.9966 H   0  0  0  0  0  0  0  0  0  0  0  0  # atno 6908 bound_to 6896
  151.6039  133.3316  159.3089 H   0  0  0  0  0  0  0  0  0  0  0  0  # atno 6909 bound_to 6896
  144.7766  139.7681  143.6276 H   0  0  0  0  0  0  0  0  0  0  0  0  # atno 7974 bound_to 7965
  156.2510  140.2889  156.0727 H   0  0  0  0  0  0  0  0  0  0  0  0  # atno 8008 bound_to 7997
  155.1653  140.0400  157.2869 H   0  0  0  0  0  0  0  0  0  0  0  0  # atno 8009 bound_to 7997
  154.6364  140.2511  155.7380 H   0  0  0  0  0  0  0  0  0  0  0  0  # atno 8010 bound_to 7997
  139.5926  144.7030  151.3253 H   0  0  0  0  0  0  0  0  0  0  0  0  # atno 10167 bound_to 10162
  156.9157  130.5772  149.5647 H   0  0  0  0  0  0  0  0  0  0  0  0  # atno 10718 bound_to 10713
  153.5029  135.7017  153.5822 H   0  0  0  0  0  0  0  0  0  0  0  0  # atno 10763 bound_to 10752
  153.3946  135.3887  155.1946 H   0  0  0  0  0  0  0  0  0  0  0  0  # atno 10764 bound_to 10752
  154.8709  135.3866  154.4501 H   0  0  0  0  0  0  0  0  0  0  0  0  # atno 10765 bound_to 10752
  140.3528  134.7180  157.4279 H   0  0  0  0  0  0  0  0  0  0  0  0  # atno 11005 bound_to 11000
  146.1949  139.5209  142.9781 LP  0  0  0  0  0  0  0  0  0  0  0  0  # atno 17320 bound_to 7965
  145.6169  141.0329  143.1936 LP  0  0  0  0  0  0  0  0  0  0  0  0  # atno 17321 bound_to 7965
  140.7186  143.7199  150.7704 LP  0  0  0  0  0  0  0  0  0  0  0  0  # atno 17342 bound_to 10162
  140.0758  143.5017  152.2556 LP  0  0  0  0  0  0  0  0  0  0  0  0  # atno 17343 bound_to 10162
  156.0515  130.5583  150.8999 LP  0  0  0  0  0  0  0  0  0  0  0  0  # atno 17370 bound_to 10713
  157.5940  131.0943  150.9072 LP  0  0  0  0  0  0  0  0  0  0  0  0  # atno 17371 bound_to 10713
  140.0689  134.5890  155.8664 LP  0  0  0  0  0  0  0  0  0  0  0  0  # atno 17394 bound_to 11000
  141.2007  133.6614  156.5911 LP  0  0  0  0  0  0  0  0  0  0  0  0  # atno 17395 bound_to 11000

$$$$
