AV-unprocessed.smi:1740|AV-procd|sdf|7010|dock3
  -GOLD-   22720 8223D 1   1.00000     0.00000
 Structure written by MMmdl.
 53 55  0  0  0  0  0  0  0  0  3 V2000
  150.7205  142.7547  156.2632 N   0  0  0  0  0  0  0  0  0  0  0  0
  150.5811  142.2841  157.5046 C   0  0  0  0  0  0  0  0  0  0  0  0
  149.9316  142.8801  158.3624 O   0  0  0  0  0  0  0  0  0  0  0  0
  151.2567  140.9439  157.8141 C   0  0  0  0  0  0  0  0  0  0  0  0
  150.7469  139.8256  156.9788 N   0  3  2  0  0  0  0  0  0  0  0  0
  150.9255  138.4924  157.6146 C   0  0  0  0  0  0  0  0  0  0  0  0
  150.2632  137.3849  156.7784 C   0  0  0  0  0  0  0  0  0  0  0  0
  150.8133  137.3738  155.3402 C   0  0  1  0  0  0  0  0  0  0  0  0
  150.1230  136.3816  154.5205 N   0  0  0  0  0  0  0  0  0  0  0  0
  150.0654  135.0689  154.7875 C   0  0  0  0  0  0  0  0  0  0  0  0
  150.5743  134.5538  155.7828 O   0  0  0  0  0  0  0  0  0  0  0  0
  149.3717  134.4064  153.8462 N   0  0  0  0  0  0  0  0  0  0  0  0
  149.0793  133.0136  153.7985 C   0  0  0  0  0  0  0  0  0  0  0  0
  149.8597  132.0781  154.5259 C   0  0  0  0  0  0  0  0  0  0  0  0
  149.5988  130.7004  154.4069 C   0  0  0  0  0  0  0  0  0  0  0  0
  148.5709  130.2750  153.5487 C   0  0  0  0  0  0  0  0  0  0  0  0
  147.8545  131.1875  152.8602 N   0  3  0  0  0  0  0  0  0  0  0  0
  148.0474  132.5279  152.9429 C   0  0  0  0  0  0  0  0  0  0  0  0
  147.2098  133.3628  152.1679 N   0  0  0  0  0  0  0  0  0  0  0  0
  146.3804  132.7993  151.1085 C   0  0  0  0  0  0  0  0  0  0  0  0
  145.3741  133.8947  150.7660 C   0  0  0  0  0  0  0  0  0  0  0  0
  145.1298  134.5497  152.1217 C   0  0  0  0  0  0  0  0  0  0  0  0
  146.4894  134.4514  152.8209 C   0  0  0  0  0  0  0  0  0  0  0  0
  150.6513  138.7704  154.7193 C   0  0  0  0  0  0  0  0  0  0  0  0
  151.3012  139.8504  155.6010 C   0  0  0  0  0  0  0  0  0  0  0  0
  150.2885  143.6319  156.0091 H   0  0  0  0  0  0  0  0  0  0  0  0
  151.2502  142.2348  155.5782 H   0  0  0  0  0  0  0  0  0  0  0  0
  152.3226  141.0838  157.6283 H   0  0  0  0  0  0  0  0  0  0  0  0
  151.1528  140.6986  158.8725 H   0  0  0  0  0  0  0  0  0  0  0  0
  151.9902  138.2843  157.7329 H   0  0  0  0  0  0  0  0  0  0  0  0
  150.4928  138.4906  158.6153 H   0  0  0  0  0  0  0  0  0  0  0  0
  150.4316  136.4188  157.2556 H   0  0  0  0  0  0  0  0  0  0  0  0
  149.1829  137.5380  156.7635 H   0  0  0  0  0  0  0  0  0  0  0  0
  151.8784  137.1337  155.3675 H   0  0  0  0  0  0  0  0  0  0  0  0
  149.6724  136.7179  153.6818 H   0  0  0  0  0  0  0  0  0  0  0  0
  148.9250  134.9709  153.1385 H   0  0  0  0  0  0  0  0  0  0  0  0
  150.6744  132.3958  155.1591 H   0  0  0  0  0  0  0  0  0  0  0  0
  150.1881  129.9808  154.9565 H   0  0  0  0  0  0  0  0  0  0  0  0
  148.3042  129.2404  153.3881 H   0  0  0  0  0  0  0  0  0  0  0  0
  146.9785  132.5142  150.2427 H   0  0  0  0  0  0  0  0  0  0  0  0
  145.8496  131.9166  151.4674 H   0  0  0  0  0  0  0  0  0  0  0  0
  145.8231  134.6146  150.0802 H   0  0  0  0  0  0  0  0  0  0  0  0
  144.4643  133.5083  150.3061 H   0  0  0  0  0  0  0  0  0  0  0  0
  144.7671  135.5747  152.0416 H   0  0  0  0  0  0  0  0  0  0  0  0
  144.3889  133.9734  152.6774 H   0  0  0  0  0  0  0  0  0  0  0  0
  146.3728  134.2862  153.8928 H   0  0  0  0  0  0  0  0  0  0  0  0
  147.0489  135.3759  152.6775 H   0  0  0  0  0  0  0  0  0  0  0  0
  151.0973  138.7917  153.7242 H   0  0  0  0  0  0  0  0  0  0  0  0
  149.5924  138.9993  154.5888 H   0  0  0  0  0  0  0  0  0  0  0  0
  151.1278  140.8288  155.1512 H   0  0  0  0  0  0  0  0  0  0  0  0
  152.3821  139.7058  155.6401 H   0  0  0  0  0  0  0  0  0  0  0  0
  149.7521  139.9780  156.8883 H   0  0  0  0  0  0  0  0  0  0  0  0
  147.1164  130.8469  152.2442 H   0  0  0  0  0  0  0  0  0  0  0  0
  1  2  1  0  0  0  0
  1 26  1  0  0  0  0
  1 27  1  0  0  0  0
  2  3  2  0  0  0  0
  2  4  1  0  0  0  0
  4  5  1  0  0  0  0
  4 28  1  0  0  0  0
  4 29  1  0  0  0  0
  5 25  1  0  0  0  0
  5  6  1  0  0  0  0
  5 52  1  0  0  0  0
  6  7  1  0  0  0  0
  6 30  1  0  0  0  0
  6 31  1  0  0  0  0
  7  8  1  0  0  0  0
  7 32  1  0  0  0  0
  7 33  1  0  0  0  0
  8  9  1  0  0  0  0
  8 24  1  0  0  0  0
  8 34  1  0  0  0  0
  9 10  1  0  0  0  0
  9 35  1  0  0  0  0
 10 11  2  0  0  0  0
 10 12  1  0  0  0  0
 12 13  1  0  0  0  0
 12 36  1  0  0  0  0
 13 18  1  0  0  0  0
 13 14  2  0  0  0  0
 14 15  1  0  0  0  0
 14 37  1  0  0  0  0
 15 16  2  0  0  0  0
 15 38  1  0  0  0  0
 16 17  1  0  0  0  0
 16 39  1  0  0  0  0
 17 18  2  0  0  0  0
 17 53  1  0  0  0  0
 18 19  1  0  0  0  0
 19 23  1  0  0  0  0
 19 20  1  0  0  0  0
 20 21  1  0  0  0  0
 20 40  1  0  0  0  0
 20 41  1  0  0  0  0
 21 22  1  0  0  0  0
 21 42  1  0  0  0  0
 21 43  1  0  0  0  0
 22 23  1  0  0  0  0
 22 44  1  0  0  0  0
 22 45  1  0  0  0  0
 23 46  1  0  0  0  0
 23 47  1  0  0  0  0
 24 25  1  0  0  0  0
 24 48  1  0  0  0  0
 24 49  1  0  0  0  0
 25 50  1  0  0  0  0
 25 51  1  0  0  0  0
M  CHG  1   5   1
M  CHG  1  17   1
M  END
> <s_m_source_file>
AV-unprocessed.smi

> <i_m_source_file_index>
1740

> <i_lp_mmshare_version>
43012

> <i_f3d_flags>
0

> <s_epik_input>
W05IMl1DKD1PKVtDSDJdTjFbQ0gyXVtDSDJdW0NIXShbQ0gyXVtDSDJdMSlbTkhdQyg9TylbTkhdYzJbY0hdW2NIXVtjSF1uYzJOM1tDSDJdW0NIMl1bQ0gyXVtDSDJdMw==

> <s_epik_cmdline>
J2VwaWtfcHl0aG9uJywgJy1waCcsICc3LjAnLCAnLXRuJywgJzgnLCAnLW1hJywgJzIwMCcsICctbWV0YWxfYmluZGluZycsICctaW1hZScsICc8aW5maWxlLm1hZT4nLCAnLW9tYWUnLCAnPG91dGZpbGUubWFlPic=

> <r_lp_tautomer_probability>
0.999994

> <r_epik_Ionization_Penalty>
2.11361

> <r_epik_Ionization_Penalty_Charging>
2.11355

> <r_epik_Ionization_Penalty_Neutral>
5.98217e-05

> <r_epik_State_Penalty>
2.13444

> <r_epik_Charging_Adjusted_Penalty>
4.24799

> <i_epik_Tot_Q>
2

> <i_epik_Tot_abs_Q>
2

> <r_epik_Metal_State_Penalty>
2.23528

> <b_epik_Metal_Only>
0

> <s_lp_Force_Field>
OPLS_2005

> <r_lp_Energy>
49.3709

> <b_lp_Chiralities_Consistent>
1

> <s_lp_Variant>
AV-unprocessed.smi:1740-5

> <Gold.Version>
5.8.1

> <Gold.Id.Protein>
6NUR|6NUR_protein|mol2

> <Gold.PLP.Fitness>
46.9678

> <Gold.PLP.PLP>
-38.8359

> <Gold.PLP.part.hbond>
-4.3776

> <Gold.PLP.part.metal>
0.0000

> <Gold.PLP.part.buried>
-4.4282

> <Gold.PLP.part.nonpolar>
-30.5499

> <Gold.PLP.part.repulsive>
0.5818

> <Gold.PLP.ligand.clash>
0.0000

> <Gold.PLP.ligand.torsion>
0.4944

> <Gold.PLP.Chemscore.Hbond>
2.8960

> <Gold.PLP.Chemscore.CHOScore>
0.0000

> <Gold.PLP.Chemscore.Metal>
0.0000

> <Gold.Chemscore.Hbonds>
donor molecule, donor type, donor heavy atom, donor atom, acceptor molecule, acceptor atom, score
      L1  H     1    26       P1  8028  1.00
      L1  H     9    35       P1  7948  0.91
      L1  H    12    36       P1  7948  0.95

> <Gold.PLP.Chemscore.Internal.Correction>
0.4328

> <Gold.Rescore>
     Score         DG    S(hbond)    S(metal)    S(lipo)     H(rot)  DE(clash)    DE(int)     intcor
     12.84     -15.64       2.22        0.00      71.95       2.22       0.01       2.79       ----

> <Gold.Chemscore.Fitness>
12.8425

> <Gold.Chemscore.DG>
-15.6384

> <Gold.Chemscore.ZeroCoef>
-5.4800

> <Gold.Chemscore.Hbond>
2.2229

> <Gold.Chemscore.Metal>
0.0000

> <Gold.Chemscore.Lipo>
71.9541

> <Gold.Chemscore.Internal_Hbond>
0.0000

> <Gold.Chemscore.DEClash>
0.0098

> <Gold.Chemscore.DEInternal>
2.7861

> <Gold.Chemscore.Rot>
2.2207

> <Gold.Chemscore.Internal.Correction>
   9.000000E+99

> <Gold.Chemscore.Hbonds>
donor molecule, donor type, donor heavy atom, donor atom, acceptor molecule, acceptor atom, score
      L1  H     1    26       P1  8028  0.99
      L1  H     9    35       P1  7948  0.56
      L1  H    12    36       P1  7948  0.21

> <Gold.Chemscore.Hbond.Weighted>
-7.4246

> <Gold.Chemscore.Metal.Weighted>
-0.0000

> <Gold.Chemscore.Lipo.Weighted>
-8.4186

> <Gold.Chemscore.Internal_Hbond.Weighted>
0.0000

> <Gold.Chemscore.DEClash.Weighted>
0.0098

> <Gold.Chemscore.DEInternal.Weighted>
2.7861

> <Gold.Chemscore.Rot.Weighted>
5.6849

> <Gold.Chemscore.Internal.Correction.Weighted>
   9.000000E+99

> <Gold.Protein.RotatedTorsions>
[ 6907 6896 6895 6894 ] final  122.04 input  -60.11 | X-H torsion
[ 7974 7965 7964 7962 ] final   86.05 input  175.53 | X-H torsion
[ 8008 7997 7996 7995 ] final  128.37 input   59.86 | X-H torsion
[ 10167 10162 10161 10158 ] final  103.54 input  -65.29 | X-H torsion
[ 10718 10713 10712 10709 ] final   98.60 input   66.30 | X-H torsion
[ 10763 10752 10751 10750 ] final -124.13 input  -60.55 | X-H torsion
[ 11005 11000 10999 10996 ] final   88.11 input  -57.11 | X-H torsion

> <Gold.Protein.ActiveResidues>
 VAL166  LYS551  ARG553  GLY616  TRP617  ASP618  TYR619  PRO620  LYS621  CYS622 
 ASP623  PHE694  ASN695  SER759  ASP760  ASP761  ALA762  ILE779  LEU786  VAL792 
 PHE793  MET794  SER795  GLU796  ALA797  LYS798  CYS799  TRP800  GLU811  SER814 

> <Gold.Protein.RotatedAtoms>
  152.4274  133.7219  159.6537 H   0  0  0  0  0  0  0  0  0  0  0  0  # atno 6907 bound_to 6896
  150.8151  133.8341  159.3170 H   0  0  0  0  0  0  0  0  0  0  0  0  # atno 6908 bound_to 6896
  151.6039  135.1047  160.0118 H   0  0  0  0  0  0  0  0  0  0  0  0  # atno 6909 bound_to 6896
  145.5774  139.2321  143.2372 H   0  0  0  0  0  0  0  0  0  0  0  0  # atno 7974 bound_to 7965
  156.2913  140.2646  156.2424 H   0  0  0  0  0  0  0  0  0  0  0  0  # atno 8008 bound_to 7997
  154.9964  140.0388  157.2359 H   0  0  0  0  0  0  0  0  0  0  0  0  # atno 8009 bound_to 7997
  154.7641  140.2766  155.6195 H   0  0  0  0  0  0  0  0  0  0  0  0  # atno 8010 bound_to 7997
  139.7254  144.7048  151.0806 H   0  0  0  0  0  0  0  0  0  0  0  0  # atno 10167 bound_to 10162
  157.6892  131.0645  150.4821 H   0  0  0  0  0  0  0  0  0  0  0  0  # atno 10718 bound_to 10713
  154.8718  135.4074  154.3055 H   0  0  0  0  0  0  0  0  0  0  0  0  # atno 10763 bound_to 10752
  153.3907  135.7015  153.6502 H   0  0  0  0  0  0  0  0  0  0  0  0  # atno 10764 bound_to 10752
  153.5286  135.3672  155.2636 H   0  0  0  0  0  0  0  0  0  0  0  0  # atno 10765 bound_to 10752
  139.8904  134.8466  156.2955 H   0  0  0  0  0  0  0  0  0  0  0  0  # atno 11005 bound_to 11000
  146.1740  140.6601  142.9220 LP  0  0  0  0  0  0  0  0  0  0  0  0  # atno 17320 bound_to 7965
  144.7409  140.4940  143.6870 LP  0  0  0  0  0  0  0  0  0  0  0  0  # atno 17321 bound_to 7965
  140.7762  143.5111  150.9651 LP  0  0  0  0  0  0  0  0  0  0  0  0  # atno 17342 bound_to 10162
  139.8799  143.7085  152.3158 LP  0  0  0  0  0  0  0  0  0  0  0  0  # atno 17343 bound_to 10162
  156.5153  130.4149  149.6279 LP  0  0  0  0  0  0  0  0  0  0  0  0  # atno 17370 bound_to 10713
  156.3204  130.7277  151.2188 LP  0  0  0  0  0  0  0  0  0  0  0  0  # atno 17371 bound_to 10713
  140.9948  133.7187  156.0869 LP  0  0  0  0  0  0  0  0  0  0  0  0  # atno 17394 bound_to 11000
  140.7577  134.3974  157.5531 LP  0  0  0  0  0  0  0  0  0  0  0  0  # atno 17395 bound_to 11000

$$$$
