AV-unprocessed.smi:157|AV-procd|sdf|1305|dock3
  -GOLD-   2262018593D 1   1.00000     0.00000
 Structure written by MMmdl.
 35 37  0  0  0  0  0  0  0  0  1 V2000
  151.6171  142.4181  162.2677 O   0  0  0  0  0  0  0  0  0  0  0  0
  151.8979  143.5789  161.5148 C   0  0  0  0  0  0  0  0  0  0  0  0
  151.9964  143.2354  160.0182 C   0  0  1  0  0  0  0  0  0  0  0  0
  151.0140  142.2758  159.6464 O   0  0  0  0  0  0  0  0  0  0  0  0
  150.7706  142.3482  158.2714 C   0  0  2  0  0  0  0  0  0  0  0  0
  151.3905  141.1570  157.6017 N   0  0  0  0  0  0  0  0  0  0  0  0
  152.4233  140.4276  158.0465 C   0  0  0  0  0  0  0  0  0  0  0  0
  152.7747  139.4310  157.2525 N   0  0  0  0  0  0  0  0  0  0  0  0
  151.8733  139.5119  156.1911 C   0  0  0  0  0  0  0  0  0  0  0  0
  151.0186  140.5894  156.3791 C   0  0  0  0  0  0  0  0  0  0  0  0
  149.9764  141.1766  155.6844 N   0  0  0  0  0  0  0  0  0  0  0  0
  149.7445  140.8027  154.4646 C   0  0  0  0  0  0  0  0  0  0  0  0
  150.3183  139.7975  153.6978 N   0  0  0  0  0  0  0  0  0  0  0  0
  150.6672  138.4900  154.2189 C   0  0  0  0  0  0  0  0  0  0  0  0
  151.9458  138.5297  155.0560 C   0  0  2  0  0  0  0  0  0  0  0  0
  152.1516  137.2491  155.6181 O   0  0  0  0  0  0  0  0  0  0  0  0
  151.4225  143.6389  157.7510 C   0  0  0  0  0  0  0  0  0  0  0  0
  151.7706  144.3833  159.0266 C   0  0  1  0  0  0  0  0  0  0  0  0
  150.7066  145.2296  159.4197 O   0  0  0  0  0  0  0  0  0  0  0  0
  152.9728  142.7900  159.8181 H   0  0  0  0  0  0  0  0  0  0  0  0
  149.7017  142.2709  158.0692 H   0  0  0  0  0  0  0  0  0  0  0  0
  152.7964  138.7658  154.4157 H   0  0  0  0  0  0  0  0  0  0  0  0
  152.6668  144.9932  158.9069 H   0  0  0  0  0  0  0  0  0  0  0  0
  151.6712  142.6360  163.1857 H   0  0  0  0  0  0  0  0  0  0  0  0
  151.0929  144.2957  161.6778 H   0  0  0  0  0  0  0  0  0  0  0  0
  152.8136  144.0431  161.8816 H   0  0  0  0  0  0  0  0  0  0  0  0
  152.9376  140.6307  158.9743 H   0  0  0  0  0  0  0  0  0  0  0  0
  148.9674  141.3278  153.9073 H   0  0  0  0  0  0  0  0  0  0  0  0
  150.1222  139.7679  152.7074 H   0  0  0  0  0  0  0  0  0  0  0  0
  149.8344  138.1199  154.8193 H   0  0  0  0  0  0  0  0  0  0  0  0
  150.7845  137.7986  153.3841 H   0  0  0  0  0  0  0  0  0  0  0  0
  152.1180  137.3319  156.5591 H   0  0  0  0  0  0  0  0  0  0  0  0
  152.3328  143.3986  157.1986 H   0  0  0  0  0  0  0  0  0  0  0  0
  150.7481  144.1821  157.0876 H   0  0  0  0  0  0  0  0  0  0  0  0
  150.1901  144.7766  160.0687 H   0  0  0  0  0  0  0  0  0  0  0  0
  1  2  1  0  0  0  0
  1 24  1  0  0  0  0
  2  3  1  0  0  0  0
  2 25  1  0  0  0  0
  2 26  1  0  0  0  0
  3 20  1  0  0  0  0
  3 18  1  0  0  0  0
  3  4  1  0  0  0  0
  4  5  1  0  0  0  0
  5 21  1  0  0  0  0
  5  6  1  0  0  0  0
  5 17  1  0  0  0  0
  6 10  1  0  0  0  0
  6  7  1  0  0  0  0
  7  8  2  0  0  0  0
  7 27  1  0  0  0  0
  8  9  1  0  0  0  0
  9 15  1  0  0  0  0
  9 10  2  0  0  0  0
 10 11  1  0  0  0  0
 11 12  2  0  0  0  0
 12 13  1  0  0  0  0
 12 28  1  0  0  0  0
 13 14  1  0  0  0  0
 13 29  1  0  0  0  0
 14 15  1  0  0  0  0
 14 30  1  0  0  0  0
 14 31  1  0  0  0  0
 15 22  1  0  0  0  0
 15 16  1  0  0  0  0
 16 32  1  0  0  0  0
 17 18  1  0  0  0  0
 17 33  1  0  0  0  0
 17 34  1  0  0  0  0
 18 23  1  0  0  0  0
 18 19  1  0  0  0  0
 19 35  1  0  0  0  0
M  END
> <s_m_source_file>
AV-unprocessed.smi

> <i_m_source_file_index>
157

> <i_lp_mmshare_version>
43012

> <i_f3d_flags>
0

> <s_epik_input>
W09IXVtDSDJdW0NASF0xT1tDQEhdKFtDSDJdW0NAQEhdMVtPSF0pbihbY0hdbjIpYyhjMjMpTj1bQ0hdW05IXVtDSDJdW0NASF0zW09IXQ==

> <s_epik_cmdline>
J2VwaWtfcHl0aG9uJywgJy1waCcsICc3LjAnLCAnLXRuJywgJzgnLCAnLW1hJywgJzIwMCcsICctbWV0YWxfYmluZGluZycsICctaW1hZScsICc8aW5maWxlLm1hZT4nLCAnLW9tYWUnLCAnPG91dGZpbGUubWFlPic=

> <r_lp_tautomer_probability>
1

> <r_epik_Ionization_Penalty>
0.0357149

> <r_epik_Ionization_Penalty_Charging>
0.0355056

> <r_epik_Ionization_Penalty_Neutral>
0.000209255

> <r_epik_State_Penalty>
0.0296046

> <r_epik_Charging_Adjusted_Penalty>
0.0651102

> <i_epik_Tot_Q>
0

> <i_epik_Tot_abs_Q>
0

> <r_epik_Metal_State_Penalty>
3.03559e-05

> <b_epik_Metal_Only>
0

> <s_epik_Chemistry_Notes>
This compound has an imine and may undergo hydrolysis. This compound contains an acetal/aminal-like group ( X-CH(R)-Y where X, Y are N, S, or O) that may be acid/base labile, releasing an aldehyde.

> <s_lp_Force_Field>
OPLS_2005

> <r_lp_Energy>
41.6449

> <b_lp_Chiralities_Consistent>
1

> <s_lp_Variant>
AV-unprocessed.smi:157-15

> <Gold.Version>
5.8.1

> <Gold.Id.Protein>
6NUR|6NUR_protein|mol2

> <Gold.PLP.Fitness>
49.8270

> <Gold.PLP.PLP>
-40.9794

> <Gold.PLP.part.hbond>
-6.0000

> <Gold.PLP.part.metal>
0.0000

> <Gold.PLP.part.buried>
-5.6238

> <Gold.PLP.part.nonpolar>
-31.2586

> <Gold.PLP.part.repulsive>
1.6348

> <Gold.PLP.ligand.clash>
0.0000

> <Gold.PLP.ligand.torsion>
0.9231

> <Gold.PLP.Chemscore.Hbond>
3.5624

> <Gold.PLP.Chemscore.CHOScore>
0.0000

> <Gold.PLP.Chemscore.Metal>
0.0000

> <Gold.Chemscore.Hbonds>
donor molecule, donor type, donor heavy atom, donor atom, acceptor molecule, acceptor atom, score
      L1  H    13    29       P1  7957  1.00
      P1  H  6933  6945       L1     1  0.95
      P1  H  7997  8008       L1     8  0.74
      P1  H 10752 10765       L1    16  0.83

> <Gold.PLP.Chemscore.Internal.Correction>
0.0067

> <Gold.Rescore>
     Score         DG    S(hbond)    S(metal)    S(lipo)     H(rot)  DE(clash)    DE(int)     intcor
     10.60     -13.37       2.80        0.00      66.97       3.64       1.86       0.90       ----

> <Gold.Chemscore.Fitness>
10.6049

> <Gold.Chemscore.DG>
-13.3676

> <Gold.Chemscore.ZeroCoef>
-5.4800

> <Gold.Chemscore.Hbond>
2.8025

> <Gold.Chemscore.Metal>
0.0000

> <Gold.Chemscore.Lipo>
66.9731

> <Gold.Chemscore.Internal_Hbond>
0.0000

> <Gold.Chemscore.DEClash>
1.8578

> <Gold.Chemscore.DEInternal>
0.9049

> <Gold.Chemscore.Rot>
3.6362

> <Gold.Chemscore.Internal.Correction>
   9.000000E+99

> <Gold.Chemscore.Hbonds>
donor molecule, donor type, donor heavy atom, donor atom, acceptor molecule, acceptor atom, score
      L1  H    13    29       P1  7957  0.99
      P1  H  6933  6945       L1     1  0.20
      P1  H  7997  8008       L1     8  0.08
      P1  H 10752 10765       L1    16  0.75

> <Gold.Chemscore.Hbond.Weighted>
-9.3605

> <Gold.Chemscore.Metal.Weighted>
-0.0000

> <Gold.Chemscore.Lipo.Weighted>
-7.8359

> <Gold.Chemscore.Internal_Hbond.Weighted>
0.0000

> <Gold.Chemscore.DEClash.Weighted>
1.8578

> <Gold.Chemscore.DEInternal.Weighted>
0.9049

> <Gold.Chemscore.Rot.Weighted>
9.3087

> <Gold.Chemscore.Internal.Correction.Weighted>
   9.000000E+99

> <Gold.Protein.RotatedTorsions>
[ 6907 6896 6895 6894 ] final  142.26 input  -60.11 | X-H torsion
[ 7974 7965 7964 7962 ] final  117.60 input  175.53 | X-H torsion
[ 8008 7997 7996 7995 ] final  -85.97 input   59.86 | X-H torsion
[ 10167 10162 10161 10158 ] final -130.11 input  -65.29 | X-H torsion
[ 10718 10713 10712 10709 ] final   60.49 input   66.30 | X-H torsion
[ 10763 10752 10751 10750 ] final -164.88 input  -60.55 | X-H torsion
[ 11005 11000 10999 10996 ] final   11.02 input  -57.11 | X-H torsion

> <Gold.Protein.ActiveResidues>
 VAL166  LYS551  ARG553  GLY616  TRP617  ASP618  TYR619  PRO620  LYS621  CYS622 
 ASP623  PHE694  ASN695  SER759  ASP760  ASP761  ALA762  ILE779  LEU786  VAL792 
 PHE793  MET794  SER795  GLU796  ALA797  LYS798  CYS799  TRP800  GLU811  SER814 

> <Gold.Protein.RotatedAtoms>
  152.2209  133.4983  159.5161 H   0  0  0  0  0  0  0  0  0  0  0  0  # atno 6907 bound_to 6896
  150.7012  134.1343  159.4090 H   0  0  0  0  0  0  0  0  0  0  0  0  # atno 6908 bound_to 6896
  151.9264  135.0275  160.0576 H   0  0  0  0  0  0  0  0  0  0  0  0  # atno 6909 bound_to 6896
  145.1654  139.3131  143.4495 H   0  0  0  0  0  0  0  0  0  0  0  0  # atno 7974 bound_to 7965
  154.6466  140.0584  156.9908 H   0  0  0  0  0  0  0  0  0  0  0  0  # atno 8008 bound_to 7997
  155.1435  140.3267  155.4428 H   0  0  0  0  0  0  0  0  0  0  0  0  # atno 8009 bound_to 7997
  156.2556  140.1960  156.6549 H   0  0  0  0  0  0  0  0  0  0  0  0  # atno 8010 bound_to 7997
  139.9327  143.6253  152.2525 H   0  0  0  0  0  0  0  0  0  0  0  0  # atno 10167 bound_to 10162
  157.5756  130.8941  149.9342 H   0  0  0  0  0  0  0  0  0  0  0  0  # atno 10718 bound_to 10713
  154.6986  135.2984  154.9374 H   0  0  0  0  0  0  0  0  0  0  0  0  # atno 10763 bound_to 10752
  154.0314  135.6669  153.4785 H   0  0  0  0  0  0  0  0  0  0  0  0  # atno 10764 bound_to 10752
  153.0664  135.5085  154.8117 H   0  0  0  0  0  0  0  0  0  0  0  0  # atno 10765 bound_to 10752
  140.5079  134.0681  155.7810 H   0  0  0  0  0  0  0  0  0  0  0  0  # atno 11005 bound_to 11000
  146.3476  140.1779  142.8589 LP  0  0  0  0  0  0  0  0  0  0  0  0  # atno 17320 bound_to 7965
  145.0288  140.8854  143.5122 LP  0  0  0  0  0  0  0  0  0  0  0  0  # atno 17321 bound_to 7965
  139.6769  144.7658  151.1680 LP  0  0  0  0  0  0  0  0  0  0  0  0  # atno 17342 bound_to 10162
  140.7633  143.5782  150.8923 LP  0  0  0  0  0  0  0  0  0  0  0  0  # atno 17343 bound_to 10162
  156.0801  130.3674  150.0597 LP  0  0  0  0  0  0  0  0  0  0  0  0  # atno 17370 bound_to 10713
  156.8744  130.9535  151.3606 LP  0  0  0  0  0  0  0  0  0  0  0  0  # atno 17371 bound_to 10713
  141.1401  133.9153  157.2346 LP  0  0  0  0  0  0  0  0  0  0  0  0  # atno 17394 bound_to 11000
  139.9675  135.0138  156.9426 LP  0  0  0  0  0  0  0  0  0  0  0  0  # atno 17395 bound_to 11000

$$$$
