AV-unprocessed.smi:2886|AV-procd|sdf|11089|dock7
  -GOLD-   2272015563D 1   1.00000     0.00000
 Structure written by MMmdl.
 28 30  0  0  0  0  0  0  0  0  1 V2000
  151.8737  137.4461  154.2999 O   0  0  0  0  0  0  0  0  0  0  0  0
  151.3830  138.4736  154.7638 C   0  0  0  0  0  0  0  0  0  0  0  0
  150.4766  139.2002  154.0689 N   0  0  0  0  0  0  0  0  0  0  0  0
  149.8576  140.3528  154.4871 N   0  0  0  0  0  0  0  0  0  0  0  0
  150.1543  140.8210  155.6511 C   0  0  0  0  0  0  0  0  0  0  0  0
  151.1219  140.1828  156.5375 C   0  0  0  0  0  0  0  0  0  0  0  0
  151.4402  140.6878  157.7916 N   0  0  0  0  0  0  0  0  0  0  0  0
  150.9198  141.8768  158.4532 C   0  0  2  0  0  0  0  0  0  0  0  0
  151.0822  143.1474  157.6181 C   0  0  0  0  0  0  0  0  0  0  0  0
  151.8113  144.0731  158.6029 C   0  0  2  0  0  0  0  0  0  0  0  0
  153.2869  143.6818  158.7549 C   0  0  0  0  0  0  0  0  0  0  0  0
  153.1844  142.3929  159.5684 C   0  0  0  0  0  0  0  0  0  0  0  0
  151.6636  142.2490  159.7472 C   0  0  1  0  0  0  0  0  0  0  0  0
  151.2953  143.6149  159.8425 O   0  0  0  0  0  0  0  0  0  0  0  0
  151.6993  139.0354  156.0843 C   0  0  0  0  0  0  0  0  0  0  0  0
  152.8505  138.1859  157.0605 Cl  0  0  0  0  0  0  0  0  0  0  0  0
  150.1986  138.8915  153.1483 H   0  0  0  0  0  0  0  0  0  0  0  0
  149.6810  141.7268  156.0282 H   0  0  0  0  0  0  0  0  0  0  0  0
  152.2275  140.2606  158.2593 H   0  0  0  0  0  0  0  0  0  0  0  0
  149.8589  141.7514  158.6690 H   0  0  0  0  0  0  0  0  0  0  0  0
  151.6511  142.9996  156.6990 H   0  0  0  0  0  0  0  0  0  0  0  0
  150.1059  143.5523  157.3501 H   0  0  0  0  0  0  0  0  0  0  0  0
  151.6528  145.1350  158.4131 H   0  0  0  0  0  0  0  0  0  0  0  0
  153.7810  143.5389  157.7934 H   0  0  0  0  0  0  0  0  0  0  0  0
  153.8355  144.4423  159.3119 H   0  0  0  0  0  0  0  0  0  0  0  0
  153.6402  141.5369  159.0701 H   0  0  0  0  0  0  0  0  0  0  0  0
  153.6731  142.5169  160.5353 H   0  0  0  0  0  0  0  0  0  0  0  0
  151.3756  141.6456  160.6086 H   0  0  0  0  0  0  0  0  0  0  0  0
  1  2  2  0  0  0  0
  2 15  1  0  0  0  0
  2  3  1  0  0  0  0
  3 17  1  0  0  0  0
  3  4  1  0  0  0  0
  4  5  2  0  0  0  0
  5  6  1  0  0  0  0
  5 18  1  0  0  0  0
  6  7  1  0  0  0  0
  6 15  2  0  0  0  0
  7  8  1  0  0  0  0
  7 19  1  0  0  0  0
  8 13  1  0  0  0  0
  8  9  1  0  0  0  0
  8 20  1  0  0  0  0
  9 10  1  0  0  0  0
  9 21  1  0  0  0  0
  9 22  1  0  0  0  0
 10 14  1  0  0  0  0
 10 11  1  0  0  0  0
 10 23  1  0  0  0  0
 11 12  1  0  0  0  0
 11 24  1  0  0  0  0
 11 25  1  0  0  0  0
 12 13  1  0  0  0  0
 12 26  1  0  0  0  0
 12 27  1  0  0  0  0
 13 14  1  0  0  0  0
 13 28  1  0  0  0  0
 15 16  1  0  0  0  0
M  END
> <s_m_source_file>
AV-unprocessed.smi

> <i_m_source_file_index>
2886

> <i_lp_mmshare_version>
43012

> <i_f3d_flags>
0

> <s_epik_input>
Tz1jMVtuSF1uW2NIXWMoYzFDbClbTkhdW0NASF0oW0NIMl1bQ0BASF0yMylbQ0BASF0oTzMpW0NIMl1bQ0gyXTI=

> <s_epik_cmdline>
J2VwaWtfcHl0aG9uJywgJy1waCcsICc3LjAnLCAnLXRuJywgJzgnLCAnLW1hJywgJzIwMCcsICctbWV0YWxfYmluZGluZycsICctaW1hZScsICc8aW5maWxlLm1hZT4nLCAnLW9tYWUnLCAnPG91dGZpbGUubWFlPic=

> <r_lp_tautomer_probability>
0.986175

> <r_epik_Ionization_Penalty>
0.000975594

> <r_epik_Ionization_Penalty_Charging>
0.000940184

> <r_epik_Ionization_Penalty_Neutral>
3.54099e-05

> <r_epik_State_Penalty>
0.00620319

> <r_epik_Charging_Adjusted_Penalty>
0.00714337

> <i_epik_Tot_Q>
0

> <i_epik_Tot_abs_Q>
0

> <r_epik_Metal_State_Penalty>
0.287699

> <b_epik_Metal_Only>
0

> <s_lp_Force_Field>
OPLS_2005

> <r_lp_Energy>
55.2825

> <b_lp_Chiralities_Consistent>
1

> <s_lp_Variant>
AV-unprocessed.smi:2886-3

> <Gold.Version>
5.8.1

> <Gold.Id.Protein>
6NUR|6NUR_protein|mol2

> <Gold.PLP.Fitness>
33.0191

> <Gold.PLP.PLP>
-29.7254

> <Gold.PLP.part.hbond>
-3.0000

> <Gold.PLP.part.metal>
0.0000

> <Gold.PLP.part.buried>
-4.4655

> <Gold.PLP.part.nonpolar>
-25.6158

> <Gold.PLP.part.repulsive>
1.9174

> <Gold.PLP.ligand.clash>
0.0000

> <Gold.PLP.ligand.torsion>
0.0534

> <Gold.PLP.Chemscore.Hbond>
1.1305

> <Gold.PLP.Chemscore.CHOScore>
0.0000

> <Gold.PLP.Chemscore.Metal>
0.0000

> <Gold.Chemscore.Hbonds>
donor molecule, donor type, donor heavy atom, donor atom, acceptor molecule, acceptor atom, score
      L1  H     3    17       P1  7957  0.13
      P1  H 10752 10764       L1     1  0.83

> <Gold.PLP.Chemscore.Internal.Correction>
0.0090

> <Gold.Rescore>
     Score         DG    S(hbond)    S(metal)    S(lipo)     H(rot)  DE(clash)    DE(int)     intcor
     15.99     -16.08       0.94        0.00      85.67       1.00       0.06       0.03       ----

> <Gold.Chemscore.Fitness>
15.9900

> <Gold.Chemscore.DG>
-16.0757

> <Gold.Chemscore.ZeroCoef>
-5.4800

> <Gold.Chemscore.Hbond>
0.9379

> <Gold.Chemscore.Metal>
0.0000

> <Gold.Chemscore.Lipo>
85.6666

> <Gold.Chemscore.Internal_Hbond>
0.0000

> <Gold.Chemscore.DEClash>
0.0553

> <Gold.Chemscore.DEInternal>
0.0304

> <Gold.Chemscore.Rot>
1.0000

> <Gold.Chemscore.Internal.Correction>
   9.000000E+99

> <Gold.Chemscore.Hbonds>
donor molecule, donor type, donor heavy atom, donor atom, acceptor molecule, acceptor atom, score
      L1  H     3    17       P1  7957  0.10
      P1  H 10752 10764       L1     1  0.78

> <Gold.Chemscore.Hbond.Weighted>
-3.1327

> <Gold.Chemscore.Metal.Weighted>
-0.0000

> <Gold.Chemscore.Lipo.Weighted>
-10.0230

> <Gold.Chemscore.Internal_Hbond.Weighted>
0.0000

> <Gold.Chemscore.DEClash.Weighted>
0.0553

> <Gold.Chemscore.DEInternal.Weighted>
0.0304

> <Gold.Chemscore.Rot.Weighted>
2.5600

> <Gold.Chemscore.Internal.Correction.Weighted>
   9.000000E+99

> <Gold.Protein.RotatedTorsions>
[ 6907 6896 6895 6894 ] final -136.37 input  -60.11 | X-H torsion
[ 7974 7965 7964 7962 ] final -110.33 input  175.53 | X-H torsion
[ 8008 7997 7996 7995 ] final  175.43 input   59.86 | X-H torsion
[ 10167 10162 10161 10158 ] final  135.70 input  -65.29 | X-H torsion
[ 10718 10713 10712 10709 ] final -104.43 input   66.30 | X-H torsion
[ 10763 10752 10751 10750 ] final  -86.45 input  -60.55 | X-H torsion
[ 11005 11000 10999 10996 ] final  -73.61 input  -57.11 | X-H torsion

> <Gold.Protein.ActiveResidues>
 VAL166  LYS551  ARG553  GLY616  TRP617  ASP618  TYR619  PRO620  LYS621  CYS622 
 ASP623  PHE694  ASN695  SER759  ASP760  ASP761  ALA762  ILE779  LEU786  VAL792 
 PHE793  MET794  SER795  GLU796  ALA797  LYS798  CYS799  TRP800  GLU811  SER814 

> <Gold.Protein.RotatedAtoms>
  151.0093  133.5981  159.2684 H   0  0  0  0  0  0  0  0  0  0  0  0  # atno 6907 bound_to 6896
  151.3138  135.0800  159.9291 H   0  0  0  0  0  0  0  0  0  0  0  0  # atno 6908 bound_to 6896
  152.5295  133.9752  159.7835 H   0  0  0  0  0  0  0  0  0  0  0  0  # atno 6909 bound_to 6896
  145.1695  140.8919  143.3543 H   0  0  0  0  0  0  0  0  0  0  0  0  # atno 7974 bound_to 7965
  156.0871  140.1409  156.9640 H   0  0  0  0  0  0  0  0  0  0  0  0  # atno 8008 bound_to 7997
  154.4619  140.0940  156.6964 H   0  0  0  0  0  0  0  0  0  0  0  0  # atno 8009 bound_to 7997
  155.4981  140.3450  155.4368 H   0  0  0  0  0  0  0  0  0  0  0  0  # atno 8010 bound_to 7997
  139.5207  144.6503  151.5320 H   0  0  0  0  0  0  0  0  0  0  0  0  # atno 10167 bound_to 10162
  156.0304  130.5515  150.7395 H   0  0  0  0  0  0  0  0  0  0  0  0  # atno 10718 bound_to 10713
  154.6226  135.5448  153.7592 H   0  0  0  0  0  0  0  0  0  0  0  0  # atno 10763 bound_to 10752
  153.0246  135.6416  154.1418 H   0  0  0  0  0  0  0  0  0  0  0  0  # atno 10764 bound_to 10752
  154.1351  135.2912  155.3155 H   0  0  0  0  0  0  0  0  0  0  0  0  # atno 10765 bound_to 10752
  141.1625  133.6884  156.7237 H   0  0  0  0  0  0  0  0  0  0  0  0  # atno 11005 bound_to 11000
  145.0247  139.3393  143.6055 LP  0  0  0  0  0  0  0  0  0  0  0  0  # atno 17320 bound_to 7965
  146.3470  139.9561  142.8723 LP  0  0  0  0  0  0  0  0  0  0  0  0  # atno 17321 bound_to 7965
  140.6306  143.9084  150.6602 LP  0  0  0  0  0  0  0  0  0  0  0  0  # atno 17342 bound_to 10162
  140.2387  143.3680  152.1505 LP  0  0  0  0  0  0  0  0  0  0  0  0  # atno 17343 bound_to 10162
  157.4967  131.0915  151.0363 LP  0  0  0  0  0  0  0  0  0  0  0  0  # atno 17370 bound_to 10713
  157.0755  130.5881  149.5410 LP  0  0  0  0  0  0  0  0  0  0  0  0  # atno 17371 bound_to 10713
  140.2797  134.8327  157.3922 LP  0  0  0  0  0  0  0  0  0  0  0  0  # atno 17394 bound_to 11000
  140.1445  134.4929  155.8006 LP  0  0  0  0  0  0  0  0  0  0  0  0  # atno 17395 bound_to 11000

$$$$
