AV-unprocessed.smi:227|AV-procd|sdf|1727|dock7
  -GOLD-   2262020213D 1   1.00000     0.00000
 Structure written by MMmdl.
 54 58  0  0  0  0  0  0  0  0  1 V2000
  145.1029  133.3565  158.6139 O   0  0  0  0  0  0  0  0  0  0  0  0
  145.9704  133.4231  159.7265 C   0  0  0  0  0  0  0  0  0  0  0  0
  146.6411  134.8165  159.8363 C   0  0  2  0  0  0  0  0  0  0  0  0
  147.6024  135.0638  158.6365 C   0  0  0  0  0  0  0  0  0  0  0  0
  148.0292  136.4479  158.4858 N   0  0  0  0  0  0  0  0  0  0  0  0
  147.2317  137.5333  158.2047 C   0  0  0  0  0  0  0  0  0  0  0  0
  147.8562  138.6749  158.1226 N   0  0  0  0  0  0  0  0  0  0  0  0
  149.1908  138.3604  158.3519 C   0  0  0  0  0  0  0  0  0  0  0  0
  150.4035  139.1108  158.4113 C   0  0  0  0  0  0  0  0  0  0  0  0
  150.4947  140.4593  158.2382 N   0  0  0  0  0  0  0  0  0  0  0  0
  151.5191  141.0522  157.3905 C   0  0  2  0  0  0  0  0  0  0  0  0
  151.3441  142.5551  157.6670 C   0  0  0  0  0  0  0  0  0  0  0  0
  149.8245  142.6516  157.8608 C   0  0  0  0  0  0  0  0  0  0  0  0
  149.3961  141.1920  157.6202 C   0  0  1  0  0  0  0  0  0  0  0  0
  149.5118  140.8046  156.1228 C   0  0  1  0  0  0  0  0  0  0  0  0
  148.7707  141.7114  155.1228 C   0  0  0  0  0  0  0  0  0  0  0  0
  148.9795  141.2464  153.8066 O   0  0  0  0  0  0  0  0  0  0  0  0
  151.0426  140.7511  155.9545 C   0  0  0  0  0  0  0  0  0  0  0  0
  151.5506  138.4157  158.6340 N   0  0  0  0  0  0  0  0  0  0  0  0
  151.5232  137.0923  158.8081 C   0  0  0  0  0  0  0  0  0  0  0  0
  150.4722  136.2729  158.7944 N   0  0  0  0  0  0  0  0  0  0  0  0
  149.3155  136.9558  158.5622 C   0  0  0  0  0  0  0  0  0  0  0  0
  147.3290  135.0099  161.2246 C   0  0  2  0  0  0  0  0  0  0  0  0
  146.3791  134.9960  162.4200 C   0  0  0  0  0  0  0  0  0  0  0  0
  145.8776  136.4372  162.5079 C   0  0  0  0  0  0  0  0  0  0  0  0
  146.8554  137.2308  161.8456 O   0  0  0  0  0  0  0  0  0  0  0  0
  147.9374  136.4032  161.4433 C   0  0  0  0  0  0  0  0  0  0  0  0
  145.2315  134.1316  158.0880 H   0  0  0  0  0  0  0  0  0  0  0  0
  145.3591  133.1981  160.5969 H   0  0  0  0  0  0  0  0  0  0  0  0
  146.7142  132.6294  159.6567 H   0  0  0  0  0  0  0  0  0  0  0  0
  145.8472  135.5608  159.7584 H   0  0  0  0  0  0  0  0  0  0  0  0
  148.4937  134.4433  158.7311 H   0  0  0  0  0  0  0  0  0  0  0  0
  147.1509  134.7428  157.6992 H   0  0  0  0  0  0  0  0  0  0  0  0
  146.1634  137.4566  158.0660 H   0  0  0  0  0  0  0  0  0  0  0  0
  152.5409  140.7320  157.5842 H   0  0  0  0  0  0  0  0  0  0  0  0
  151.8651  142.8479  158.5795 H   0  0  0  0  0  0  0  0  0  0  0  0
  151.7099  143.1797  156.8514 H   0  0  0  0  0  0  0  0  0  0  0  0
  149.5948  142.9504  158.8846 H   0  0  0  0  0  0  0  0  0  0  0  0
  149.3477  143.3711  157.1966 H   0  0  0  0  0  0  0  0  0  0  0  0
  148.4130  140.9799  158.0418 H   0  0  0  0  0  0  0  0  0  0  0  0
  149.1142  139.7942  156.0114 H   0  0  0  0  0  0  0  0  0  0  0  0
  147.6997  141.7056  155.3267 H   0  0  0  0  0  0  0  0  0  0  0  0
  149.1118  142.7444  155.1841 H   0  0  0  0  0  0  0  0  0  0  0  0
  149.4031  140.4029  153.8501 H   0  0  0  0  0  0  0  0  0  0  0  0
  151.4263  141.4719  155.2314 H   0  0  0  0  0  0  0  0  0  0  0  0
  151.3578  139.7569  155.6351 H   0  0  0  0  0  0  0  0  0  0  0  0
  152.4802  136.6240  158.9850 H   0  0  0  0  0  0  0  0  0  0  0  0
  148.0912  134.2402  161.3501 H   0  0  0  0  0  0  0  0  0  0  0  0
  145.5663  134.2748  162.3733 H   0  0  0  0  0  0  0  0  0  0  0  0
  146.9491  134.7638  163.3210 H   0  0  0  0  0  0  0  0  0  0  0  0
  144.9239  136.5522  161.9918 H   0  0  0  0  0  0  0  0  0  0  0  0
  145.7446  136.7574  163.5416 H   0  0  0  0  0  0  0  0  0  0  0  0
  148.6594  136.3663  162.2605 H   0  0  0  0  0  0  0  0  0  0  0  0
  148.4558  136.8240  160.5848 H   0  0  0  0  0  0  0  0  0  0  0  0
  1  2  1  0  0  0  0
  1 28  1  0  0  0  0
  2  3  1  0  0  0  0
  2 29  1  0  0  0  0
  2 30  1  0  0  0  0
  3  4  1  0  0  0  0
  3 23  1  0  0  0  0
  3 31  1  0  0  0  0
  4  5  1  0  0  0  0
  4 32  1  0  0  0  0
  4 33  1  0  0  0  0
  5 22  1  0  0  0  0
  5  6  1  0  0  0  0
  6  7  2  0  0  0  0
  6 34  1  0  0  0  0
  7  8  1  0  0  0  0
  8 22  2  0  0  0  0
  8  9  1  0  0  0  0
  9 10  1  0  0  0  0
  9 19  2  0  0  0  0
 10 14  1  0  0  0  0
 10 11  1  0  0  0  0
 11 18  1  0  0  0  0
 11 12  1  0  0  0  0
 11 35  1  0  0  0  0
 12 13  1  0  0  0  0
 12 36  1  0  0  0  0
 12 37  1  0  0  0  0
 13 14  1  0  0  0  0
 13 38  1  0  0  0  0
 13 39  1  0  0  0  0
 14 15  1  0  0  0  0
 14 40  1  0  0  0  0
 15 16  1  0  0  0  0
 15 18  1  0  0  0  0
 15 41  1  0  0  0  0
 16 17  1  0  0  0  0
 16 42  1  0  0  0  0
 16 43  1  0  0  0  0
 17 44  1  0  0  0  0
 18 45  1  0  0  0  0
 18 46  1  0  0  0  0
 19 20  1  0  0  0  0
 20 21  2  0  0  0  0
 20 47  1  0  0  0  0
 21 22  1  0  0  0  0
 23 27  1  0  0  0  0
 23 24  1  0  0  0  0
 23 48  1  0  0  0  0
 24 25  1  0  0  0  0
 24 49  1  0  0  0  0
 24 50  1  0  0  0  0
 25 26  1  0  0  0  0
 25 51  1  0  0  0  0
 25 52  1  0  0  0  0
 26 27  1  0  0  0  0
 27 53  1  0  0  0  0
 27 54  1  0  0  0  0
M  END
> <s_m_source_file>
AV-unprocessed.smi

> <i_m_source_file_index>
227

> <i_lp_mmshare_version>
43012

> <i_f3d_flags>
0

> <s_epik_input>
W0NIMl0xT1tDSDJdW0NIMl1bQ0BIXTFbQ0BIXShbQ0gyXVtPSF0pW0NIMl1uKFtjSF1uMiljKGMyMyluW2NIXW5jM04oW0NASF00NSlbQ0BASF0oW0NIMl1bQ0gyXTQpW0NASF0oW0NIMl01KVtDSDJdW09IXQ==

> <s_epik_cmdline>
J2VwaWtfcHl0aG9uJywgJy1waCcsICc3LjAnLCAnLXRuJywgJzgnLCAnLW1hJywgJzIwMCcsICctbWV0YWxfYmluZGluZycsICctaW1hZScsICc8aW5maWxlLm1hZT4nLCAnLW9tYWUnLCAnPG91dGZpbGUubWFlPic=

> <r_lp_tautomer_probability>
1

> <r_epik_Ionization_Penalty>
0.0055791

> <r_epik_Ionization_Penalty_Charging>
0

> <r_epik_Ionization_Penalty_Neutral>
0.0055791

> <r_epik_State_Penalty>
0.00401299

> <r_epik_Charging_Adjusted_Penalty>
0.00401299

> <i_epik_Tot_Q>
0

> <i_epik_Tot_abs_Q>
0

> <r_epik_Metal_State_Penalty>
-0

> <b_epik_Metal_Only>
0

> <s_lp_Force_Field>
OPLS_2005

> <r_lp_Energy>
89.6374

> <b_lp_Chiralities_Consistent>
1

> <s_lp_Variant>
AV-unprocessed.smi:227-1

> <Gold.Version>
5.8.1

> <Gold.Id.Protein>
6NUR|6NUR_protein|mol2

> <Gold.PLP.Fitness>
46.2866

> <Gold.PLP.PLP>
-38.7962

> <Gold.PLP.part.hbond>
-6.2343

> <Gold.PLP.part.metal>
0.0000

> <Gold.PLP.part.buried>
-2.6584

> <Gold.PLP.part.nonpolar>
-30.1023

> <Gold.PLP.part.repulsive>
0.0000

> <Gold.PLP.ligand.clash>
0.0000

> <Gold.PLP.ligand.torsion>
0.5747

> <Gold.PLP.Chemscore.Hbond>
2.8240

> <Gold.PLP.Chemscore.CHOScore>
0.0000

> <Gold.PLP.Chemscore.Metal>
0.0000

> <Gold.Chemscore.Hbonds>
donor molecule, donor type, donor heavy atom, donor atom, acceptor molecule, acceptor atom, score
      P1  H  6896  6907       L1    21  1.00
      P1  H  6934  6947       L1    26  0.91
      P1  H  8011  8017       L1    17  0.81

> <Gold.PLP.Chemscore.Internal.Correction>
0.1679

> <Gold.Rescore>
     Score         DG    S(hbond)    S(metal)    S(lipo)     H(rot)  DE(clash)    DE(int)     intcor
     11.42     -14.83       2.39        0.00      90.65       3.61       1.47       1.95       ----

> <Gold.Chemscore.Fitness>
11.4200

> <Gold.Chemscore.DG>
-14.8339

> <Gold.Chemscore.ZeroCoef>
-5.4800

> <Gold.Chemscore.Hbond>
2.3900

> <Gold.Chemscore.Metal>
0.0000

> <Gold.Chemscore.Lipo>
90.6461

> <Gold.Chemscore.Internal_Hbond>
0.0000

> <Gold.Chemscore.DEClash>
1.4660

> <Gold.Chemscore.DEInternal>
1.9479

> <Gold.Chemscore.Rot>
3.6071

> <Gold.Chemscore.Internal.Correction>
   9.000000E+99

> <Gold.Chemscore.Hbonds>
donor molecule, donor type, donor heavy atom, donor atom, acceptor molecule, acceptor atom, score
      P1  H  6896  6907       L1    21  0.29
      P1  H  6934  6947       L1    26  0.45
      P1  H  8011  8017       L1    17  0.62

> <Gold.Chemscore.Hbond.Weighted>
-7.9825

> <Gold.Chemscore.Metal.Weighted>
-0.0000

> <Gold.Chemscore.Lipo.Weighted>
-10.6056

> <Gold.Chemscore.Internal_Hbond.Weighted>
0.0000

> <Gold.Chemscore.DEClash.Weighted>
1.4660

> <Gold.Chemscore.DEInternal.Weighted>
1.9479

> <Gold.Chemscore.Rot.Weighted>
9.2342

> <Gold.Chemscore.Internal.Correction.Weighted>
   9.000000E+99

> <Gold.Protein.RotatedTorsions>
[ 6907 6896 6895 6894 ] final  -35.21 input  -60.11 | X-H torsion
[ 7974 7965 7964 7962 ] final   93.91 input  175.53 | X-H torsion
[ 8008 7997 7996 7995 ] final -105.18 input   59.86 | X-H torsion
[ 10167 10162 10161 10158 ] final   18.93 input  -65.29 | X-H torsion
[ 10718 10713 10712 10709 ] final -159.74 input   66.30 | X-H torsion
[ 10763 10752 10751 10750 ] final  135.66 input  -60.55 | X-H torsion
[ 11005 11000 10999 10996 ] final   14.84 input  -57.11 | X-H torsion

> <Gold.Protein.ActiveResidues>
 VAL166  LYS551  ARG553  GLY616  TRP617  ASP618  TYR619  PRO620  LYS621  CYS622 
 ASP623  PHE694  ASN695  SER759  ASP760  ASP761  ALA762  ILE779  LEU786  VAL792 
 PHE793  MET794  SER795  GLU796  ALA797  LYS798  CYS799  TRP800  GLU811  SER814 

> <Gold.Protein.RotatedAtoms>
  151.0427  134.9618  159.8169 H   0  0  0  0  0  0  0  0  0  0  0  0  # atno 6907 bound_to 6896
  152.5367  134.2637  159.8955 H   0  0  0  0  0  0  0  0  0  0  0  0  # atno 6908 bound_to 6896
  151.2650  133.4240  159.2652 H   0  0  0  0  0  0  0  0  0  0  0  0  # atno 6909 bound_to 6896
  145.4726  139.2281  143.2926 H   0  0  0  0  0  0  0  0  0  0  0  0  # atno 7974 bound_to 7965
  154.8961  140.0414  157.1866 H   0  0  0  0  0  0  0  0  0  0  0  0  # atno 8008 bound_to 7997
  154.8491  140.2926  155.5588 H   0  0  0  0  0  0  0  0  0  0  0  0  # atno 8009 bound_to 7997
  156.2995  140.2468  156.3447 H   0  0  0  0  0  0  0  0  0  0  0  0  # atno 8010 bound_to 7997
  140.5617  143.9325  150.6647 H   0  0  0  0  0  0  0  0  0  0  0  0  # atno 10167 bound_to 10162
  156.5724  130.8694  151.2841 H   0  0  0  0  0  0  0  0  0  0  0  0  # atno 10718 bound_to 10713
  153.8436  135.3088  155.3428 H   0  0  0  0  0  0  0  0  0  0  0  0  # atno 10763 bound_to 10752
  154.7922  135.4776  154.0081 H   0  0  0  0  0  0  0  0  0  0  0  0  # atno 10764 bound_to 10752
  153.1560  135.6852  153.8903 H   0  0  0  0  0  0  0  0  0  0  0  0  # atno 10765 bound_to 10752
  140.4650  134.1089  155.7723 H   0  0  0  0  0  0  0  0  0  0  0  0  # atno 11005 bound_to 11000
  146.2388  140.5506  142.8943 LP  0  0  0  0  0  0  0  0  0  0  0  0  # atno 17320 bound_to 7965
  144.7936  140.6080  143.6525 LP  0  0  0  0  0  0  0  0  0  0  0  0  # atno 17321 bound_to 7965
  140.2777  143.3411  152.1179 LP  0  0  0  0  0  0  0  0  0  0  0  0  # atno 17342 bound_to 10162
  139.5073  144.6830  151.5960 LP  0  0  0  0  0  0  0  0  0  0  0  0  # atno 17343 bound_to 10162
  157.7345  130.9747  150.2033 LP  0  0  0  0  0  0  0  0  0  0  0  0  # atno 17370 bound_to 10713
  156.2703  130.3721  149.8038 LP  0  0  0  0  0  0  0  0  0  0  0  0  # atno 17371 bound_to 10713
  141.1603  133.8804  157.1865 LP  0  0  0  0  0  0  0  0  0  0  0  0  # atno 17394 bound_to 11000
  139.9921  135.0060  156.9999 LP  0  0  0  0  0  0  0  0  0  0  0  0  # atno 17395 bound_to 11000

$$$$
