AV-unprocessed.smi:976|AV-procd|sdf|4303|dock3
  -GOLD-   22720 2213D 1   1.00000     0.00000
 Structure written by MMmdl.
 41 42  0  0  0  0  0  0  0  0  1 V2000
  147.5949  135.5828  158.6784 C   0  0  0  0  0  0  0  0  0  0  0  0
  148.1141  136.9855  159.0284 C   0  0  1  0  0  0  0  0  0  0  0  0
  148.1429  137.0906  160.4496 O   0  0  0  0  0  0  0  0  0  0  0  0
  146.9002  136.8650  161.1081 C   0  0  0  0  0  0  0  0  0  0  0  0
  147.0731  135.7541  162.1508 C   0  0  0  0  0  0  0  0  0  0  0  0
  145.8732  135.3559  162.5717 F   0  0  0  0  0  0  0  0  0  0  0  0
  147.7053  134.7116  161.6130 F   0  0  0  0  0  0  0  0  0  0  0  0
  147.7642  136.2072  163.1964 F   0  0  0  0  0  0  0  0  0  0  0  0
  149.5162  137.2245  158.4450 C   0  0  0  0  0  0  0  0  0  0  0  0
  150.5095  136.8385  159.0610 O   0  0  0  0  0  0  0  0  0  0  0  0
  149.5542  137.8583  157.2592 N   0  0  0  0  0  0  0  0  0  0  0  0
  150.6948  138.2131  156.4843 C   0  0  0  0  0  0  0  0  0  0  0  0
  151.9772  137.6655  156.7308 C   0  0  0  0  0  0  0  0  0  0  0  0
  153.0694  138.0996  155.9584 C   0  0  0  0  0  0  0  0  0  0  0  0
  152.8436  139.0765  154.9732 C   0  0  0  0  0  0  0  0  0  0  0  0
  151.6318  139.6186  154.7359 N   0  0  0  0  0  0  0  0  0  0  0  0
  150.5723  139.2037  155.4726 C   0  0  0  0  0  0  0  0  0  0  0  0
  149.3175  139.7774  155.1843 N   0  0  0  0  0  0  0  0  0  0  0  0
  149.3114  141.0276  154.4308 C   0  0  0  0  0  0  0  0  0  0  0  0
  147.8906  141.6166  154.4058 C   0  0  0  0  0  0  0  0  0  0  0  0
  146.9831  140.6555  153.8735 O   0  0  0  0  0  0  0  0  0  0  0  0
  146.9407  139.4656  154.6562 C   0  0  0  0  0  0  0  0  0  0  0  0
  148.3357  138.8184  154.6907 C   0  0  0  0  0  0  0  0  0  0  0  0
  147.5584  135.4311  157.5991 H   0  0  0  0  0  0  0  0  0  0  0  0
  146.5861  135.4371  159.0652 H   0  0  0  0  0  0  0  0  0  0  0  0
  148.2254  134.8021  159.1061 H   0  0  0  0  0  0  0  0  0  0  0  0
  147.4132  137.7194  158.6256 H   0  0  0  0  0  0  0  0  0  0  0  0
  146.5481  137.7719  161.6009 H   0  0  0  0  0  0  0  0  0  0  0  0
  146.1412  136.5737  160.3806 H   0  0  0  0  0  0  0  0  0  0  0  0
  148.6619  138.0276  156.8176 H   0  0  0  0  0  0  0  0  0  0  0  0
  152.1446  136.9373  157.5094 H   0  0  0  0  0  0  0  0  0  0  0  0
  154.0584  137.6989  156.1238 H   0  0  0  0  0  0  0  0  0  0  0  0
  153.6581  139.4375  154.3628 H   0  0  0  0  0  0  0  0  0  0  0  0
  150.0034  141.7384  154.8841 H   0  0  0  0  0  0  0  0  0  0  0  0
  149.6520  140.8459  153.4103 H   0  0  0  0  0  0  0  0  0  0  0  0
  147.5752  141.9140  155.4072 H   0  0  0  0  0  0  0  0  0  0  0  0
  147.8659  142.5117  153.7842 H   0  0  0  0  0  0  0  0  0  0  0  0
  146.5928  139.6929  155.6653 H   0  0  0  0  0  0  0  0  0  0  0  0
  146.2180  138.7773  154.2177 H   0  0  0  0  0  0  0  0  0  0  0  0
  148.6241  138.4985  153.6883 H   0  0  0  0  0  0  0  0  0  0  0  0
  148.3139  137.9253  155.3152 H   0  0  0  0  0  0  0  0  0  0  0  0
  1  2  1  0  0  0  0
  1 24  1  0  0  0  0
  1 25  1  0  0  0  0
  1 26  1  0  0  0  0
  2  3  1  0  0  0  0
  2  9  1  0  0  0  0
  2 27  1  0  0  0  0
  3  4  1  0  0  0  0
  4  5  1  0  0  0  0
  4 28  1  0  0  0  0
  4 29  1  0  0  0  0
  5  6  1  0  0  0  0
  5  7  1  0  0  0  0
  5  8  1  0  0  0  0
  9 10  2  0  0  0  0
  9 11  1  0  0  0  0
 11 12  1  0  0  0  0
 11 30  1  0  0  0  0
 12 17  1  0  0  0  0
 12 13  2  0  0  0  0
 13 14  1  0  0  0  0
 13 31  1  0  0  0  0
 14 15  2  0  0  0  0
 14 32  1  0  0  0  0
 15 16  1  0  0  0  0
 15 33  1  0  0  0  0
 16 17  2  0  0  0  0
 17 18  1  0  0  0  0
 18 23  1  0  0  0  0
 18 19  1  0  0  0  0
 19 20  1  0  0  0  0
 19 34  1  0  0  0  0
 19 35  1  0  0  0  0
 20 21  1  0  0  0  0
 20 36  1  0  0  0  0
 20 37  1  0  0  0  0
 21 22  1  0  0  0  0
 22 23  1  0  0  0  0
 22 38  1  0  0  0  0
 22 39  1  0  0  0  0
 23 40  1  0  0  0  0
 23 41  1  0  0  0  0
M  END
> <s_m_source_file>
AV-unprocessed.smi

> <i_m_source_file_index>
976

> <i_lp_mmshare_version>
43012

> <i_f3d_flags>
0

> <s_epik_input>
RkMoRikoRilbQ0gyXU9bQ0BASF0oW0NIM10pQyg9TylbTkhdYzFbY0hdW2NIXVtjSF1uYzFOMltDSDJdW0NIMl1PW0NIMl1bQ0gyXTI=

> <s_epik_cmdline>
J2VwaWtfcHl0aG9uJywgJy1waCcsICc3LjAnLCAnLXRuJywgJzgnLCAnLW1hJywgJzIwMCcsICctbWV0YWxfYmluZGluZycsICctaW1hZScsICc8aW5maWxlLm1hZT4nLCAnLW9tYWUnLCAnPG91dGZpbGUubWFlPic=

> <r_lp_tautomer_probability>
1

> <r_epik_Ionization_Penalty>
0.000443367

> <r_epik_Ionization_Penalty_Charging>
0

> <r_epik_Ionization_Penalty_Neutral>
0.000443367

> <r_epik_State_Penalty>
0.00027288

> <r_epik_Charging_Adjusted_Penalty>
0.00027288

> <i_epik_Tot_Q>
0

> <i_epik_Tot_abs_Q>
0

> <r_epik_Metal_State_Penalty>
-0

> <b_epik_Metal_Only>
0

> <s_lp_Force_Field>
OPLS_2005

> <r_lp_Energy>
26.1197

> <b_lp_Chiralities_Consistent>
1

> <s_lp_Variant>
AV-unprocessed.smi:976-2

> <Gold.Version>
5.8.1

> <Gold.Id.Protein>
6NUR|6NUR_protein|mol2

> <Gold.PLP.Fitness>
41.6214

> <Gold.PLP.PLP>
-36.0493

> <Gold.PLP.part.hbond>
-4.0000

> <Gold.PLP.part.metal>
0.0000

> <Gold.PLP.part.buried>
-4.0856

> <Gold.PLP.part.nonpolar>
-28.3399

> <Gold.PLP.part.repulsive>
0.2720

> <Gold.PLP.ligand.clash>
0.0000

> <Gold.PLP.ligand.torsion>
1.4922

> <Gold.PLP.Chemscore.Hbond>
2.7383

> <Gold.PLP.Chemscore.CHOScore>
0.0000

> <Gold.PLP.Chemscore.Metal>
0.0000

> <Gold.Chemscore.Hbonds>
donor molecule, donor type, donor heavy atom, donor atom, acceptor molecule, acceptor atom, score
      P1  H  6896  6909       L1    10  1.00
      P1  H  6931  6943       L1     3  0.70
      P1  H  7989  7998       L1    16  1.00

> <Gold.PLP.Chemscore.Internal.Correction>
0.3417

> <Gold.Rescore>
     Score         DG    S(hbond)    S(metal)    S(lipo)     H(rot)  DE(clash)    DE(int)     intcor
     12.63     -15.60       2.19        0.00      66.52       1.95       0.06       2.91       ----

> <Gold.Chemscore.Fitness>
12.6334

> <Gold.Chemscore.DG>
-15.6032

> <Gold.Chemscore.ZeroCoef>
-5.4800

> <Gold.Chemscore.Hbond>
2.1947

> <Gold.Chemscore.Metal>
0.0000

> <Gold.Chemscore.Lipo>
66.5185

> <Gold.Chemscore.Internal_Hbond>
0.0000

> <Gold.Chemscore.DEClash>
0.0583

> <Gold.Chemscore.DEInternal>
2.9116

> <Gold.Chemscore.Rot>
1.9491

> <Gold.Chemscore.Internal.Correction>
   9.000000E+99

> <Gold.Chemscore.Hbonds>
donor molecule, donor type, donor heavy atom, donor atom, acceptor molecule, acceptor atom, score
      P1  H  6896  6909       L1    10  0.94
      P1  H  6931  6943       L1     3  0.15
      P1  H  7989  7998       L1    16  0.84

> <Gold.Chemscore.Hbond.Weighted>
-7.3302

> <Gold.Chemscore.Metal.Weighted>
-0.0000

> <Gold.Chemscore.Lipo.Weighted>
-7.7827

> <Gold.Chemscore.Internal_Hbond.Weighted>
0.0000

> <Gold.Chemscore.DEClash.Weighted>
0.0583

> <Gold.Chemscore.DEInternal.Weighted>
2.9116

> <Gold.Chemscore.Rot.Weighted>
4.9897

> <Gold.Chemscore.Internal.Correction.Weighted>
   9.000000E+99

> <Gold.Protein.RotatedTorsions>
[ 6907 6896 6895 6894 ] final   88.13 input  -60.11 | X-H torsion
[ 7974 7965 7964 7962 ] final   72.91 input  175.53 | X-H torsion
[ 8008 7997 7996 7995 ] final -129.35 input   59.86 | X-H torsion
[ 10167 10162 10161 10158 ] final   88.11 input  -65.29 | X-H torsion
[ 10718 10713 10712 10709 ] final  -45.40 input   66.30 | X-H torsion
[ 10763 10752 10751 10750 ] final  -51.19 input  -60.55 | X-H torsion
[ 11005 11000 10999 10996 ] final   39.98 input  -57.11 | X-H torsion

> <Gold.Protein.ActiveResidues>
 VAL166  LYS551  ARG553  GLY616  TRP617  ASP618  TYR619  PRO620  LYS621  CYS622 
 ASP623  PHE694  ASN695  SER759  ASP760  ASP761  ALA762  ILE779  LEU786  VAL792 
 PHE793  MET794  SER795  GLU796  ALA797  LYS798  CYS799  TRP800  GLU811  SER814 

> <Gold.Protein.RotatedAtoms>
  152.5421  134.2170  159.8772 H   0  0  0  0  0  0  0  0  0  0  0  0  # atno 6907 bound_to 6896
  151.2149  133.4528  159.2606 H   0  0  0  0  0  0  0  0  0  0  0  0  # atno 6908 bound_to 6896
  151.0861  134.9901  159.8436 H   0  0  0  0  0  0  0  0  0  0  0  0  # atno 6909 bound_to 6896
  145.7475  139.2746  143.1450 H   0  0  0  0  0  0  0  0  0  0  0  0  # atno 7974 bound_to 7965
  155.2777  140.0442  157.3013 H   0  0  0  0  0  0  0  0  0  0  0  0  # atno 8008 bound_to 7997
  154.5615  140.2347  155.8296 H   0  0  0  0  0  0  0  0  0  0  0  0  # atno 8009 bound_to 7997
  156.2051  140.3015  155.9617 H   0  0  0  0  0  0  0  0  0  0  0  0  # atno 8010 bound_to 7997
  139.8705  144.6495  150.8954 H   0  0  0  0  0  0  0  0  0  0  0  0  # atno 10167 bound_to 10162
  156.2287  130.4171  149.8902 H   0  0  0  0  0  0  0  0  0  0  0  0  # atno 10718 bound_to 10713
  154.1226  135.6532  153.4906 H   0  0  0  0  0  0  0  0  0  0  0  0  # atno 10763 bound_to 10752
  153.0220  135.5274  154.7081 H   0  0  0  0  0  0  0  0  0  0  0  0  # atno 10764 bound_to 10752
  154.6293  135.2974  155.0205 H   0  0  0  0  0  0  0  0  0  0  0  0  # atno 10765 bound_to 10752
  140.1975  134.3911  155.8113 H   0  0  0  0  0  0  0  0  0  0  0  0  # atno 11005 bound_to 11000
  146.0388  140.8185  142.9839 LP  0  0  0  0  0  0  0  0  0  0  0  0  # atno 17320 bound_to 7965
  144.6857  140.2879  143.7282 LP  0  0  0  0  0  0  0  0  0  0  0  0  # atno 17321 bound_to 7965
  140.7761  143.3667  151.1725 LP  0  0  0  0  0  0  0  0  0  0  0  0  # atno 17342 bound_to 10162
  139.7288  143.9105  152.3012 LP  0  0  0  0  0  0  0  0  0  0  0  0  # atno 17343 bound_to 10162
  156.6523  130.8749  151.3533 LP  0  0  0  0  0  0  0  0  0  0  0  0  # atno 17370 bound_to 10713
  157.7123  130.9455  150.1131 LP  0  0  0  0  0  0  0  0  0  0  0  0  # atno 17371 bound_to 10713
  141.2227  133.7077  156.8201 LP  0  0  0  0  0  0  0  0  0  0  0  0  # atno 17394 bound_to 11000
  140.2091  134.8841  157.3254 LP  0  0  0  0  0  0  0  0  0  0  0  0  # atno 17395 bound_to 11000

$$$$
