AV-unprocessed.smi:114|AV-procd|sdf|1112|dock6
  -GOLD-   2262018233D 1   1.00000     0.00000
 Structure written by MMmdl.
 32 34  0  0  0  0  0  0  0  0  1 V2000
  153.8961  137.2630  157.1602 N   0  0  0  0  0  0  0  0  0  0  0  0
  153.0155  138.2604  156.9970 C   0  0  0  0  0  0  0  0  0  0  0  0
  153.0188  139.2773  157.8906 N   0  0  0  0  0  0  0  0  0  0  0  0
  152.1574  140.2946  157.7618 C   0  0  0  0  0  0  0  0  0  0  0  0
  152.2313  141.2676  158.7001 F   0  0  0  0  0  0  0  0  0  0  0  0
  151.2308  140.4581  156.8105 N   0  0  0  0  0  0  0  0  0  0  0  0
  151.2249  139.4325  155.9105 C   0  0  0  0  0  0  0  0  0  0  0  0
  152.0825  138.3015  155.9324 C   0  0  0  0  0  0  0  0  0  0  0  0
  151.7943  137.4696  154.8591 N   0  0  0  0  0  0  0  0  0  0  0  0
  150.8214  138.0827  154.2381 C   0  0  0  0  0  0  0  0  0  0  0  0
  150.4088  139.2681  154.8127 N   0  0  0  0  0  0  0  0  0  0  0  0
  149.3475  140.2271  154.3677 C   0  0  1  0  0  0  0  0  0  0  0  0
  148.7431  139.7075  153.2214 O   0  0  0  0  0  0  0  0  0  0  0  0
  147.5648  138.9980  153.5885 C   0  0  2  0  0  0  0  0  0  0  0  0
  146.6531  138.7576  152.3729 C   0  0  0  0  0  0  0  0  0  0  0  0
  147.3317  137.9814  151.4085 O   0  0  0  0  0  0  0  0  0  0  0  0
  146.9897  139.9004  154.6864 C   0  0  2  0  0  0  0  0  0  0  0  0
  146.2917  140.9947  154.1138 O   0  0  0  0  0  0  0  0  0  0  0  0
  148.2467  140.3319  155.4416 C   0  0  2  0  0  0  0  0  0  0  0  0
  148.1309  141.6257  156.0039 O   0  0  0  0  0  0  0  0  0  0  0  0
  149.8785  141.1560  154.1558 H   0  0  0  0  0  0  0  0  0  0  0  0
  147.8425  138.0441  154.0413 H   0  0  0  0  0  0  0  0  0  0  0  0
  146.2996  139.3597  155.3347 H   0  0  0  0  0  0  0  0  0  0  0  0
  148.4483  139.6170  156.2413 H   0  0  0  0  0  0  0  0  0  0  0  0
  153.9119  136.4948  156.5044 H   0  0  0  0  0  0  0  0  0  0  0  0
  154.5423  137.2812  157.9359 H   0  0  0  0  0  0  0  0  0  0  0  0
  150.3806  137.6790  153.3379 H   0  0  0  0  0  0  0  0  0  0  0  0
  145.7649  138.2014  152.6742 H   0  0  0  0  0  0  0  0  0  0  0  0
  146.3172  139.6972  151.9330 H   0  0  0  0  0  0  0  0  0  0  0  0
  147.7892  137.2839  151.8526 H   0  0  0  0  0  0  0  0  0  0  0  0
  145.5915  140.6524  153.5791 H   0  0  0  0  0  0  0  0  0  0  0  0
  148.5423  142.2431  155.4181 H   0  0  0  0  0  0  0  0  0  0  0  0
  1  2  1  0  0  0  0
  1 25  1  0  0  0  0
  1 26  1  0  0  0  0
  2  8  1  0  0  0  0
  2  3  2  0  0  0  0
  3  4  1  0  0  0  0
  4  5  1  0  0  0  0
  4  6  2  0  0  0  0
  6  7  1  0  0  0  0
  7 11  1  0  0  0  0
  7  8  2  0  0  0  0
  8  9  1  0  0  0  0
  9 10  2  0  0  0  0
 10 11  1  0  0  0  0
 10 27  1  0  0  0  0
 11 12  1  0  0  0  0
 12 21  1  0  0  0  0
 12 19  1  0  0  0  0
 12 13  1  0  0  0  0
 13 14  1  0  0  0  0
 14 22  1  0  0  0  0
 14 15  1  0  0  0  0
 14 17  1  0  0  0  0
 15 16  1  0  0  0  0
 15 28  1  0  0  0  0
 15 29  1  0  0  0  0
 16 30  1  0  0  0  0
 17 23  1  0  0  0  0
 17 18  1  0  0  0  0
 17 19  1  0  0  0  0
 18 31  1  0  0  0  0
 19 24  1  0  0  0  0
 19 20  1  0  0  0  0
 20 32  1  0  0  0  0
M  END
> <s_m_source_file>
AV-unprocessed.smi

> <i_m_source_file_index>
114

> <i_lp_mmshare_version>
43012

> <i_f3d_flags>
0

> <s_epik_input>
RmMobjEpbmMoW05IMl0pYyhjMTIpbltjSF1uMltDQEBIXTNPW0NASF0oW0NIMl1bT0hdKVtDQEBIXShbT0hdKVtDQEBIXTNbT0hd

> <s_epik_cmdline>
J2VwaWtfcHl0aG9uJywgJy1waCcsICc3LjAnLCAnLXRuJywgJzgnLCAnLW1hJywgJzIwMCcsICctbWV0YWxfYmluZGluZycsICctaW1hZScsICc8aW5maWxlLm1hZT4nLCAnLW9tYWUnLCAnPG91dGZpbGUubWFlPic=

> <r_lp_tautomer_probability>
1

> <r_epik_Ionization_Penalty>
1.13199e-05

> <r_epik_Ionization_Penalty_Charging>
0

> <r_epik_Ionization_Penalty_Neutral>
1.13199e-05

> <r_epik_State_Penalty>
-0

> <r_epik_Charging_Adjusted_Penalty>
0

> <i_epik_Tot_Q>
0

> <i_epik_Tot_abs_Q>
0

> <r_epik_Metal_State_Penalty>
-0

> <b_epik_Metal_Only>
0

> <s_epik_Chemistry_Notes>
This compound contains an acetal/aminal-like group ( X-CH(R)-Y where X, Y are N, S, or O) that may be acid/base labile, releasing an aldehyde.

> <s_lp_Force_Field>
OPLS_2005

> <r_lp_Energy>
39.4962

> <b_lp_Chiralities_Consistent>
1

> <s_lp_Variant>
AV-unprocessed.smi:114-6

> <Gold.Version>
5.8.1

> <Gold.Id.Protein>
6NUR|6NUR_protein|mol2

> <Gold.PLP.Fitness>
39.2159

> <Gold.PLP.PLP>
-24.5021

> <Gold.PLP.part.hbond>
-5.5184

> <Gold.PLP.part.metal>
0.0000

> <Gold.PLP.part.buried>
-5.2353

> <Gold.PLP.part.nonpolar>
-21.9581

> <Gold.PLP.part.repulsive>
6.3093

> <Gold.PLP.ligand.clash>
0.0000

> <Gold.PLP.ligand.torsion>
0.0139

> <Gold.PLP.Chemscore.Hbond>
3.8362

> <Gold.PLP.Chemscore.CHOScore>
1.0697

> <Gold.PLP.Chemscore.Metal>
0.0000

> <Gold.Chemscore.Hbonds>
donor molecule, donor type, donor heavy atom, donor atom, acceptor molecule, acceptor atom, score
      L1  H    16    30       P1  7948  0.94
      L1  H    18    31       P1 10175  0.55
      P1  H  7954  7966       L1    16  0.85
      P1  H  7997  8009       L1     3  0.55
      P1  H 10752 10765       L1     9  0.57
      L1  C    10    27       P1  7948  0.79
      L1  C    10    27       P1  7949  0.32

> <Gold.PLP.Chemscore.Internal.Correction>
0.0236

> <Gold.Rescore>
     Score         DG    S(hbond)    S(metal)    S(lipo)     H(rot)  DE(clash)    DE(int)     intcor
      5.38      -7.33       2.73        0.00      26.06       4.03       1.92       0.03       ----

> <Gold.Chemscore.Fitness>
5.3764

> <Gold.Chemscore.DG>
-7.3271

> <Gold.Chemscore.ZeroCoef>
-5.4800

> <Gold.Chemscore.Hbond>
2.7271

> <Gold.Chemscore.Metal>
0.0000

> <Gold.Chemscore.Lipo>
26.0643

> <Gold.Chemscore.Internal_Hbond>
0.0000

> <Gold.Chemscore.DEClash>
1.9235

> <Gold.Chemscore.DEInternal>
0.0271

> <Gold.Chemscore.Rot>
4.0277

> <Gold.Chemscore.Internal.Correction>
   9.000000E+99

> <Gold.Chemscore.Hbonds>
donor molecule, donor type, donor heavy atom, donor atom, acceptor molecule, acceptor atom, score
      L1  H    16    30       P1  7948  0.86
      L1  H    18    31       P1 10175  0.52
      L1  H    20    32       P1  8028  0.01
      P1  H  7954  7966       L1    16  0.15
      P1  H  7997  8009       L1     3  0.01
      P1  H 10752 10765       L1     9  0.55

> <Gold.Chemscore.Hbond.Weighted>
-9.1086

> <Gold.Chemscore.Metal.Weighted>
-0.0000

> <Gold.Chemscore.Lipo.Weighted>
-3.0495

> <Gold.Chemscore.Internal_Hbond.Weighted>
0.0000

> <Gold.Chemscore.DEClash.Weighted>
1.9235

> <Gold.Chemscore.DEInternal.Weighted>
0.0271

> <Gold.Chemscore.Rot.Weighted>
10.3110

> <Gold.Chemscore.Internal.Correction.Weighted>
   9.000000E+99

> <Gold.Protein.RotatedTorsions>
[ 6907 6896 6895 6894 ] final -166.79 input  -60.11 | X-H torsion
[ 7974 7965 7964 7962 ] final  107.74 input  175.53 | X-H torsion
[ 8008 7997 7996 7995 ] final  147.83 input   59.86 | X-H torsion
[ 10167 10162 10161 10158 ] final   53.24 input  -65.29 | X-H torsion
[ 10718 10713 10712 10709 ] final  -31.69 input   66.30 | X-H torsion
[ 10763 10752 10751 10750 ] final  171.38 input  -60.55 | X-H torsion
[ 11005 11000 10999 10996 ] final  112.59 input  -57.11 | X-H torsion

> <Gold.Protein.ActiveResidues>
 VAL166  LYS551  ARG553  GLY616  TRP617  ASP618  TYR619  PRO620  LYS621  CYS622 
 ASP623  PHE694  ASN695  SER759  ASP760  ASP761  ALA762  ILE779  LEU786  VAL792 
 PHE793  MET794  SER795  GLU796  ALA797  LYS798  CYS799  TRP800  GLU811  SER814 

> <Gold.Protein.RotatedAtoms>
  151.4493  133.3622  159.2792 H   0  0  0  0  0  0  0  0  0  0  0  0  # atno 6907 bound_to 6896
  150.9102  134.8520  159.7431 H   0  0  0  0  0  0  0  0  0  0  0  0  # atno 6908 bound_to 6896
  152.4928  134.4422  159.9599 H   0  0  0  0  0  0  0  0  0  0  0  0  # atno 6909 bound_to 6896
  145.2897  139.2604  143.3871 H   0  0  0  0  0  0  0  0  0  0  0  0  # atno 7974 bound_to 7965
  156.2812  140.2145  156.5600 H   0  0  0  0  0  0  0  0  0  0  0  0  # atno 8008 bound_to 7997
  154.7221  140.0502  157.0671 H   0  0  0  0  0  0  0  0  0  0  0  0  # atno 8009 bound_to 7997
  155.0465  140.3151  155.4709 H   0  0  0  0  0  0  0  0  0  0  0  0  # atno 8010 bound_to 7997
  140.2429  144.3564  150.6374 H   0  0  0  0  0  0  0  0  0  0  0  0  # atno 10167 bound_to 10162
  156.3841  130.4361  149.7446 H   0  0  0  0  0  0  0  0  0  0  0  0  # atno 10718 bound_to 10713
  154.4110  135.2756  155.2037 H   0  0  0  0  0  0  0  0  0  0  0  0  # atno 10763 bound_to 10752
  154.4022  135.6042  153.5907 H   0  0  0  0  0  0  0  0  0  0  0  0  # atno 10764 bound_to 10752
  152.9831  135.5929  154.4392 H   0  0  0  0  0  0  0  0  0  0  0  0  # atno 10765 bound_to 10752
  139.8931  134.9533  156.6608 H   0  0  0  0  0  0  0  0  0  0  0  0  # atno 11005 bound_to 11000
  146.3189  140.3385  142.8646 LP  0  0  0  0  0  0  0  0  0  0  0  0  # atno 17320 bound_to 7965
  144.9183  140.7839  143.5764 LP  0  0  0  0  0  0  0  0  0  0  0  0  # atno 17321 bound_to 7965
  140.6100  143.2169  151.6905 LP  0  0  0  0  0  0  0  0  0  0  0  0  # atno 17342 bound_to 10162
  139.5071  144.3657  152.0519 LP  0  0  0  0  0  0  0  0  0  0  0  0  # atno 17343 bound_to 10162
  156.4525  130.7913  151.2934 LP  0  0  0  0  0  0  0  0  0  0  0  0  # atno 17370 bound_to 10713
  157.7494  131.0091  150.3254 LP  0  0  0  0  0  0  0  0  0  0  0  0  # atno 17371 bound_to 10713
  140.7448  133.8947  155.8304 LP  0  0  0  0  0  0  0  0  0  0  0  0  # atno 17394 bound_to 11000
  141.0048  134.1101  157.4281 LP  0  0  0  0  0  0  0  0  0  0  0  0  # atno 17395 bound_to 11000

$$$$
