#       Name:                AV-unprocessed.smi:1749
#       Creating user name   scv26
#       Creation time:       Fri Mar 27 08:26:49 2020


#       File generated by GOLD software.
#

@<TRIPOS>MOLECULE
AV-unprocessed.smi:1749
    36    37     1
SMALL
NO_CHARGES


@<TRIPOS>ATOM
      1 ****        -1.6093  -1.3909   2.2738 C.3            1 S1                 0.0000
      2 ****        -1.1184  -0.8120   0.9394 C.3            1 S1                 0.0000
      3 ****        -1.7484  -1.5467  -0.2594 C.3            1 S1                 0.0000
      4 ****        -1.2632  -0.9661  -1.5971 C.3            1 S1                 0.0000
      5 ****        -1.5365   0.5451  -1.6825 C.3            1 S1                 0.0000
      6 ****        -0.9265   1.3111  -0.4900 C.3            1 S1                 0.0000
      7 ****         0.5334   1.3101  -0.5538 N.am           1 S1                 0.0000
      8 ****         1.3136   2.1342  -1.2795 C.2            1 S1                 0.0000
      9 ****         0.7839   3.0069  -1.9662 O.2            1 S1                 0.0000
     10 ****         2.6588   1.9507  -1.2122 N.pl3          1 S1                -1.0000
     11 ****         3.2190   0.9839  -0.4613 C.2            1 S1                 0.0000
     12 ****         3.5282  -0.2248  -0.9575 N.2            1 S1                 0.0000
     13 ****         4.0830  -1.0772  -0.0126 N.2            1 S1                 0.0000
     14 ****         4.1892  -0.4826   1.1752 C.2            1 S1                 0.0000
     15 ****         3.6199   1.1714   1.2479 S.3            1 S1                 0.0000
     16 ****        -1.3927   0.7045   0.8484 C.3            1 S1                 0.0000
     17 ****        -2.6875  -1.2721   2.3849 H              1 S1                 0.0000
     18 ****        -1.1302  -0.8928   3.1171 H              1 S1                 0.0000
     19 ****        -1.3817  -2.4547   2.3472 H              1 S1                 0.0000
     20 ****        -0.0390  -0.9665   0.8976 H              1 S1                 0.0000
     21 ****        -1.5070  -2.6092  -0.2151 H              1 S1                 0.0000
     22 ****        -2.8356  -1.4748  -0.2062 H              1 S1                 0.0000
     23 ****        -0.1949  -1.1547  -1.7127 H              1 S1                 0.0000
     24 ****        -1.7558  -1.4781  -2.4240 H              1 S1                 0.0000
     25 ****        -1.1561   0.9403  -2.6251 H              1 S1                 0.0000
     26 ****        -2.6141   0.7110  -1.6990 H              1 S1                 0.0000
     27 ****        -1.2707   2.3462  -0.5248 H              1 S1                 0.0000
     28 ****         1.0019   0.6034  -0.0061 H              1 S1                 0.0000
     29 ****         4.6062  -1.0207   2.0132 H              1 S1                 0.0000
     30 ****        -2.4625   0.8838   0.9643 H              1 S1                 0.0000
     31 ****        -0.9083   1.2228   1.6772 H              1 S1                 0.0000
     32 ****        -0.2119   3.0965  -1.9800 LP             1 S1                 0.0000
     33 ****         1.3493   3.6265  -2.5106 LP             1 S1                 0.0000
     34 ****         3.2544   2.5562  -1.7401 LP             1 S1                 0.0000
     35 ****         3.3745  -0.4847  -1.9109 LP             1 S1                 0.0000
     36 ****         4.3669  -2.0177  -0.1996 LP             1 S1                 0.0000
@<TRIPOS>BOND
    1    1    2 1     
    2    1   17 1     
    3    1   18 1     
    4    1   19 1     
    5    2   16 1     
    6    2    3 1     
    7    2   20 1     
    8    3    4 1     
    9    3   21 1     
   10    3   22 1     
   11    4    5 1     
   12    4   23 1     
   13    4   24 1     
   14    5    6 1     
   15    5   25 1     
   16    5   26 1     
   17    6    7 1     
   18    6   16 1     
   19    6   27 1     
   20    7    8 am    
   21    7   28 1     
   22    8    9 2     
   23    8   10 1     
   24   10   11 1     
   25   11   15 1     
   26   11   12 2     
   27   12   13 1     
   28   13   14 2     
   29   14   15 1     
   30   14   29 1     
   31   16   30 1     
   32   16   31 1     
   33    9   32 1     
   34    9   33 1     
   35   10   34 1     
   36   12   35 1     
   37   13   36 1     
@<TRIPOS>SUBSTRUCTURE
      1 S1             1
@<TRIPOS>SET
LONE_PAIRS      STATIC     ATOMS    <user>   **** ""
5 32 33 34 35 36
DONOR_HYDROGENS      STATIC     ATOMS    <user>   **** ""
1 28
ATOM$BLUE        STATIC     ATOMS    COLORGROUP SYSTEM
5 32 33 34 35 36
ATOM$RED        STATIC     ATOMS    COLORGROUP SYSTEM
1 28
