AV-unprocessed.smi:3197|AV-procd|sdf|12225|dock9
  -GOLD-   2272018 53D 1   1.00000     0.00000
 Structure written by MMmdl.
 33 34  0  0  0  0  0  0  0  0  1 V2000
  152.5408  144.0554  160.2178 C   0  0  0  0  0  0  0  0  0  0  0  0
  152.2782  142.7047  159.9138 C   0  0  0  0  0  0  0  0  0  0  0  0
  151.4629  142.3501  158.8964 N   0  0  0  0  0  0  0  0  0  0  0  0
  150.9129  143.3385  158.1864 C   0  0  0  0  0  0  0  0  0  0  0  0
  150.0841  142.9400  157.1549 N   0  0  0  0  0  0  0  0  0  0  0  0
  149.6841  141.5620  156.9133 C   0  0  0  0  0  0  0  0  0  0  0  0
  150.2814  141.0212  155.6100 C   0  0  0  0  0  0  0  0  0  0  0  0
  149.7887  139.7117  155.3791 O   0  0  0  0  0  0  0  0  0  0  0  0
  150.3212  139.1253  154.2030 C   0  0  0  0  0  0  0  0  0  0  0  0
  150.9405  137.7655  154.5559 C   0  0  2  0  0  0  0  0  0  0  0  0
  150.0103  136.8433  155.3168 C   0  0  0  0  0  0  0  0  0  0  0  0
  150.9897  135.8458  155.9273 C   0  0  0  0  0  0  0  0  0  0  0  0
  152.1865  136.5792  156.1710 O   0  0  0  0  0  0  0  0  0  0  0  0
  152.1266  137.8445  155.5181 C   0  0  0  0  0  0  0  0  0  0  0  0
  151.0907  144.6503  158.3860 N   0  0  0  0  0  0  0  0  0  0  0  0
  151.9051  145.0118  159.4013 C   0  0  0  0  0  0  0  0  0  0  0  0
  153.1920  144.3417  161.0302 H   0  0  0  0  0  0  0  0  0  0  0  0
  152.7232  141.9062  160.4886 H   0  0  0  0  0  0  0  0  0  0  0  0
  149.7002  143.6618  156.5625 H   0  0  0  0  0  0  0  0  0  0  0  0
  150.0298  140.9523  157.7488 H   0  0  0  0  0  0  0  0  0  0  0  0
  148.5961  141.4906  156.8913 H   0  0  0  0  0  0  0  0  0  0  0  0
  150.0418  141.6817  154.7749 H   0  0  0  0  0  0  0  0  0  0  0  0
  151.3683  140.9865  155.6969 H   0  0  0  0  0  0  0  0  0  0  0  0
  149.5381  139.0049  153.4524 H   0  0  0  0  0  0  0  0  0  0  0  0
  151.0841  139.7795  153.7780 H   0  0  0  0  0  0  0  0  0  0  0  0
  151.2578  137.2612  153.6415 H   0  0  0  0  0  0  0  0  0  0  0  0
  149.4932  137.3898  156.1071 H   0  0  0  0  0  0  0  0  0  0  0  0
  149.2615  136.3683  154.6822 H   0  0  0  0  0  0  0  0  0  0  0  0
  150.6068  135.3906  156.8409 H   0  0  0  0  0  0  0  0  0  0  0  0
  151.2106  135.0477  155.2176 H   0  0  0  0  0  0  0  0  0  0  0  0
  153.0620  138.0724  155.0065 H   0  0  0  0  0  0  0  0  0  0  0  0
  151.9616  138.6123  156.2753 H   0  0  0  0  0  0  0  0  0  0  0  0
  152.0503  146.0696  159.5630 H   0  0  0  0  0  0  0  0  0  0  0  0
  1 16  1  0  0  0  0
  1  2  2  0  0  0  0
  1 17  1  0  0  0  0
  2  3  1  0  0  0  0
  2 18  1  0  0  0  0
  3  4  2  0  0  0  0
  4  5  1  0  0  0  0
  4 15  1  0  0  0  0
  5  6  1  0  0  0  0
  5 19  1  0  0  0  0
  6  7  1  0  0  0  0
  6 20  1  0  0  0  0
  6 21  1  0  0  0  0
  7  8  1  0  0  0  0
  7 22  1  0  0  0  0
  7 23  1  0  0  0  0
  8  9  1  0  0  0  0
  9 10  1  0  0  0  0
  9 24  1  0  0  0  0
  9 25  1  0  0  0  0
 10 14  1  0  0  0  0
 10 11  1  0  0  0  0
 10 26  1  0  0  0  0
 11 12  1  0  0  0  0
 11 27  1  0  0  0  0
 11 28  1  0  0  0  0
 12 13  1  0  0  0  0
 12 29  1  0  0  0  0
 12 30  1  0  0  0  0
 13 14  1  0  0  0  0
 14 31  1  0  0  0  0
 14 32  1  0  0  0  0
 15 16  2  0  0  0  0
 16 33  1  0  0  0  0
M  END
> <s_m_source_file>
AV-unprocessed.smi

> <i_m_source_file_index>
3197

> <i_lp_mmshare_version>
43012

> <i_f3d_flags>
0

> <s_epik_input>
bjFbY0hdW2NIXVtjSF1uYzFbTkhdW0NIMl1bQ0gyXU9bQ0gyXVtDQEBIXTJbQ0gyXVtDSDJdT1tDSDJdMg==

> <s_epik_cmdline>
J2VwaWtfcHl0aG9uJywgJy1waCcsICc3LjAnLCAnLXRuJywgJzgnLCAnLW1hJywgJzIwMCcsICctbWV0YWxfYmluZGluZycsICctaW1hZScsICc8aW5maWxlLm1hZT4nLCAnLW9tYWUnLCAnPG91dGZpbGUubWFlPic=

> <r_lp_tautomer_probability>
1

> <r_epik_Ionization_Penalty>
0.000570263

> <r_epik_Ionization_Penalty_Charging>
0

> <r_epik_Ionization_Penalty_Neutral>
0.000570263

> <r_epik_State_Penalty>
0.000357543

> <r_epik_Charging_Adjusted_Penalty>
0.000357543

> <i_epik_Tot_Q>
0

> <i_epik_Tot_abs_Q>
0

> <r_epik_Metal_State_Penalty>
-0

> <b_epik_Metal_Only>
0

> <s_lp_Force_Field>
OPLS_2005

> <r_lp_Energy>
12.4723

> <b_lp_Chiralities_Consistent>
1

> <s_lp_Variant>
AV-unprocessed.smi:3197-1

> <Gold.Version>
5.8.1

> <Gold.Id.Protein>
6NUR|6NUR_protein|mol2

> <Gold.PLP.Fitness>
36.5549

> <Gold.PLP.PLP>
-31.3618

> <Gold.PLP.part.hbond>
-2.0000

> <Gold.PLP.part.metal>
0.0000

> <Gold.PLP.part.buried>
-4.5024

> <Gold.PLP.part.nonpolar>
-25.1554

> <Gold.PLP.part.repulsive>
0.1999

> <Gold.PLP.ligand.clash>
0.0000

> <Gold.PLP.ligand.torsion>
0.4267

> <Gold.PLP.Chemscore.Hbond>
2.0000

> <Gold.PLP.Chemscore.CHOScore>
0.0000

> <Gold.PLP.Chemscore.Metal>
0.0000

> <Gold.Chemscore.Hbonds>
donor molecule, donor type, donor heavy atom, donor atom, acceptor molecule, acceptor atom, score
      L1  H     5    19       P1  8028  1.00
      P1  H 10752 10765       L1    13  0.35

> <Gold.PLP.Chemscore.Internal.Correction>
0.0465

> <Gold.Rescore>
     Score         DG    S(hbond)    S(metal)    S(lipo)     H(rot)  DE(clash)    DE(int)     intcor
     15.58     -16.26       1.94        0.00      77.82       1.88       0.20       0.48       ----

> <Gold.Chemscore.Fitness>
15.5794

> <Gold.Chemscore.DG>
-16.2565

> <Gold.Chemscore.ZeroCoef>
-5.4800

> <Gold.Chemscore.Hbond>
1.9401

> <Gold.Chemscore.Metal>
0.0000

> <Gold.Chemscore.Lipo>
77.8220

> <Gold.Chemscore.Internal_Hbond>
0.0000

> <Gold.Chemscore.DEClash>
0.1991

> <Gold.Chemscore.DEInternal>
0.4781

> <Gold.Chemscore.Rot>
1.8784

> <Gold.Chemscore.Internal.Correction>
   9.000000E+99

> <Gold.Chemscore.Hbonds>
donor molecule, donor type, donor heavy atom, donor atom, acceptor molecule, acceptor atom, score
      L1  H     5    19       P1  8028  0.99

> <Gold.Chemscore.Hbond.Weighted>
-6.4801

> <Gold.Chemscore.Metal.Weighted>
-0.0000

> <Gold.Chemscore.Lipo.Weighted>
-9.1052

> <Gold.Chemscore.Internal_Hbond.Weighted>
0.0000

> <Gold.Chemscore.DEClash.Weighted>
0.1991

> <Gold.Chemscore.DEInternal.Weighted>
0.4781

> <Gold.Chemscore.Rot.Weighted>
4.8087

> <Gold.Chemscore.Internal.Correction.Weighted>
   9.000000E+99

> <Gold.Protein.RotatedTorsions>
[ 6907 6896 6895 6894 ] final -134.83 input  -60.11 | X-H torsion
[ 7974 7965 7964 7962 ] final -130.81 input  175.53 | X-H torsion
[ 8008 7997 7996 7995 ] final   47.88 input   59.86 | X-H torsion
[ 10167 10162 10161 10158 ] final   90.02 input  -65.29 | X-H torsion
[ 10718 10713 10712 10709 ] final   35.35 input   66.30 | X-H torsion
[ 10763 10752 10751 10750 ] final -171.44 input  -60.55 | X-H torsion
[ 11005 11000 10999 10996 ] final   51.99 input  -57.11 | X-H torsion

> <Gold.Protein.ActiveResidues>
 VAL166  LYS551  ARG553  GLY616  TRP617  ASP618  TYR619  PRO620  LYS621  CYS622 
 ASP623  PHE694  ASN695  SER759  ASP760  ASP761  ALA762  ILE779  LEU786  VAL792 
 PHE793  MET794  SER795  GLU796  ALA797  LYS798  CYS799  TRP800  GLU811  SER814 

> <Gold.Protein.RotatedAtoms>
  150.9906  133.6153  159.2708 H   0  0  0  0  0  0  0  0  0  0  0  0  # atno 6907 bound_to 6896
  151.3376  135.0855  159.9369 H   0  0  0  0  0  0  0  0  0  0  0  0  # atno 6908 bound_to 6896
  152.5244  133.9523  159.7732 H   0  0  0  0  0  0  0  0  0  0  0  0  # atno 6909 bound_to 6896
  144.9439  140.7270  143.4829 H   0  0  0  0  0  0  0  0  0  0  0  0  # atno 7974 bound_to 7965
  155.3764  140.3426  155.4245 H   0  0  0  0  0  0  0  0  0  0  0  0  # atno 8008 bound_to 7997
  156.1634  140.1608  156.8606 H   0  0  0  0  0  0  0  0  0  0  0  0  # atno 8009 bound_to 7997
  154.5162  140.0778  156.8067 H   0  0  0  0  0  0  0  0  0  0  0  0  # atno 8010 bound_to 7997
  139.8514  144.6591  150.9165 H   0  0  0  0  0  0  0  0  0  0  0  0  # atno 10167 bound_to 10162
  157.3215  130.7451  149.6788 H   0  0  0  0  0  0  0  0  0  0  0  0  # atno 10718 bound_to 10713
  154.6304  135.2886  155.0223 H   0  0  0  0  0  0  0  0  0  0  0  0  # atno 10763 bound_to 10752
  154.1385  135.6522  153.4941 H   0  0  0  0  0  0  0  0  0  0  0  0  # atno 10764 bound_to 10752
  153.0277  135.5327  154.7130 H   0  0  0  0  0  0  0  0  0  0  0  0  # atno 10765 bound_to 10752
  140.0886  134.5240  155.8874 H   0  0  0  0  0  0  0  0  0  0  0  0  # atno 11005 bound_to 11000
  145.2948  139.1871  143.4721 LP  0  0  0  0  0  0  0  0  0  0  0  0  # atno 17320 bound_to 7965
  146.3296  140.2930  142.8616 LP  0  0  0  0  0  0  0  0  0  0  0  0  # atno 17321 bound_to 7965
  140.7787  143.3824  151.1454 LP  0  0  0  0  0  0  0  0  0  0  0  0  # atno 17342 bound_to 10162
  139.7461  143.8849  152.3064 LP  0  0  0  0  0  0  0  0  0  0  0  0  # atno 17343 bound_to 10162
  155.9686  130.4221  150.4503 LP  0  0  0  0  0  0  0  0  0  0  0  0  # atno 17370 bound_to 10713
  157.2519  131.0548  151.2374 LP  0  0  0  0  0  0  0  0  0  0  0  0  # atno 17371 bound_to 10713
  141.2071  133.6661  156.6282 LP  0  0  0  0  0  0  0  0  0  0  0  0  # atno 17394 bound_to 11000
  140.3384  134.7870  157.4379 LP  0  0  0  0  0  0  0  0  0  0  0  0  # atno 17395 bound_to 11000

$$$$
