AV-unprocessed.smi:1352|AV-procd|sdf|5531|dock5
  -GOLD-   22720 5123D 1   1.00000     0.00000
 Structure written by MMmdl.
 47 48  0  0  0  0  0  0  0  0  2 V2000
  145.7192  136.2972  151.5298 C   0  0  0  0  0  0  0  0  0  0  0  0
  145.1903  135.1326  152.3854 C   0  0  1  0  0  0  0  0  0  0  0  0
  144.7915  133.9043  151.5467 C   0  0  0  0  0  0  0  0  0  0  0  0
  146.0253  133.1451  151.0267 C   0  0  2  0  0  0  0  0  0  0  0  0
  145.6190  131.8862  150.2475 C   0  0  0  0  0  0  0  0  0  0  0  0
  146.9736  132.8041  152.1924 C   0  0  0  0  0  0  0  0  0  0  0  0
  147.3667  134.0225  152.9463 N   0  3  2  0  0  0  0  0  0  0  0  0
  148.4074  133.7414  153.9671 C   0  0  0  0  0  0  0  0  0  0  0  0
  148.6589  134.9462  154.8946 C   0  0  0  0  0  0  0  0  0  0  0  0
  149.3753  136.0138  154.2068 N   0  0  0  0  0  0  0  0  0  0  0  0
  149.7209  137.1869  154.7586 C   0  0  0  0  0  0  0  0  0  0  0  0
  149.4355  137.4935  155.9170 O   0  0  0  0  0  0  0  0  0  0  0  0
  150.4850  138.1608  153.8498 C   0  0  0  0  0  0  0  0  0  0  0  0
  149.6814  139.3230  153.4352 N   0  0  0  0  0  0  0  0  0  0  0  0
  148.4211  139.0608  152.8623 C   0  0  0  0  0  0  0  0  0  0  0  0
  147.6080  140.0475  152.4529 C   0  0  0  0  0  0  0  0  0  0  0  0
  148.0557  141.4108  152.6117 C   0  0  0  0  0  0  0  0  0  0  0  0
  149.2581  141.6730  153.1615 C   0  0  0  0  0  0  0  0  0  0  0  0
  150.1485  140.5975  153.6133 C   0  0  0  0  0  0  0  0  0  0  0  0
  151.2466  140.8273  154.1211 O   0  0  0  0  0  0  0  0  0  0  0  0
  146.1794  134.7299  153.4972 C   0  0  0  0  0  0  0  0  0  0  0  0
  146.6496  136.0429  151.0224 H   0  0  0  0  0  0  0  0  0  0  0  0
  145.9116  137.1765  152.1453 H   0  0  0  0  0  0  0  0  0  0  0  0
  144.9939  136.5848  150.7684 H   0  0  0  0  0  0  0  0  0  0  0  0
  144.2851  135.4987  152.8714 H   0  0  0  0  0  0  0  0  0  0  0  0
  144.1912  133.2342  152.1638 H   0  0  0  0  0  0  0  0  0  0  0  0
  144.1517  134.2058  150.7161 H   0  0  0  0  0  0  0  0  0  0  0  0
  146.5613  133.7933  150.3327 H   0  0  0  0  0  0  0  0  0  0  0  0
  145.0811  131.1816  150.8823 H   0  0  0  0  0  0  0  0  0  0  0  0
  146.4935  131.3729  149.8467 H   0  0  0  0  0  0  0  0  0  0  0  0
  144.9718  132.1374  149.4066 H   0  0  0  0  0  0  0  0  0  0  0  0
  146.5033  132.0916  152.8724 H   0  0  0  0  0  0  0  0  0  0  0  0
  147.8661  132.3195  151.7938 H   0  0  0  0  0  0  0  0  0  0  0  0
  148.1328  132.8566  154.5435 H   0  0  0  0  0  0  0  0  0  0  0  0
  149.3428  133.4990  153.4608 H   0  0  0  0  0  0  0  0  0  0  0  0
  147.7161  135.3269  155.2918 H   0  0  0  0  0  0  0  0  0  0  0  0
  149.2621  134.6574  155.7541 H   0  0  0  0  0  0  0  0  0  0  0  0
  149.6448  135.8426  153.2485 H   0  0  0  0  0  0  0  0  0  0  0  0
  151.3913  138.4963  154.3576 H   0  0  0  0  0  0  0  0  0  0  0  0
  150.8353  137.6069  152.9780 H   0  0  0  0  0  0  0  0  0  0  0  0
  148.1581  138.0159  152.7844 H   0  0  0  0  0  0  0  0  0  0  0  0
  146.6434  139.8275  152.0195 H   0  0  0  0  0  0  0  0  0  0  0  0
  147.4226  142.2243  152.2891 H   0  0  0  0  0  0  0  0  0  0  0  0
  149.5761  142.6990  153.2731 H   0  0  0  0  0  0  0  0  0  0  0  0
  146.4812  135.6207  154.0468 H   0  0  0  0  0  0  0  0  0  0  0  0
  145.6804  134.0782  154.2164 H   0  0  0  0  0  0  0  0  0  0  0  0
  147.7925  134.6418  152.2713 H   0  0  0  0  0  0  0  0  0  0  0  0
  1  2  1  0  0  0  0
  1 22  1  0  0  0  0
  1 23  1  0  0  0  0
  1 24  1  0  0  0  0
  2 21  1  0  0  0  0
  2  3  1  0  0  0  0
  2 25  1  0  0  0  0
  3  4  1  0  0  0  0
  3 26  1  0  0  0  0
  3 27  1  0  0  0  0
  4  5  1  0  0  0  0
  4  6  1  0  0  0  0
  4 28  1  0  0  0  0
  5 29  1  0  0  0  0
  5 30  1  0  0  0  0
  5 31  1  0  0  0  0
  6  7  1  0  0  0  0
  6 32  1  0  0  0  0
  6 33  1  0  0  0  0
  7  8  1  0  0  0  0
  7 21  1  0  0  0  0
  7 47  1  0  0  0  0
  8  9  1  0  0  0  0
  8 34  1  0  0  0  0
  8 35  1  0  0  0  0
  9 10  1  0  0  0  0
  9 36  1  0  0  0  0
  9 37  1  0  0  0  0
 10 11  1  0  0  0  0
 10 38  1  0  0  0  0
 11 12  2  0  0  0  0
 11 13  1  0  0  0  0
 13 14  1  0  0  0  0
 13 39  1  0  0  0  0
 13 40  1  0  0  0  0
 14 19  1  0  0  0  0
 14 15  1  0  0  0  0
 15 16  2  0  0  0  0
 15 41  1  0  0  0  0
 16 17  1  0  0  0  0
 16 42  1  0  0  0  0
 17 18  2  0  0  0  0
 17 43  1  0  0  0  0
 18 19  1  0  0  0  0
 18 44  1  0  0  0  0
 19 20  2  0  0  0  0
 21 45  1  0  0  0  0
 21 46  1  0  0  0  0
M  CHG  1   7   1
M  END
> <s_m_source_file>
AV-unprocessed.smi

> <i_m_source_file_index>
1352

> <i_lp_mmshare_version>
43012

> <i_f3d_flags>
0

> <s_epik_input>
W0NIM11bQ0BASF0xW0NIMl1bQ0BASF0oW0NIM10pW0NIMl1OKFtDSDJdMSlbQ0gyXVtDSDJdW05IXUMoPU8pW0NIMl1uMltjSF1bY0hdW2NIXVtjSF1jMj1P

> <s_epik_cmdline>
J2VwaWtfcHl0aG9uJywgJy1waCcsICc3LjAnLCAnLXRuJywgJzgnLCAnLW1hJywgJzIwMCcsICctbWV0YWxfYmluZGluZycsICctaW1hZScsICc8aW5maWxlLm1hZT4nLCAnLW9tYWUnLCAnPG91dGZpbGUubWFlPic=

> <r_lp_tautomer_probability>
1

> <r_epik_Ionization_Penalty>
0.00156146

> <r_epik_Ionization_Penalty_Charging>
0.00156138

> <r_epik_Ionization_Penalty_Neutral>
8.12891e-08

> <r_epik_State_Penalty>
0.00104868

> <r_epik_Charging_Adjusted_Penalty>
0.00261006

> <i_epik_Tot_Q>
1

> <i_epik_Tot_abs_Q>
1

> <r_epik_Metal_State_Penalty>
-0

> <b_epik_Metal_Only>
0

> <s_lp_Force_Field>
OPLS_2005

> <r_lp_Energy>
27.867

> <b_lp_Chiralities_Consistent>
1

> <s_lp_Variant>
AV-unprocessed.smi:1352-4

> <Gold.Version>
5.8.1

> <Gold.Id.Protein>
6NUR|6NUR_protein|mol2

> <Gold.PLP.Fitness>
51.0808

> <Gold.PLP.PLP>
-37.6485

> <Gold.PLP.part.hbond>
-3.0000

> <Gold.PLP.part.metal>
0.0000

> <Gold.PLP.part.buried>
-1.7022

> <Gold.PLP.part.nonpolar>
-33.7771

> <Gold.PLP.part.repulsive>
0.1164

> <Gold.PLP.ligand.clash>
0.0000

> <Gold.PLP.ligand.torsion>
0.2960

> <Gold.PLP.Chemscore.Hbond>
3.6624

> <Gold.PLP.Chemscore.CHOScore>
1.0000

> <Gold.PLP.Chemscore.Metal>
0.0000

> <Gold.Chemscore.Hbonds>
donor molecule, donor type, donor heavy atom, donor atom, acceptor molecule, acceptor atom, score
      L1  H     7    47       P1  7948  2.00
      L1  H    10    38       P1  7948  0.48
      L1  C    15    41       P1  7948  1.00

> <Gold.PLP.Chemscore.Internal.Correction>
0.0371

> <Gold.Rescore>
     Score         DG    S(hbond)    S(metal)    S(lipo)     H(rot)  DE(clash)    DE(int)     intcor
     14.65     -15.05       1.64        0.00      75.01       1.83       0.07       0.33       ----

> <Gold.Chemscore.Fitness>
14.6456

> <Gold.Chemscore.DG>
-15.0486

> <Gold.Chemscore.ZeroCoef>
-5.4800

> <Gold.Chemscore.Hbond>
1.6421

> <Gold.Chemscore.Metal>
0.0000

> <Gold.Chemscore.Lipo>
75.0111

> <Gold.Chemscore.Internal_Hbond>
0.0000

> <Gold.Chemscore.DEClash>
0.0739

> <Gold.Chemscore.DEInternal>
0.3292

> <Gold.Chemscore.Rot>
1.8329

> <Gold.Chemscore.Internal.Correction>
   9.000000E+99

> <Gold.Chemscore.Hbonds>
donor molecule, donor type, donor heavy atom, donor atom, acceptor molecule, acceptor atom, score
      L1  H     7    47       P1  7948  0.57
      L1  H    10    38       P1  7948  0.05

> <Gold.Chemscore.Hbond.Weighted>
-5.4845

> <Gold.Chemscore.Metal.Weighted>
-0.0000

> <Gold.Chemscore.Lipo.Weighted>
-8.7763

> <Gold.Chemscore.Internal_Hbond.Weighted>
0.0000

> <Gold.Chemscore.DEClash.Weighted>
0.0739

> <Gold.Chemscore.DEInternal.Weighted>
0.3292

> <Gold.Chemscore.Rot.Weighted>
4.6922

> <Gold.Chemscore.Internal.Correction.Weighted>
   9.000000E+99

> <Gold.Protein.RotatedTorsions>
[ 6907 6896 6895 6894 ] final    0.55 input  -60.11 | X-H torsion
[ 7974 7965 7964 7962 ] final  104.08 input  175.53 | X-H torsion
[ 8008 7997 7996 7995 ] final  111.16 input   59.86 | X-H torsion
[ 10167 10162 10161 10158 ] final  -64.27 input  -65.29 | X-H torsion
[ 10718 10713 10712 10709 ] final -145.55 input   66.30 | X-H torsion
[ 10763 10752 10751 10750 ] final   -0.22 input  -60.55 | X-H torsion
[ 11005 11000 10999 10996 ] final  145.67 input  -57.11 | X-H torsion

> <Gold.Protein.ActiveResidues>
 VAL166  LYS551  ARG553  GLY616  TRP617  ASP618  TYR619  PRO620  LYS621  CYS622 
 ASP623  PHE694  ASN695  SER759  ASP760  ASP761  ALA762  ILE779  LEU786  VAL792 
 PHE793  MET794  SER795  GLU796  ALA797  LYS798  CYS799  TRP800  GLU811  SER814 

> <Gold.Protein.RotatedAtoms>
  151.5783  135.1059  160.0010 H   0  0  0  0  0  0  0  0  0  0  0  0  # atno 6907 bound_to 6896
  152.4367  133.7369  159.6629 H   0  0  0  0  0  0  0  0  0  0  0  0  # atno 6908 bound_to 6896
  150.8266  133.8092  159.3139 H   0  0  0  0  0  0  0  0  0  0  0  0  # atno 6909 bound_to 6896
  145.3374  139.2471  143.3628 H   0  0  0  0  0  0  0  0  0  0  0  0  # atno 7974 bound_to 7965
  156.2104  140.3025  155.9720 H   0  0  0  0  0  0  0  0  0  0  0  0  # atno 8008 bound_to 7997
  155.2738  140.0435  157.3026 H   0  0  0  0  0  0  0  0  0  0  0  0  # atno 8009 bound_to 7997
  154.5692  140.2343  155.8226 H   0  0  0  0  0  0  0  0  0  0  0  0  # atno 8010 bound_to 7997
  140.5813  143.2327  151.6337 H   0  0  0  0  0  0  0  0  0  0  0  0  # atno 10167 bound_to 10162
  156.3839  130.7851  151.2046 H   0  0  0  0  0  0  0  0  0  0  0  0  # atno 10718 bound_to 10713
  153.3291  135.6974  153.6963 H   0  0  0  0  0  0  0  0  0  0  0  0  # atno 10763 bound_to 10752
  153.5773  135.3504  155.2862 H   0  0  0  0  0  0  0  0  0  0  0  0  # atno 10764 bound_to 10752
  154.8614  135.4286  154.2475 H   0  0  0  0  0  0  0  0  0  0  0  0  # atno 10765 bound_to 10752
  140.0731  134.9140  157.1378 H   0  0  0  0  0  0  0  0  0  0  0  0  # atno 11005 bound_to 11000
  146.3021  140.3964  142.8700 LP  0  0  0  0  0  0  0  0  0  0  0  0  # atno 17320 bound_to 7965
  144.8817  140.7408  143.5983 LP  0  0  0  0  0  0  0  0  0  0  0  0  # atno 17321 bound_to 7965
  139.5171  144.3325  152.0813 LP  0  0  0  0  0  0  0  0  0  0  0  0  # atno 17342 bound_to 10162
  140.2476  144.4203  150.6235 LP  0  0  0  0  0  0  0  0  0  0  0  0  # atno 17343 bound_to 10162
  157.7494  131.0336  150.4279 LP  0  0  0  0  0  0  0  0  0  0  0  0  # atno 17370 bound_to 10713
  156.4527  130.4015  149.6625 LP  0  0  0  0  0  0  0  0  0  0  0  0  # atno 17371 bound_to 10713
  140.3598  134.2507  155.7188 LP  0  0  0  0  0  0  0  0  0  0  0  0  # atno 17394 bound_to 11000
  141.2019  133.7950  157.0416 LP  0  0  0  0  0  0  0  0  0  0  0  0  # atno 17395 bound_to 11000

$$$$
