AV-unprocessed.smi:467|AV-procd|sdf|2650|dock10
  -GOLD-   2262023 63D 1   1.00000     0.00000
 Structure written by MMmdl.
 46 48  0  0  0  0  0  0  0  0  3 V2000
  152.1882  143.2372  160.3552 C   0  0  0  0  0  0  0  0  0  0  0  0
  151.8598  142.4332  159.1086 C   0  0  0  0  0  0  0  0  0  0  0  0
  150.8990  142.9468  158.2087 C   0  0  0  0  0  0  0  0  0  0  0  0
  150.6224  142.1905  157.0760 C   0  0  0  0  0  0  0  0  0  0  0  0
  149.7435  142.4220  156.0161 N   0  3  0  0  0  0  0  0  0  0  0  0
  149.8199  141.3918  155.1294 C   0  0  0  0  0  0  0  0  0  0  0  0
  150.7352  140.5046  155.6065 N   0  0  0  0  0  0  0  0  0  0  0  0
  151.1906  139.2301  155.0312 C   0  0  0  0  0  0  0  0  0  0  0  0
  150.0382  138.2310  154.8074 C   0  0  1  0  0  0  0  0  0  0  0  0
  149.5467  138.3598  153.4867 O   0  0  0  0  0  0  0  0  0  0  0  0
  150.4910  136.7738  155.0277 C   0  0  0  0  0  0  0  0  0  0  0  0
  149.5366  135.7876  154.4583 N   0  3  0  0  0  0  0  0  0  0  0  0
  150.0374  134.3952  154.5478 C   0  0  0  0  0  0  0  0  0  0  0  0
  149.0409  133.4198  153.8979 C   0  0  0  0  0  0  0  0  0  0  0  0
  147.7681  133.5532  154.5178 O   0  0  0  0  0  0  0  0  0  0  0  0
  147.2349  134.8621  154.3608 C   0  0  0  0  0  0  0  0  0  0  0  0
  148.1702  135.8835  155.0302 C   0  0  0  0  0  0  0  0  0  0  0  0
  151.2616  140.9610  156.8218 C   0  0  0  0  0  0  0  0  0  0  0  0
  152.2091  140.4398  157.7005 C   0  0  0  0  0  0  0  0  0  0  0  0
  152.5055  141.1948  158.8581 C   0  0  0  0  0  0  0  0  0  0  0  0
  153.5365  140.6514  159.8329 C   0  0  0  0  0  0  0  0  0  0  0  0
  151.6469  144.1835  160.3737 H   0  0  0  0  0  0  0  0  0  0  0  0
  153.2539  143.4635  160.3976 H   0  0  0  0  0  0  0  0  0  0  0  0
  151.9156  142.6800  161.2518 H   0  0  0  0  0  0  0  0  0  0  0  0
  150.4027  143.8885  158.3934 H   0  0  0  0  0  0  0  0  0  0  0  0
  149.2564  141.2972  154.2122 H   0  0  0  0  0  0  0  0  0  0  0  0
  151.7385  139.4217  154.1084 H   0  0  0  0  0  0  0  0  0  0  0  0
  151.9135  138.8078  155.7307 H   0  0  0  0  0  0  0  0  0  0  0  0
  149.2297  138.4839  155.4928 H   0  0  0  0  0  0  0  0  0  0  0  0
  149.3252  137.5009  153.1603 H   0  0  0  0  0  0  0  0  0  0  0  0
  151.4739  136.6434  154.5714 H   0  0  0  0  0  0  0  0  0  0  0  0
  150.6232  136.5693  156.0913 H   0  0  0  0  0  0  0  0  0  0  0  0
  151.0035  134.3159  154.0477 H   0  0  0  0  0  0  0  0  0  0  0  0
  150.1940  134.1287  155.5945 H   0  0  0  0  0  0  0  0  0  0  0  0
  148.9579  133.6035  152.8253 H   0  0  0  0  0  0  0  0  0  0  0  0
  149.3864  132.3929  154.0190 H   0  0  0  0  0  0  0  0  0  0  0  0
  147.1017  135.0904  153.3020 H   0  0  0  0  0  0  0  0  0  0  0  0
  146.2474  134.8984  154.8212 H   0  0  0  0  0  0  0  0  0  0  0  0
  148.2085  135.7008  156.1053 H   0  0  0  0  0  0  0  0  0  0  0  0
  147.7652  136.8852  154.8918 H   0  0  0  0  0  0  0  0  0  0  0  0
  152.7053  139.4997  157.5128 H   0  0  0  0  0  0  0  0  0  0  0  0
  153.8908  139.6652  159.5310 H   0  0  0  0  0  0  0  0  0  0  0  0
  153.1101  140.5589  160.8321 H   0  0  0  0  0  0  0  0  0  0  0  0
  154.4001  141.3153  159.8841 H   0  0  0  0  0  0  0  0  0  0  0  0
  149.4623  135.9980  153.4727 H   0  0  0  0  0  0  0  0  0  0  0  0
  149.1356  143.2235  155.9039 H   0  0  0  0  0  0  0  0  0  0  0  0
  1  2  1  0  0  0  0
  1 22  1  0  0  0  0
  1 23  1  0  0  0  0
  1 24  1  0  0  0  0
  2 20  1  0  0  0  0
  2  3  2  0  0  0  0
  3  4  1  0  0  0  0
  3 25  1  0  0  0  0
  4 18  2  0  0  0  0
  4  5  1  0  0  0  0
  5  6  2  0  0  0  0
  5 46  1  0  0  0  0
  6  7  1  0  0  0  0
  6 26  1  0  0  0  0
  7  8  1  0  0  0  0
  7 18  1  0  0  0  0
  8  9  1  0  0  0  0
  8 27  1  0  0  0  0
  8 28  1  0  0  0  0
  9 10  1  0  0  0  0
  9 11  1  0  0  0  0
  9 29  1  0  0  0  0
 10 30  1  0  0  0  0
 11 12  1  0  0  0  0
 11 31  1  0  0  0  0
 11 32  1  0  0  0  0
 12 17  1  0  0  0  0
 12 13  1  0  0  0  0
 12 45  1  0  0  0  0
 13 14  1  0  0  0  0
 13 33  1  0  0  0  0
 13 34  1  0  0  0  0
 14 15  1  0  0  0  0
 14 35  1  0  0  0  0
 14 36  1  0  0  0  0
 15 16  1  0  0  0  0
 16 17  1  0  0  0  0
 16 37  1  0  0  0  0
 16 38  1  0  0  0  0
 17 39  1  0  0  0  0
 17 40  1  0  0  0  0
 18 19  1  0  0  0  0
 19 20  2  0  0  0  0
 19 41  1  0  0  0  0
 20 21  1  0  0  0  0
 21 42  1  0  0  0  0
 21 43  1  0  0  0  0
 21 44  1  0  0  0  0
M  CHG  1   5   1
M  CHG  1  12   1
M  END
> <s_m_source_file>
AV-unprocessed.smi

> <i_m_source_file_index>
467

> <i_lp_mmshare_version>
43012

> <i_f3d_flags>
0

> <s_epik_input>
W0NIM11jKFtjSF0xKWMoW0NIM10pW2NIXWMoYzEyKW4oW2NIXW4yKVtDSDJdW0NASF0oW09IXSlbQ0gyXU4zW0NIMl1bQ0gyXU9bQ0gyXVtDSDJdMw==

> <s_epik_cmdline>
J2VwaWtfcHl0aG9uJywgJy1waCcsICc3LjAnLCAnLXRuJywgJzgnLCAnLW1hJywgJzIwMCcsICctbWV0YWxfYmluZGluZycsICctaW1hZScsICc8aW5maWxlLm1hZT4nLCAnLW9tYWUnLCAnPG91dGZpbGUubWFlPic=

> <r_epik_Ionization_Penalty>
1.88533

> <r_epik_Ionization_Penalty_Charging>
1.88531

> <r_epik_Ionization_Penalty_Neutral>
1.42224e-05

> <r_epik_State_Penalty>
1.94609

> <r_epik_Charging_Adjusted_Penalty>
3.8314

> <i_epik_Tot_Q>
2

> <i_epik_Tot_abs_Q>
2

> <r_epik_Metal_State_Penalty>
5.95915

> <b_epik_Metal_Only>
0

> <s_lp_Force_Field>
OPLS_2005

> <r_lp_Energy>
30.7546

> <b_lp_Chiralities_Consistent>
1

> <s_lp_Variant>
AV-unprocessed.smi:467-8

> <Gold.Version>
5.8.1

> <Gold.Id.Protein>
6NUR|6NUR_protein|mol2

> <Gold.PLP.Fitness>
55.5392

> <Gold.PLP.PLP>
-41.6930

> <Gold.PLP.part.hbond>
-3.8233

> <Gold.PLP.part.metal>
0.0000

> <Gold.PLP.part.buried>
-4.4023

> <Gold.PLP.part.nonpolar>
-33.8387

> <Gold.PLP.part.repulsive>
0.2080

> <Gold.PLP.ligand.clash>
0.0000

> <Gold.PLP.ligand.torsion>
0.5927

> <Gold.PLP.Chemscore.Hbond>
5.0000

> <Gold.PLP.Chemscore.CHOScore>
0.0000

> <Gold.PLP.Chemscore.Metal>
0.0000

> <Gold.Chemscore.Hbonds>
donor molecule, donor type, donor heavy atom, donor atom, acceptor molecule, acceptor atom, score
      L1  H     5    46       P1  8028  2.00
      L1  H    10    30       P1  7948  1.00
      L1  H    12    45       P1  7948  2.00

> <Gold.PLP.Chemscore.Internal.Correction>
0.0316

> <Gold.Rescore>
     Score         DG    S(hbond)    S(metal)    S(lipo)     H(rot)  DE(clash)    DE(int)     intcor
     20.47     -21.26       2.89        0.00      99.69       2.16       0.16       0.62       ----

> <Gold.Chemscore.Fitness>
20.4742

> <Gold.Chemscore.DG>
-21.2566

> <Gold.Chemscore.ZeroCoef>
-5.4800

> <Gold.Chemscore.Hbond>
2.8862

> <Gold.Chemscore.Metal>
0.0000

> <Gold.Chemscore.Lipo>
99.6948

> <Gold.Chemscore.Internal_Hbond>
0.0000

> <Gold.Chemscore.DEClash>
0.1638

> <Gold.Chemscore.DEInternal>
0.6186

> <Gold.Chemscore.Rot>
2.1592

> <Gold.Chemscore.Internal.Correction>
   9.000000E+99

> <Gold.Chemscore.Hbonds>
donor molecule, donor type, donor heavy atom, donor atom, acceptor molecule, acceptor atom, score
      L1  H     5    46       P1  8028  0.91
      L1  H    10    30       P1  7948  0.95
      L1  H    12    45       P1  7948  0.45

> <Gold.Chemscore.Hbond.Weighted>
-9.6398

> <Gold.Chemscore.Metal.Weighted>
-0.0000

> <Gold.Chemscore.Lipo.Weighted>
-11.6643

> <Gold.Chemscore.Internal_Hbond.Weighted>
0.0000

> <Gold.Chemscore.DEClash.Weighted>
0.1638

> <Gold.Chemscore.DEInternal.Weighted>
0.6186

> <Gold.Chemscore.Rot.Weighted>
5.5275

> <Gold.Chemscore.Internal.Correction.Weighted>
   9.000000E+99

> <Gold.Protein.RotatedTorsions>
[ 6907 6896 6895 6894 ] final -131.76 input  -60.11 | X-H torsion
[ 7974 7965 7964 7962 ] final  119.44 input  175.53 | X-H torsion
[ 8008 7997 7996 7995 ] final  163.04 input   59.86 | X-H torsion
[ 10167 10162 10161 10158 ] final -106.59 input  -65.29 | X-H torsion
[ 10718 10713 10712 10709 ] final    7.44 input   66.30 | X-H torsion
[ 10763 10752 10751 10750 ] final  -36.82 input  -60.55 | X-H torsion
[ 11005 11000 10999 10996 ] final -130.79 input  -57.11 | X-H torsion

> <Gold.Protein.ActiveResidues>
 VAL166  LYS551  ARG553  GLY616  TRP617  ASP618  TYR619  PRO620  LYS621  CYS622 
 ASP623  PHE694  ASN695  SER759  ASP760  ASP761  ALA762  ILE779  LEU786  VAL792 
 PHE793  MET794  SER795  GLU796  ALA797  LYS798  CYS799  TRP800  GLU811  SER814 

> <Gold.Protein.RotatedAtoms>
  150.9546  133.6512  159.2765 H   0  0  0  0  0  0  0  0  0  0  0  0  # atno 6907 bound_to 6896
  151.3856  135.0946  159.9519 H   0  0  0  0  0  0  0  0  0  0  0  0  # atno 6908 bound_to 6896
  152.5123  133.9071  159.7524 H   0  0  0  0  0  0  0  0  0  0  0  0  # atno 6909 bound_to 6896
  145.1431  139.3256  143.4605 H   0  0  0  0  0  0  0  0  0  0  0  0  # atno 7974 bound_to 7965
  156.1987  140.1734  156.7945 H   0  0  0  0  0  0  0  0  0  0  0  0  # atno 8008 bound_to 7997
  154.5563  140.0708  156.8779 H   0  0  0  0  0  0  0  0  0  0  0  0  # atno 8009 bound_to 7997
  155.2933  140.3357  155.4253 H   0  0  0  0  0  0  0  0  0  0  0  0  # atno 8010 bound_to 7997
  140.1861  143.3928  152.1243 H   0  0  0  0  0  0  0  0  0  0  0  0  # atno 10167 bound_to 10162
  156.9370  130.5847  149.5651 H   0  0  0  0  0  0  0  0  0  0  0  0  # atno 10718 bound_to 10713
  153.8860  135.6817  153.4763 H   0  0  0  0  0  0  0  0  0  0  0  0  # atno 10763 bound_to 10752
  153.1207  135.4741  154.9188 H   0  0  0  0  0  0  0  0  0  0  0  0  # atno 10764 bound_to 10752
  154.7645  135.3220  154.8265 H   0  0  0  0  0  0  0  0  0  0  0  0  # atno 10765 bound_to 10752
  140.9315  134.1313  157.4230 H   0  0  0  0  0  0  0  0  0  0  0  0  # atno 11005 bound_to 11000
  146.3503  140.1476  142.8593 LP  0  0  0  0  0  0  0  0  0  0  0  0  # atno 17320 bound_to 7965
  145.0511  140.9018  143.4995 LP  0  0  0  0  0  0  0  0  0  0  0  0  # atno 17321 bound_to 7965
  139.5275  144.7120  151.5174 LP  0  0  0  0  0  0  0  0  0  0  0  0  # atno 17342 bound_to 10162
  140.6487  143.8741  150.6763 LP  0  0  0  0  0  0  0  0  0  0  0  0  # atno 17343 bound_to 10162
  156.0421  130.5503  150.8796 LP  0  0  0  0  0  0  0  0  0  0  0  0  # atno 17370 bound_to 10713
  157.5810  131.0946  150.9271 LP  0  0  0  0  0  0  0  0  0  0  0  0  # atno 17371 bound_to 10713
  139.8797  135.0006  156.6023 LP  0  0  0  0  0  0  0  0  0  0  0  0  # atno 17394 bound_to 11000
  140.7856  133.8624  155.8603 LP  0  0  0  0  0  0  0  0  0  0  0  0  # atno 17395 bound_to 11000

$$$$
