#       Name:                AV-unprocessed.smi:2923
#       Creating user name   scv26
#       Creation time:       Fri Mar 27 16:10:34 2020


#       File generated by GOLD software.
#

@<TRIPOS>MOLECULE
AV-unprocessed.smi:2923
    52    54     1
SMALL
NO_CHARGES


@<TRIPOS>ATOM
      1 ****        -6.6762   0.8191   1.0680 C.3            1 S1                 0.0000
      2 ****        -6.0114   1.1908  -0.1711 N.3            1 S1                 0.0000
      3 ****        -6.6575   0.7608  -1.4017 C.3            1 S1                 0.0000
      4 ****        -4.6361   0.9248  -0.1494 C.ar           1 S1                 0.0000
      5 ****        -4.1431  -0.3996  -0.1716 C.ar           1 S1                 0.0000
      6 ****        -2.7506  -0.6059  -0.1450 C.ar           1 S1                 0.0000
      7 ****        -1.8940   0.5193  -0.0894 C.ar           1 S1                 0.0000
      8 ****        -0.4749   0.4471  -0.0753 N.am           1 S1                 0.0000
      9 ****         0.3089  -0.5847   0.2812 C.2            1 S1                 0.0000
     10 ****        -0.0895  -1.6812   0.6730 O.2            1 S1                 0.0000
     11 ****         1.6039  -0.2623   0.1726 N.am           1 S1                 0.0000
     12 ****         2.7271  -1.1487   0.4843 C.3            1 S1                 0.0000
     13 ****         3.8031  -0.4702   1.3619 C.3            1 S1                 0.0000
     14 ****         3.5859   0.8566   2.0480 C.3            1 S1                 0.0000
     15 ****         4.2367   1.8488   1.0798 C.3            1 S1                 0.0000
     16 ****         4.2732   1.1664  -0.1721 O.3            1 S1                 0.0000
     17 ****         4.5849  -0.2009   0.0863 C.3            1 S1                 0.0000
     18 ****         3.7517  -1.2530  -0.6758 C.3            1 S1                 0.0000
     19 ****         4.4288  -2.6219  -0.7919 C.3            1 S1                 0.0000
     20 ****         3.3040  -0.8728  -2.0939 C.3            1 S1                 0.0000
     21 ****        -2.4897   1.7976  -0.0849 C.ar           1 S1                 0.0000
     22 ****        -3.8236   2.0025  -0.1081 N.ar           1 S1                 0.0000
     23 ****        -6.1237   1.1901   1.9322 H              1 S1                 0.0000
     24 ****        -6.7646  -0.2645   1.1535 H              1 S1                 0.0000
     25 ****        -7.6781   1.2475   1.1005 H              1 S1                 0.0000
     26 ****        -6.0948   1.0989  -2.2729 H              1 S1                 0.0000
     27 ****        -7.6612   1.1817  -1.4657 H              1 S1                 0.0000
     28 ****        -6.7399  -0.3259  -1.4434 H              1 S1                 0.0000
     29 ****        -4.8155  -1.2441  -0.2112 H              1 S1                 0.0000
     30 ****        -2.3732  -1.6157  -0.1810 H              1 S1                 0.0000
     31 ****         0.0027   1.3057  -0.3077 H              1 S1                 0.0000
     32 ****         1.8387   0.6637  -0.1542 H              1 S1                 0.0000
     33 ****         2.4339  -2.1244   0.8763 H              1 S1                 0.0000
     34 ****         4.3144  -1.2061   1.9846 H              1 S1                 0.0000
     35 ****         2.5284   1.0774   2.1919 H              1 S1                 0.0000
     36 ****         4.0615   0.8960   3.0284 H              1 S1                 0.0000
     37 ****         3.6885   2.7882   1.0080 H              1 S1                 0.0000
     38 ****         5.2583   2.0725   1.3905 H              1 S1                 0.0000
     39 ****         5.6548  -0.3980   0.1685 H              1 S1                 0.0000
     40 ****         5.3019  -2.5833  -1.4441 H              1 S1                 0.0000
     41 ****         3.7478  -3.3717  -1.1960 H              1 S1                 0.0000
     42 ****         4.7695  -2.9867   0.1776 H              1 S1                 0.0000
     43 ****         4.1370  -0.9009  -2.7969 H              1 S1                 0.0000
     44 ****         2.8908   0.1348  -2.1409 H              1 S1                 0.0000
     45 ****         2.5372  -1.5535  -2.4651 H              1 S1                 0.0000
     46 ****        -1.8777   2.6874  -0.0565 H              1 S1                 0.0000
     47 ****        -6.1194   2.1845  -0.2001 LP             1 S1                 0.0000
     48 ****        -1.0707  -1.8597   0.7464 LP             1 S1                 0.0000
     49 ****         0.5680  -2.3938   0.9179 LP             1 S1                 0.0000
     50 ****         4.9747   1.5702  -0.7594 LP             1 S1                 0.0000
     51 ****         3.3827   1.2332  -0.6222 LP             1 S1                 0.0000
     52 ****        -4.2004   2.9286  -0.0951 LP             1 S1                 0.0000
@<TRIPOS>BOND
    1    1    2 1     
    2    1   23 1     
    3    1   24 1     
    4    1   25 1     
    5    2    3 1     
    6    2    4 1     
    7    3   26 1     
    8    3   27 1     
    9    3   28 1     
   10    4   22 ar    
   11    4    5 ar    
   12    5    6 ar    
   13    5   29 1     
   14    6    7 ar    
   15    6   30 1     
   16    7    8 1     
   17    7   21 ar    
   18    8    9 am    
   19    8   31 1     
   20    9   10 2     
   21    9   11 am    
   22   11   12 1     
   23   11   32 1     
   24   12   18 1     
   25   12   13 1     
   26   12   33 1     
   27   13   17 1     
   28   13   14 1     
   29   13   34 1     
   30   14   15 1     
   31   14   35 1     
   32   14   36 1     
   33   15   16 1     
   34   15   37 1     
   35   15   38 1     
   36   16   17 1     
   37   17   18 1     
   38   17   39 1     
   39   18   19 1     
   40   18   20 1     
   41   19   40 1     
   42   19   41 1     
   43   19   42 1     
   44   20   43 1     
   45   20   44 1     
   46   20   45 1     
   47   21   22 ar    
   48   21   46 1     
   49    2   47 1     
   50   10   48 1     
   51   10   49 1     
   52   16   50 1     
   53   16   51 1     
   54   22   52 1     
@<TRIPOS>SUBSTRUCTURE
      1 S1             1
@<TRIPOS>SET
LONE_PAIRS      STATIC     ATOMS    <user>   **** ""
6 47 48 49 50 51 52
DONOR_HYDROGENS      STATIC     ATOMS    <user>   **** ""
2 31 32
ATOM$BLUE        STATIC     ATOMS    COLORGROUP SYSTEM
6 47 48 49 50 51 52
ATOM$RED        STATIC     ATOMS    COLORGROUP SYSTEM
2 31 32
