AV-unprocessed.smi:3284|AV-procd|sdf|12576|dock5
  -GOLD-   2272018503D 1   1.00000     0.00000
 Structure written by MMmdl.
 45 46  0  0  0  0  0  0  0  0  3 V2000
  148.3025  141.3804  154.1569 C   0  0  0  0  0  0  0  0  0  0  0  0
  149.3691  140.7799  155.0573 C   0  0  0  0  0  0  0  0  0  0  0  0
  149.5259  141.2137  156.3236 C   0  0  0  0  0  0  0  0  0  0  0  0
  150.5904  140.7155  157.2853 C   0  0  0  0  0  0  0  0  0  0  0  0
  151.3838  139.5160  156.7411 C   0  0  0  0  0  0  0  0  0  0  0  0
  151.6231  139.6386  155.2262 C   0  0  1  0  0  0  0  0  0  0  0  0
  152.6074  138.5760  154.7080 C   0  0  0  0  0  0  0  0  0  0  0  0
  150.2757  139.6996  154.4524 C   0  0  1  0  0  0  0  0  0  0  0  0
  149.5661  138.3230  154.3613 C   0  0  0  0  0  0  0  0  0  0  0  0
  148.4955  138.2953  153.3456 N   0  3  0  0  0  0  0  0  0  0  0  0
  147.1333  138.4331  153.8998 C   0  0  0  0  0  0  0  0  0  0  0  0
  146.0600  138.4145  152.7995 C   0  0  0  0  0  0  0  0  0  0  0  0
  145.6005  137.0367  152.4216 C   0  0  0  0  0  0  0  0  0  0  0  0
  146.3509  136.1165  151.8030 N   0  3  0  0  0  0  0  0  0  0  0  0
  145.6323  134.9695  151.6017 C   0  0  0  0  0  0  0  0  0  0  0  0
  144.3842  135.1997  152.1178 C   0  0  0  0  0  0  0  0  0  0  0  0
  144.3929  136.4780  152.6145 N   0  0  0  0  0  0  0  0  0  0  0  0
  143.2738  137.1617  153.2660 C   0  0  0  0  0  0  0  0  0  0  0  0
  148.7147  141.6169  153.1758 H   0  0  0  0  0  0  0  0  0  0  0  0
  147.9090  142.3049  154.5812 H   0  0  0  0  0  0  0  0  0  0  0  0
  147.4616  140.7006  154.0312 H   0  0  0  0  0  0  0  0  0  0  0  0
  148.8815  141.9927  156.7048 H   0  0  0  0  0  0  0  0  0  0  0  0
  151.2692  141.5468  157.4783 H   0  0  0  0  0  0  0  0  0  0  0  0
  150.1285  140.4589  158.2390 H   0  0  0  0  0  0  0  0  0  0  0  0
  152.3329  139.4418  157.2733 H   0  0  0  0  0  0  0  0  0  0  0  0
  150.8461  138.5924  156.9562 H   0  0  0  0  0  0  0  0  0  0  0  0
  152.1179  140.5980  155.0641 H   0  0  0  0  0  0  0  0  0  0  0  0
  152.2857  137.5643  154.9547 H   0  0  0  0  0  0  0  0  0  0  0  0
  153.5928  138.7148  155.1538 H   0  0  0  0  0  0  0  0  0  0  0  0
  152.7267  138.6418  153.6261 H   0  0  0  0  0  0  0  0  0  0  0  0
  150.5185  140.0167  153.4370 H   0  0  0  0  0  0  0  0  0  0  0  0
  150.2747  137.5404  154.0938 H   0  0  0  0  0  0  0  0  0  0  0  0
  149.1433  138.0528  155.3293 H   0  0  0  0  0  0  0  0  0  0  0  0
  148.6578  139.0546  152.6992 H   0  0  0  0  0  0  0  0  0  0  0  0
  146.9483  137.6335  154.6183 H   0  0  0  0  0  0  0  0  0  0  0  0
  147.0719  139.3743  154.4474 H   0  0  0  0  0  0  0  0  0  0  0  0
  145.1726  138.9528  153.1343 H   0  0  0  0  0  0  0  0  0  0  0  0
  146.4125  138.9193  151.9002 H   0  0  0  0  0  0  0  0  0  0  0  0
  146.0520  134.0980  151.1202 H   0  0  0  0  0  0  0  0  0  0  0  0
  143.5130  134.5619  152.1684 H   0  0  0  0  0  0  0  0  0  0  0  0
  142.4184  136.4877  153.3230 H   0  0  0  0  0  0  0  0  0  0  0  0
  142.9991  138.0413  152.6848 H   0  0  0  0  0  0  0  0  0  0  0  0
  143.5644  137.4560  154.2748 H   0  0  0  0  0  0  0  0  0  0  0  0
  148.5577  137.4221  152.8420 H   0  0  0  0  0  0  0  0  0  0  0  0
  147.3173  136.2475  151.5308 H   0  0  0  0  0  0  0  0  0  0  0  0
  1  2  1  0  0  0  0
  1 19  1  0  0  0  0
  1 20  1  0  0  0  0
  1 21  1  0  0  0  0
  2  8  1  0  0  0  0
  2  3  2  0  0  0  0
  3  4  1  0  0  0  0
  3 22  1  0  0  0  0
  4  5  1  0  0  0  0
  4 23  1  0  0  0  0
  4 24  1  0  0  0  0
  5  6  1  0  0  0  0
  5 25  1  0  0  0  0
  5 26  1  0  0  0  0
  6  7  1  0  0  0  0
  6  8  1  0  0  0  0
  6 27  1  0  0  0  0
  7 28  1  0  0  0  0
  7 29  1  0  0  0  0
  7 30  1  0  0  0  0
  8  9  1  0  0  0  0
  8 31  1  0  0  0  0
  9 10  1  0  0  0  0
  9 32  1  0  0  0  0
  9 33  1  0  0  0  0
 10 11  1  0  0  0  0
 10 34  1  0  0  0  0
 10 44  1  0  0  0  0
 11 12  1  0  0  0  0
 11 35  1  0  0  0  0
 11 36  1  0  0  0  0
 12 13  1  0  0  0  0
 12 37  1  0  0  0  0
 12 38  1  0  0  0  0
 13 17  1  0  0  0  0
 13 14  2  0  0  0  0
 14 15  1  0  0  0  0
 14 45  1  0  0  0  0
 15 16  2  0  0  0  0
 15 39  1  0  0  0  0
 16 17  1  0  0  0  0
 16 40  1  0  0  0  0
 17 18  1  0  0  0  0
 18 41  1  0  0  0  0
 18 42  1  0  0  0  0
 18 43  1  0  0  0  0
M  CHG  1  10   1
M  CHG  1  14   1
M  END
> <s_m_source_file>
AV-unprocessed.smi

> <i_m_source_file_index>
3284

> <i_lp_mmshare_version>
43012

> <i_f3d_flags>
0

> <s_epik_input>
W0NIM11DMT1bQ0hdW0NIMl1bQ0gyXVtDQEBIXShbQ0gzXSlbQ0BIXTFbQ0gyXVtOSF1bQ0gyXVtDSDJdYzJuW2NIXVtjSF1uMltDSDNd

> <s_epik_cmdline>
J2VwaWtfcHl0aG9uJywgJy1waCcsICc3LjAnLCAnLXRuJywgJzgnLCAnLW1hJywgJzIwMCcsICctbWV0YWxfYmluZGluZycsICctaW1hZScsICc8aW5maWxlLm1hZT4nLCAnLW9tYWUnLCAnPG91dGZpbGUubWFlPic=

> <r_lp_tautomer_probability>
1

> <r_epik_Ionization_Penalty>
0.892846

> <r_epik_Ionization_Penalty_Charging>
0.00275802

> <r_epik_Ionization_Penalty_Neutral>
0.890088

> <r_epik_State_Penalty>
0.485211

> <r_epik_Charging_Adjusted_Penalty>
0.487969

> <i_epik_Tot_Q>
2

> <i_epik_Tot_abs_Q>
2

> <r_epik_Metal_State_Penalty>
4.22898

> <b_epik_Metal_Only>
0

> <s_lp_Force_Field>
OPLS_2005

> <r_lp_Energy>
25.5845

> <b_lp_Chiralities_Consistent>
1

> <s_lp_Variant>
AV-unprocessed.smi:3284-5

> <Gold.Version>
5.8.1

> <Gold.Id.Protein>
6NUR|6NUR_protein|mol2

> <Gold.PLP.Fitness>
49.7714

> <Gold.PLP.PLP>
-35.9278

> <Gold.PLP.part.hbond>
-2.7510

> <Gold.PLP.part.metal>
0.0000

> <Gold.PLP.part.buried>
-0.8919

> <Gold.PLP.part.nonpolar>
-33.3336

> <Gold.PLP.part.repulsive>
0.1435

> <Gold.PLP.ligand.clash>
0.0000

> <Gold.PLP.ligand.torsion>
0.5786

> <Gold.PLP.Chemscore.Hbond>
4.9840

> <Gold.PLP.Chemscore.CHOScore>
0.0000

> <Gold.PLP.Chemscore.Metal>
0.0000

> <Gold.Chemscore.Hbonds>
donor molecule, donor type, donor heavy atom, donor atom, acceptor molecule, acceptor atom, score
      L1  H    10    34       P1  7957  0.96
      L1  H    10    44       P1  7948  2.00
      L1  H    14    45       P1  7948  2.00

> <Gold.PLP.Chemscore.Internal.Correction>
0.0488

> <Gold.Rescore>
     Score         DG    S(hbond)    S(metal)    S(lipo)     H(rot)  DE(clash)    DE(int)     intcor
     19.82     -20.57       2.91        0.00      83.21       1.70       0.24       0.51       ----

> <Gold.Chemscore.Fitness>
19.8238

> <Gold.Chemscore.DG>
-20.5671

> <Gold.Chemscore.ZeroCoef>
-5.4800

> <Gold.Chemscore.Hbond>
2.9051

> <Gold.Chemscore.Metal>
0.0000

> <Gold.Chemscore.Lipo>
83.2091

> <Gold.Chemscore.Internal_Hbond>
0.0000

> <Gold.Chemscore.DEClash>
0.2381

> <Gold.Chemscore.DEInternal>
0.5053

> <Gold.Chemscore.Rot>
1.6997

> <Gold.Chemscore.Internal.Correction>
   9.000000E+99

> <Gold.Chemscore.Hbonds>
donor molecule, donor type, donor heavy atom, donor atom, acceptor molecule, acceptor atom, score
      L1  H    10    34       P1  7957  0.88
      L1  H    10    44       P1  7948  0.97
      L1  H    14    45       P1  7948  0.97

> <Gold.Chemscore.Hbond.Weighted>
-9.7029

> <Gold.Chemscore.Metal.Weighted>
-0.0000

> <Gold.Chemscore.Lipo.Weighted>
-9.7355

> <Gold.Chemscore.Internal_Hbond.Weighted>
0.0000

> <Gold.Chemscore.DEClash.Weighted>
0.2381

> <Gold.Chemscore.DEInternal.Weighted>
0.5053

> <Gold.Chemscore.Rot.Weighted>
4.3512

> <Gold.Chemscore.Internal.Correction.Weighted>
   9.000000E+99

> <Gold.Protein.RotatedTorsions>
[ 6907 6896 6895 6894 ] final -164.40 input  -60.11 | X-H torsion
[ 7974 7965 7964 7962 ] final  114.30 input  175.53 | X-H torsion
[ 8008 7997 7996 7995 ] final  109.84 input   59.86 | X-H torsion
[ 10167 10162 10161 10158 ] final   92.10 input  -65.29 | X-H torsion
[ 10718 10713 10712 10709 ] final  149.95 input   66.30 | X-H torsion
[ 10763 10752 10751 10750 ] final  -97.51 input  -60.55 | X-H torsion
[ 11005 11000 10999 10996 ] final   54.71 input  -57.11 | X-H torsion

> <Gold.Protein.ActiveResidues>
 VAL166  LYS551  ARG553  GLY616  TRP617  ASP618  TYR619  PRO620  LYS621  CYS622 
 ASP623  PHE694  ASN695  SER759  ASP760  ASP761  ALA762  ILE779  LEU786  VAL792 
 PHE793  MET794  SER795  GLU796  ALA797  LYS798  CYS799  TRP800  GLU811  SER814 

> <Gold.Protein.RotatedAtoms>
  151.4112  133.3727  159.2743 H   0  0  0  0  0  0  0  0  0  0  0  0  # atno 6907 bound_to 6896
  150.9361  134.8775  159.7593 H   0  0  0  0  0  0  0  0  0  0  0  0  # atno 6908 bound_to 6896
  152.5050  134.4060  159.9484 H   0  0  0  0  0  0  0  0  0  0  0  0  # atno 6909 bound_to 6896
  145.2061  139.2928  143.4293 H   0  0  0  0  0  0  0  0  0  0  0  0  # atno 7974 bound_to 7965
  156.2009  140.3050  155.9524 H   0  0  0  0  0  0  0  0  0  0  0  0  # atno 8008 bound_to 7997
  155.2956  140.0444  157.3043 H   0  0  0  0  0  0  0  0  0  0  0  0  # atno 8009 bound_to 7997
  154.5569  140.2308  155.8404 H   0  0  0  0  0  0  0  0  0  0  0  0  # atno 8010 bound_to 7997
  139.8310  144.6687  150.9400 H   0  0  0  0  0  0  0  0  0  0  0  0  # atno 10167 bound_to 10162
  157.2896  131.0851  151.1472 H   0  0  0  0  0  0  0  0  0  0  0  0  # atno 10718 bound_to 10713
  154.7334  135.5044  153.9002 H   0  0  0  0  0  0  0  0  0  0  0  0  # atno 10763 bound_to 10752
  153.0972  135.6675  153.9750 H   0  0  0  0  0  0  0  0  0  0  0  0  # atno 10764 bound_to 10752
  153.9545  135.3054  155.3416 H   0  0  0  0  0  0  0  0  0  0  0  0  # atno 10765 bound_to 10752
  140.0665  134.5530  155.9094 H   0  0  0  0  0  0  0  0  0  0  0  0  # atno 11005 bound_to 11000
  146.3407  140.2322  142.8593 LP  0  0  0  0  0  0  0  0  0  0  0  0  # atno 17320 bound_to 7965
  144.9901  140.8539  143.5345 LP  0  0  0  0  0  0  0  0  0  0  0  0  # atno 17321 bound_to 7965
  140.7806  143.4001  151.1163 LP  0  0  0  0  0  0  0  0  0  0  0  0  # atno 17342 bound_to 10162
  139.7655  143.8572  152.3109 LP  0  0  0  0  0  0  0  0  0  0  0  0  # atno 17343 bound_to 10162
  157.2873  130.6779  149.6096 LP  0  0  0  0  0  0  0  0  0  0  0  0  # atno 17370 bound_to 10713
  155.9666  130.4431  150.5409 LP  0  0  0  0  0  0  0  0  0  0  0  0  # atno 17371 bound_to 10713
  141.1995  133.6607  156.5845 LP  0  0  0  0  0  0  0  0  0  0  0  0  # atno 17394 bound_to 11000
  140.3691  134.7621  157.4587 LP  0  0  0  0  0  0  0  0  0  0  0  0  # atno 17395 bound_to 11000

$$$$
