AV-unprocessed.smi:2829|AV-procd|sdf|10905|dock10
  -GOLD-   2272015353D 1   1.00000     0.00000
 Structure written by MMmdl.
 50 53  0  0  0  0  0  0  0  0  1 V2000
  149.9291  128.2125  154.8381 C   0  0  0  0  0  0  0  0  0  0  0  0
  148.8077  128.8232  153.9723 C   0  0  0  0  0  0  0  0  0  0  0  0
  148.9436  128.3323  152.5161 C   0  0  0  0  0  0  0  0  0  0  0  0
  147.4609  128.2949  154.5160 C   0  0  0  0  0  0  0  0  0  0  0  0
  148.8969  130.3595  154.0137 C   0  0  0  0  0  0  0  0  0  0  0  0
  149.8451  131.0586  154.7944 C   0  0  0  0  0  0  0  0  0  0  0  0
  149.8227  132.4626  154.7487 C   0  0  0  0  0  0  0  0  0  0  0  0
  148.8636  133.0931  153.9312 C   0  0  0  0  0  0  0  0  0  0  0  0
  148.9020  134.5116  153.9334 N   0  0  0  0  0  0  0  0  0  0  0  0
  149.1101  135.3398  154.9764 C   0  0  0  0  0  0  0  0  0  0  0  0
  149.3340  134.9751  156.1289 O   0  0  0  0  0  0  0  0  0  0  0  0
  149.0473  136.6443  154.6570 N   0  0  0  0  0  0  0  0  0  0  0  0
  149.2276  137.7896  155.5593 C   0  0  1  0  0  0  0  0  0  0  0  0
  150.6872  138.2289  155.7362 C   0  0  1  0  0  0  0  0  0  0  0  0
  152.0139  137.5738  155.6051 C   0  0  0  0  0  0  0  0  0  0  0  0
  152.7535  138.7732  154.9590 C   0  0  0  0  0  0  0  0  0  0  0  0
  151.7273  139.7491  154.6461 O   0  0  0  0  0  0  0  0  0  0  0  0
  150.5594  138.9804  154.4212 C   0  0  2  0  0  0  0  0  0  0  0  0
  149.0929  139.1750  154.8480 C   0  0  0  0  0  0  0  0  0  0  0  0
  147.9983  139.4626  153.8126 C   0  0  0  0  0  0  0  0  0  0  0  0
  147.9972  140.9188  154.2899 C   0  0  0  0  0  0  0  0  0  0  0  0
  148.6533  140.4467  155.5914 C   0  0  0  0  0  0  0  0  0  0  0  0
  147.9833  132.3591  153.2059 N   0  0  0  0  0  0  0  0  0  0  0  0
  147.9986  131.0235  153.2459 N   0  0  0  0  0  0  0  0  0  0  0  0
  149.8776  127.1232  154.8450 H   0  0  0  0  0  0  0  0  0  0  0  0
  149.8589  128.5516  155.8723 H   0  0  0  0  0  0  0  0  0  0  0  0
  150.9191  128.4840  154.4701 H   0  0  0  0  0  0  0  0  0  0  0  0
  149.9043  128.6116  152.0823 H   0  0  0  0  0  0  0  0  0  0  0  0
  148.1622  128.7530  151.8823 H   0  0  0  0  0  0  0  0  0  0  0  0
  148.8676  127.2461  152.4540 H   0  0  0  0  0  0  0  0  0  0  0  0
  147.4192  127.2057  154.4767 H   0  0  0  0  0  0  0  0  0  0  0  0
  146.6170  128.6667  153.9338 H   0  0  0  0  0  0  0  0  0  0  0  0
  147.3059  128.5814  155.5569 H   0  0  0  0  0  0  0  0  0  0  0  0
  150.5736  130.5606  155.4150 H   0  0  0  0  0  0  0  0  0  0  0  0
  150.5281  133.0390  155.3295 H   0  0  0  0  0  0  0  0  0  0  0  0
  148.7330  134.9529  153.0416 H   0  0  0  0  0  0  0  0  0  0  0  0
  148.8434  136.8670  153.6934 H   0  0  0  0  0  0  0  0  0  0  0  0
  148.6617  137.7256  156.4898 H   0  0  0  0  0  0  0  0  0  0  0  0
  150.7165  138.9123  156.5930 H   0  0  0  0  0  0  0  0  0  0  0  0
  152.4405  137.2799  156.5642 H   0  0  0  0  0  0  0  0  0  0  0  0
  151.9856  136.7084  154.9419 H   0  0  0  0  0  0  0  0  0  0  0  0
  153.4845  139.2151  155.6366 H   0  0  0  0  0  0  0  0  0  0  0  0
  153.2742  138.4650  154.0516 H   0  0  0  0  0  0  0  0  0  0  0  0
  150.6614  138.3487  153.5337 H   0  0  0  0  0  0  0  0  0  0  0  0
  148.3020  139.3237  152.7746 H   0  0  0  0  0  0  0  0  0  0  0  0
  147.0631  138.9460  154.0335 H   0  0  0  0  0  0  0  0  0  0  0  0
  148.6535  141.5569  153.6959 H   0  0  0  0  0  0  0  0  0  0  0  0
  147.0068  141.3581  154.4116 H   0  0  0  0  0  0  0  0  0  0  0  0
  147.9271  140.2445  156.3801 H   0  0  0  0  0  0  0  0  0  0  0  0
  149.4683  141.0793  155.9442 H   0  0  0  0  0  0  0  0  0  0  0  0
  1  2  1  0  0  0  0
  1 25  1  0  0  0  0
  1 26  1  0  0  0  0
  1 27  1  0  0  0  0
  2  3  1  0  0  0  0
  2  4  1  0  0  0  0
  2  5  1  0  0  0  0
  3 28  1  0  0  0  0
  3 29  1  0  0  0  0
  3 30  1  0  0  0  0
  4 31  1  0  0  0  0
  4 32  1  0  0  0  0
  4 33  1  0  0  0  0
  5 24  1  0  0  0  0
  5  6  2  0  0  0  0
  6  7  1  0  0  0  0
  6 34  1  0  0  0  0
  7  8  2  0  0  0  0
  7 35  1  0  0  0  0
  8  9  1  0  0  0  0
  8 23  1  0  0  0  0
  9 10  1  0  0  0  0
  9 36  1  0  0  0  0
 10 11  2  0  0  0  0
 10 12  1  0  0  0  0
 12 13  1  0  0  0  0
 12 37  1  0  0  0  0
 13 19  1  0  0  0  0
 13 14  1  0  0  0  0
 13 38  1  0  0  0  0
 14 18  1  0  0  0  0
 14 15  1  0  0  0  0
 14 39  1  0  0  0  0
 15 16  1  0  0  0  0
 15 40  1  0  0  0  0
 15 41  1  0  0  0  0
 16 17  1  0  0  0  0
 16 42  1  0  0  0  0
 16 43  1  0  0  0  0
 17 18  1  0  0  0  0
 18 19  1  0  0  0  0
 18 44  1  0  0  0  0
 19 22  1  0  0  0  0
 19 20  1  0  0  0  0
 20 21  1  0  0  0  0
 20 45  1  0  0  0  0
 20 46  1  0  0  0  0
 21 22  1  0  0  0  0
 21 47  1  0  0  0  0
 21 48  1  0  0  0  0
 22 49  1  0  0  0  0
 22 50  1  0  0  0  0
 23 24  2  0  0  0  0
M  END
> <s_m_source_file>
AV-unprocessed.smi

> <i_m_source_file_index>
2829

> <i_lp_mmshare_version>
43012

> <i_f3d_flags>
0

> <s_epik_input>
W0NIM11DKFtDSDNdKShbQ0gzXSljMVtjSF1bY0hdYyhubjEpW05IXUMoPU8pW05IXVtDQEBIXTJbQ0BIXShbQ0gyXVtDSDJdTzMpW0NAQEhdM0MyNFtDSDJdW0NIMl1bQ0gyXTQ=

> <s_epik_cmdline>
J2VwaWtfcHl0aG9uJywgJy1waCcsICc3LjAnLCAnLXRuJywgJzgnLCAnLW1hJywgJzIwMCcsICctbWV0YWxfYmluZGluZycsICctaW1hZScsICc8aW5maWxlLm1hZT4nLCAnLW9tYWUnLCAnPG91dGZpbGUubWFlPic=

> <r_lp_tautomer_probability>
1

> <r_epik_Ionization_Penalty>
0.011915

> <r_epik_Ionization_Penalty_Charging>
0

> <r_epik_Ionization_Penalty_Neutral>
0.011915

> <r_epik_State_Penalty>
0.00486223

> <r_epik_Charging_Adjusted_Penalty>
0.00486223

> <i_epik_Tot_Q>
0

> <i_epik_Tot_abs_Q>
0

> <r_epik_Metal_State_Penalty>
-0

> <b_epik_Metal_Only>
0

> <s_lp_Force_Field>
OPLS_2005

> <r_lp_Energy>
85.0365

> <b_lp_Chiralities_Consistent>
1

> <s_lp_Variant>
AV-unprocessed.smi:2829-8

> <Gold.Version>
5.8.1

> <Gold.Id.Protein>
6NUR|6NUR_protein|mol2

> <Gold.PLP.Fitness>
41.6410

> <Gold.PLP.PLP>
-33.6240

> <Gold.PLP.part.hbond>
-3.0000

> <Gold.PLP.part.metal>
0.0000

> <Gold.PLP.part.buried>
-3.4914

> <Gold.PLP.part.nonpolar>
-27.8183

> <Gold.PLP.part.repulsive>
0.4492

> <Gold.PLP.ligand.clash>
0.0000

> <Gold.PLP.ligand.torsion>
0.5174

> <Gold.PLP.Chemscore.Hbond>
2.9120

> <Gold.PLP.Chemscore.CHOScore>
0.0000

> <Gold.PLP.Chemscore.Metal>
0.0000

> <Gold.Chemscore.Hbonds>
donor molecule, donor type, donor heavy atom, donor atom, acceptor molecule, acceptor atom, score
      L1  H     9    36       P1  7948  1.00
      L1  H    12    37       P1  7948  0.88
      P1  H  7989  7998       L1    17  1.00

> <Gold.PLP.Chemscore.Internal.Correction>
0.3157

> <Gold.Rescore>
     Score         DG    S(hbond)    S(metal)    S(lipo)     H(rot)  DE(clash)    DE(int)     intcor
     17.60     -19.42       2.27        0.00      79.76       1.16       0.00       1.82       ----

> <Gold.Chemscore.Fitness>
17.6023

> <Gold.Chemscore.DG>
-19.4214

> <Gold.Chemscore.ZeroCoef>
-5.4800

> <Gold.Chemscore.Hbond>
2.2705

> <Gold.Chemscore.Metal>
0.0000

> <Gold.Chemscore.Lipo>
79.7605

> <Gold.Chemscore.Internal_Hbond>
0.0000

> <Gold.Chemscore.DEClash>
0.0030

> <Gold.Chemscore.DEInternal>
1.8160

> <Gold.Chemscore.Rot>
1.1618

> <Gold.Chemscore.Internal.Correction>
   9.000000E+99

> <Gold.Chemscore.Hbonds>
donor molecule, donor type, donor heavy atom, donor atom, acceptor molecule, acceptor atom, score
      L1  H     9    36       P1  7948  0.34
      L1  H    12    37       P1  7948  0.86
      P1  H  7989  7998       L1    17  0.38

> <Gold.Chemscore.Hbond.Weighted>
-7.5835

> <Gold.Chemscore.Metal.Weighted>
-0.0000

> <Gold.Chemscore.Lipo.Weighted>
-9.3320

> <Gold.Chemscore.Internal_Hbond.Weighted>
0.0000

> <Gold.Chemscore.DEClash.Weighted>
0.0030

> <Gold.Chemscore.DEInternal.Weighted>
1.8160

> <Gold.Chemscore.Rot.Weighted>
2.9741

> <Gold.Chemscore.Internal.Correction.Weighted>
   9.000000E+99

> <Gold.Protein.RotatedTorsions>
[ 6907 6896 6895 6894 ] final  105.14 input  -60.11 | X-H torsion
[ 7974 7965 7964 7962 ] final   69.09 input  175.53 | X-H torsion
[ 8008 7997 7996 7995 ] final  106.49 input   59.86 | X-H torsion
[ 10167 10162 10161 10158 ] final   97.39 input  -65.29 | X-H torsion
[ 10718 10713 10712 10709 ] final -123.01 input   66.30 | X-H torsion
[ 10763 10752 10751 10750 ] final   53.92 input  -60.55 | X-H torsion
[ 11005 11000 10999 10996 ] final  -66.42 input  -57.11 | X-H torsion

> <Gold.Protein.ActiveResidues>
 VAL166  LYS551  ARG553  GLY616  TRP617  ASP618  TYR619  PRO620  LYS621  CYS622 
 ASP623  PHE694  ASN695  SER759  ASP760  ASP761  ALA762  ILE779  LEU786  VAL792 
 PHE793  MET794  SER795  GLU796  ALA797  LYS798  CYS799  TRP800  GLU811  SER814 

> <Gold.Protein.RotatedAtoms>
  152.5241  133.9573  159.7700 H   0  0  0  0  0  0  0  0  0  0  0  0  # atno 6907 bound_to 6896
  150.9871  133.6179  159.2721 H   0  0  0  0  0  0  0  0  0  0  0  0  # atno 6908 bound_to 6896
  151.3335  135.0853  159.9400 H   0  0  0  0  0  0  0  0  0  0  0  0  # atno 6909 bound_to 6896
  145.7947  139.2951  143.1190 H   0  0  0  0  0  0  0  0  0  0  0  0  # atno 7974 bound_to 7965
  156.1747  140.3112  155.9038 H   0  0  0  0  0  0  0  0  0  0  0  0  # atno 8008 bound_to 7997
  155.3512  140.0471  157.3063 H   0  0  0  0  0  0  0  0  0  0  0  0  # atno 8009 bound_to 7997
  154.5278  140.2220  155.8869 H   0  0  0  0  0  0  0  0  0  0  0  0  # atno 8010 bound_to 7997
  139.7806  144.6890  151.0028 H   0  0  0  0  0  0  0  0  0  0  0  0  # atno 10167 bound_to 10162
  156.1466  130.6504  150.9851 H   0  0  0  0  0  0  0  0  0  0  0  0  # atno 10718 bound_to 10713
  152.9799  135.5762  154.4820 H   0  0  0  0  0  0  0  0  0  0  0  0  # atno 10763 bound_to 10752
  154.4367  135.2775  155.1877 H   0  0  0  0  0  0  0  0  0  0  0  0  # atno 10764 bound_to 10752
  154.3562  135.6198  153.5721 H   0  0  0  0  0  0  0  0  0  0  0  0  # atno 10765 bound_to 10752
  141.1481  133.6699  156.6137 H   0  0  0  0  0  0  0  0  0  0  0  0  # atno 11005 bound_to 11000
  145.9940  140.8578  143.0052 LP  0  0  0  0  0  0  0  0  0  0  0  0  # atno 17320 bound_to 7965
  144.6777  140.2257  143.7361 LP  0  0  0  0  0  0  0  0  0  0  0  0  # atno 17321 bound_to 7965
  140.7818  143.4488  151.0444 LP  0  0  0  0  0  0  0  0  0  0  0  0  # atno 17342 bound_to 10162
  139.8168  143.7874  152.3175 LP  0  0  0  0  0  0  0  0  0  0  0  0  # atno 17343 bound_to 10162
  157.6622  131.0878  150.7812 LP  0  0  0  0  0  0  0  0  0  0  0  0  # atno 17370 bound_to 10713
  156.7884  130.4882  149.5389 LP  0  0  0  0  0  0  0  0  0  0  0  0  # atno 17371 bound_to 10713
  140.3594  134.7700  157.4523 LP  0  0  0  0  0  0  0  0  0  0  0  0  # atno 17394 bound_to 11000
  140.0797  134.5748  155.8554 LP  0  0  0  0  0  0  0  0  0  0  0  0  # atno 17395 bound_to 11000

$$$$
