AV-unprocessed.smi:67|AV-procd|sdf|635|dock3
  -GOLD-   2262016533D 1   1.00000     0.00000
 Structure written by MMmdl.
 48 50  0  0  0  0  0  0  0  0  2 V2000
  149.2009  138.8355  153.3434 O   0  0  0  0  0  0  0  0  0  0  0  0
  148.3488  139.3400  154.3561 C   0  0  1  0  0  0  0  0  0  0  0  0
  148.6314  138.5614  155.6691 C   0  0  0  0  0  0  0  0  0  0  0  0
  149.7268  139.1277  156.5090 N   0  3  2  0  0  0  0  0  0  0  0  0
  150.9739  139.3241  155.7192 C   0  0  0  0  0  0  0  0  0  0  0  0
  152.0524  140.0649  156.5260 C   0  0  0  0  0  0  0  0  0  0  0  0
  152.3303  139.3300  157.8499 C   0  0  1  0  0  0  0  0  0  0  0  0
  153.4193  139.8522  158.6152 O   0  0  0  0  0  0  0  0  0  0  0  0
  153.2929  140.8935  159.5146 C   0  0  0  0  0  0  0  0  0  0  0  0
  153.6938  140.8764  160.8738 C   0  0  0  0  0  0  0  0  0  0  0  0
  153.5130  142.0120  161.6866 C   0  0  0  0  0  0  0  0  0  0  0  0
  152.9274  143.1772  161.1599 C   0  0  0  0  0  0  0  0  0  0  0  0
  152.5151  143.2113  159.8117 C   0  0  0  0  0  0  0  0  0  0  0  0
  151.8809  144.4594  159.2152 C   0  0  0  0  0  0  0  0  0  0  0  0
  152.5706  144.8304  158.1372 F   0  0  0  0  0  0  0  0  0  0  0  0
  150.6235  144.2034  158.8538 F   0  0  0  0  0  0  0  0  0  0  0  0
  151.8689  145.4711  160.0838 F   0  0  0  0  0  0  0  0  0  0  0  0
  152.7080  142.0711  159.0036 C   0  0  0  0  0  0  0  0  0  0  0  0
  151.0402  139.0589  158.6458 C   0  0  0  0  0  0  0  0  0  0  0  0
  149.9900  138.3644  157.7606 C   0  0  0  0  0  0  0  0  0  0  0  0
  148.4692  140.8747  154.4792 C   0  0  0  0  0  0  0  0  0  0  0  0
  147.1716  141.4271  153.8937 C   0  0  0  0  0  0  0  0  0  0  0  0
  146.1970  140.3795  154.1278 N   0  0  0  0  0  0  0  0  0  0  0  0
  146.8945  139.1299  153.8759 C   0  0  0  0  0  0  0  0  0  0  0  0
  148.7720  138.1056  152.9227 H   0  0  0  0  0  0  0  0  0  0  0  0
  147.7220  138.4431  156.2604 H   0  0  0  0  0  0  0  0  0  0  0  0
  148.9240  137.5504  155.3818 H   0  0  0  0  0  0  0  0  0  0  0  0
  151.3493  138.3534  155.3913 H   0  0  0  0  0  0  0  0  0  0  0  0
  150.7593  139.9000  154.8183 H   0  0  0  0  0  0  0  0  0  0  0  0
  152.9701  140.1245  155.9400 H   0  0  0  0  0  0  0  0  0  0  0  0
  151.7291  141.0909  156.6825 H   0  0  0  0  0  0  0  0  0  0  0  0
  152.7000  138.3455  157.5596 H   0  0  0  0  0  0  0  0  0  0  0  0
  154.1451  140.0145  161.3323 H   0  0  0  0  0  0  0  0  0  0  0  0
  153.8259  141.9891  162.7200 H   0  0  0  0  0  0  0  0  0  0  0  0
  152.7995  144.0398  161.7971 H   0  0  0  0  0  0  0  0  0  0  0  0
  152.3995  142.0990  157.9687 H   0  0  0  0  0  0  0  0  0  0  0  0
  151.2663  138.4275  159.5055 H   0  0  0  0  0  0  0  0  0  0  0  0
  150.6065  139.9693  159.0511 H   0  0  0  0  0  0  0  0  0  0  0  0
  149.0807  138.2678  158.3481 H   0  0  0  0  0  0  0  0  0  0  0  0
  150.3172  137.3544  157.5087 H   0  0  0  0  0  0  0  0  0  0  0  0
  148.5124  141.1724  155.5273 H   0  0  0  0  0  0  0  0  0  0  0  0
  149.3512  141.2825  153.9833 H   0  0  0  0  0  0  0  0  0  0  0  0
  146.8736  142.3726  154.3475 H   0  0  0  0  0  0  0  0  0  0  0  0
  147.2896  141.5907  152.8216 H   0  0  0  0  0  0  0  0  0  0  0  0
  145.4016  140.4809  153.5046 H   0  0  0  0  0  0  0  0  0  0  0  0
  146.8743  138.9267  152.8038 H   0  0  0  0  0  0  0  0  0  0  0  0
  146.3959  138.2924  154.3644 H   0  0  0  0  0  0  0  0  0  0  0  0
  149.4180  140.0491  156.7848 H   0  0  0  0  0  0  0  0  0  0  0  0
  1  2  1  0  0  0  0
  1 25  1  0  0  0  0
  2 24  1  0  0  0  0
  2  3  1  0  0  0  0
  2 21  1  0  0  0  0
  3  4  1  0  0  0  0
  3 26  1  0  0  0  0
  3 27  1  0  0  0  0
  4 20  1  0  0  0  0
  4  5  1  0  0  0  0
  4 48  1  0  0  0  0
  5  6  1  0  0  0  0
  5 28  1  0  0  0  0
  5 29  1  0  0  0  0
  6  7  1  0  0  0  0
  6 30  1  0  0  0  0
  6 31  1  0  0  0  0
  7  8  1  0  0  0  0
  7 19  1  0  0  0  0
  7 32  1  0  0  0  0
  8  9  1  0  0  0  0
  9 18  1  0  0  0  0
  9 10  2  0  0  0  0
 10 11  1  0  0  0  0
 10 33  1  0  0  0  0
 11 12  2  0  0  0  0
 11 34  1  0  0  0  0
 12 13  1  0  0  0  0
 12 35  1  0  0  0  0
 13 14  1  0  0  0  0
 13 18  2  0  0  0  0
 14 15  1  0  0  0  0
 14 16  1  0  0  0  0
 14 17  1  0  0  0  0
 18 36  1  0  0  0  0
 19 20  1  0  0  0  0
 19 37  1  0  0  0  0
 19 38  1  0  0  0  0
 20 39  1  0  0  0  0
 20 40  1  0  0  0  0
 21 22  1  0  0  0  0
 21 41  1  0  0  0  0
 21 42  1  0  0  0  0
 22 23  1  0  0  0  0
 22 43  1  0  0  0  0
 22 44  1  0  0  0  0
 23 24  1  0  0  0  0
 23 45  1  0  0  0  0
 24 46  1  0  0  0  0
 24 47  1  0  0  0  0
M  CHG  1   4   1
M  END
> <s_m_source_file>
AV-unprocessed.smi

> <i_m_source_file_index>
67

> <i_lp_mmshare_version>
43012

> <i_f3d_flags>
0

> <s_epik_input>
W0NIMl0xW05IXVtDSDJdW0NIMl1bQ0BAXTEoW09IXSlbQ0gyXU4yW0NIMl1bQ0gyXVtDSF0oW0NIMl1bQ0gyXTIpT2MzW2NIXVtjSF1bY0hdYyhDKEYpKEYpRilbY0hdMw==

> <s_epik_cmdline>
J2VwaWtfcHl0aG9uJywgJy1waCcsICc3LjAnLCAnLXRuJywgJzgnLCAnLW1hJywgJzIwMCcsICctbWV0YWxfYmluZGluZycsICctaW1hZScsICc8aW5maWxlLm1hZT4nLCAnLW9tYWUnLCAnPG91dGZpbGUubWFlPic=

> <r_epik_Ionization_Penalty>
2.37709

> <r_epik_Ionization_Penalty_Charging>
0.0305656

> <r_epik_Ionization_Penalty_Neutral>
2.34653

> <r_epik_State_Penalty>
2.56959

> <r_epik_Charging_Adjusted_Penalty>
2.60016

> <i_epik_Tot_Q>
1

> <i_epik_Tot_abs_Q>
1

> <r_epik_Metal_State_Penalty>
2.56925

> <b_epik_Metal_Only>
0

> <s_lp_Force_Field>
OPLS_2005

> <r_lp_Energy>
55.5379

> <b_lp_Chiralities_Consistent>
1

> <s_lp_Variant>
AV-unprocessed.smi:67-7

> <Gold.Version>
5.8.1

> <Gold.Id.Protein>
6NUR|6NUR_protein|mol2

> <Gold.PLP.Fitness>
64.5815

> <Gold.PLP.PLP>
-56.5635

> <Gold.PLP.part.hbond>
-3.5662

> <Gold.PLP.part.metal>
0.0000

> <Gold.PLP.part.buried>
-6.6134

> <Gold.PLP.part.nonpolar>
-45.9147

> <Gold.PLP.part.repulsive>
0.0055

> <Gold.PLP.ligand.clash>
0.1474

> <Gold.PLP.ligand.torsion>
0.7317

> <Gold.PLP.Chemscore.Hbond>
3.0000

> <Gold.PLP.Chemscore.CHOScore>
0.0000

> <Gold.PLP.Chemscore.Metal>
0.0000

> <Gold.Chemscore.Hbonds>
donor molecule, donor type, donor heavy atom, donor atom, acceptor molecule, acceptor atom, score
      L1  H     1    25       P1  7948  0.69
      L1  H    23    45       P1 10175  1.00
      P1  H  7997  8009       L1     8  1.00

> <Gold.PLP.Chemscore.Internal.Correction>
0.6289

> <Gold.Rescore>
     Score         DG    S(hbond)    S(metal)    S(lipo)     H(rot)  DE(clash)    DE(int)     intcor
     20.44     -21.42       2.13        0.00     123.00       2.17       0.01       0.97       ----

> <Gold.Chemscore.Fitness>
20.4415

> <Gold.Chemscore.DG>
-21.4211

> <Gold.Chemscore.ZeroCoef>
-5.4800

> <Gold.Chemscore.Hbond>
2.1298

> <Gold.Chemscore.Metal>
0.0000

> <Gold.Chemscore.Lipo>
123.0039

> <Gold.Chemscore.Internal_Hbond>
0.0000

> <Gold.Chemscore.DEClash>
0.0074

> <Gold.Chemscore.DEInternal>
0.9722

> <Gold.Chemscore.Rot>
2.1734

> <Gold.Chemscore.Internal.Correction>
   9.000000E+99

> <Gold.Chemscore.Hbonds>
donor molecule, donor type, donor heavy atom, donor atom, acceptor molecule, acceptor atom, score
      L1  H     1    25       P1  7948  0.66
      L1  H    23    45       P1 10175  0.95
      P1  H  7997  8009       L1     8  0.23

> <Gold.Chemscore.Hbond.Weighted>
-7.1137

> <Gold.Chemscore.Metal.Weighted>
-0.0000

> <Gold.Chemscore.Lipo.Weighted>
-14.3915

> <Gold.Chemscore.Internal_Hbond.Weighted>
0.0000

> <Gold.Chemscore.DEClash.Weighted>
0.0074

> <Gold.Chemscore.DEInternal.Weighted>
0.9722

> <Gold.Chemscore.Rot.Weighted>
5.5640

> <Gold.Chemscore.Internal.Correction.Weighted>
   9.000000E+99

> <Gold.Protein.RotatedTorsions>
[ 6907 6896 6895 6894 ] final -145.35 input  -60.11 | X-H torsion
[ 7974 7965 7964 7962 ] final  -87.90 input  175.53 | X-H torsion
[ 8008 7997 7996 7995 ] final  139.40 input   59.86 | X-H torsion
[ 10167 10162 10161 10158 ] final   73.78 input  -65.29 | X-H torsion
[ 10718 10713 10712 10709 ] final -171.93 input   66.30 | X-H torsion
[ 10763 10752 10751 10750 ] final  -74.54 input  -60.55 | X-H torsion
[ 11005 11000 10999 10996 ] final  -69.03 input  -57.11 | X-H torsion

> <Gold.Protein.ActiveResidues>
 VAL166  LYS551  ARG553  GLY616  TRP617  ASP618  TYR619  PRO620  LYS621  CYS622 
 ASP623  PHE694  ASN695  SER759  ASP760  ASP761  ALA762  ILE779  LEU786  VAL792 
 PHE793  MET794  SER795  GLU796  ALA797  LYS798  CYS799  TRP800  GLU811  SER814 

> <Gold.Protein.RotatedAtoms>
  151.1266  133.5066  159.2600 H   0  0  0  0  0  0  0  0  0  0  0  0  # atno 6907 bound_to 6896
  151.1803  135.0357  159.8799 H   0  0  0  0  0  0  0  0  0  0  0  0  # atno 6908 bound_to 6896
  152.5458  134.1118  159.8415 H   0  0  0  0  0  0  0  0  0  0  0  0  # atno 6909 bound_to 6896
  145.4603  140.9561  143.1973 H   0  0  0  0  0  0  0  0  0  0  0  0  # atno 7974 bound_to 7965
  156.2990  140.2368  156.4231 H   0  0  0  0  0  0  0  0  0  0  0  0  # atno 8008 bound_to 7997
  154.8337  140.0431  157.1515 H   0  0  0  0  0  0  0  0  0  0  0  0  # atno 8009 bound_to 7997
  154.9179  140.2999  155.5235 H   0  0  0  0  0  0  0  0  0  0  0  0  # atno 8010 bound_to 7997
  140.0208  144.5542  150.7583 H   0  0  0  0  0  0  0  0  0  0  0  0  # atno 10167 bound_to 10162
  156.7481  130.9368  151.3113 H   0  0  0  0  0  0  0  0  0  0  0  0  # atno 10718 bound_to 10713
  154.4745  135.5861  153.6345 H   0  0  0  0  0  0  0  0  0  0  0  0  # atno 10763 bound_to 10752
  152.9839  135.6075  154.3324 H   0  0  0  0  0  0  0  0  0  0  0  0  # atno 10764 bound_to 10752
  154.3209  135.2843  155.2499 H   0  0  0  0  0  0  0  0  0  0  0  0  # atno 10765 bound_to 10752
  141.1545  133.6754  156.6536 H   0  0  0  0  0  0  0  0  0  0  0  0  # atno 11005 bound_to 11000
  144.8006  139.6147  143.7073 LP  0  0  0  0  0  0  0  0  0  0  0  0  # atno 17320 bound_to 7965
  146.2454  139.6088  142.9463 LP  0  0  0  0  0  0  0  0  0  0  0  0  # atno 17321 bound_to 7965
  140.7343  143.2727  151.3836 LP  0  0  0  0  0  0  0  0  0  0  0  0  # atno 17342 bound_to 10162
  139.6141  144.1038  152.2328 LP  0  0  0  0  0  0  0  0  0  0  0  0  # atno 17343 bound_to 10162
  157.6789  130.9121  150.0218 LP  0  0  0  0  0  0  0  0  0  0  0  0  # atno 17370 bound_to 10713
  156.1419  130.3642  149.9569 LP  0  0  0  0  0  0  0  0  0  0  0  0  # atno 17371 bound_to 10713
  140.3301  134.7936  157.4319 LP  0  0  0  0  0  0  0  0  0  0  0  0  # atno 17394 bound_to 11000
  140.1024  134.5455  155.8341 LP  0  0  0  0  0  0  0  0  0  0  0  0  # atno 17395 bound_to 11000

$$$$
