AV-unprocessed.smi:111|AV-procd|sdf|1079|dock8
  -GOLD-   2262018163D 1   1.00000     0.00000
 Structure written by MMmdl.
 46 48  0  0  0  0  0  0  0  0  1 V2000
  150.3809  139.5650  154.1376 O   0  0  0  0  0  0  0  0  0  0  0  0
  150.5779  140.1478  155.2054 C   0  0  0  0  0  0  0  0  0  0  0  0
  149.8217  141.3212  155.6277 C   0  0  0  0  0  0  0  0  0  0  0  0
  148.8444  141.8011  154.8402 F   0  0  0  0  0  0  0  0  0  0  0  0
  150.0913  141.9398  156.7967 C   0  0  0  0  0  0  0  0  0  0  0  0
  151.0842  141.5165  157.6634 N   0  0  0  0  0  0  0  0  0  0  0  0
  151.3638  142.2552  158.9527 C   0  0  2  0  0  0  0  0  0  0  0  0
  150.4542  143.4830  159.0686 C   0  0  0  0  0  0  0  0  0  0  0  0
  151.3418  144.5820  158.5257 C   0  0  0  0  0  0  0  0  0  0  0  0
  152.7168  144.1302  159.0043 C   0  0  0  0  0  0  0  0  0  0  0  0
  152.6876  142.7069  158.9408 O   0  0  0  0  0  0  0  0  0  0  0  0
  151.8472  140.3700  157.3511 C   0  0  0  0  0  0  0  0  0  0  0  0
  152.7130  139.9621  158.1283 O   0  0  0  0  0  0  0  0  0  0  0  0
  151.5734  139.7243  156.1209 N   0  0  0  0  0  0  0  0  0  0  0  0
  152.3721  138.5653  155.7466 C   0  0  0  0  0  0  0  0  0  0  0  0
  151.6532  137.2107  155.9525 C   0  0  2  0  0  0  0  0  0  0  0  0
  152.6363  136.2359  156.2353 O   0  0  0  0  0  0  0  0  0  0  0  0
  150.8068  136.7399  154.7451 C   0  0  0  0  0  0  0  0  0  0  0  0
  149.6557  135.7901  155.1199 C   0  0  0  0  0  0  0  0  0  0  0  0
  150.0587  134.3253  155.1033 C   0  0  0  0  0  0  0  0  0  0  0  0
  150.7926  133.7731  156.1746 C   0  0  0  0  0  0  0  0  0  0  0  0
  151.1618  132.4141  156.1537 C   0  0  0  0  0  0  0  0  0  0  0  0
  150.8029  131.6025  155.0602 C   0  0  0  0  0  0  0  0  0  0  0  0
  150.0737  132.1505  153.9875 C   0  0  0  0  0  0  0  0  0  0  0  0
  149.7023  133.5089  154.0091 C   0  0  0  0  0  0  0  0  0  0  0  0
  149.4981  142.8045  157.0537 H   0  0  0  0  0  0  0  0  0  0  0  0
  151.2361  141.5304  159.7584 H   0  0  0  0  0  0  0  0  0  0  0  0
  149.5151  143.3586  158.5277 H   0  0  0  0  0  0  0  0  0  0  0  0
  150.2356  143.6547  160.1232 H   0  0  0  0  0  0  0  0  0  0  0  0
  151.3041  144.5948  157.4358 H   0  0  0  0  0  0  0  0  0  0  0  0
  151.0682  145.5728  158.8886 H   0  0  0  0  0  0  0  0  0  0  0  0
  153.5280  144.5408  158.4026 H   0  0  0  0  0  0  0  0  0  0  0  0
  152.8753  144.4309  160.0409 H   0  0  0  0  0  0  0  0  0  0  0  0
  152.7232  138.6845  154.7211 H   0  0  0  0  0  0  0  0  0  0  0  0
  153.2786  138.6239  156.3528 H   0  0  0  0  0  0  0  0  0  0  0  0
  151.0322  137.2637  156.8460 H   0  0  0  0  0  0  0  0  0  0  0  0
  152.9628  136.3838  157.1097 H   0  0  0  0  0  0  0  0  0  0  0  0
  150.3999  137.5889  154.1991 H   0  0  0  0  0  0  0  0  0  0  0  0
  151.4481  136.2333  154.0224 H   0  0  0  0  0  0  0  0  0  0  0  0
  149.3018  136.0310  156.1229 H   0  0  0  0  0  0  0  0  0  0  0  0
  148.8059  135.9495  154.4548 H   0  0  0  0  0  0  0  0  0  0  0  0
  151.0697  134.3879  157.0183 H   0  0  0  0  0  0  0  0  0  0  0  0
  151.7177  131.9935  156.9786 H   0  0  0  0  0  0  0  0  0  0  0  0
  151.0828  130.5595  155.0461 H   0  0  0  0  0  0  0  0  0  0  0  0
  149.7934  131.5278  153.1509 H   0  0  0  0  0  0  0  0  0  0  0  0
  149.1379  133.9215  153.1859 H   0  0  0  0  0  0  0  0  0  0  0  0
  1  2  2  0  0  0  0
  2 14  1  0  0  0  0
  2  3  1  0  0  0  0
  3  4  1  0  0  0  0
  3  5  2  0  0  0  0
  5  6  1  0  0  0  0
  5 26  1  0  0  0  0
  6  7  1  0  0  0  0
  6 12  1  0  0  0  0
  7 11  1  0  0  0  0
  7  8  1  0  0  0  0
  7 27  1  0  0  0  0
  8  9  1  0  0  0  0
  8 28  1  0  0  0  0
  8 29  1  0  0  0  0
  9 10  1  0  0  0  0
  9 30  1  0  0  0  0
  9 31  1  0  0  0  0
 10 11  1  0  0  0  0
 10 32  1  0  0  0  0
 10 33  1  0  0  0  0
 12 13  2  0  0  0  0
 12 14  1  0  0  0  0
 14 15  1  0  0  0  0
 15 16  1  0  0  0  0
 15 34  1  0  0  0  0
 15 35  1  0  0  0  0
 16 17  1  0  0  0  0
 16 18  1  0  0  0  0
 16 36  1  0  0  0  0
 17 37  1  0  0  0  0
 18 19  1  0  0  0  0
 18 38  1  0  0  0  0
 18 39  1  0  0  0  0
 19 20  1  0  0  0  0
 19 40  1  0  0  0  0
 19 41  1  0  0  0  0
 20 25  1  0  0  0  0
 20 21  2  0  0  0  0
 21 22  1  0  0  0  0
 21 42  1  0  0  0  0
 22 23  2  0  0  0  0
 22 43  1  0  0  0  0
 23 24  1  0  0  0  0
 23 44  1  0  0  0  0
 24 25  2  0  0  0  0
 24 45  1  0  0  0  0
 25 46  1  0  0  0  0
M  END
> <s_m_source_file>
AV-unprocessed.smi

> <i_m_source_file_index>
111

> <i_lp_mmshare_version>
43012

> <i_f3d_flags>
0

> <s_epik_input>
TzFbQ0gyXVtDSDJdW0NIMl1bQ0BIXTFuKFtjSF1jKEYpYzI9TyljKD1PKW4yW0NIMl1bQ0BIXShbT0hdKVtDSDJdW0NIMl1jM1tjSF1bY0hdW2NIXVtjSF1bY0hdMw==

> <s_epik_cmdline>
J2VwaWtfcHl0aG9uJywgJy1waCcsICc3LjAnLCAnLXRuJywgJzgnLCAnLW1hJywgJzIwMCcsICctbWV0YWxfYmluZGluZycsICctaW1hZScsICc8aW5maWxlLm1hZT4nLCAnLW9tYWUnLCAnPG91dGZpbGUubWFlPic=

> <r_lp_tautomer_probability>
1

> <r_epik_Ionization_Penalty>
1.88248e-07

> <r_epik_Ionization_Penalty_Charging>
4.03974e-08

> <r_epik_Ionization_Penalty_Neutral>
1.47851e-07

> <r_epik_State_Penalty>
-0

> <r_epik_Charging_Adjusted_Penalty>
4.03974e-08

> <i_epik_Tot_Q>
0

> <i_epik_Tot_abs_Q>
0

> <r_epik_Metal_State_Penalty>
-0

> <b_epik_Metal_Only>
0

> <s_epik_Chemistry_Notes>
This compound contains an acetal/aminal-like group ( X-CH(R)-Y where X, Y are N, S, or O) that may be acid/base labile, releasing an aldehyde.

> <s_lp_Force_Field>
OPLS_2005

> <r_lp_Energy>
34.4162

> <b_lp_Chiralities_Consistent>
1

> <s_lp_Variant>
AV-unprocessed.smi:111-1

> <Gold.Version>
5.8.1

> <Gold.Id.Protein>
6NUR|6NUR_protein|mol2

> <Gold.PLP.Fitness>
54.9935

> <Gold.PLP.PLP>
-48.5639

> <Gold.PLP.part.hbond>
-2.9817

> <Gold.PLP.part.metal>
0.0000

> <Gold.PLP.part.buried>
-1.8013

> <Gold.PLP.part.nonpolar>
-43.2787

> <Gold.PLP.part.repulsive>
0.1702

> <Gold.PLP.ligand.clash>
0.0000

> <Gold.PLP.ligand.torsion>
1.3083

> <Gold.PLP.Chemscore.Hbond>
1.9938

> <Gold.PLP.Chemscore.CHOScore>
1.0000

> <Gold.PLP.Chemscore.Metal>
0.0000

> <Gold.Chemscore.Hbonds>
donor molecule, donor type, donor heavy atom, donor atom, acceptor molecule, acceptor atom, score
      P1  H  7989  7998       L1     1  0.15
      P1  H  7997  8010       L1    13  0.60
      P1  H 10752 10764       L1    17  0.83
      L1  C     5    26       P1  8028  0.99

> <Gold.PLP.Chemscore.Internal.Correction>
0.0649

> <Gold.Rescore>
     Score         DG    S(hbond)    S(metal)    S(lipo)     H(rot)  DE(clash)    DE(int)     intcor
     11.82     -15.58       1.66        0.00      97.49       2.67       0.92       2.85       ----

> <Gold.Chemscore.Fitness>
11.8164

> <Gold.Chemscore.DG>
-15.5799

> <Gold.Chemscore.ZeroCoef>
-5.4800

> <Gold.Chemscore.Hbond>
1.6586

> <Gold.Chemscore.Metal>
0.0000

> <Gold.Chemscore.Lipo>
97.4909

> <Gold.Chemscore.Internal_Hbond>
0.0000

> <Gold.Chemscore.DEClash>
0.9172

> <Gold.Chemscore.DEInternal>
2.8462

> <Gold.Chemscore.Rot>
2.6743

> <Gold.Chemscore.Internal.Correction>
   9.000000E+99

> <Gold.Chemscore.Hbonds>
donor molecule, donor type, donor heavy atom, donor atom, acceptor molecule, acceptor atom, score
      P1  H  7997  8010       L1    13  0.35
      P1  H 10752 10764       L1    17  0.81

> <Gold.Chemscore.Hbond.Weighted>
-5.5397

> <Gold.Chemscore.Metal.Weighted>
-0.0000

> <Gold.Chemscore.Lipo.Weighted>
-11.4064

> <Gold.Chemscore.Internal_Hbond.Weighted>
0.0000

> <Gold.Chemscore.DEClash.Weighted>
0.9172

> <Gold.Chemscore.DEInternal.Weighted>
2.8462

> <Gold.Chemscore.Rot.Weighted>
6.8463

> <Gold.Chemscore.Internal.Correction.Weighted>
   9.000000E+99

> <Gold.Protein.RotatedTorsions>
[ 6907 6896 6895 6894 ] final  -25.96 input  -60.11 | X-H torsion
[ 7974 7965 7964 7962 ] final   66.39 input  175.53 | X-H torsion
[ 8008 7997 7996 7995 ] final   30.95 input   59.86 | X-H torsion
[ 10167 10162 10161 10158 ] final  125.43 input  -65.29 | X-H torsion
[ 10718 10713 10712 10709 ] final -155.03 input   66.30 | X-H torsion
[ 10763 10752 10751 10750 ] final  -20.74 input  -60.55 | X-H torsion
[ 11005 11000 10999 10996 ] final    3.82 input  -57.11 | X-H torsion

> <Gold.Protein.ActiveResidues>
 VAL166  LYS551  ARG553  GLY616  TRP617  ASP618  TYR619  PRO620  LYS621  CYS622 
 ASP623  PHE694  ASN695  SER759  ASP760  ASP761  ALA762  ILE779  LEU786  VAL792 
 PHE793  MET794  SER795  GLU796  ALA797  LYS798  CYS799  TRP800  GLU811  SER814 

> <Gold.Protein.RotatedAtoms>
  151.1677  135.0303  159.8737 H   0  0  0  0  0  0  0  0  0  0  0  0  # atno 6907 bound_to 6896
  152.5450  134.1206  159.8407 H   0  0  0  0  0  0  0  0  0  0  0  0  # atno 6908 bound_to 6896
  151.1308  133.4992  159.2631 H   0  0  0  0  0  0  0  0  0  0  0  0  # atno 6909 bound_to 6896
  145.8271  139.3118  143.1009 H   0  0  0  0  0  0  0  0  0  0  0  0  # atno 7974 bound_to 7965
  155.0986  140.3227  155.4553 H   0  0  0  0  0  0  0  0  0  0  0  0  # atno 8008 bound_to 7997
  156.2723  140.2065  156.6060 H   0  0  0  0  0  0  0  0  0  0  0  0  # atno 8009 bound_to 7997
  154.6846  140.0522  157.0289 H   0  0  0  0  0  0  0  0  0  0  0  0  # atno 8010 bound_to 7997
  139.5686  144.6926  151.3841 H   0  0  0  0  0  0  0  0  0  0  0  0  # atno 10167 bound_to 10162
  156.5073  130.8418  151.2632 H   0  0  0  0  0  0  0  0  0  0  0  0  # atno 10718 bound_to 10713
  153.6251  135.6991  153.5296 H   0  0  0  0  0  0  0  0  0  0  0  0  # atno 10763 bound_to 10752
  153.2905  135.4158  155.1162 H   0  0  0  0  0  0  0  0  0  0  0  0  # atno 10764 bound_to 10752
  154.8534  135.3624  154.5793 H   0  0  0  0  0  0  0  0  0  0  0  0  # atno 10765 bound_to 10752
  140.5888  133.9943  155.8080 H   0  0  0  0  0  0  0  0  0  0  0  0  # atno 11005 bound_to 11000
  145.9611  140.8834  143.0210 LP  0  0  0  0  0  0  0  0  0  0  0  0  # atno 17320 bound_to 7965
  144.6742  140.1814  143.7405 LP  0  0  0  0  0  0  0  0  0  0  0  0  # atno 17321 bound_to 7965
  140.6970  143.7724  150.7342 LP  0  0  0  0  0  0  0  0  0  0  0  0  # atno 17342 bound_to 10162
  140.1224  143.4600  152.2305 LP  0  0  0  0  0  0  0  0  0  0  0  0  # atno 17343 bound_to 10162
  157.7455  130.9961  150.2769 LP  0  0  0  0  0  0  0  0  0  0  0  0  # atno 17370 bound_to 10713
  156.3275  130.3795  149.7520 LP  0  0  0  0  0  0  0  0  0  0  0  0  # atno 17371 bound_to 10713
  141.0948  133.9860  157.3178 LP  0  0  0  0  0  0  0  0  0  0  0  0  # atno 17394 bound_to 11000
  139.9283  135.0201  156.8313 LP  0  0  0  0  0  0  0  0  0  0  0  0  # atno 17395 bound_to 11000

$$$$
