#       Name:                AV-unprocessed.smi:70
#       Creating user name   scv26
#       Creation time:       Thu Mar 26 16:56:13 2020


#       File generated by GOLD software.
#

@<TRIPOS>MOLECULE
AV-unprocessed.smi:70
    29    30     1
SMALL
NO_CHARGES


@<TRIPOS>ATOM
      1 ****        -0.8518   1.4957   0.6402 O.3            1 S1                 0.0000
      2 ****        -0.3059   0.1876   0.6240 C.3            1 S1                 0.0000
      3 ****         1.2381   0.2837   0.6408 C.3            1 S1                 0.0000
      4 ****         1.7977   0.8434  -0.5792 N.pl3          1 S1                 0.0000
      5 ****         2.3181   0.1769  -1.6697 C.2            1 S1                 0.0000
      6 ****         2.6940   1.1857  -2.5096 C.2            1 S1                 0.0000
      7 ****         2.3954   2.4047  -1.9043 N.2            1 S1                 0.0000
      8 ****         1.8626   2.1866  -0.7436 N.2            1 S1                 0.0000
      9 ****        -0.8824  -0.5982   1.8042 C.3            1 S1                 0.0000
     10 ****        -2.2621  -1.0477   1.3147 C.3            1 S1                 0.0000
     11 ****        -2.1787  -1.1227  -0.1574 N.4            1 S1                 1.0000
     12 ****        -0.8836  -0.5593  -0.5884 C.3            1 S1                 0.0000
     13 ****        -0.5234   1.9523   1.4002 H              1 S1                 0.0000
     14 ****         1.5775   0.8788   1.4903 H              1 S1                 0.0000
     15 ****         1.6697  -0.7091   0.7743 H              1 S1                 0.0000
     16 ****         2.3730  -0.8988  -1.7492 H              1 S1                 0.0000
     17 ****         3.1508   1.1373  -3.4874 H              1 S1                 0.0000
     18 ****        -0.2700  -1.4806   1.9966 H              1 S1                 0.0000
     19 ****        -0.9260  -0.0227   2.7299 H              1 S1                 0.0000
     20 ****        -2.5645  -2.0020   1.7462 H              1 S1                 0.0000
     21 ****        -3.0167  -0.3057   1.5779 H              1 S1                 0.0000
     22 ****        -2.2544  -2.0807  -0.4678 H              1 S1                 0.0000
     23 ****        -0.9884   0.0682  -1.4748 H              1 S1                 0.0000
     24 ****        -0.2374  -1.3969  -0.8538 H              1 S1                 0.0000
     25 ****        -2.9311  -0.5771  -0.5533 H              1 S1                 0.0000
     26 ****        -1.8495   1.4434   0.6842 LP             1 S1                 0.0000
     27 ****        -0.5800   1.9840  -0.1891 LP             1 S1                 0.0000
     28 ****         2.5655   3.3059  -2.3030 LP             1 S1                 0.0000
     29 ****         1.5565   2.8800  -0.0912 LP             1 S1                 0.0000
@<TRIPOS>BOND
    1    1    2 1     
    2    1   13 1     
    3    2   12 1     
    4    2    3 1     
    5    2    9 1     
    6    3    4 1     
    7    3   14 1     
    8    3   15 1     
    9    4    8 1     
   10    4    5 1     
   11    5    6 2     
   12    5   16 1     
   13    6    7 1     
   14    6   17 1     
   15    7    8 2     
   16    9   10 1     
   17    9   18 1     
   18    9   19 1     
   19   10   11 1     
   20   10   20 1     
   21   10   21 1     
   22   11   12 1     
   23   11   22 1     
   24   11   25 1     
   25   12   23 1     
   26   12   24 1     
   27    1   26 1     
   28    1   27 1     
   29    7   28 1     
   30    8   29 1     
@<TRIPOS>SUBSTRUCTURE
      1 S1             1
@<TRIPOS>SET
LONE_PAIRS      STATIC     ATOMS    <user>   **** ""
4 26 27 28 29
DONOR_HYDROGENS      STATIC     ATOMS    <user>   **** ""
3 13 22 25
ATOM$BLUE        STATIC     ATOMS    COLORGROUP SYSTEM
4 26 27 28 29
ATOM$RED        STATIC     ATOMS    COLORGROUP SYSTEM
3 13 22 25
