AV-unprocessed.smi:3250|AV-procd|sdf|12430|dock4
  -GOLD-   2272018313D 1   1.00000     0.00000
 Structure written by MMmdl.
 38 39  0  0  0  0  0  0  0  0  1 V2000
  153.2259  142.7242  162.7263 C   0  0  0  0  0  0  0  0  0  0  0  0
  152.5005  143.7968  161.9013 C   0  0  0  0  0  0  0  0  0  0  0  0
  152.5890  143.6244  160.4524 N   0  0  0  0  0  0  0  0  0  0  0  0
  151.7244  144.5495  159.7238 C   0  0  0  0  0  0  0  0  0  0  0  0
  151.8023  144.3291  158.2039 C   0  0  0  0  0  0  0  0  0  0  0  0
  151.4787  142.9762  157.9025 O   0  0  0  0  0  0  0  0  0  0  0  0
  152.3428  142.0412  158.5445 C   0  0  2  0  0  0  0  0  0  0  0  0
  151.9068  140.6251  158.1467 C   0  0  0  0  0  0  0  0  0  0  0  0
  151.6588  140.5213  156.7167 N   0  0  0  0  0  0  0  0  0  0  0  0
  150.4505  140.8223  156.1174 C   0  0  0  0  0  0  0  0  0  0  0  0
  150.3690  140.5445  154.8144 N   0  0  0  0  0  0  0  0  0  0  0  0
  149.2020  140.8314  154.1979 C   0  0  0  0  0  0  0  0  0  0  0  0
  148.1144  141.3978  154.8922 C   0  0  0  0  0  0  0  0  0  0  0  0
  148.3074  141.6474  156.2660 C   0  0  0  0  0  0  0  0  0  0  0  0
  147.2815  142.1972  157.0063 O   0  0  0  0  0  0  0  0  0  0  0  0
  147.5499  142.5633  158.3553 C   0  0  0  0  0  0  0  0  0  0  0  0
  149.4844  141.3557  156.8741 N   0  0  0  0  0  0  0  0  0  0  0  0
  152.2504  142.2580  160.0678 C   0  0  0  0  0  0  0  0  0  0  0  0
  153.0307  142.8634  163.7897 H   0  0  0  0  0  0  0  0  0  0  0  0
  154.3060  142.7651  162.5888 H   0  0  0  0  0  0  0  0  0  0  0  0
  152.8867  141.7239  162.4561 H   0  0  0  0  0  0  0  0  0  0  0  0
  151.4499  143.7773  162.1937 H   0  0  0  0  0  0  0  0  0  0  0  0
  152.8705  144.7840  162.1811 H   0  0  0  0  0  0  0  0  0  0  0  0
  150.6913  144.4286  160.0532 H   0  0  0  0  0  0  0  0  0  0  0  0
  152.0039  145.5799  159.9406 H   0  0  0  0  0  0  0  0  0  0  0  0
  151.1023  144.9871  157.6886 H   0  0  0  0  0  0  0  0  0  0  0  0
  152.7997  144.5645  157.8291 H   0  0  0  0  0  0  0  0  0  0  0  0
  153.3708  142.2102  158.2174 H   0  0  0  0  0  0  0  0  0  0  0  0
  152.6893  139.9133  158.4120 H   0  0  0  0  0  0  0  0  0  0  0  0
  151.0095  140.3369  158.6957 H   0  0  0  0  0  0  0  0  0  0  0  0
  152.4375  140.3086  156.1101 H   0  0  0  0  0  0  0  0  0  0  0  0
  149.1349  140.6076  153.1438 H   0  0  0  0  0  0  0  0  0  0  0  0
  147.1824  141.6270  154.3973 H   0  0  0  0  0  0  0  0  0  0  0  0
  146.6460  142.9733  158.8051 H   0  0  0  0  0  0  0  0  0  0  0  0
  148.3258  143.3280  158.4147 H   0  0  0  0  0  0  0  0  0  0  0  0
  147.8529  141.7000  158.9499 H   0  0  0  0  0  0  0  0  0  0  0  0
  152.9202  141.5590  160.5702 H   0  0  0  0  0  0  0  0  0  0  0  0
  151.2409  142.0195  160.4070 H   0  0  0  0  0  0  0  0  0  0  0  0
  1  2  1  0  0  0  0
  1 19  1  0  0  0  0
  1 20  1  0  0  0  0
  1 21  1  0  0  0  0
  2  3  1  0  0  0  0
  2 22  1  0  0  0  0
  2 23  1  0  0  0  0
  3 18  1  0  0  0  0
  3  4  1  0  0  0  0
  4  5  1  0  0  0  0
  4 24  1  0  0  0  0
  4 25  1  0  0  0  0
  5  6  1  0  0  0  0
  5 26  1  0  0  0  0
  5 27  1  0  0  0  0
  6  7  1  0  0  0  0
  7  8  1  0  0  0  0
  7 18  1  0  0  0  0
  7 28  1  0  0  0  0
  8  9  1  0  0  0  0
  8 29  1  0  0  0  0
  8 30  1  0  0  0  0
  9 10  1  0  0  0  0
  9 31  1  0  0  0  0
 10 17  1  0  0  0  0
 10 11  2  0  0  0  0
 11 12  1  0  0  0  0
 12 13  2  0  0  0  0
 12 32  1  0  0  0  0
 13 14  1  0  0  0  0
 13 33  1  0  0  0  0
 14 15  1  0  0  0  0
 14 17  2  0  0  0  0
 15 16  1  0  0  0  0
 16 34  1  0  0  0  0
 16 35  1  0  0  0  0
 16 36  1  0  0  0  0
 18 37  1  0  0  0  0
 18 38  1  0  0  0  0
M  END
> <s_m_source_file>
AV-unprocessed.smi

> <i_m_source_file_index>
3250

> <i_lp_mmshare_version>
43012

> <i_f3d_flags>
0

> <s_epik_input>
W0NIM11bQ0gyXU4xW0NIMl1bQ0gyXU9bQ0BIXShbQ0gyXTEpW0NIMl1bTkhdYzJuW2NIXVtjSF1jKG4yKU9bQ0gzXQ==

> <s_epik_cmdline>
J2VwaWtfcHl0aG9uJywgJy1waCcsICc3LjAnLCAnLXRuJywgJzgnLCAnLW1hJywgJzIwMCcsICctbWV0YWxfYmluZGluZycsICctaW1hZScsICc8aW5maWxlLm1hZT4nLCAnLW9tYWUnLCAnPG91dGZpbGUubWFlPic=

> <r_lp_tautomer_probability>
1

> <r_epik_Ionization_Penalty>
0.832605

> <r_epik_Ionization_Penalty_Charging>
0

> <r_epik_Ionization_Penalty_Neutral>
0.832605

> <r_epik_State_Penalty>
0.927194

> <r_epik_Charging_Adjusted_Penalty>
0.927194

> <i_epik_Tot_Q>
0

> <i_epik_Tot_abs_Q>
0

> <r_epik_Metal_State_Penalty>
0.908632

> <b_epik_Metal_Only>
0

> <s_lp_Force_Field>
OPLS_2005

> <r_lp_Energy>
15.3414

> <b_lp_Chiralities_Consistent>
1

> <s_lp_Variant>
AV-unprocessed.smi:3250-6

> <Gold.Version>
5.8.1

> <Gold.Id.Protein>
6NUR|6NUR_protein|mol2

> <Gold.PLP.Fitness>
42.2593

> <Gold.PLP.PLP>
-37.0523

> <Gold.PLP.part.hbond>
-1.0000

> <Gold.PLP.part.metal>
0.0000

> <Gold.PLP.part.buried>
-4.8980

> <Gold.PLP.part.nonpolar>
-31.1885

> <Gold.PLP.part.repulsive>
0.5615

> <Gold.PLP.ligand.clash>
0.0000

> <Gold.PLP.ligand.torsion>
0.3807

> <Gold.PLP.Chemscore.Hbond>
0.9760

> <Gold.PLP.Chemscore.CHOScore>
1.0000

> <Gold.PLP.Chemscore.Metal>
0.0000

> <Gold.Chemscore.Hbonds>
donor molecule, donor type, donor heavy atom, donor atom, acceptor molecule, acceptor atom, score
      P1  H  7989  7998       L1    11  0.96
      L1  C    12    32       P1  7957  1.00

> <Gold.PLP.Chemscore.Internal.Correction>
0.0404

> <Gold.Rescore>
     Score         DG    S(hbond)    S(metal)    S(lipo)     H(rot)  DE(clash)    DE(int)     intcor
     13.87     -14.23       0.82        0.00      87.77       1.67       0.03       0.32       ----

> <Gold.Chemscore.Fitness>
13.8726

> <Gold.Chemscore.DG>
-14.2251

> <Gold.Chemscore.ZeroCoef>
-5.4800

> <Gold.Chemscore.Hbond>
0.8203

> <Gold.Chemscore.Metal>
0.0000

> <Gold.Chemscore.Lipo>
87.7745

> <Gold.Chemscore.Internal_Hbond>
0.0000

> <Gold.Chemscore.DEClash>
0.0276

> <Gold.Chemscore.DEInternal>
0.3249

> <Gold.Chemscore.Rot>
1.6657

> <Gold.Chemscore.Internal.Correction>
   9.000000E+99

> <Gold.Chemscore.Hbonds>
donor molecule, donor type, donor heavy atom, donor atom, acceptor molecule, acceptor atom, score
      P1  H  7989  7998       L1    11  0.37

> <Gold.Chemscore.Hbond.Weighted>
-2.7398

> <Gold.Chemscore.Metal.Weighted>
-0.0000

> <Gold.Chemscore.Lipo.Weighted>
-10.2696

> <Gold.Chemscore.Internal_Hbond.Weighted>
0.0000

> <Gold.Chemscore.DEClash.Weighted>
0.0276

> <Gold.Chemscore.DEInternal.Weighted>
0.3249

> <Gold.Chemscore.Rot.Weighted>
4.2642

> <Gold.Chemscore.Internal.Correction.Weighted>
   9.000000E+99

> <Gold.Protein.RotatedTorsions>
[ 6907 6896 6895 6894 ] final   81.02 input  -60.11 | X-H torsion
[ 7974 7965 7964 7962 ] final  -21.99 input  175.53 | X-H torsion
[ 8008 7997 7996 7995 ] final   13.75 input   59.86 | X-H torsion
[ 10167 10162 10161 10158 ] final  146.37 input  -65.29 | X-H torsion
[ 10718 10713 10712 10709 ] final  -49.73 input   66.30 | X-H torsion
[ 10763 10752 10751 10750 ] final  -17.90 input  -60.55 | X-H torsion
[ 11005 11000 10999 10996 ] final -136.67 input  -57.11 | X-H torsion

> <Gold.Protein.ActiveResidues>
 VAL166  LYS551  ARG553  GLY616  TRP617  ASP618  TYR619  PRO620  LYS621  CYS622 
 ASP623  PHE694  ASN695  SER759  ASP760  ASP761  ALA762  ILE779  LEU786  VAL792 
 PHE793  MET794  SER795  GLU796  ALA797  LYS798  CYS799  TRP800  GLU811  SER814 

> <Gold.Protein.RotatedAtoms>
  152.5254  134.3268  159.9168 H   0  0  0  0  0  0  0  0  0  0  0  0  # atno 6907 bound_to 6896
  151.3217  133.4031  159.2663 H   0  0  0  0  0  0  0  0  0  0  0  0  # atno 6908 bound_to 6896
  150.9953  134.9296  159.7980 H   0  0  0  0  0  0  0  0  0  0  0  0  # atno 6909 bound_to 6896
  146.1701  140.4418  142.8536 H   0  0  0  0  0  0  0  0  0  0  0  0  # atno 7974 bound_to 7965
  154.8388  140.2911  155.5673 H   0  0  0  0  0  0  0  0  0  0  0  0  # atno 8008 bound_to 7997
  156.3010  140.2518  156.3258 H   0  0  0  0  0  0  0  0  0  0  0  0  # atno 8009 bound_to 7997
  154.9149  140.0387  157.1956 H   0  0  0  0  0  0  0  0  0  0  0  0  # atno 8010 bound_to 7997
  139.4908  144.5834  151.6826 H   0  0  0  0  0  0  0  0  0  0  0  0  # atno 10167 bound_to 10162
  156.1866  130.4151  149.9430 H   0  0  0  0  0  0  0  0  0  0  0  0  # atno 10718 bound_to 10713
  153.5810  135.7005  153.5463 H   0  0  0  0  0  0  0  0  0  0  0  0  # atno 10763 bound_to 10752
  153.3261  135.4060  155.1456 H   0  0  0  0  0  0  0  0  0  0  0  0  # atno 10764 bound_to 10752
  154.8617  135.3707  154.5338 H   0  0  0  0  0  0  0  0  0  0  0  0  # atno 10765 bound_to 10752
  140.8783  134.1964  157.4607 H   0  0  0  0  0  0  0  0  0  0  0  0  # atno 11005 bound_to 11000
  144.8151  140.6453  143.6390 LP  0  0  0  0  0  0  0  0  0  0  0  0  # atno 17320 bound_to 7965
  145.4362  139.1542  143.3995 LP  0  0  0  0  0  0  0  0  0  0  0  0  # atno 17321 bound_to 7965
  140.5445  144.0525  150.6101 LP  0  0  0  0  0  0  0  0  0  0  0  0  # atno 17342 bound_to 10162
  140.3559  143.2936  152.0437 LP  0  0  0  0  0  0  0  0  0  0  0  0  # atno 17343 bound_to 10162
  156.7184  130.8997  151.3616 LP  0  0  0  0  0  0  0  0  0  0  0  0  # atno 17370 bound_to 10713
  157.6903  130.9226  150.0495 LP  0  0  0  0  0  0  0  0  0  0  0  0  # atno 17371 bound_to 10713
  139.8717  134.9805  156.5081 LP  0  0  0  0  0  0  0  0  0  0  0  0  # atno 17394 bound_to 11000
  140.8492  133.8145  155.9151 LP  0  0  0  0  0  0  0  0  0  0  0  0  # atno 17395 bound_to 11000

$$$$
