AV-unprocessed.smi:55|AV-procd|sdf|561|dock7
  -GOLD-   2262016463D 1   1.00000     0.00000
 Structure written by MMmdl.
 31 32  0  0  0  0  0  0  0  0  1 V2000
  150.4129  135.5710  155.3109 C   0  0  0  0  0  0  0  0  0  0  0  0
  151.2103  136.5676  156.1357 C   0  0  0  0  0  0  0  0  0  0  0  0
  151.1842  137.9020  155.8889 C   0  0  0  0  0  0  0  0  0  0  0  0
  151.9012  138.8375  156.6211 N   0  0  0  0  0  0  0  0  0  0  0  0
  151.8328  140.3044  156.2609 C   0  0  2  0  0  0  0  0  0  0  0  0
  151.3002  141.1410  157.4298 C   0  0  0  0  0  0  0  0  0  0  0  0
  149.9260  141.5581  156.9369 C   0  0  1  0  0  0  0  0  0  0  0  0
  149.5690  142.8276  157.4445 O   0  0  0  0  0  0  0  0  0  0  0  0
  150.1018  141.5656  155.4159 C   0  0  2  0  0  0  0  0  0  0  0  0
  148.7851  141.3835  154.6456 C   0  0  0  0  0  0  0  0  0  0  0  0
  149.0426  141.2938  153.2607 O   0  0  0  0  0  0  0  0  0  0  0  0
  150.9536  140.4481  155.1875 O   0  0  0  0  0  0  0  0  0  0  0  0
  152.7232  138.4007  157.6821 C   0  0  0  0  0  0  0  0  0  0  0  0
  153.3903  139.1642  158.3793 O   0  0  0  0  0  0  0  0  0  0  0  0
  152.7504  137.0303  157.9363 N   0  0  0  0  0  0  0  0  0  0  0  0
  152.0392  136.0565  157.2307 C   0  0  0  0  0  0  0  0  0  0  0  0
  152.1440  134.8744  157.5536 O   0  0  0  0  0  0  0  0  0  0  0  0
  152.8235  140.6260  155.9388 H   0  0  0  0  0  0  0  0  0  0  0  0
  149.1808  140.8200  157.2356 H   0  0  0  0  0  0  0  0  0  0  0  0
  150.6201  142.4769  155.1099 H   0  0  0  0  0  0  0  0  0  0  0  0
  153.3350  136.7141  158.6962 H   0  0  0  0  0  0  0  0  0  0  0  0
  149.8288  136.0646  154.5339 H   0  0  0  0  0  0  0  0  0  0  0  0
  149.7217  135.0162  155.9462 H   0  0  0  0  0  0  0  0  0  0  0  0
  151.0807  134.8582  154.8257 H   0  0  0  0  0  0  0  0  0  0  0  0
  150.5733  138.2553  155.0717 H   0  0  0  0  0  0  0  0  0  0  0  0
  151.2767  140.5803  158.3652 H   0  0  0  0  0  0  0  0  0  0  0  0
  151.9567  142.0033  157.5559 H   0  0  0  0  0  0  0  0  0  0  0  0
  149.3404  143.3893  156.7196 H   0  0  0  0  0  0  0  0  0  0  0  0
  148.2421  140.5030  154.9908 H   0  0  0  0  0  0  0  0  0  0  0  0
  148.1365  142.2461  154.8011 H   0  0  0  0  0  0  0  0  0  0  0  0
  149.1318  140.3816  153.0301 H   0  0  0  0  0  0  0  0  0  0  0  0
  1  2  1  0  0  0  0
  1 22  1  0  0  0  0
  1 23  1  0  0  0  0
  1 24  1  0  0  0  0
  2 16  1  0  0  0  0
  2  3  2  0  0  0  0
  3  4  1  0  0  0  0
  3 25  1  0  0  0  0
  4  5  1  0  0  0  0
  4 13  1  0  0  0  0
  5 18  1  0  0  0  0
  5 12  1  0  0  0  0
  5  6  1  0  0  0  0
  6  7  1  0  0  0  0
  6 26  1  0  0  0  0
  6 27  1  0  0  0  0
  7 19  1  0  0  0  0
  7  8  1  0  0  0  0
  7  9  1  0  0  0  0
  8 28  1  0  0  0  0
  9 20  1  0  0  0  0
  9 10  1  0  0  0  0
  9 12  1  0  0  0  0
 10 11  1  0  0  0  0
 10 29  1  0  0  0  0
 10 30  1  0  0  0  0
 11 31  1  0  0  0  0
 13 14  2  0  0  0  0
 13 15  1  0  0  0  0
 15 21  1  0  0  0  0
 15 16  1  0  0  0  0
 16 17  2  0  0  0  0
M  END
> <s_m_source_file>
AV-unprocessed.smi

> <i_m_source_file_index>
55

> <i_lp_mmshare_version>
43012

> <i_f3d_flags>
0

> <s_epik_input>
Tz1jMVtuSF1jKD1PKW4oW2NIXWMxW0NIM10pW0NAQEhdMltDSDJdW0NAQEhdKFtPSF0pW0NAQEhdKE8yKVtDSDJdW09IXQ==

> <s_epik_cmdline>
J2VwaWtfcHl0aG9uJywgJy1waCcsICc3LjAnLCAnLXRuJywgJzgnLCAnLW1hJywgJzIwMCcsICctbWV0YWxfYmluZGluZycsICctaW1hZScsICc8aW5maWxlLm1hZT4nLCAnLW9tYWUnLCAnPG91dGZpbGUubWFlPic=

> <r_lp_tautomer_probability>
0.999537

> <r_epik_Ionization_Penalty>
0.00121888

> <r_epik_Ionization_Penalty_Charging>
0.00121876

> <r_epik_Ionization_Penalty_Neutral>
1.19946e-07

> <r_epik_State_Penalty>
0.000805124

> <r_epik_Charging_Adjusted_Penalty>
0.00202389

> <i_epik_Tot_Q>
0

> <i_epik_Tot_abs_Q>
0

> <r_epik_Metal_State_Penalty>
0.662472

> <b_epik_Metal_Only>
0

> <s_epik_Chemistry_Notes>
This compound contains an acetal/aminal-like group ( X-CH(R)-Y where X, Y are N, S, or O) that may be acid/base labile, releasing an aldehyde.

> <s_lp_Force_Field>
OPLS_2005

> <r_lp_Energy>
24.9707

> <b_lp_Chiralities_Consistent>
1

> <s_lp_Variant>
AV-unprocessed.smi:55-1

> <Gold.Version>
5.8.1

> <Gold.Id.Protein>
6NUR|6NUR_protein|mol2

> <Gold.PLP.Fitness>
38.8699

> <Gold.PLP.PLP>
-25.7940

> <Gold.PLP.part.hbond>
-6.9057

> <Gold.PLP.part.metal>
0.0000

> <Gold.PLP.part.buried>
-2.6708

> <Gold.PLP.part.nonpolar>
-15.5779

> <Gold.PLP.part.repulsive>
0.1909

> <Gold.PLP.ligand.clash>
0.0000

> <Gold.PLP.ligand.torsion>
0.0083

> <Gold.PLP.Chemscore.Hbond>
4.3600

> <Gold.PLP.Chemscore.CHOScore>
0.0000

> <Gold.PLP.Chemscore.Metal>
0.0000

> <Gold.Chemscore.Hbonds>
donor molecule, donor type, donor heavy atom, donor atom, acceptor molecule, acceptor atom, score
      L1  H     8    28       P1  8028  1.00
      L1  H    11    31       P1  7957  0.29
      P1  H  7989  7998       L1    12  1.00
      P1  H  7997  8008       L1    14  1.00
      P1  H  8011  8017       L1    11  1.00

> <Gold.PLP.Chemscore.Internal.Correction>
0.0127

> <Gold.Rescore>
     Score         DG    S(hbond)    S(metal)    S(lipo)     H(rot)  DE(clash)    DE(int)     intcor
     14.17     -15.21       3.51        0.00      42.63       2.73       0.09       0.95       ----

> <Gold.Chemscore.Fitness>
14.1700

> <Gold.Chemscore.DG>
-15.2120

> <Gold.Chemscore.ZeroCoef>
-5.4800

> <Gold.Chemscore.Hbond>
3.5094

> <Gold.Chemscore.Metal>
0.0000

> <Gold.Chemscore.Lipo>
42.6291

> <Gold.Chemscore.Internal_Hbond>
0.0000

> <Gold.Chemscore.DEClash>
0.0873

> <Gold.Chemscore.DEInternal>
0.9547

> <Gold.Chemscore.Rot>
2.7253

> <Gold.Chemscore.Internal.Correction>
   9.000000E+99

> <Gold.Chemscore.Hbonds>
donor molecule, donor type, donor heavy atom, donor atom, acceptor molecule, acceptor atom, score
      L1  H     8    28       P1  8028  0.98
      L1  H    11    31       P1  7957  0.30
      P1  H  7989  7998       L1    12  0.24
      P1  H  7997  8008       L1    14  0.58
      P1  H  8011  8017       L1    11  0.92

> <Gold.Chemscore.Hbond.Weighted>
-11.7213

> <Gold.Chemscore.Metal.Weighted>
-0.0000

> <Gold.Chemscore.Lipo.Weighted>
-4.9876

> <Gold.Chemscore.Internal_Hbond.Weighted>
0.0000

> <Gold.Chemscore.DEClash.Weighted>
0.0873

> <Gold.Chemscore.DEInternal.Weighted>
0.9547

> <Gold.Chemscore.Rot.Weighted>
6.9769

> <Gold.Chemscore.Internal.Correction.Weighted>
   9.000000E+99

> <Gold.Protein.RotatedTorsions>
[ 6907 6896 6895 6894 ] final -150.47 input  -60.11 | X-H torsion
[ 7974 7965 7964 7962 ] final   36.97 input  175.53 | X-H torsion
[ 8008 7997 7996 7995 ] final  -98.03 input   59.86 | X-H torsion
[ 10167 10162 10161 10158 ] final   62.42 input  -65.29 | X-H torsion
[ 10718 10713 10712 10709 ] final  108.46 input   66.30 | X-H torsion
[ 10763 10752 10751 10750 ] final  -22.69 input  -60.55 | X-H torsion
[ 11005 11000 10999 10996 ] final   -5.52 input  -57.11 | X-H torsion

> <Gold.Protein.ActiveResidues>
 VAL166  LYS551  ARG553  GLY616  TRP617  ASP618  TYR619  PRO620  LYS621  CYS622 
 ASP623  PHE694  ASN695  SER759  ASP760  ASP761  ALA762  ILE779  LEU786  VAL792 
 PHE793  MET794  SER795  GLU796  ALA797  LYS798  CYS799  TRP800  GLU811  SER814 

> <Gold.Protein.RotatedAtoms>
  151.1990  133.4622  159.2595 H   0  0  0  0  0  0  0  0  0  0  0  0  # atno 6907 bound_to 6896
  151.1088  135.0014  159.8494 H   0  0  0  0  0  0  0  0  0  0  0  0  # atno 6908 bound_to 6896
  152.5449  134.1911  159.8727 H   0  0  0  0  0  0  0  0  0  0  0  0  # atno 6909 bound_to 6896
  146.1172  139.5952  142.9313 H   0  0  0  0  0  0  0  0  0  0  0  0  # atno 7974 bound_to 7965
  154.7957  140.0458  157.1234 H   0  0  0  0  0  0  0  0  0  0  0  0  # atno 8008 bound_to 7997
  154.9538  140.3068  155.5042 H   0  0  0  0  0  0  0  0  0  0  0  0  # atno 8009 bound_to 7997
  156.2955  140.2283  156.4618 H   0  0  0  0  0  0  0  0  0  0  0  0  # atno 8010 bound_to 7997
  140.1441  144.4526  150.6795 H   0  0  0  0  0  0  0  0  0  0  0  0  # atno 10167 bound_to 10162
  157.6585  131.0894  150.6308 H   0  0  0  0  0  0  0  0  0  0  0  0  # atno 10718 bound_to 10713
  153.6560  135.6978  153.5193 H   0  0  0  0  0  0  0  0  0  0  0  0  # atno 10763 bound_to 10752
  153.2669  135.4227  155.0949 H   0  0  0  0  0  0  0  0  0  0  0  0  # atno 10764 bound_to 10752
  154.8464  135.3569  154.6105 H   0  0  0  0  0  0  0  0  0  0  0  0  # atno 10765 bound_to 10752
  140.6920  133.9063  155.8625 H   0  0  0  0  0  0  0  0  0  0  0  0  # atno 11005 bound_to 11000
  145.5541  141.0410  143.2262 LP  0  0  0  0  0  0  0  0  0  0  0  0  # atno 17320 bound_to 7965
  144.7564  139.7064  143.7252 LP  0  0  0  0  0  0  0  0  0  0  0  0  # atno 17321 bound_to 7965
  140.6743  143.2298  151.5548 LP  0  0  0  0  0  0  0  0  0  0  0  0  # atno 17342 bound_to 10162
  139.5458  144.2526  152.1438 LP  0  0  0  0  0  0  0  0  0  0  0  0  # atno 17343 bound_to 10162
  156.6612  130.4513  149.5687 LP  0  0  0  0  0  0  0  0  0  0  0  0  # atno 17370 bound_to 10713
  156.2065  130.6652  151.1224 LP  0  0  0  0  0  0  0  0  0  0  0  0  # atno 17371 bound_to 10713
  141.0233  134.0858  157.4096 LP  0  0  0  0  0  0  0  0  0  0  0  0  # atno 17394 bound_to 11000
  139.8921  135.0122  156.6826 LP  0  0  0  0  0  0  0  0  0  0  0  0  # atno 17395 bound_to 11000

$$$$
