AV-unprocessed.smi:15|AV-procd|sdf|81|dock5
  -GOLD-   2262015213D 1   1.00000     0.00000
 Structure written by MMmdl.
 53 56  0  0  0  0  0  0  0  0  1 V2000
  154.0864  141.9994  160.3060 C   0  0  0  0  0  0  0  0  0  0  0  0
  152.5706  141.7851  160.4159 C   0  0  0  0  0  0  0  0  0  0  0  0
  151.9918  141.1386  159.2343 N   0  0  0  0  0  0  0  0  0  0  0  0
  150.8516  141.7647  158.5592 C   0  0  0  0  0  0  0  0  0  0  0  0
  150.8864  143.3034  158.6050 C   0  0  2  0  0  0  0  0  0  0  0  0
  152.2461  143.8893  158.2347 C   0  0  0  0  0  0  0  0  0  0  0  0
  152.2309  145.2571  158.8977 C   0  0  0  0  0  0  0  0  0  0  0  0
  151.1196  145.1475  159.9460 C   0  0  0  0  0  0  0  0  0  0  0  0
  150.7228  143.7832  159.9300 O   0  0  0  0  0  0  0  0  0  0  0  0
  151.9657  139.7796  159.2332 C   0  0  0  0  0  0  0  0  0  0  0  0
  152.8183  139.0895  160.0379 N   0  0  0  0  0  0  0  0  0  0  0  0
  152.7837  137.7545  160.0733 C   0  0  0  0  0  0  0  0  0  0  0  0
  151.9913  136.9228  159.3957 N   0  0  0  0  0  0  0  0  0  0  0  0
  151.1414  137.6061  158.5770 C   0  0  0  0  0  0  0  0  0  0  0  0
  151.0598  139.0210  158.4383 C   0  0  0  0  0  0  0  0  0  0  0  0
  150.0745  139.3475  157.5134 N   0  0  0  0  0  0  0  0  0  0  0  0
  149.5939  138.1940  157.1377 C   0  0  0  0  0  0  0  0  0  0  0  0
  150.1860  137.0942  157.7163 N   0  0  0  0  0  0  0  0  0  0  0  0
  149.8501  135.6986  157.4786 C   0  0  0  0  0  0  0  0  0  0  0  0
  150.8748  134.9328  156.5981 C   0  0  2  0  0  0  0  0  0  0  0  0
  152.1793  135.2329  157.0624 O   0  0  0  0  0  0  0  0  0  0  0  0
  150.7926  135.2706  155.1135 C   0  0  0  0  0  0  0  0  0  0  0  0
  149.6911  134.3387  154.6343 C   0  0  0  0  0  0  0  0  0  0  0  0
  149.9384  133.1342  155.3440 O   0  0  0  0  0  0  0  0  0  0  0  0
  150.5745  133.4116  156.5927 C   0  0  1  0  0  0  0  0  0  0  0  0
  151.8018  132.4875  156.6763 C   0  0  0  0  0  0  0  0  0  0  0  0
  154.4832  142.3999  161.2390 H   0  0  0  0  0  0  0  0  0  0  0  0
  154.3391  142.7082  159.5177 H   0  0  0  0  0  0  0  0  0  0  0  0
  154.6035  141.0618  160.1005 H   0  0  0  0  0  0  0  0  0  0  0  0
  152.3830  141.1628  161.2922 H   0  0  0  0  0  0  0  0  0  0  0  0
  152.0711  142.7368  160.5980 H   0  0  0  0  0  0  0  0  0  0  0  0
  150.7965  141.4223  157.5264 H   0  0  0  0  0  0  0  0  0  0  0  0
  149.9247  141.4233  159.0177 H   0  0  0  0  0  0  0  0  0  0  0  0
  150.1180  143.7363  157.9615 H   0  0  0  0  0  0  0  0  0  0  0  0
  153.0455  143.2838  158.6645 H   0  0  0  0  0  0  0  0  0  0  0  0
  152.4041  143.9404  157.1570 H   0  0  0  0  0  0  0  0  0  0  0  0
  153.1969  145.4889  159.3468 H   0  0  0  0  0  0  0  0  0  0  0  0
  151.9968  146.0420  158.1777 H   0  0  0  0  0  0  0  0  0  0  0  0
  151.4513  145.4439  160.9413 H   0  0  0  0  0  0  0  0  0  0  0  0
  150.2692  145.7727  159.6702 H   0  0  0  0  0  0  0  0  0  0  0  0
  153.4906  137.2861  160.7419 H   0  0  0  0  0  0  0  0  0  0  0  0
  148.7943  138.1123  156.4156 H   0  0  0  0  0  0  0  0  0  0  0  0
  149.7494  135.2054  158.4465 H   0  0  0  0  0  0  0  0  0  0  0  0
  148.8589  135.6663  157.0247 H   0  0  0  0  0  0  0  0  0  0  0  0
  152.1126  135.5873  157.9357 H   0  0  0  0  0  0  0  0  0  0  0  0
  150.5957  136.3184  154.8929 H   0  0  0  0  0  0  0  0  0  0  0  0
  151.7230  135.0025  154.6100 H   0  0  0  0  0  0  0  0  0  0  0  0
  148.7074  134.7252  154.9032 H   0  0  0  0  0  0  0  0  0  0  0  0
  149.7127  134.1789  153.5563 H   0  0  0  0  0  0  0  0  0  0  0  0
  149.8886  133.1531  157.4007 H   0  0  0  0  0  0  0  0  0  0  0  0
  152.3248  132.6049  157.6259 H   0  0  0  0  0  0  0  0  0  0  0  0
  152.5087  132.6915  155.8715 H   0  0  0  0  0  0  0  0  0  0  0  0
  151.5040  131.4418  156.5961 H   0  0  0  0  0  0  0  0  0  0  0  0
  1  2  1  0  0  0  0
  1 27  1  0  0  0  0
  1 28  1  0  0  0  0
  1 29  1  0  0  0  0
  2  3  1  0  0  0  0
  2 30  1  0  0  0  0
  2 31  1  0  0  0  0
  3  4  1  0  0  0  0
  3 10  1  0  0  0  0
  4  5  1  0  0  0  0
  4 32  1  0  0  0  0
  4 33  1  0  0  0  0
  5  9  1  0  0  0  0
  5  6  1  0  0  0  0
  5 34  1  0  0  0  0
  6  7  1  0  0  0  0
  6 35  1  0  0  0  0
  6 36  1  0  0  0  0
  7  8  1  0  0  0  0
  7 37  1  0  0  0  0
  7 38  1  0  0  0  0
  8  9  1  0  0  0  0
  8 39  1  0  0  0  0
  8 40  1  0  0  0  0
 10 15  1  0  0  0  0
 10 11  2  0  0  0  0
 11 12  1  0  0  0  0
 12 13  2  0  0  0  0
 12 41  1  0  0  0  0
 13 14  1  0  0  0  0
 14 18  1  0  0  0  0
 14 15  2  0  0  0  0
 15 16  1  0  0  0  0
 16 17  2  0  0  0  0
 17 18  1  0  0  0  0
 17 42  1  0  0  0  0
 18 19  1  0  0  0  0
 19 20  1  0  0  0  0
 19 43  1  0  0  0  0
 19 44  1  0  0  0  0
 20 25  1  0  0  0  0
 20 21  1  0  0  0  0
 20 22  1  0  0  0  0
 21 45  1  0  0  0  0
 22 23  1  0  0  0  0
 22 46  1  0  0  0  0
 22 47  1  0  0  0  0
 23 24  1  0  0  0  0
 23 48  1  0  0  0  0
 23 49  1  0  0  0  0
 24 25  1  0  0  0  0
 25 26  1  0  0  0  0
 25 50  1  0  0  0  0
 26 51  1  0  0  0  0
 26 52  1  0  0  0  0
 26 53  1  0  0  0  0
M  END
> <s_m_source_file>
AV-unprocessed.smi

> <i_m_source_file_index>
15

> <i_lp_mmshare_version>
43012

> <i_f3d_flags>
0

> <s_epik_input>
TzFbQ0gyXVtDSDJdW0NIMl1bQ0BIXTFbQ0gyXU4oW0NIMl1bQ0gzXSljKG5bY0hdbjIpYyhjMjMpbltjSF1uM1tDSDJdW0NAQF00KFtPSF0pW0NIMl1bQ0gyXU9bQ0BIXTRbQ0gzXQ==

> <s_epik_cmdline>
J2VwaWtfcHl0aG9uJywgJy1waCcsICc3LjAnLCAnLXRuJywgJzgnLCAnLW1hJywgJzIwMCcsICctbWV0YWxfYmluZGluZycsICctaW1hZScsICc8aW5maWxlLm1hZT4nLCAnLW9tYWUnLCAnPG91dGZpbGUubWFlPic=

> <r_lp_tautomer_probability>
1

> <r_epik_Ionization_Penalty>
0.00360814

> <r_epik_Ionization_Penalty_Charging>
0

> <r_epik_Ionization_Penalty_Neutral>
0.00360814

> <r_epik_State_Penalty>
0.00237482

> <r_epik_Charging_Adjusted_Penalty>
0.00237482

> <i_epik_Tot_Q>
0

> <i_epik_Tot_abs_Q>
0

> <r_epik_Metal_State_Penalty>
-0

> <b_epik_Metal_Only>
0

> <s_lp_Force_Field>
OPLS_2005

> <r_lp_Energy>
47.2651

> <b_lp_Chiralities_Consistent>
1

> <s_lp_Variant>
AV-unprocessed.smi:15-3

> <Gold.Version>
5.8.1

> <Gold.Id.Protein>
6NUR|6NUR_protein|mol2

> <Gold.PLP.Fitness>
50.3358

> <Gold.PLP.PLP>
-45.3553

> <Gold.PLP.part.hbond>
-2.3341

> <Gold.PLP.part.metal>
0.0000

> <Gold.PLP.part.buried>
-7.4195

> <Gold.PLP.part.nonpolar>
-34.6259

> <Gold.PLP.part.repulsive>
0.1160

> <Gold.PLP.ligand.clash>
0.1454

> <Gold.PLP.ligand.torsion>
0.9083

> <Gold.PLP.Chemscore.Hbond>
2.0000

> <Gold.PLP.Chemscore.CHOScore>
0.0000

> <Gold.PLP.Chemscore.Metal>
0.0000

> <Gold.Chemscore.Hbonds>
donor molecule, donor type, donor heavy atom, donor atom, acceptor molecule, acceptor atom, score
      P1  H  6896  6909       L1    13  1.00
      P1  H 10752 10765       L1    21  0.59

> <Gold.PLP.Chemscore.Internal.Correction>
0.9425

> <Gold.Rescore>
     Score         DG    S(hbond)    S(metal)    S(lipo)     H(rot)  DE(clash)    DE(int)     intcor
     13.19     -17.95       1.86        0.00     107.04       2.44       0.07       4.70       ----

> <Gold.Chemscore.Fitness>
13.1852

> <Gold.Chemscore.DG>
-17.9521

> <Gold.Chemscore.ZeroCoef>
-5.4800

> <Gold.Chemscore.Hbond>
1.8571

> <Gold.Chemscore.Metal>
0.0000

> <Gold.Chemscore.Lipo>
107.0427

> <Gold.Chemscore.Internal_Hbond>
0.0000

> <Gold.Chemscore.DEClash>
0.0710

> <Gold.Chemscore.DEInternal>
4.6959

> <Gold.Chemscore.Rot>
2.4431

> <Gold.Chemscore.Internal.Correction>
   9.000000E+99

> <Gold.Chemscore.Hbonds>
donor molecule, donor type, donor heavy atom, donor atom, acceptor molecule, acceptor atom, score
      P1  H  6896  6909       L1    13  0.96
      P1  H 10752 10765       L1    21  0.15

> <Gold.Chemscore.Hbond.Weighted>
-6.2026

> <Gold.Chemscore.Metal.Weighted>
-0.0000

> <Gold.Chemscore.Lipo.Weighted>
-12.5240

> <Gold.Chemscore.Internal_Hbond.Weighted>
0.0000

> <Gold.Chemscore.DEClash.Weighted>
0.0710

> <Gold.Chemscore.DEInternal.Weighted>
4.6959

> <Gold.Chemscore.Rot.Weighted>
6.2544

> <Gold.Chemscore.Internal.Correction.Weighted>
   9.000000E+99

> <Gold.Protein.RotatedTorsions>
[ 6907 6896 6895 6894 ] final  117.49 input  -60.11 | X-H torsion
[ 7974 7965 7964 7962 ] final -105.30 input  175.53 | X-H torsion
[ 8008 7997 7996 7995 ] final -113.44 input   59.86 | X-H torsion
[ 10167 10162 10161 10158 ] final   56.42 input  -65.29 | X-H torsion
[ 10718 10713 10712 10709 ] final -111.14 input   66.30 | X-H torsion
[ 10763 10752 10751 10750 ] final -145.11 input  -60.55 | X-H torsion
[ 11005 11000 10999 10996 ] final   76.89 input  -57.11 | X-H torsion

> <Gold.Protein.ActiveResidues>
 VAL166  LYS551  ARG553  GLY616  TRP617  ASP618  TYR619  PRO620  LYS621  CYS622 
 ASP623  PHE694  ASN695  SER759  ASP760  ASP761  ALA762  ILE779  LEU786  VAL792 
 PHE793  MET794  SER795  GLU796  ALA797  LYS798  CYS799  TRP800  GLU811  SER814 

> <Gold.Protein.RotatedAtoms>
  152.4608  133.7819  159.6854 H   0  0  0  0  0  0  0  0  0  0  0  0  # atno 6907 bound_to 6896
  150.8552  133.7717  159.3018 H   0  0  0  0  0  0  0  0  0  0  0  0  # atno 6908 bound_to 6896
  151.5300  135.1071  159.9952 H   0  0  0  0  0  0  0  0  0  0  0  0  # atno 6909 bound_to 6896
  145.2322  140.9175  143.3198 H   0  0  0  0  0  0  0  0  0  0  0  0  # atno 7974 bound_to 7965
  155.0207  140.0393  157.2436 H   0  0  0  0  0  0  0  0  0  0  0  0  # atno 8008 bound_to 7997
  154.7380  140.2743  155.6374 H   0  0  0  0  0  0  0  0  0  0  0  0  # atno 8009 bound_to 7997
  156.2857  140.2671  156.2099 H   0  0  0  0  0  0  0  0  0  0  0  0  # atno 8010 bound_to 7997
  140.2090  144.3909  150.6497 H   0  0  0  0  0  0  0  0  0  0  0  0  # atno 10167 bound_to 10162
  156.0630  130.5852  150.8332 H   0  0  0  0  0  0  0  0  0  0  0  0  # atno 10718 bound_to 10713
  154.8398  135.3422  154.6452 H   0  0  0  0  0  0  0  0  0  0  0  0  # atno 10763 bound_to 10752
  153.7064  135.6966  153.5053 H   0  0  0  0  0  0  0  0  0  0  0  0  # atno 10764 bound_to 10752
  153.2484  135.4361  155.0726 H   0  0  0  0  0  0  0  0  0  0  0  0  # atno 10765 bound_to 10752
  139.9278  134.7638  156.1452 H   0  0  0  0  0  0  0  0  0  0  0  0  # atno 11005 bound_to 11000
  144.9665  139.3924  143.6330 LP  0  0  0  0  0  0  0  0  0  0  0  0  # atno 17320 bound_to 7965
  146.3350  139.8743  142.8835 LP  0  0  0  0  0  0  0  0  0  0  0  0  # atno 17321 bound_to 7965
  140.6337  143.2191  151.6441 LP  0  0  0  0  0  0  0  0  0  0  0  0  # atno 17342 bound_to 10162
  139.5187  144.3275  152.0856 LP  0  0  0  0  0  0  0  0  0  0  0  0  # atno 17343 bound_to 10162
  157.5652  131.0946  150.9500 LP  0  0  0  0  0  0  0  0  0  0  0  0  # atno 17370 bound_to 10713
  156.9729  130.5497  149.5291 LP  0  0  0  0  0  0  0  0  0  0  0  0  # atno 17371 bound_to 10713
  141.0848  133.6739  156.2412 LP  0  0  0  0  0  0  0  0  0  0  0  0  # atno 17394 bound_to 11000
  140.6286  134.5287  157.5557 LP  0  0  0  0  0  0  0  0  0  0  0  0  # atno 17395 bound_to 11000

$$$$
