#       Name:                AV-unprocessed.smi:2952
#       Creating user name   scv26
#       Creation time:       Fri Mar 27 16:18:29 2020


#       File generated by GOLD software.
#

@<TRIPOS>MOLECULE
AV-unprocessed.smi:2952
    44    46     1
SMALL
NO_CHARGES


@<TRIPOS>ATOM
      1 ****        -1.4593   3.0012   1.9437 O.3            1 S1                 0.0000
      2 ****        -2.0150   2.1326   0.9785 C.3            1 S1                 0.0000
      3 ****        -1.4590   0.7073   1.1278 C.3            1 S1                 0.0000
      4 ****         0.0007   0.6422   0.9455 N.pl3          1 S1                 0.0000
      5 ****         0.7403   0.5576  -0.1984 C.2            1 S1                 0.0000
      6 ****         0.2256   0.5152  -1.6032 C.3            1 S1                 0.0000
      7 ****        -0.5364  -0.6920  -1.9125 N.3            1 S1                 0.0000
      8 ****         0.2823  -1.9015  -1.8720 C.3            1 S1                 0.0000
      9 ****        -0.5391  -3.1576  -2.2105 C.3            1 S1                 0.0000
     10 ****        -1.1529  -2.9977  -3.4855 O.3            1 S1                 0.0000
     11 ****        -1.9963  -1.8520  -3.5509 C.3            1 S1                 0.0000
     12 ****        -1.1791  -0.5919  -3.2177 C.3            1 S1                 0.0000
     13 ****         2.0517   0.5202   0.1701 N.pl3          1 S1                 1.0000
     14 ****         2.1541   0.5864   1.5599 C.ar           1 S1                 0.0000
     15 ****         3.2698   0.5831   2.3911 C.ar           1 S1                 0.0000
     16 ****         3.0261   0.6702   3.7773 C.ar           1 S1                 0.0000
     17 ****         1.7151   0.7564   4.2902 C.ar           1 S1                 0.0000
     18 ****         1.4785   0.8649   5.9954 Cl             1 S1                 0.0000
     19 ****         0.5927   0.7569   3.4358 C.ar           1 S1                 0.0000
     20 ****         0.8406   0.6683   2.0660 C.ar           1 S1                 0.0000
     21 ****        -1.8381   3.8596   1.8282 H              1 S1                 0.0000
     22 ****        -3.0989   2.1253   1.0942 H              1 S1                 0.0000
     23 ****        -1.8020   2.5247  -0.0163 H              1 S1                 0.0000
     24 ****        -1.7248   0.2813   2.0950 H              1 S1                 0.0000
     25 ****        -1.9135   0.0560   0.3815 H              1 S1                 0.0000
     26 ****        -0.4050   1.3928  -1.7494 H              1 S1                 0.0000
     27 ****         1.0624   0.6195  -2.2954 H              1 S1                 0.0000
     28 ****         1.1103  -1.8116  -2.5769 H              1 S1                 0.0000
     29 ****         0.7248  -2.0253  -0.8835 H              1 S1                 0.0000
     30 ****         0.1041  -4.0373  -2.2318 H              1 S1                 0.0000
     31 ****        -1.3024  -3.3364  -1.4515 H              1 S1                 0.0000
     32 ****        -2.4195  -1.7762  -4.5526 H              1 S1                 0.0000
     33 ****        -2.8310  -1.9657  -2.8574 H              1 S1                 0.0000
     34 ****        -1.8349   0.2791  -3.2420 H              1 S1                 0.0000
     35 ****        -0.4251  -0.4362  -3.9910 H              1 S1                 0.0000
     36 ****         4.2756   0.5198   2.0025 H              1 S1                 0.0000
     37 ****         3.8629   0.6733   4.4608 H              1 S1                 0.0000
     38 ****        -0.4065   0.8303   3.8386 H              1 S1                 0.0000
     39 ****         2.8197   0.4557  -0.4855 H              1 S1                 0.0000
     40 ****        -0.4679   3.0508   1.8220 LP             1 S1                 0.0000
     41 ****        -1.6658   2.6621   2.8615 LP             1 S1                 0.0000
     42 ****        -1.2338  -0.7651  -1.1995 LP             1 S1                 0.0000
     43 ****        -1.7020  -3.8104  -3.6801 LP             1 S1                 0.0000
     44 ****        -0.4357  -2.9066  -4.1764 LP             1 S1                 0.0000
@<TRIPOS>BOND
    1    1    2 1     
    2    1   21 1     
    3    2    3 1     
    4    2   22 1     
    5    2   23 1     
    6    3    4 1     
    7    3   24 1     
    8    3   25 1     
    9    4   20 1     
   10    4    5 1     
   11    5    6 1     
   12    5   13 2     
   13    6    7 1     
   14    6   26 1     
   15    6   27 1     
   16    7   12 1     
   17    7    8 1     
   18    8    9 1     
   19    8   28 1     
   20    8   29 1     
   21    9   10 1     
   22    9   30 1     
   23    9   31 1     
   24   10   11 1     
   25   11   12 1     
   26   11   32 1     
   27   11   33 1     
   28   12   34 1     
   29   12   35 1     
   30   13   14 1     
   31   13   39 1     
   32   14   20 ar    
   33   14   15 ar    
   34   15   16 ar    
   35   15   36 1     
   36   16   17 ar    
   37   16   37 1     
   38   17   18 1     
   39   17   19 ar    
   40   19   20 ar    
   41   19   38 1     
   42    1   40 1     
   43    1   41 1     
   44    7   42 1     
   45   10   43 1     
   46   10   44 1     
@<TRIPOS>SUBSTRUCTURE
      1 S1             1
@<TRIPOS>SET
LONE_PAIRS      STATIC     ATOMS    <user>   **** ""
5 40 41 42 43 44
DONOR_HYDROGENS      STATIC     ATOMS    <user>   **** ""
2 21 39
ATOM$BLUE        STATIC     ATOMS    COLORGROUP SYSTEM
5 40 41 42 43 44
ATOM$RED        STATIC     ATOMS    COLORGROUP SYSTEM
2 21 39
