AV-unprocessed.smi:1389|AV-procd|sdf|5655|dock7
  -GOLD-   22720 5283D 1   1.00000     0.00000
 Structure written by MMmdl.
 52 54  0  0  0  0  0  0  0  0  4 V2000
  155.1830  137.4886  159.6314 C   0  0  0  0  0  0  0  0  0  0  0  0
  155.7613  138.1065  158.3361 C   0  0  1  0  0  0  0  0  0  0  0  0
  154.8149  137.9716  157.1116 C   0  0  0  0  0  0  0  0  0  0  0  0
  153.9647  139.1595  156.9777 N   0  5  0  0  0  0  0  0  0  0  0  0
  152.7810  139.1945  156.3092 C   0  0  0  0  0  0  0  0  0  0  0  0
  152.1892  138.2523  155.7702 O   0  0  0  0  0  0  0  0  0  0  0  0
  152.2522  140.4295  156.2812 N   0  0  0  0  0  0  0  0  0  0  0  0
  150.9941  140.8348  155.7558 C   0  0  0  0  0  0  0  0  0  0  0  0
  150.2956  140.0199  154.8294 C   0  0  0  0  0  0  0  0  0  0  0  0
  149.0882  140.4738  154.2662 C   0  0  0  0  0  0  0  0  0  0  0  0
  148.6073  141.7452  154.6243 C   0  0  0  0  0  0  0  0  0  0  0  0
  149.3036  142.5029  155.4969 N   0  3  0  0  0  0  0  0  0  0  0  0
  150.4631  142.1149  156.0848 C   0  0  0  0  0  0  0  0  0  0  0  0
  151.0778  143.0084  156.9913 N   0  0  0  0  0  0  0  0  0  0  0  0
  151.7332  144.2179  156.5073 C   0  0  0  0  0  0  0  0  0  0  0  0
  151.9317  145.0843  157.7481 C   0  0  0  0  0  0  0  0  0  0  0  0
  150.6890  144.7641  158.5734 C   0  0  0  0  0  0  0  0  0  0  0  0
  150.4192  143.2880  158.2640 C   0  0  0  0  0  0  0  0  0  0  0  0
  156.2195  139.5206  158.5107 N   0  3  0  0  0  0  0  0  0  0  0  0
  155.3596  140.4065  159.3427 C   0  0  0  0  0  0  0  0  0  0  0  0
  155.8719  141.8535  159.2683 C   0  0  0  0  0  0  0  0  0  0  0  0
  157.2255  141.8994  159.7039 O   0  0  0  0  0  0  0  0  0  0  0  0
  158.0789  141.1145  158.8795 C   0  0  0  0  0  0  0  0  0  0  0  0
  157.6388  139.6415  158.9237 C   0  0  0  0  0  0  0  0  0  0  0  0
  154.9883  136.4206  159.5164 H   0  0  0  0  0  0  0  0  0  0  0  0
  154.2478  137.9569  159.9435 H   0  0  0  0  0  0  0  0  0  0  0  0
  155.8893  137.5886  160.4560 H   0  0  0  0  0  0  0  0  0  0  0  0
  156.6415  137.5092  158.0929 H   0  0  0  0  0  0  0  0  0  0  0  0
  155.4105  137.7940  156.2152 H   0  0  0  0  0  0  0  0  0  0  0  0
  154.2081  137.0744  157.2343 H   0  0  0  0  0  0  0  0  0  0  0  0
  152.7442  141.1234  156.8248 H   0  0  0  0  0  0  0  0  0  0  0  0
  150.6833  139.0583  154.5278 H   0  0  0  0  0  0  0  0  0  0  0  0
  148.5469  139.8604  153.5609 H   0  0  0  0  0  0  0  0  0  0  0  0
  147.6957  142.1790  154.2395 H   0  0  0  0  0  0  0  0  0  0  0  0
  152.6803  143.9891  156.0176 H   0  0  0  0  0  0  0  0  0  0  0  0
  151.0935  144.7410  155.7953 H   0  0  0  0  0  0  0  0  0  0  0  0
  152.8266  144.7685  158.2863 H   0  0  0  0  0  0  0  0  0  0  0  0
  152.0305  146.1450  157.5152 H   0  0  0  0  0  0  0  0  0  0  0  0
  150.8220  144.9564  159.6383 H   0  0  0  0  0  0  0  0  0  0  0  0
  149.8526  145.3711  158.2241 H   0  0  0  0  0  0  0  0  0  0  0  0
  149.3489  143.0792  158.2305 H   0  0  0  0  0  0  0  0  0  0  0  0
  150.8639  142.6577  159.0351 H   0  0  0  0  0  0  0  0  0  0  0  0
  154.3251  140.3684  159.0005 H   0  0  0  0  0  0  0  0  0  0  0  0
  155.3693  140.0751  160.3816 H   0  0  0  0  0  0  0  0  0  0  0  0
  155.7874  142.2463  158.2536 H   0  0  0  0  0  0  0  0  0  0  0  0
  155.2721  142.4978  159.9113 H   0  0  0  0  0  0  0  0  0  0  0  0
  158.0630  141.4938  157.8564 H   0  0  0  0  0  0  0  0  0  0  0  0
  159.1036  141.2112  159.2385 H   0  0  0  0  0  0  0  0  0  0  0  0
  157.7663  139.2365  159.9285 H   0  0  0  0  0  0  0  0  0  0  0  0
  158.2740  139.0577  158.2562 H   0  0  0  0  0  0  0  0  0  0  0  0
  156.1855  139.8993  157.5739 H   0  0  0  0  0  0  0  0  0  0  0  0
  148.9297  143.4212  155.7360 H   0  0  0  0  0  0  0  0  0  0  0  0
  1  2  1  0  0  0  0
  1 25  1  0  0  0  0
  1 26  1  0  0  0  0
  1 27  1  0  0  0  0
  2  3  1  0  0  0  0
  2 19  1  0  0  0  0
  2 28  1  0  0  0  0
  3  4  1  0  0  0  0
  3 29  1  0  0  0  0
  3 30  1  0  0  0  0
  4  5  1  0  0  0  0
  5  6  2  0  0  0  0
  5  7  1  0  0  0  0
  7  8  1  0  0  0  0
  7 31  1  0  0  0  0
  8 13  1  0  0  0  0
  8  9  2  0  0  0  0
  9 10  1  0  0  0  0
  9 32  1  0  0  0  0
 10 11  2  0  0  0  0
 10 33  1  0  0  0  0
 11 12  1  0  0  0  0
 11 34  1  0  0  0  0
 12 13  2  0  0  0  0
 12 52  1  0  0  0  0
 13 14  1  0  0  0  0
 14 18  1  0  0  0  0
 14 15  1  0  0  0  0
 15 16  1  0  0  0  0
 15 35  1  0  0  0  0
 15 36  1  0  0  0  0
 16 17  1  0  0  0  0
 16 37  1  0  0  0  0
 16 38  1  0  0  0  0
 17 18  1  0  0  0  0
 17 39  1  0  0  0  0
 17 40  1  0  0  0  0
 18 41  1  0  0  0  0
 18 42  1  0  0  0  0
 19 24  1  0  0  0  0
 19 20  1  0  0  0  0
 19 51  1  0  0  0  0
 20 21  1  0  0  0  0
 20 43  1  0  0  0  0
 20 44  1  0  0  0  0
 21 22  1  0  0  0  0
 21 45  1  0  0  0  0
 21 46  1  0  0  0  0
 22 23  1  0  0  0  0
 23 24  1  0  0  0  0
 23 47  1  0  0  0  0
 23 48  1  0  0  0  0
 24 49  1  0  0  0  0
 24 50  1  0  0  0  0
M  CHG  1   4  -1
M  CHG  1  12   1
M  CHG  1  19   1
M  END
> <s_m_source_file>
AV-unprocessed.smi

> <i_m_source_file_index>
1389

> <i_lp_mmshare_version>
43012

> <i_f3d_flags>
0

> <s_epik_input>
W0NIMl0xW0NIMl1PW0NIMl1bQ0gyXU4xW0NASF0oW0NIM10pW0NIMl1bTkhdQyg9TylbTkhdYzJbY0hdW2NIXVtjSF1uYzJOM1tDSDJdW0NIMl1bQ0gyXVtDSDJdMw==

> <s_epik_cmdline>
J2VwaWtfcHl0aG9uJywgJy1waCcsICc3LjAnLCAnLXRuJywgJzgnLCAnLW1hJywgJzIwMCcsICctbWV0YWxfYmluZGluZycsICctaW1hZScsICc8aW5maWxlLm1hZT4nLCAnLW9tYWUnLCAnPG91dGZpbGUubWFlPic=

> <r_lp_tautomer_probability>
0.999994

> <r_epik_Ionization_Penalty>
8.58362

> <r_epik_Ionization_Penalty_Charging>
8.58361

> <r_epik_Ionization_Penalty_Neutral>
3.55275e-06

> <r_epik_State_Penalty>
8.57766

> <r_epik_Charging_Adjusted_Penalty>
17.1613

> <i_epik_Tot_Q>
1

> <i_epik_Tot_abs_Q>
3

> <r_epik_Metal_State_Penalty>
4.57399

> <b_epik_Metal_Only>
1

> <s_lp_Force_Field>
OPLS_2005

> <r_lp_Energy>
47.3553

> <b_lp_Chiralities_Consistent>
1

> <s_lp_Variant>
AV-unprocessed.smi:1389-10

> <Gold.Version>
5.8.1

> <Gold.Id.Protein>
6NUR|6NUR_protein|mol2

> <Gold.PLP.Fitness>
46.0659

> <Gold.PLP.PLP>
-36.4870

> <Gold.PLP.part.hbond>
-2.8235

> <Gold.PLP.part.metal>
0.0000

> <Gold.PLP.part.buried>
-5.1742

> <Gold.PLP.part.nonpolar>
-30.5597

> <Gold.PLP.part.repulsive>
0.5158

> <Gold.PLP.ligand.clash>
0.0000

> <Gold.PLP.ligand.torsion>
1.4798

> <Gold.PLP.Chemscore.Hbond>
3.9520

> <Gold.PLP.Chemscore.CHOScore>
0.0000

> <Gold.PLP.Chemscore.Metal>
0.0000

> <Gold.Chemscore.Hbonds>
donor molecule, donor type, donor heavy atom, donor atom, acceptor molecule, acceptor atom, score
      L1  H    12    52       P1  8028  0.85

> <Gold.PLP.Chemscore.Internal.Correction>
0.6825

> <Gold.Rescore>
     Score         DG    S(hbond)    S(metal)    S(lipo)     H(rot)  DE(clash)    DE(int)     intcor
     13.23     -18.48       1.47        0.00     104.79       1.63       1.90       3.35       ----

> <Gold.Chemscore.Fitness>
13.2290

> <Gold.Chemscore.DG>
-18.4792

> <Gold.Chemscore.ZeroCoef>
-5.4800

> <Gold.Chemscore.Hbond>
1.4712

> <Gold.Chemscore.Metal>
0.0000

> <Gold.Chemscore.Lipo>
104.7867

> <Gold.Chemscore.Internal_Hbond>
0.0000

> <Gold.Chemscore.DEClash>
1.9014

> <Gold.Chemscore.DEInternal>
3.3488

> <Gold.Chemscore.Rot>
1.6307

> <Gold.Chemscore.Internal.Correction>
   9.000000E+99

> <Gold.Chemscore.Hbonds>
donor molecule, donor type, donor heavy atom, donor atom, acceptor molecule, acceptor atom, score
      L1  H    12    52       P1  8028  0.40

> <Gold.Chemscore.Hbond.Weighted>
-4.9137

> <Gold.Chemscore.Metal.Weighted>
-0.0000

> <Gold.Chemscore.Lipo.Weighted>
-12.2600

> <Gold.Chemscore.Internal_Hbond.Weighted>
0.0000

> <Gold.Chemscore.DEClash.Weighted>
1.9014

> <Gold.Chemscore.DEInternal.Weighted>
3.3488

> <Gold.Chemscore.Rot.Weighted>
4.1746

> <Gold.Chemscore.Internal.Correction.Weighted>
   9.000000E+99

> <Gold.Protein.RotatedTorsions>
[ 6907 6896 6895 6894 ] final  112.84 input  -60.11 | X-H torsion
[ 7974 7965 7964 7962 ] final  -18.91 input  175.53 | X-H torsion
[ 8008 7997 7996 7995 ] final  -73.98 input   59.86 | X-H torsion
[ 10167 10162 10161 10158 ] final  156.00 input  -65.29 | X-H torsion
[ 10718 10713 10712 10709 ] final  146.22 input   66.30 | X-H torsion
[ 10763 10752 10751 10750 ] final  -66.31 input  -60.55 | X-H torsion
[ 11005 11000 10999 10996 ] final   -1.09 input  -57.11 | X-H torsion

> <Gold.Protein.ActiveResidues>
 VAL166  LYS551  ARG553  GLY616  TRP617  ASP618  TYR619  PRO620  LYS621  CYS622 
 ASP623  PHE694  ASN695  SER759  ASP760  ASP761  ALA762  ILE779  LEU786  VAL792 
 PHE793  MET794  SER795  GLU796  ALA797  LYS798  CYS799  TRP800  GLU811  SER814 

> <Gold.Protein.RotatedAtoms>
  152.4894  133.8460  159.7176 H   0  0  0  0  0  0  0  0  0  0  0  0  # atno 6907 bound_to 6896
  150.9010  133.7109  159.2885 H   0  0  0  0  0  0  0  0  0  0  0  0  # atno 6908 bound_to 6896
  151.4550  135.1037  159.9761 H   0  0  0  0  0  0  0  0  0  0  0  0  # atno 6909 bound_to 6896
  146.1868  140.3988  142.8473 H   0  0  0  0  0  0  0  0  0  0  0  0  # atno 7974 bound_to 7965
  154.5292  140.0769  156.8314 H   0  0  0  0  0  0  0  0  0  0  0  0  # atno 8008 bound_to 7997
  155.3410  140.3407  155.4221 H   0  0  0  0  0  0  0  0  0  0  0  0  # atno 8009 bound_to 7997
  156.1764  140.1637  156.8342 H   0  0  0  0  0  0  0  0  0  0  0  0  # atno 8010 bound_to 7997
  139.4821  144.5048  151.8114 H   0  0  0  0  0  0  0  0  0  0  0  0  # atno 10167 bound_to 10162
  157.3358  131.0928  151.1124 H   0  0  0  0  0  0  0  0  0  0  0  0  # atno 10718 bound_to 10713
  154.3579  135.6122  153.5675 H   0  0  0  0  0  0  0  0  0  0  0  0  # atno 10763 bound_to 10752
  152.9795  135.5808  154.4668 H   0  0  0  0  0  0  0  0  0  0  0  0  # atno 10764 bound_to 10752
  154.4400  135.2850  155.1831 H   0  0  0  0  0  0  0  0  0  0  0  0  # atno 10765 bound_to 10752
  140.6434  133.9469  155.8339 H   0  0  0  0  0  0  0  0  0  0  0  0  # atno 11005 bound_to 11000
  144.8412  140.6860  143.6228 LP  0  0  0  0  0  0  0  0  0  0  0  0  # atno 17320 bound_to 7965
  145.3914  139.1616  143.4227 LP  0  0  0  0  0  0  0  0  0  0  0  0  # atno 17321 bound_to 7965
  140.4545  144.1808  150.5900 LP  0  0  0  0  0  0  0  0  0  0  0  0  # atno 17342 bound_to 10162
  140.4550  143.2471  151.9297 LP  0  0  0  0  0  0  0  0  0  0  0  0  # atno 17343 bound_to 10162
  157.2354  130.6545  149.5867 LP  0  0  0  0  0  0  0  0  0  0  0  0  # atno 17370 bound_to 10713
  155.9701  130.4585  150.6002 LP  0  0  0  0  0  0  0  0  0  0  0  0  # atno 17371 bound_to 10713
  141.0590  134.0374  157.3684 LP  0  0  0  0  0  0  0  0  0  0  0  0  # atno 17394 bound_to 11000
  139.9072  135.0182  156.7536 LP  0  0  0  0  0  0  0  0  0  0  0  0  # atno 17395 bound_to 11000

$$$$
