AV-unprocessed.smi:1897|AV-procd|sdf|7691|dock2
  -GOLD-   22720 9433D 1   1.00000     0.00000
 Structure written by MMmdl.
 39 41  0  0  0  0  0  0  0  0  2 V2000
  151.3873  137.5059  158.5727 C   0  0  0  0  0  0  0  0  0  0  0  0
  150.5359  136.6982  157.6535 C   0  0  0  0  0  0  0  0  0  0  0  0
  149.8321  135.6375  158.0662 N   0  0  0  0  0  0  0  0  0  0  0  0
  149.1186  135.0466  157.0336 N   0  0  0  0  0  0  0  0  0  0  0  0
  149.3114  135.6736  155.8638 C   0  0  0  0  0  0  0  0  0  0  0  0
  148.6995  135.2973  154.6320 N   0  0  0  0  0  0  0  0  0  0  0  0
  147.8303  134.3103  154.3263 C   0  0  0  0  0  0  0  0  0  0  0  0
  147.4207  133.5366  155.1899 O   0  0  0  0  0  0  0  0  0  0  0  0
  147.4444  134.2320  153.0421 N   0  0  0  0  0  0  0  0  0  0  0  0
  146.5236  133.2449  152.4885 C   0  0  1  0  0  0  0  0  0  0  0  0
  146.1841  133.5015  151.0252 C   0  0  0  0  0  0  0  0  0  0  0  0
  145.6673  132.1358  150.5702 C   0  0  0  0  0  0  0  0  0  0  0  0
  146.4453  131.1318  151.3318 N   0  3  2  0  0  0  0  0  0  0  0  0
  145.6864  129.9109  151.6980 C   0  0  0  0  0  0  0  0  0  0  0  0
  146.5818  128.9246  152.4709 C   0  0  0  0  0  0  0  0  0  0  0  0
  147.3347  129.5833  153.6459 C   0  0  0  0  0  0  0  0  0  0  0  0
  146.9891  131.0724  153.8032 C   0  0  0  0  0  0  0  0  0  0  0  0
  147.1233  131.8288  152.4619 C   0  0  2  0  0  0  0  0  0  0  0  0
  150.3821  137.0635  155.9392 S   0  0  0  0  0  0  0  0  0  0  0  0
  150.9236  137.5745  159.5572 H   0  0  0  0  0  0  0  0  0  0  0  0
  151.5180  138.5141  158.1793 H   0  0  0  0  0  0  0  0  0  0  0  0
  152.3675  137.0408  158.6772 H   0  0  0  0  0  0  0  0  0  0  0  0
  148.9416  135.8924  153.8526 H   0  0  0  0  0  0  0  0  0  0  0  0
  147.8265  134.9101  152.3976 H   0  0  0  0  0  0  0  0  0  0  0  0
  145.5876  133.2408  153.0512 H   0  0  0  0  0  0  0  0  0  0  0  0
  145.4513  134.2978  150.8907 H   0  0  0  0  0  0  0  0  0  0  0  0
  147.0819  133.7672  150.4645 H   0  0  0  0  0  0  0  0  0  0  0  0
  144.6079  132.0523  150.8189 H   0  0  0  0  0  0  0  0  0  0  0  0
  145.7692  131.9872  149.4949 H   0  0  0  0  0  0  0  0  0  0  0  0
  144.8192  130.1833  152.3021 H   0  0  0  0  0  0  0  0  0  0  0  0
  145.3021  129.4372  150.7941 H   0  0  0  0  0  0  0  0  0  0  0  0
  145.9764  128.0942  152.8360 H   0  0  0  0  0  0  0  0  0  0  0  0
  147.3085  128.4862  151.7857 H   0  0  0  0  0  0  0  0  0  0  0  0
  147.1194  129.0539  154.5748 H   0  0  0  0  0  0  0  0  0  0  0  0
  148.4085  129.4819  153.4835 H   0  0  0  0  0  0  0  0  0  0  0  0
  145.9719  131.1660  154.1860 H   0  0  0  0  0  0  0  0  0  0  0  0
  147.6361  131.5240  154.5557 H   0  0  0  0  0  0  0  0  0  0  0  0
  148.1786  131.8865  152.1897 H   0  0  0  0  0  0  0  0  0  0  0  0
  147.1911  130.8265  150.7228 H   0  0  0  0  0  0  0  0  0  0  0  0
  1  2  1  0  0  0  0
  1 20  1  0  0  0  0
  1 21  1  0  0  0  0
  1 22  1  0  0  0  0
  2 19  1  0  0  0  0
  2  3  2  0  0  0  0
  3  4  1  0  0  0  0
  4  5  2  0  0  0  0
  5  6  1  0  0  0  0
  5 19  1  0  0  0  0
  6  7  1  0  0  0  0
  6 23  1  0  0  0  0
  7  8  2  0  0  0  0
  7  9  1  0  0  0  0
  9 10  1  0  0  0  0
  9 24  1  0  0  0  0
 10 18  1  0  0  0  0
 10 11  1  0  0  0  0
 10 25  1  0  0  0  0
 11 12  1  0  0  0  0
 11 26  1  0  0  0  0
 11 27  1  0  0  0  0
 12 13  1  0  0  0  0
 12 28  1  0  0  0  0
 12 29  1  0  0  0  0
 13 18  1  0  0  0  0
 13 14  1  0  0  0  0
 13 39  1  0  0  0  0
 14 15  1  0  0  0  0
 14 30  1  0  0  0  0
 14 31  1  0  0  0  0
 15 16  1  0  0  0  0
 15 32  1  0  0  0  0
 15 33  1  0  0  0  0
 16 17  1  0  0  0  0
 16 34  1  0  0  0  0
 16 35  1  0  0  0  0
 17 18  1  0  0  0  0
 17 36  1  0  0  0  0
 17 37  1  0  0  0  0
 18 38  1  0  0  0  0
M  CHG  1  13   1
M  END
> <s_m_source_file>
AV-unprocessed.smi

> <i_m_source_file_index>
1897

> <i_lp_mmshare_version>
43012

> <i_f3d_flags>
0

> <s_epik_input>
W0NIM11jMW5uYyhzMSlbTkhdQyg9TylbTkhdW0NASF0oW0NIMl1bQ0gyXTIpW0NAQEhdKE4yMylbQ0gyXVtDSDJdW0NIMl1bQ0gyXTM=

> <s_epik_cmdline>
J2VwaWtfcHl0aG9uJywgJy1waCcsICc3LjAnLCAnLXRuJywgJzgnLCAnLW1hJywgJzIwMCcsICctbWV0YWxfYmluZGluZycsICctaW1hZScsICc8aW5maWxlLm1hZT4nLCAnLW9tYWUnLCAnPG91dGZpbGUubWFlPic=

> <r_lp_tautomer_probability>
1

> <r_epik_Ionization_Penalty>
0.00228891

> <r_epik_Ionization_Penalty_Charging>
0.00107044

> <r_epik_Ionization_Penalty_Neutral>
0.00121847

> <r_epik_State_Penalty>
-0

> <r_epik_Charging_Adjusted_Penalty>
0.00107044

> <i_epik_Tot_Q>
1

> <i_epik_Tot_abs_Q>
1

> <r_epik_Metal_State_Penalty>
0.304057

> <b_epik_Metal_Only>
0

> <s_lp_Force_Field>
OPLS_2005

> <r_lp_Energy>
41.04

> <b_lp_Chiralities_Consistent>
1

> <s_lp_Variant>
AV-unprocessed.smi:1897-8

> <Gold.Version>
5.8.1

> <Gold.Id.Protein>
6NUR|6NUR_protein|mol2

> <Gold.PLP.Fitness>
36.8952

> <Gold.PLP.PLP>
-25.0233

> <Gold.PLP.part.hbond>
-4.0000

> <Gold.PLP.part.metal>
0.0000

> <Gold.PLP.part.buried>
-3.2984

> <Gold.PLP.part.nonpolar>
-18.1658

> <Gold.PLP.part.repulsive>
0.0480

> <Gold.PLP.ligand.clash>
0.0000

> <Gold.PLP.ligand.torsion>
0.0561

> <Gold.PLP.Chemscore.Hbond>
3.9920

> <Gold.PLP.Chemscore.CHOScore>
0.0000

> <Gold.PLP.Chemscore.Metal>
0.0000

> <Gold.Chemscore.Hbonds>
donor molecule, donor type, donor heavy atom, donor atom, acceptor molecule, acceptor atom, score
      L1  H     6    23       P1  7948  0.99
      L1  H     9    24       P1  7948  1.00
      L1  H    13    39       P1 10747  1.00
      P1  H  6896  6907       L1     3  1.00

> <Gold.PLP.Chemscore.Internal.Correction>
0.0081

> <Gold.Rescore>
     Score         DG    S(hbond)    S(metal)    S(lipo)     H(rot)  DE(clash)    DE(int)     intcor
     19.77     -22.38       3.60        0.00      63.47       1.00       0.01       2.60       ----

> <Gold.Chemscore.Fitness>
19.7681

> <Gold.Chemscore.DG>
-22.3786

> <Gold.Chemscore.ZeroCoef>
-5.4800

> <Gold.Chemscore.Hbond>
3.6025

> <Gold.Chemscore.Metal>
0.0000

> <Gold.Chemscore.Lipo>
63.4713

> <Gold.Chemscore.Internal_Hbond>
0.0000

> <Gold.Chemscore.DEClash>
0.0089

> <Gold.Chemscore.DEInternal>
2.6016

> <Gold.Chemscore.Rot>
1.0000

> <Gold.Chemscore.Internal.Correction>
   9.000000E+99

> <Gold.Chemscore.Hbonds>
donor molecule, donor type, donor heavy atom, donor atom, acceptor molecule, acceptor atom, score
      L1  H     6    23       P1  7948  0.86
      L1  H     9    24       P1  7948  0.84
      L1  H    13    39       P1 10747  0.94
      P1  H  6896  6907       L1     3  0.80

> <Gold.Chemscore.Hbond.Weighted>
-12.0324

> <Gold.Chemscore.Metal.Weighted>
-0.0000

> <Gold.Chemscore.Lipo.Weighted>
-7.4261

> <Gold.Chemscore.Internal_Hbond.Weighted>
0.0000

> <Gold.Chemscore.DEClash.Weighted>
0.0089

> <Gold.Chemscore.DEInternal.Weighted>
2.6016

> <Gold.Chemscore.Rot.Weighted>
2.5600

> <Gold.Chemscore.Internal.Correction.Weighted>
   9.000000E+99

> <Gold.Protein.RotatedTorsions>
[ 6907 6896 6895 6894 ] final  -68.93 input  -60.11 | X-H torsion
[ 7974 7965 7964 7962 ] final  -86.25 input  175.53 | X-H torsion
[ 8008 7997 7996 7995 ] final   98.00 input   59.86 | X-H torsion
[ 10167 10162 10161 10158 ] final -179.00 input  -65.29 | X-H torsion
[ 10718 10713 10712 10709 ] final -144.47 input   66.30 | X-H torsion
[ 10763 10752 10751 10750 ] final -117.91 input  -60.55 | X-H torsion
[ 11005 11000 10999 10996 ] final -150.11 input  -57.11 | X-H torsion

> <Gold.Protein.ActiveResidues>
 VAL166  LYS551  ARG553  GLY616  TRP617  ASP618  TYR619  PRO620  LYS621  CYS622 
 ASP623  PHE694  ASN695  SER759  ASP760  ASP761  ALA762  ILE779  LEU786  VAL792 
 PHE793  MET794  SER795  GLU796  ALA797  LYS798  CYS799  TRP800  GLU811  SER814 

> <Gold.Protein.RotatedAtoms>
  150.7331  134.5669  159.5870 H   0  0  0  0  0  0  0  0  0  0  0  0  # atno 6907 bound_to 6896
  152.3118  134.7485  160.0344 H   0  0  0  0  0  0  0  0  0  0  0  0  # atno 6908 bound_to 6896
  151.8031  133.3337  159.3569 H   0  0  0  0  0  0  0  0  0  0  0  0  # atno 6909 bound_to 6896
  145.4823  140.9556  143.1857 H   0  0  0  0  0  0  0  0  0  0  0  0  # atno 7974 bound_to 7965
  156.0959  140.3250  155.7877 H   0  0  0  0  0  0  0  0  0  0  0  0  # atno 8008 bound_to 7997
  155.4918  140.0562  157.2970 H   0  0  0  0  0  0  0  0  0  0  0  0  # atno 8009 bound_to 7997
  154.4666  140.1992  156.0117 H   0  0  0  0  0  0  0  0  0  0  0  0  # atno 8010 bound_to 7997
  139.5406  144.2374  152.0887 H   0  0  0  0  0  0  0  0  0  0  0  0  # atno 10167 bound_to 10162
  156.3705  130.7785  151.1965 H   0  0  0  0  0  0  0  0  0  0  0  0  # atno 10718 bound_to 10713
  154.8570  135.4292  154.2055 H   0  0  0  0  0  0  0  0  0  0  0  0  # atno 10763 bound_to 10752
  153.3092  135.6974  153.7137 H   0  0  0  0  0  0  0  0  0  0  0  0  # atno 10764 bound_to 10752
  153.6236  135.3497  155.2993 H   0  0  0  0  0  0  0  0  0  0  0  0  # atno 10765 bound_to 10752
  140.7436  134.3486  157.5142 H   0  0  0  0  0  0  0  0  0  0  0  0  # atno 11005 bound_to 11000
  144.7881  139.6384  143.7125 LP  0  0  0  0  0  0  0  0  0  0  0  0  # atno 17320 bound_to 7965
  146.2333  139.5856  142.9540 LP  0  0  0  0  0  0  0  0  0  0  0  0  # atno 17321 bound_to 7965
  140.1851  144.4806  150.6508 LP  0  0  0  0  0  0  0  0  0  0  0  0  # atno 17342 bound_to 10162
  140.6634  143.2259  151.5801 LP  0  0  0  0  0  0  0  0  0  0  0  0  # atno 17343 bound_to 10162
  157.7483  131.0373  150.4452 LP  0  0  0  0  0  0  0  0  0  0  0  0  # atno 17370 bound_to 10713
  156.4678  130.4046  149.6536 LP  0  0  0  0  0  0  0  0  0  0  0  0  # atno 17371 bound_to 10713
  139.8801  134.9097  156.2996 LP  0  0  0  0  0  0  0  0  0  0  0  0  # atno 17394 bound_to 11000
  140.9814  133.7265  156.0678 LP  0  0  0  0  0  0  0  0  0  0  0  0  # atno 17395 bound_to 11000

$$$$
