AV-unprocessed.smi:1208|AV-procd|sdf|5067|dock2
  -GOLD-   22720 4103D 1   1.00000     0.00000
 Structure written by MMmdl.
 36 37  0  0  0  0  0  0  0  0  1 V2000
  149.0915  141.4321  155.8287 C   0  0  0  0  0  0  0  0  0  0  0  0
  150.3089  140.6555  156.3562 C   0  0  2  0  0  0  0  0  0  0  0  0
  151.2524  141.5760  156.9821 N   0  0  0  0  0  0  0  0  0  0  0  0
  150.9872  142.4158  157.9969 C   0  0  0  0  0  0  0  0  0  0  0  0
  149.8713  142.5184  158.5044 O   0  0  0  0  0  0  0  0  0  0  0  0
  152.1413  143.2752  158.5428 C   0  0  0  0  0  0  0  0  0  0  0  0
  152.5275  142.9773  159.9320 N   0  0  0  0  0  0  0  0  0  0  0  0
  153.3176  141.8457  160.0682 N   0  0  0  0  0  0  0  0  0  0  0  0
  153.7442  141.4931  161.2335 C   0  0  0  0  0  0  0  0  0  0  0  0
  154.5281  140.3692  161.3223 O   0  0  0  0  0  0  0  0  0  0  0  0
  153.4094  142.2567  162.4153 C   0  0  0  0  0  0  0  0  0  0  0  0
  152.6387  143.3571  162.2728 C   0  0  0  0  0  0  0  0  0  0  0  0
  152.1445  143.7898  160.9645 C   0  0  0  0  0  0  0  0  0  0  0  0
  151.4585  144.7984  160.8034 O   0  0  0  0  0  0  0  0  0  0  0  0
  151.0229  139.8755  155.2355 C   0  0  1  0  0  0  0  0  0  0  0  0
  152.2588  139.0944  155.6872 C   0  0  0  0  0  0  0  0  0  0  0  0
  152.3677  138.0471  154.6033 C   0  0  0  0  0  0  0  0  0  0  0  0
  150.9019  137.7172  154.3343 C   0  0  0  0  0  0  0  0  0  0  0  0
  150.1605  138.8847  154.6820 O   0  0  0  0  0  0  0  0  0  0  0  0
  154.0503  139.7713  161.8761 H   0  0  0  0  0  0  0  0  0  0  0  0
  148.3660  140.7608  155.3690 H   0  0  0  0  0  0  0  0  0  0  0  0
  149.3844  142.1685  155.0798 H   0  0  0  0  0  0  0  0  0  0  0  0
  148.5811  141.9614  156.6338 H   0  0  0  0  0  0  0  0  0  0  0  0
  149.9678  139.9367  157.1035 H   0  0  0  0  0  0  0  0  0  0  0  0
  152.1973  141.5610  156.6266 H   0  0  0  0  0  0  0  0  0  0  0  0
  152.9991  143.1714  157.8764 H   0  0  0  0  0  0  0  0  0  0  0  0
  151.8436  144.3223  158.4640 H   0  0  0  0  0  0  0  0  0  0  0  0
  153.7701  141.9470  163.3852 H   0  0  0  0  0  0  0  0  0  0  0  0
  152.3802  143.9364  163.1466 H   0  0  0  0  0  0  0  0  0  0  0  0
  151.3113  140.5538  154.4305 H   0  0  0  0  0  0  0  0  0  0  0  0
  153.1511  139.7159  155.7704 H   0  0  0  0  0  0  0  0  0  0  0  0
  152.0818  138.6170  156.6520 H   0  0  0  0  0  0  0  0  0  0  0  0
  152.8257  138.4791  153.7127 H   0  0  0  0  0  0  0  0  0  0  0  0
  152.9534  137.1774  154.9019 H   0  0  0  0  0  0  0  0  0  0  0  0
  150.7279  137.4316  153.2967 H   0  0  0  0  0  0  0  0  0  0  0  0
  150.5707  136.8961  154.9713 H   0  0  0  0  0  0  0  0  0  0  0  0
  1  2  1  0  0  0  0
  1 21  1  0  0  0  0
  1 22  1  0  0  0  0
  1 23  1  0  0  0  0
  2  3  1  0  0  0  0
  2 15  1  0  0  0  0
  2 24  1  0  0  0  0
  3  4  1  0  0  0  0
  3 25  1  0  0  0  0
  4  5  2  0  0  0  0
  4  6  1  0  0  0  0
  6 26  1  0  0  0  0
  6 27  1  0  0  0  0
  6  7  1  0  0  0  0
  7  8  1  0  0  0  0
  7 13  1  0  0  0  0
  8  9  2  0  0  0  0
  9 10  1  0  0  0  0
  9 11  1  0  0  0  0
 10 20  1  0  0  0  0
 11 28  1  0  0  0  0
 11 12  2  0  0  0  0
 12 29  1  0  0  0  0
 12 13  1  0  0  0  0
 13 14  2  0  0  0  0
 15 19  1  0  0  0  0
 15 16  1  0  0  0  0
 15 30  1  0  0  0  0
 16 17  1  0  0  0  0
 16 31  1  0  0  0  0
 16 32  1  0  0  0  0
 17 18  1  0  0  0  0
 17 33  1  0  0  0  0
 17 34  1  0  0  0  0
 18 19  1  0  0  0  0
 18 35  1  0  0  0  0
 18 36  1  0  0  0  0
M  END
> <s_m_source_file>
AV-unprocessed.smi

> <i_m_source_file_index>
1208

> <i_lp_mmshare_version>
43012

> <i_f3d_flags>
0

> <s_epik_input>
TzFbQ0gyXVtDSDJdW0NIMl1bQ0BIXTFbQ0BIXShbQ0gzXSlbTkhdQyg9TylbQ0gyXW4yW25IXWMoPU8pW2NIXVtjSF1jMj1P

> <s_epik_cmdline>
J2VwaWtfcHl0aG9uJywgJy1waCcsICc3LjAnLCAnLXRuJywgJzgnLCAnLW1hJywgJzIwMCcsICctbWV0YWxfYmluZGluZycsICctaW1hZScsICc8aW5maWxlLm1hZT4nLCAnLW9tYWUnLCAnPG91dGZpbGUubWFlPic=

> <r_lp_tautomer_probability>
0.9996

> <r_epik_Ionization_Penalty>
2.12735

> <r_epik_Ionization_Penalty_Charging>
3.86665e-08

> <r_epik_Ionization_Penalty_Neutral>
2.12735

> <r_epik_State_Penalty>
1.70441

> <r_epik_Charging_Adjusted_Penalty>
1.70441

> <i_epik_Tot_Q>
0

> <i_epik_Tot_abs_Q>
0

> <r_epik_Metal_State_Penalty>
1.70441

> <b_epik_Metal_Only>
0

> <s_lp_Force_Field>
OPLS_2005

> <r_lp_Energy>
27.2877

> <b_lp_Chiralities_Consistent>
1

> <s_lp_Variant>
AV-unprocessed.smi:1208-7

> <Gold.Version>
5.8.1

> <Gold.Id.Protein>
6NUR|6NUR_protein|mol2

> <Gold.PLP.Fitness>
41.4922

> <Gold.PLP.PLP>
-42.0277

> <Gold.PLP.part.hbond>
0.0000

> <Gold.PLP.part.metal>
0.0000

> <Gold.PLP.part.buried>
-5.3000

> <Gold.PLP.part.nonpolar>
-37.3800

> <Gold.PLP.part.repulsive>
0.5205

> <Gold.PLP.ligand.clash>
0.0000

> <Gold.PLP.ligand.torsion>
0.2817

> <Gold.PLP.Chemscore.Hbond>
0.0000

> <Gold.PLP.Chemscore.CHOScore>
0.0000

> <Gold.PLP.Chemscore.Metal>
0.0000

> <Gold.PLP.Chemscore.Internal.Correction>
0.0279

> <Gold.Rescore>
     Score         DG    S(hbond)    S(metal)    S(lipo)     H(rot)  DE(clash)    DE(int)     intcor
      7.55      -8.10       0.00        0.00      79.83       2.63       0.26       0.29       ----

> <Gold.Chemscore.Fitness>
7.5499

> <Gold.Chemscore.DG>
-8.0968

> <Gold.Chemscore.ZeroCoef>
-5.4800

> <Gold.Chemscore.Hbond>
0.0000

> <Gold.Chemscore.Metal>
0.0000

> <Gold.Chemscore.Lipo>
79.8330

> <Gold.Chemscore.Internal_Hbond>
0.0000

> <Gold.Chemscore.DEClash>
0.2571

> <Gold.Chemscore.DEInternal>
0.2899

> <Gold.Chemscore.Rot>
2.6264

> <Gold.Chemscore.Internal.Correction>
   9.000000E+99

> <Gold.Chemscore.Hbond.Weighted>
-0.0000

> <Gold.Chemscore.Metal.Weighted>
-0.0000

> <Gold.Chemscore.Lipo.Weighted>
-9.3405

> <Gold.Chemscore.Internal_Hbond.Weighted>
0.0000

> <Gold.Chemscore.DEClash.Weighted>
0.2571

> <Gold.Chemscore.DEInternal.Weighted>
0.2899

> <Gold.Chemscore.Rot.Weighted>
6.7237

> <Gold.Chemscore.Internal.Correction.Weighted>
   9.000000E+99

> <Gold.Protein.RotatedTorsions>
[ 6907 6896 6895 6894 ] final   -7.44 input  -60.11 | X-H torsion
[ 7974 7965 7964 7962 ] final  -85.18 input  175.53 | X-H torsion
[ 8008 7997 7996 7995 ] final  149.51 input   59.86 | X-H torsion
[ 10167 10162 10161 10158 ] final  -74.44 input  -65.29 | X-H torsion
[ 10718 10713 10712 10709 ] final  -99.74 input   66.30 | X-H torsion
[ 10763 10752 10751 10750 ] final  -35.59 input  -60.55 | X-H torsion
[ 11005 11000 10999 10996 ] final -149.95 input  -57.11 | X-H torsion

> <Gold.Protein.ActiveResidues>
 VAL166  LYS551  ARG553  GLY616  TRP617  ASP618  TYR619  PRO620  LYS621  CYS622 
 ASP623  PHE694  ASN695  SER759  ASP760  ASP761  ALA762  ILE779  LEU786  VAL792 
 PHE793  MET794  SER795  GLU796  ALA797  LYS798  CYS799  TRP800  GLU811  SER814 

> <Gold.Protein.RotatedAtoms>
  151.4496  135.1028  159.9693 H   0  0  0  0  0  0  0  0  0  0  0  0  # atno 6907 bound_to 6896
  152.4893  133.8452  159.7184 H   0  0  0  0  0  0  0  0  0  0  0  0  # atno 6908 bound_to 6896
  150.9031  133.7033  159.2901 H   0  0  0  0  0  0  0  0  0  0  0  0  # atno 6909 bound_to 6896
  145.4967  140.9549  143.1782 H   0  0  0  0  0  0  0  0  0  0  0  0  # atno 7974 bound_to 7965
  156.2752  140.2100  156.5869 H   0  0  0  0  0  0  0  0  0  0  0  0  # atno 8008 bound_to 7997
  154.7013  140.0520  157.0484 H   0  0  0  0  0  0  0  0  0  0  0  0  # atno 8009 bound_to 7997
  155.0730  140.3179  155.4627 H   0  0  0  0  0  0  0  0  0  0  0  0  # atno 8010 bound_to 7997
  140.5027  143.2358  151.7725 H   0  0  0  0  0  0  0  0  0  0  0  0  # atno 10167 bound_to 10162
  156.0142  130.5296  150.6714 H   0  0  0  0  0  0  0  0  0  0  0  0  # atno 10718 bound_to 10713
  153.8657  135.6836  153.4779 H   0  0  0  0  0  0  0  0  0  0  0  0  # atno 10763 bound_to 10752
  153.1316  135.4695  154.9355 H   0  0  0  0  0  0  0  0  0  0  0  0  # atno 10764 bound_to 10752
  154.7738  135.3247  154.8085 H   0  0  0  0  0  0  0  0  0  0  0  0  # atno 10765 bound_to 10752
  140.7454  134.3467  157.5138 H   0  0  0  0  0  0  0  0  0  0  0  0  # atno 11005 bound_to 11000
  144.7803  139.6541  143.7157 LP  0  0  0  0  0  0  0  0  0  0  0  0  # atno 17320 bound_to 7965
  146.2251  139.5707  142.9593 LP  0  0  0  0  0  0  0  0  0  0  0  0  # atno 17321 bound_to 7965
  139.4876  144.4500  151.9665 LP  0  0  0  0  0  0  0  0  0  0  0  0  # atno 17342 bound_to 10162
  140.3589  144.2997  150.5936 LP  0  0  0  0  0  0  0  0  0  0  0  0  # atno 17343 bound_to 10162
  157.4436  131.0864  151.0919 LP  0  0  0  0  0  0  0  0  0  0  0  0  # atno 17370 bound_to 10713
  157.1455  130.6161  149.5567 LP  0  0  0  0  0  0  0  0  0  0  0  0  # atno 17371 bound_to 10713
  139.8798  134.9107  156.3021 LP  0  0  0  0  0  0  0  0  0  0  0  0  # atno 17394 bound_to 11000
  140.9799  133.7274  156.0657 LP  0  0  0  0  0  0  0  0  0  0  0  0  # atno 17395 bound_to 11000

$$$$
