#       Name:                AV-unprocessed.smi:119
#       Creating user name   scv26
#       Creation time:       Thu Mar 26 18:26:32 2020


#       File generated by GOLD software.
#

@<TRIPOS>MOLECULE
AV-unprocessed.smi:119
    59    62     1
SMALL
NO_CHARGES


@<TRIPOS>ATOM
      1 ****        -1.5017  -5.2578  -2.5459 C.3            1 S1                 0.0000
      2 ****        -0.8961  -3.9173  -2.9920 C.3            1 S1                 0.0000
      3 ****         0.2977  -3.4584  -2.1306 C.3            1 S1                 0.0000
      4 ****        -0.0087  -3.1666  -0.6475 C.3            1 S1                 0.0000
      5 ****        -0.8388  -1.9696  -0.4596 N.am           1 S1                 0.0000
      6 ****        -0.3328  -0.7146  -0.3352 C.2            1 S1                 0.0000
      7 ****        -1.0625   0.2739  -0.2197 O.2            1 S1                 0.0000
      8 ****         1.1990  -0.5118  -0.3359 C.3            1 S1                 0.0000
      9 ****         1.6076   0.9108  -0.3354 N.am           1 S1                 0.0000
     10 ****         1.7395   1.5767  -1.5781 C.2            1 S1                 0.0000
     11 ****         1.5298   0.9914  -2.6419 O.2            1 S1                 0.0000
     12 ****         2.1272   2.9799  -1.5007 C.2            1 S1                 0.0000
     13 ****         2.2914   3.6871  -2.6316 F              1 S1                 0.0000
     14 ****         2.3295   3.5829  -0.3108 C.2            1 S1                 0.0000
     15 ****         2.1885   2.9242   0.8995 N.am           1 S1                 0.0000
     16 ****         2.3568   3.6069   2.2426 C.3            1 S1                 0.0000
     17 ****         2.8665   5.0502   2.2031 C.3            1 S1                 0.0000
     18 ****         2.3986   5.5220   3.5603 C.3            1 S1                 0.0000
     19 ****         1.0261   4.8554   3.6557 C.3            1 S1                 0.0000
     20 ****         1.1084   3.6705   2.8645 O.3            1 S1                 0.0000
     21 ****         1.8152   1.5611   0.9044 C.2            1 S1                 0.0000
     22 ****         1.6695   0.9541   1.9680 O.2            1 S1                 0.0000
     23 ****        -2.2447  -2.1736  -0.4224 C.ar           1 S1                 0.0000
     24 ****        -2.9275  -2.0569   0.8092 C.ar           1 S1                 0.0000
     25 ****        -4.3200  -2.2535   0.8706 C.ar           1 S1                 0.0000
     26 ****        -5.0385  -2.5673  -0.2983 C.ar           1 S1                 0.0000
     27 ****        -4.3643  -2.6853  -1.5286 C.ar           1 S1                 0.0000
     28 ****        -2.9696  -2.4950  -1.5953 C.ar           1 S1                 0.0000
     29 ****        -2.1712  -2.6347  -3.1665 S.3            1 S1                 0.0000
     30 ****        -0.7393  -6.0357  -2.4984 H              1 S1                 0.0000
     31 ****        -2.2668  -5.5903  -3.2478 H              1 S1                 0.0000
     32 ****        -1.9689  -5.1898  -1.5637 H              1 S1                 0.0000
     33 ****        -0.5080  -4.0692  -3.9997 H              1 S1                 0.0000
     34 ****         1.0637  -4.2334  -2.1719 H              1 S1                 0.0000
     35 ****         0.7503  -2.5824  -2.5951 H              1 S1                 0.0000
     36 ****        -0.5107  -4.0232  -0.1969 H              1 S1                 0.0000
     37 ****         0.9244  -3.0884  -0.0905 H              1 S1                 0.0000
     38 ****         1.6177  -1.0298   0.5276 H              1 S1                 0.0000
     39 ****         1.6385  -1.0215  -1.1929 H              1 S1                 0.0000
     40 ****         2.6254   4.6180  -0.3435 H              1 S1                 0.0000
     41 ****         3.0300   2.9642   2.8143 H              1 S1                 0.0000
     42 ****         3.9455   5.0969   2.0544 H              1 S1                 0.0000
     43 ****         2.3509   5.6364   1.4435 H              1 S1                 0.0000
     44 ****         3.0604   5.1420   4.3402 H              1 S1                 0.0000
     45 ****         2.3528   6.6079   3.6478 H              1 S1                 0.0000
     46 ****         0.7500   4.6264   4.6852 H              1 S1                 0.0000
     47 ****         0.2553   5.5006   3.2328 H              1 S1                 0.0000
     48 ****        -2.3832  -1.8146   1.7105 H              1 S1                 0.0000
     49 ****        -4.8367  -2.1613   1.8145 H              1 S1                 0.0000
     50 ****        -6.1072  -2.7155  -0.2515 H              1 S1                 0.0000
     51 ****        -4.9214  -2.9234  -2.4228 H              1 S1                 0.0000
     52 ****        -2.0564   0.1640  -0.2158 LP             1 S1                 0.0000
     53 ****        -0.6598   1.1849  -0.1299 LP             1 S1                 0.0000
     54 ****         1.2611   0.0282  -2.6381 LP             1 S1                 0.0000
     55 ****         1.6285   1.4796  -3.5090 LP             1 S1                 0.0000
     56 ****         0.9880   2.8698   3.4513 LP             1 S1                 0.0000
     57 ****         0.3905   3.6848   2.1686 LP             1 S1                 0.0000
     58 ****         1.4016  -0.0093   1.9613 LP             1 S1                 0.0000
     59 ****         1.8193   1.4253   2.8372 LP             1 S1                 0.0000
@<TRIPOS>BOND
    1    1    2 1     
    2    1   30 1     
    3    1   31 1     
    4    1   32 1     
    5    2   29 1     
    6    2    3 1     
    7    2   33 1     
    8    3    4 1     
    9    3   34 1     
   10    3   35 1     
   11    4    5 1     
   12    4   36 1     
   13    4   37 1     
   14    5    6 am    
   15    5   23 1     
   16    6    7 2     
   17    6    8 1     
   18    8    9 1     
   19    8   38 1     
   20    8   39 1     
   21    9   21 am    
   22    9   10 am    
   23   10   11 2     
   24   10   12 1     
   25   12   13 1     
   26   12   14 2     
   27   14   15 1     
   28   14   40 1     
   29   15   16 1     
   30   15   21 am    
   31   16   20 1     
   32   16   17 1     
   33   16   41 1     
   34   17   18 1     
   35   17   42 1     
   36   17   43 1     
   37   18   19 1     
   38   18   44 1     
   39   18   45 1     
   40   19   20 1     
   41   19   46 1     
   42   19   47 1     
   43   21   22 2     
   44   23   28 ar    
   45   23   24 ar    
   46   24   25 ar    
   47   24   48 1     
   48   25   26 ar    
   49   25   49 1     
   50   26   27 ar    
   51   26   50 1     
   52   27   28 ar    
   53   27   51 1     
   54   28   29 1     
   55    7   52 1     
   56    7   53 1     
   57   11   54 1     
   58   11   55 1     
   59   20   56 1     
   60   20   57 1     
   61   22   58 1     
   62   22   59 1     
@<TRIPOS>SUBSTRUCTURE
      1 S1             1
@<TRIPOS>SET
LONE_PAIRS      STATIC     ATOMS    <user>   **** ""
8 52 53 54 55 56 57 58 59
ATOM$BLUE        STATIC     ATOMS    COLORGROUP SYSTEM
8 52 53 54 55 56 57 58 59
