#       Name:                AV-unprocessed.smi:243
#       Creating user name   scv26
#       Creation time:       Thu Mar 26 20:47:57 2020


#       File generated by GOLD software.
#

@<TRIPOS>MOLECULE
AV-unprocessed.smi:243
    65    68     1
SMALL
NO_CHARGES


@<TRIPOS>ATOM
      1 ****        -5.1189  -4.2793   3.1767 C.3            1 S1                 0.0000
      2 ****        -3.7230  -4.1846   2.5440 C.3            1 S1                 0.0000
      3 ****        -3.4507  -2.8460   1.9610 N.4            1 S1                 1.0000
      4 ****        -3.1922  -1.8027   2.9872 C.3            1 S1                 0.0000
      5 ****        -3.0236  -0.4066   2.3555 C.3            1 S1                 0.0000
      6 ****        -2.0302  -0.3520   1.1751 C.3            1 S1                 0.0000
      7 ****        -0.6302  -0.1374   1.5863 N.pl3          1 S1                 0.0000
      8 ****         0.1682  -1.1163   2.3186 C.3            1 S1                 0.0000
      9 ****         0.0342   0.9150   1.0432 C.ar           1 S1                 0.0000
     10 ****        -0.5417   2.1437   1.1102 N.ar           1 S1                 0.0000
     11 ****         0.0768   3.2087   0.5924 C.ar           1 S1                 0.0000
     12 ****         1.2554   3.2679  -0.0294 N.ar           1 S1                 0.0000
     13 ****         1.8378   2.0371  -0.1062 C.ar           1 S1                 0.0000
     14 ****         1.3046   0.8189   0.4038 C.ar           1 S1                 0.0000
     15 ****         2.1805  -0.2264   0.1327 N.2            1 S1                 0.0000
     16 ****         3.1749   0.3417  -0.4923 C.2            1 S1                 0.0000
     17 ****         3.0462   1.6979  -0.6898 N.pl3          1 S1                 0.0000
     18 ****         3.9954   2.5745  -1.3595 C.3            1 S1                 0.0000
     19 ****         3.9069   2.5185  -2.9032 C.3            1 S1                 0.0000
     20 ****         4.2486   1.2131  -3.3373 O.3            1 S1                 0.0000
     21 ****         4.8421   3.5085  -3.5867 C.3            1 S1                 0.0000
     22 ****         4.1156   3.8135  -4.8897 C.3            1 S1                 0.0000
     23 ****         2.7582   3.8754  -4.4866 O.3            1 S1                 0.0000
     24 ****         2.5268   2.8835  -3.4902 C.3            1 S1                 0.0000
     25 ****        -2.2526  -1.5391   0.2051 C.3            1 S1                 0.0000
     26 ****        -1.2425  -1.5868  -0.9544 C.3            1 S1                 0.0000
     27 ****        -2.3733  -2.8883   0.9399 C.3            1 S1                 0.0000
     28 ****        -5.3190  -5.2977   3.5103 H              1 S1                 0.0000
     29 ****        -5.8956  -4.0098   2.4604 H              1 S1                 0.0000
     30 ****        -5.2212  -3.6308   4.0461 H              1 S1                 0.0000
     31 ****        -2.9516  -4.4411   3.2715 H              1 S1                 0.0000
     32 ****        -3.6668  -4.9383   1.7576 H              1 S1                 0.0000
     33 ****        -4.0250  -1.7580   3.6881 H              1 S1                 0.0000
     34 ****        -2.3232  -2.0803   3.5796 H              1 S1                 0.0000
     35 ****        -4.0003  -0.0944   1.9838 H              1 S1                 0.0000
     36 ****        -2.7521   0.3263   3.1165 H              1 S1                 0.0000
     37 ****        -2.3256   0.5264   0.6003 H              1 S1                 0.0000
     38 ****         1.0811  -0.6634   2.7079 H              1 S1                 0.0000
     39 ****         0.4569  -1.9456   1.6739 H              1 S1                 0.0000
     40 ****        -0.3666  -1.5118   3.1766 H              1 S1                 0.0000
     41 ****        -0.4483   4.1477   0.6890 H              1 S1                 0.0000
     42 ****         4.0325  -0.2182  -0.8364 H              1 S1                 0.0000
     43 ****         3.8232   3.5937  -1.0114 H              1 S1                 0.0000
     44 ****         4.9998   2.3062  -1.0287 H              1 S1                 0.0000
     45 ****         4.1784   1.1833  -4.2793 H              1 S1                 0.0000
     46 ****         4.9169   4.4255  -3.0005 H              1 S1                 0.0000
     47 ****         5.8532   3.1277  -3.7368 H              1 S1                 0.0000
     48 ****         4.4425   4.7467  -5.3486 H              1 S1                 0.0000
     49 ****         4.2483   3.0067  -5.6121 H              1 S1                 0.0000
     50 ****         2.0227   2.0208  -3.9289 H              1 S1                 0.0000
     51 ****         1.8554   3.3070  -2.7441 H              1 S1                 0.0000
     52 ****        -3.2255  -1.3664  -0.2584 H              1 S1                 0.0000
     53 ****        -0.2399  -1.8363  -0.6081 H              1 S1                 0.0000
     54 ****        -1.1885  -0.6263  -1.4680 H              1 S1                 0.0000
     55 ****        -1.5287  -2.3378  -1.6914 H              1 S1                 0.0000
     56 ****        -1.4320  -3.1760   1.4071 H              1 S1                 0.0000
     57 ****        -2.6045  -3.6639   0.2085 H              1 S1                 0.0000
     58 ****        -4.2898  -2.5740   1.4689 H              1 S1                 0.0000
     59 ****        -1.4335   2.2515   1.5496 LP             1 S1                 0.0000
     60 ****         1.6600   4.1071  -0.3927 LP             1 S1                 0.0000
     61 ****         2.0728  -1.1933   0.3641 LP             1 S1                 0.0000
     62 ****         3.6226   0.5476  -2.9309 LP             1 S1                 0.0000
     63 ****         5.1861   1.0003  -3.0618 LP             1 S1                 0.0000
     64 ****         2.1661   3.7046  -5.2741 LP             1 S1                 0.0000
     65 ****         2.5605   4.7809  -4.1111 LP             1 S1                 0.0000
@<TRIPOS>BOND
    1    1    2 1     
    2    1   28 1     
    3    1   29 1     
    4    1   30 1     
    5    2    3 1     
    6    2   31 1     
    7    2   32 1     
    8    3   27 1     
    9    3    4 1     
   10    3   58 1     
   11    4    5 1     
   12    4   33 1     
   13    4   34 1     
   14    5    6 1     
   15    5   35 1     
   16    5   36 1     
   17    6    7 1     
   18    6   25 1     
   19    6   37 1     
   20    7    8 1     
   21    7    9 1     
   22    8   38 1     
   23    8   39 1     
   24    8   40 1     
   25    9   14 ar    
   26    9   10 ar    
   27   10   11 ar    
   28   11   12 ar    
   29   11   41 1     
   30   12   13 ar    
   31   13   17 1     
   32   13   14 ar    
   33   14   15 1     
   34   15   16 2     
   35   16   17 1     
   36   16   42 1     
   37   17   18 1     
   38   18   19 1     
   39   18   43 1     
   40   18   44 1     
   41   19   24 1     
   42   19   20 1     
   43   19   21 1     
   44   20   45 1     
   45   21   22 1     
   46   21   46 1     
   47   21   47 1     
   48   22   23 1     
   49   22   48 1     
   50   22   49 1     
   51   23   24 1     
   52   24   50 1     
   53   24   51 1     
   54   25   26 1     
   55   25   27 1     
   56   25   52 1     
   57   26   53 1     
   58   26   54 1     
   59   26   55 1     
   60   27   56 1     
   61   27   57 1     
   62   10   59 1     
   63   12   60 1     
   64   15   61 1     
   65   20   62 1     
   66   20   63 1     
   67   23   64 1     
   68   23   65 1     
@<TRIPOS>SUBSTRUCTURE
      1 S1             1
@<TRIPOS>SET
LONE_PAIRS      STATIC     ATOMS    <user>   **** ""
7 59 60 61 62 63 64 65
DONOR_HYDROGENS      STATIC     ATOMS    <user>   **** ""
2 58 45
ATOM$BLUE        STATIC     ATOMS    COLORGROUP SYSTEM
7 59 60 61 62 63 64 65
ATOM$RED        STATIC     ATOMS    COLORGROUP SYSTEM
2 58 45
