#       Name:                AV-unprocessed.smi:3346
#       Creating user name   scv26
#       Creation time:       Fri Mar 27 19:32:12 2020


#       File generated by GOLD software.
#

@<TRIPOS>MOLECULE
AV-unprocessed.smi:3346
    52    53     1
SMALL
NO_CHARGES


@<TRIPOS>ATOM
      1 ****        -1.1359   3.8271   0.4194 C.3            1 S1                 0.0000
      2 ****        -1.7276   2.7951  -0.5553 C.3            1 S1                 0.0000
      3 ****        -3.1376   2.3825  -0.1051 C.3            1 S1                 0.0000
      4 ****        -0.8327   1.5468  -0.7100 C.3            1 S1                 0.0000
      5 ****         0.5810   1.7819  -1.2924 C.3            1 S1                 0.0000
      6 ****         0.5379   2.3091  -2.7351 C.3            1 S1                 0.0000
      7 ****         1.3465   0.5175  -1.2635 N.4            1 S1                 1.0000
      8 ****         1.9902   0.2027   0.0290 C.3            1 S1                 0.0000
      9 ****         2.3189  -1.2788   0.1032 C.ar           1 S1                 0.0000
     10 ****         3.6210  -1.7239  -0.2088 C.ar           1 S1                 0.0000
     11 ****         3.9047  -3.1006  -0.1579 C.ar           1 S1                 0.0000
     12 ****         2.8697  -3.9828   0.2033 C.ar           1 S1                 0.0000
     13 ****         1.6200  -3.5714   0.5031 N.ar           1 S1                 0.0000
     14 ****         1.3417  -2.2462   0.4567 C.ar           1 S1                 0.0000
     15 ****         0.0363  -1.8439   0.7906 N.3            1 S1                 0.0000
     16 ****        -1.0409  -2.6042   0.1658 C.3            1 S1                 0.0000
     17 ****        -2.3979  -1.9613   0.5009 C.3            1 S1                 0.0000
     18 ****        -2.5488  -1.8813   1.9151 O.3            1 S1                 0.0000
     19 ****        -1.5366  -1.0820   2.5204 C.3            1 S1                 0.0000
     20 ****        -0.1513  -1.6860   2.2277 C.3            1 S1                 0.0000
     21 ****        -0.9574   3.3886   1.4019 H              1 S1                 0.0000
     22 ****        -1.8124   4.6717   0.5524 H              1 S1                 0.0000
     23 ****        -0.1920   4.2311   0.0545 H              1 S1                 0.0000
     24 ****        -1.8356   3.2746  -1.5281 H              1 S1                 0.0000
     25 ****        -3.1160   1.8915   0.8685 H              1 S1                 0.0000
     26 ****        -3.5920   1.6905  -0.8151 H              1 S1                 0.0000
     27 ****        -3.7959   3.2484  -0.0264 H              1 S1                 0.0000
     28 ****        -0.7489   1.0735   0.2674 H              1 S1                 0.0000
     29 ****        -1.3473   0.8199  -1.3402 H              1 S1                 0.0000
     30 ****         1.1228   2.5086  -0.6863 H              1 S1                 0.0000
     31 ****         0.0752   3.2943  -2.7883 H              1 S1                 0.0000
     32 ****        -0.0232   1.6395  -3.3879 H              1 S1                 0.0000
     33 ****         1.5433   2.4076  -3.1459 H              1 S1                 0.0000
     34 ****         0.7167  -0.2336  -1.5067 H              1 S1                 0.0000
     35 ****         2.8978   0.7986   0.1296 H              1 S1                 0.0000
     36 ****         1.3515   0.4784   0.8675 H              1 S1                 0.0000
     37 ****         4.3931  -1.0217  -0.4877 H              1 S1                 0.0000
     38 ****         4.8913  -3.4725  -0.3918 H              1 S1                 0.0000
     39 ****         3.0495  -5.0465   0.2523 H              1 S1                 0.0000
     40 ****        -0.8947  -2.6329  -0.9145 H              1 S1                 0.0000
     41 ****        -1.0264  -3.6346   0.5238 H              1 S1                 0.0000
     42 ****        -2.4811  -0.9673   0.0589 H              1 S1                 0.0000
     43 ****        -3.2099  -2.5615   0.0904 H              1 S1                 0.0000
     44 ****        -1.6027  -0.0568   2.1541 H              1 S1                 0.0000
     45 ****        -1.7097  -1.0451   3.5960 H              1 S1                 0.0000
     46 ****        -0.0602  -2.6589   2.7131 H              1 S1                 0.0000
     47 ****         0.6294  -1.0470   2.6420 H              1 S1                 0.0000
     48 ****         2.0739   0.5631  -1.9627 H              1 S1                 0.0000
     49 ****         0.9128  -4.2321   0.7548 LP             1 S1                 0.0000
     50 ****        -0.0432  -0.9376   0.3756 LP             1 S1                 0.0000
     51 ****        -2.5012  -2.8044   2.2967 LP             1 S1                 0.0000
     52 ****        -3.4415  -1.4809   2.1215 LP             1 S1                 0.0000
@<TRIPOS>BOND
    1    1    2 1     
    2    1   21 1     
    3    1   22 1     
    4    1   23 1     
    5    2    3 1     
    6    2    4 1     
    7    2   24 1     
    8    3   25 1     
    9    3   26 1     
   10    3   27 1     
   11    4    5 1     
   12    4   28 1     
   13    4   29 1     
   14    5    6 1     
   15    5    7 1     
   16    5   30 1     
   17    6   31 1     
   18    6   32 1     
   19    6   33 1     
   20    7    8 1     
   21    7   34 1     
   22    7   48 1     
   23    8    9 1     
   24    8   35 1     
   25    8   36 1     
   26    9   14 ar    
   27    9   10 ar    
   28   10   11 ar    
   29   10   37 1     
   30   11   12 ar    
   31   11   38 1     
   32   12   13 ar    
   33   12   39 1     
   34   13   14 ar    
   35   14   15 1     
   36   15   20 1     
   37   15   16 1     
   38   16   17 1     
   39   16   40 1     
   40   16   41 1     
   41   17   18 1     
   42   17   42 1     
   43   17   43 1     
   44   18   19 1     
   45   19   20 1     
   46   19   44 1     
   47   19   45 1     
   48   20   46 1     
   49   20   47 1     
   50   13   49 1     
   51   15   50 1     
   52   18   51 1     
   53   18   52 1     
@<TRIPOS>SUBSTRUCTURE
      1 S1             1
@<TRIPOS>SET
LONE_PAIRS      STATIC     ATOMS    <user>   **** ""
4 49 50 51 52
DONOR_HYDROGENS      STATIC     ATOMS    <user>   **** ""
2 34 48
ATOM$BLUE        STATIC     ATOMS    COLORGROUP SYSTEM
4 49 50 51 52
ATOM$RED        STATIC     ATOMS    COLORGROUP SYSTEM
2 34 48
