AV-unprocessed.smi:933|AV-procd|sdf|4204|dock2
  -GOLD-   22720 2113D 1   1.00000     0.00000
 Structure written by MMmdl.
 42 43  0  0  0  0  0  0  0  0  1 V2000
  153.4947  137.9074  156.5592 C   0  0  0  0  0  0  0  0  0  0  0  0
  153.2103  138.9208  155.4459 C   0  0  0  0  0  0  0  0  0  0  0  0
  151.8019  138.8575  154.9573 C   0  0  0  0  0  0  0  0  0  0  0  0
  151.0034  139.9245  154.8715 N   0  0  0  0  0  0  0  0  0  0  0  0
  149.7378  139.6121  154.3652 C   0  0  0  0  0  0  0  0  0  0  0  0
  148.7051  140.6888  154.2223 C   0  0  0  0  0  0  0  0  0  0  0  0
  148.2351  141.2214  155.5827 C   0  0  0  0  0  0  0  0  0  0  0  0
  149.1429  142.2537  156.0763 N   0  0  0  0  0  0  0  0  0  0  0  0
  150.2082  142.0807  156.8772 C   0  0  0  0  0  0  0  0  0  0  0  0
  150.5370  140.9705  157.2909 O   0  0  0  0  0  0  0  0  0  0  0  0
  150.8694  143.2117  157.1760 N   0  0  0  0  0  0  0  0  0  0  0  0
  152.0311  143.3061  158.0557 C   0  0  1  0  0  0  0  0  0  0  0  0
  152.4418  144.7797  158.2344 C   0  0  0  0  0  0  0  0  0  0  0  0
  152.0353  145.1594  159.6573 C   0  0  0  0  0  0  0  0  0  0  0  0
  152.1889  143.8602  160.4403 C   0  0  0  0  0  0  0  0  0  0  0  0
  151.7070  142.7737  159.4720 C   0  0  2  0  0  0  0  0  0  0  0  0
  152.3060  141.3915  159.7677 C   0  0  0  0  0  0  0  0  0  0  0  0
  149.5952  138.2845  154.0470 C   0  0  0  0  0  0  0  0  0  0  0  0
  151.0465  137.3784  154.3754 S   0  0  0  0  0  0  0  0  0  0  0  0
  154.5294  137.9796  156.8949 H   0  0  0  0  0  0  0  0  0  0  0  0
  153.3270  136.8867  156.2142 H   0  0  0  0  0  0  0  0  0  0  0  0
  152.8511  138.0800  157.4219 H   0  0  0  0  0  0  0  0  0  0  0  0
  153.4100  139.9313  155.8036 H   0  0  0  0  0  0  0  0  0  0  0  0
  153.8839  138.7483  154.6058 H   0  0  0  0  0  0  0  0  0  0  0  0
  149.1081  141.5103  153.6284 H   0  0  0  0  0  0  0  0  0  0  0  0
  147.8475  140.3091  153.6652 H   0  0  0  0  0  0  0  0  0  0  0  0
  147.2295  141.6358  155.4943 H   0  0  0  0  0  0  0  0  0  0  0  0
  148.1887  140.4019  156.3020 H   0  0  0  0  0  0  0  0  0  0  0  0
  148.9627  143.1942  155.7558 H   0  0  0  0  0  0  0  0  0  0  0  0
  150.5268  144.0762  156.7828 H   0  0  0  0  0  0  0  0  0  0  0  0
  152.8719  142.7654  157.6166 H   0  0  0  0  0  0  0  0  0  0  0  0
  153.5254  144.8626  158.1398 H   0  0  0  0  0  0  0  0  0  0  0  0
  152.0054  145.4471  157.4897 H   0  0  0  0  0  0  0  0  0  0  0  0
  152.6389  145.9710  160.0645 H   0  0  0  0  0  0  0  0  0  0  0  0
  150.9920  145.4775  159.6709 H   0  0  0  0  0  0  0  0  0  0  0  0
  153.2411  143.7085  160.6863 H   0  0  0  0  0  0  0  0  0  0  0  0
  151.6274  143.8666  161.3751 H   0  0  0  0  0  0  0  0  0  0  0  0
  150.6235  142.7044  159.5851 H   0  0  0  0  0  0  0  0  0  0  0  0
  153.3930  141.4021  159.6832 H   0  0  0  0  0  0  0  0  0  0  0  0
  151.9250  140.6433  159.0724 H   0  0  0  0  0  0  0  0  0  0  0  0
  152.0526  141.0647  160.7763 H   0  0  0  0  0  0  0  0  0  0  0  0
  148.7280  137.7862  153.6399 H   0  0  0  0  0  0  0  0  0  0  0  0
  1  2  1  0  0  0  0
  1 20  1  0  0  0  0
  1 21  1  0  0  0  0
  1 22  1  0  0  0  0
  2  3  1  0  0  0  0
  2 23  1  0  0  0  0
  2 24  1  0  0  0  0
  3 19  1  0  0  0  0
  3  4  2  0  0  0  0
  4  5  1  0  0  0  0
  5  6  1  0  0  0  0
  5 18  2  0  0  0  0
  6  7  1  0  0  0  0
  6 25  1  0  0  0  0
  6 26  1  0  0  0  0
  7  8  1  0  0  0  0
  7 27  1  0  0  0  0
  7 28  1  0  0  0  0
  8  9  1  0  0  0  0
  8 29  1  0  0  0  0
  9 10  2  0  0  0  0
  9 11  1  0  0  0  0
 11 12  1  0  0  0  0
 11 30  1  0  0  0  0
 12 16  1  0  0  0  0
 12 13  1  0  0  0  0
 12 31  1  0  0  0  0
 13 14  1  0  0  0  0
 13 32  1  0  0  0  0
 13 33  1  0  0  0  0
 14 15  1  0  0  0  0
 14 34  1  0  0  0  0
 14 35  1  0  0  0  0
 15 16  1  0  0  0  0
 15 36  1  0  0  0  0
 15 37  1  0  0  0  0
 16 17  1  0  0  0  0
 16 38  1  0  0  0  0
 17 39  1  0  0  0  0
 17 40  1  0  0  0  0
 17 41  1  0  0  0  0
 18 19  1  0  0  0  0
 18 42  1  0  0  0  0
M  END
> <s_m_source_file>
AV-unprocessed.smi

> <i_m_source_file_index>
933

> <i_lp_mmshare_version>
43012

> <i_f3d_flags>
0

> <s_epik_input>
W0NIM11bQ0gyXWMxbmMoW2NIXXMxKVtDSDJdW0NIMl1bTkhdQyg9TylbTkhdW0NAQEhdMltDSDJdW0NIMl1bQ0gyXVtDQEhdMltDSDNd

> <s_epik_cmdline>
J2VwaWtfcHl0aG9uJywgJy1waCcsICc3LjAnLCAnLXRuJywgJzgnLCAnLW1hJywgJzIwMCcsICctbWV0YWxfYmluZGluZycsICctaW1hZScsICc8aW5maWxlLm1hZT4nLCAnLW9tYWUnLCAnPG91dGZpbGUubWFlPic=

> <r_epik_Ionization_Penalty>
0.00203408

> <r_epik_Ionization_Penalty_Charging>
0

> <r_epik_Ionization_Penalty_Neutral>
0.00203408

> <r_epik_State_Penalty>
0.0013452

> <r_epik_Charging_Adjusted_Penalty>
0.0013452

> <i_epik_Tot_Q>
0

> <i_epik_Tot_abs_Q>
0

> <r_epik_Metal_State_Penalty>
-0

> <b_epik_Metal_Only>
0

> <s_lp_Force_Field>
OPLS_2005

> <r_lp_Energy>
18.1851

> <b_lp_Chiralities_Consistent>
1

> <s_lp_Variant>
AV-unprocessed.smi:933-4

> <Gold.Version>
5.8.1

> <Gold.Id.Protein>
6NUR|6NUR_protein|mol2

> <Gold.PLP.Fitness>
50.8530

> <Gold.PLP.PLP>
-41.2023

> <Gold.PLP.part.hbond>
-2.9289

> <Gold.PLP.part.metal>
0.0000

> <Gold.PLP.part.buried>
0.0673

> <Gold.PLP.part.nonpolar>
-39.2754

> <Gold.PLP.part.repulsive>
0.1813

> <Gold.PLP.ligand.clash>
0.0000

> <Gold.PLP.ligand.torsion>
0.4283

> <Gold.PLP.Chemscore.Hbond>
2.7174

> <Gold.PLP.Chemscore.CHOScore>
0.7617

> <Gold.PLP.Chemscore.Metal>
0.0000

> <Gold.Chemscore.Hbonds>
donor molecule, donor type, donor heavy atom, donor atom, acceptor molecule, acceptor atom, score
      L1  H     8    29       P1  8028  0.99
      L1  H    11    30       P1  8028  0.71
      P1  H  7989  7998       L1     4  0.95
      L1  C    18    42       P1  7948  0.79

> <Gold.PLP.Chemscore.Internal.Correction>
0.0699

> <Gold.Rescore>
     Score         DG    S(hbond)    S(metal)    S(lipo)     H(rot)  DE(clash)    DE(int)     intcor
     23.90     -25.15       2.70        0.00     124.96       1.55       0.44       0.81       ----

> <Gold.Chemscore.Fitness>
23.8994

> <Gold.Chemscore.DG>
-25.1463

> <Gold.Chemscore.ZeroCoef>
-5.4800

> <Gold.Chemscore.Hbond>
2.6975

> <Gold.Chemscore.Metal>
0.0000

> <Gold.Chemscore.Lipo>
124.9593

> <Gold.Chemscore.Internal_Hbond>
0.0000

> <Gold.Chemscore.DEClash>
0.4380

> <Gold.Chemscore.DEInternal>
0.8088

> <Gold.Chemscore.Rot>
1.5482

> <Gold.Chemscore.Internal.Correction>
   9.000000E+99

> <Gold.Chemscore.Hbonds>
donor molecule, donor type, donor heavy atom, donor atom, acceptor molecule, acceptor atom, score
      L1  H     8    29       P1  8028  0.92
      L1  H    11    30       P1  8028  0.67
      P1  H  7989  7998       L1     4  0.11

> <Gold.Chemscore.Hbond.Weighted>
-9.0095

> <Gold.Chemscore.Metal.Weighted>
-0.0000

> <Gold.Chemscore.Lipo.Weighted>
-14.6202

> <Gold.Chemscore.Internal_Hbond.Weighted>
0.0000

> <Gold.Chemscore.DEClash.Weighted>
0.4380

> <Gold.Chemscore.DEInternal.Weighted>
0.8088

> <Gold.Chemscore.Rot.Weighted>
3.9635

> <Gold.Chemscore.Internal.Correction.Weighted>
   9.000000E+99

> <Gold.Protein.RotatedTorsions>
[ 6907 6896 6895 6894 ] final   49.86 input  -60.11 | X-H torsion
[ 7974 7965 7964 7962 ] final  108.18 input  175.53 | X-H torsion
[ 8008 7997 7996 7995 ] final  -79.49 input   59.86 | X-H torsion
[ 10167 10162 10161 10158 ] final    5.53 input  -65.29 | X-H torsion
[ 10718 10713 10712 10709 ] final -135.20 input   66.30 | X-H torsion
[ 10763 10752 10751 10750 ] final   73.02 input  -60.55 | X-H torsion
[ 11005 11000 10999 10996 ] final   33.67 input  -57.11 | X-H torsion

> <Gold.Protein.ActiveResidues>
 VAL166  LYS551  ARG553  GLY616  TRP617  ASP618  TYR619  PRO620  LYS621  CYS622 
 ASP623  PHE694  ASN695  SER759  ASP760  ASP761  ALA762  ILE779  LEU786  VAL792 
 PHE793  MET794  SER795  GLU796  ALA797  LYS798  CYS799  TRP800  GLU811  SER814 

> <Gold.Protein.RotatedAtoms>
  152.2954  134.7673  160.0368 H   0  0  0  0  0  0  0  0  0  0  0  0  # atno 6907 bound_to 6896
  151.8204  133.3388  159.3590 H   0  0  0  0  0  0  0  0  0  0  0  0  # atno 6908 bound_to 6896
  150.7249  134.5508  159.5838 H   0  0  0  0  0  0  0  0  0  0  0  0  # atno 6909 bound_to 6896
  145.2840  139.2623  143.3900 H   0  0  0  0  0  0  0  0  0  0  0  0  # atno 7974 bound_to 7965
  154.5790  140.0677  156.9076 H   0  0  0  0  0  0  0  0  0  0  0  0  # atno 8008 bound_to 7997
  155.2497  140.3350  155.4265 H   0  0  0  0  0  0  0  0  0  0  0  0  # atno 8009 bound_to 7997
  156.2175  140.1785  156.7539 H   0  0  0  0  0  0  0  0  0  0  0  0  # atno 8010 bound_to 7997
  140.6477  143.7622  150.7524 H   0  0  0  0  0  0  0  0  0  0  0  0  # atno 10167 bound_to 10162
  156.2636  130.7224  151.1167 H   0  0  0  0  0  0  0  0  0  0  0  0  # atno 10718 bound_to 10713
  153.0495  135.5078  154.7831 H   0  0  0  0  0  0  0  0  0  0  0  0  # atno 10763 bound_to 10752
  154.6704  135.2952  154.9751 H   0  0  0  0  0  0  0  0  0  0  0  0  # atno 10764 bound_to 10752
  154.0572  135.6696  153.4860 H   0  0  0  0  0  0  0  0  0  0  0  0  # atno 10765 bound_to 10752
  140.2607  134.3195  155.7859 H   0  0  0  0  0  0  0  0  0  0  0  0  # atno 11005 bound_to 11000
  146.3207  140.3314  142.8640 LP  0  0  0  0  0  0  0  0  0  0  0  0  # atno 17320 bound_to 7965
  144.9229  140.7889  143.5737 LP  0  0  0  0  0  0  0  0  0  0  0  0  # atno 17321 bound_to 7965
  140.1266  143.4563  152.2280 LP  0  0  0  0  0  0  0  0  0  0  0  0  # atno 17342 bound_to 10162
  139.5689  144.7451  151.3946 LP  0  0  0  0  0  0  0  0  0  0  0  0  # atno 17343 bound_to 10162
  157.7259  131.0650  150.5931 LP  0  0  0  0  0  0  0  0  0  0  0  0  # atno 17370 bound_to 10713
  156.6021  130.4357  149.5893 LP  0  0  0  0  0  0  0  0  0  0  0  0  # atno 17371 bound_to 10713
  141.2190  133.7408  156.9182 LP  0  0  0  0  0  0  0  0  0  0  0  0  # atno 17394 bound_to 11000
  140.1467  134.9257  157.2539 LP  0  0  0  0  0  0  0  0  0  0  0  0  # atno 17395 bound_to 11000

$$$$
