AV-unprocessed.smi:618|AV-procd|sdf|3077|dock1
  -GOLD-   22720 0 03D 1   1.00000     0.00000
 Structure written by MMmdl.
 41 43  0  0  0  0  0  0  0  0  2 V2000
  147.9803  137.1578  154.6394 O   0  0  0  0  0  0  0  0  0  0  0  0
  148.5858  136.6270  153.7094 C   0  0  0  0  0  0  0  0  0  0  0  0
  148.0401  135.7008  152.9086 N   0  0  0  0  0  0  0  0  0  0  0  0
  146.6787  135.1836  153.0243 C   0  0  0  0  0  0  0  0  0  0  0  0
  145.9217  135.1654  151.6805 C   0  0  1  0  0  0  0  0  0  0  0  0
  145.9117  136.5248  150.9561 C   0  0  0  0  0  0  0  0  0  0  0  0
  145.1758  136.4485  149.6687 N   0  3  1  0  0  0  0  0  0  0  0  0
  145.4059  137.6400  148.8218 C   0  0  0  0  0  0  0  0  0  0  0  0
  146.5152  137.2628  147.8224 C   0  0  0  0  0  0  0  0  0  0  0  0
  146.8085  135.7781  148.0676 C   0  0  0  0  0  0  0  0  0  0  0  0
  145.5802  135.2934  148.8376 C   0  0  1  0  0  0  0  0  0  0  0  0
  145.7557  133.9902  149.6437 C   0  0  0  0  0  0  0  0  0  0  0  0
  146.5222  134.2071  150.8191 O   0  0  0  0  0  0  0  0  0  0  0  0
  149.8539  136.8900  153.3493 N   0  0  0  0  0  0  0  0  0  0  0  0
  150.7819  137.7974  153.9306 C   0  0  0  0  0  0  0  0  0  0  0  0
  150.6794  138.3279  155.2402 C   0  0  0  0  0  0  0  0  0  0  0  0
  151.6774  139.2106  155.6962 C   0  0  0  0  0  0  0  0  0  0  0  0
  152.7433  139.5268  154.8321 C   0  0  0  0  0  0  0  0  0  0  0  0
  152.8603  139.0208  153.5868 N   0  0  0  0  0  0  0  0  0  0  0  0
  151.8999  138.1755  153.1563 C   0  0  0  0  0  0  0  0  0  0  0  0
  148.6074  135.3256  152.1626 H   0  0  0  0  0  0  0  0  0  0  0  0
  146.6847  134.1866  153.4682 H   0  0  0  0  0  0  0  0  0  0  0  0
  146.1462  135.8231  153.7285 H   0  0  0  0  0  0  0  0  0  0  0  0
  144.8945  134.8592  151.8878 H   0  0  0  0  0  0  0  0  0  0  0  0
  145.4496  137.2858  151.5857 H   0  0  0  0  0  0  0  0  0  0  0  0
  146.9354  136.8511  150.7661 H   0  0  0  0  0  0  0  0  0  0  0  0
  144.4845  137.8577  148.2804 H   0  0  0  0  0  0  0  0  0  0  0  0
  145.6535  138.5278  149.4059 H   0  0  0  0  0  0  0  0  0  0  0  0
  146.1720  137.4270  146.8001 H   0  0  0  0  0  0  0  0  0  0  0  0
  147.4119  137.8659  147.9685 H   0  0  0  0  0  0  0  0  0  0  0  0
  146.9704  135.2226  147.1433 H   0  0  0  0  0  0  0  0  0  0  0  0
  147.7049  135.6726  148.6805 H   0  0  0  0  0  0  0  0  0  0  0  0
  144.7845  135.1320  148.1079 H   0  0  0  0  0  0  0  0  0  0  0  0
  144.7814  133.5845  149.9206 H   0  0  0  0  0  0  0  0  0  0  0  0
  146.2450  133.2308  149.0334 H   0  0  0  0  0  0  0  0  0  0  0  0
  150.1854  136.4107  152.5252 H   0  0  0  0  0  0  0  0  0  0  0  0
  149.8716  138.0734  155.9075 H   0  0  0  0  0  0  0  0  0  0  0  0
  151.6279  139.6336  156.6886 H   0  0  0  0  0  0  0  0  0  0  0  0
  153.5253  140.1999  155.1511 H   0  0  0  0  0  0  0  0  0  0  0  0
  152.0288  137.7891  152.1556 H   0  0  0  0  0  0  0  0  0  0  0  0
  144.1921  136.3698  149.8842 H   0  0  0  0  0  0  0  0  0  0  0  0
  1  2  2  0  0  0  0
  2  3  1  0  0  0  0
  2 14  1  0  0  0  0
  3  4  1  0  0  0  0
  3 21  1  0  0  0  0
  4  5  1  0  0  0  0
  4 22  1  0  0  0  0
  4 23  1  0  0  0  0
  5 13  1  0  0  0  0
  5  6  1  0  0  0  0
  5 24  1  0  0  0  0
  6  7  1  0  0  0  0
  6 25  1  0  0  0  0
  6 26  1  0  0  0  0
  7 11  1  0  0  0  0
  7  8  1  0  0  0  0
  7 41  1  0  0  0  0
  8  9  1  0  0  0  0
  8 27  1  0  0  0  0
  8 28  1  0  0  0  0
  9 10  1  0  0  0  0
  9 29  1  0  0  0  0
  9 30  1  0  0  0  0
 10 11  1  0  0  0  0
 10 31  1  0  0  0  0
 10 32  1  0  0  0  0
 11 12  1  0  0  0  0
 11 33  1  0  0  0  0
 12 13  1  0  0  0  0
 12 34  1  0  0  0  0
 12 35  1  0  0  0  0
 14 15  1  0  0  0  0
 14 36  1  0  0  0  0
 15 20  1  0  0  0  0
 15 16  2  0  0  0  0
 16 17  1  0  0  0  0
 16 37  1  0  0  0  0
 17 18  2  0  0  0  0
 17 38  1  0  0  0  0
 18 19  1  0  0  0  0
 18 39  1  0  0  0  0
 19 20  2  0  0  0  0
 20 40  1  0  0  0  0
M  CHG  1   7   1
M  END
> <s_m_source_file>
AV-unprocessed.smi

> <i_m_source_file_index>
618

> <i_lp_mmshare_version>
43012

> <i_f3d_flags>
0

> <s_epik_input>
W2NIXTFuW2NIXVtjSF1bY0hdYzFbTkhdQyg9TylbTkhdW0NIMl1bQ0BIXShbQ0gyXTIpT1tDSDJdW0NAQEhdKE4yMylbQ0gyXVtDSDJdW0NIMl0z

> <s_epik_cmdline>
J2VwaWtfcHl0aG9uJywgJy1waCcsICc3LjAnLCAnLXRuJywgJzgnLCAnLW1hJywgJzIwMCcsICctbWV0YWxfYmluZGluZycsICctaW1hZScsICc8aW5maWxlLm1hZT4nLCAnLW9tYWUnLCAnPG91dGZpbGUubWFlPic=

> <r_epik_Ionization_Penalty>
0.111044

> <r_epik_Ionization_Penalty_Charging>
0.10673

> <r_epik_Ionization_Penalty_Neutral>
0.00431361

> <r_epik_State_Penalty>
0.0978747

> <r_epik_Charging_Adjusted_Penalty>
0.204605

> <i_epik_Tot_Q>
1

> <i_epik_Tot_abs_Q>
1

> <r_epik_Metal_State_Penalty>
0.0947591

> <b_epik_Metal_Only>
0

> <s_lp_Force_Field>
OPLS_2005

> <r_lp_Energy>
41.8914

> <b_lp_Chiralities_Consistent>
1

> <s_lp_Variant>
AV-unprocessed.smi:618-4

> <Gold.Version>
5.8.1

> <Gold.Id.Protein>
6NUR|6NUR_protein|mol2

> <Gold.PLP.Fitness>
43.8710

> <Gold.PLP.PLP>
-25.9848

> <Gold.PLP.part.hbond>
-4.6121

> <Gold.PLP.part.metal>
0.0000

> <Gold.PLP.part.buried>
-3.8867

> <Gold.PLP.part.nonpolar>
-18.8247

> <Gold.PLP.part.repulsive>
0.3197

> <Gold.PLP.ligand.clash>
0.0000

> <Gold.PLP.ligand.torsion>
0.1657

> <Gold.PLP.Chemscore.Hbond>
4.5325

> <Gold.PLP.Chemscore.CHOScore>
1.5391

> <Gold.PLP.Chemscore.Metal>
0.0000

> <Gold.Chemscore.Hbonds>
donor molecule, donor type, donor heavy atom, donor atom, acceptor molecule, acceptor atom, score
      L1  C    20    40       P1  7949  0.89

> <Gold.PLP.Chemscore.Internal.Correction>
0.0025

> <Gold.Rescore>
     Score         DG    S(hbond)    S(metal)    S(lipo)     H(rot)  DE(clash)    DE(int)     intcor
     14.46     -19.32       2.72        0.00      68.32       1.27       3.61       1.24       ----

> <Gold.Chemscore.Fitness>
14.4627

> <Gold.Chemscore.DG>
-19.3165

> <Gold.Chemscore.ZeroCoef>
-5.4800

> <Gold.Chemscore.Hbond>
2.7196

> <Gold.Chemscore.Metal>
0.0000

> <Gold.Chemscore.Lipo>
68.3157

> <Gold.Chemscore.Internal_Hbond>
0.0000

> <Gold.Chemscore.DEClash>
3.6118

> <Gold.Chemscore.DEInternal>
1.2420

> <Gold.Chemscore.Rot>
1.2656

> <Gold.Chemscore.Internal.Correction>
   9.000000E+99

> <Gold.Chemscore.Hbonds>
donor molecule, donor type, donor heavy atom, donor atom, acceptor molecule, acceptor atom, score
      L1  H     7    41       P1 10171  0.01

> <Gold.Chemscore.Hbond.Weighted>
-9.0834

> <Gold.Chemscore.Metal.Weighted>
-0.0000

> <Gold.Chemscore.Lipo.Weighted>
-7.9929

> <Gold.Chemscore.Internal_Hbond.Weighted>
0.0000

> <Gold.Chemscore.DEClash.Weighted>
3.6118

> <Gold.Chemscore.DEInternal.Weighted>
1.2420

> <Gold.Chemscore.Rot.Weighted>
3.2399

> <Gold.Chemscore.Internal.Correction.Weighted>
   9.000000E+99

> <Gold.Protein.RotatedTorsions>
[ 6907 6896 6895 6894 ] final  -62.36 input  -60.11 | X-H torsion
[ 7974 7965 7964 7962 ] final  141.64 input  175.53 | X-H torsion
[ 8008 7997 7996 7995 ] final  -27.65 input   59.86 | X-H torsion
[ 10167 10162 10161 10158 ] final   69.61 input  -65.29 | X-H torsion
[ 10718 10713 10712 10709 ] final -129.60 input   66.30 | X-H torsion
[ 10763 10752 10751 10750 ] final -134.10 input  -60.55 | X-H torsion
[ 11005 11000 10999 10996 ] final -123.30 input  -57.11 | X-H torsion

> <Gold.Protein.ActiveResidues>
 VAL166  LYS551  ARG553  GLY616  TRP617  ASP618  TYR619  PRO620  LYS621  CYS622 
 ASP623  PHE694  ASN695  SER759  ASP760  ASP761  ALA762  ILE779  LEU786  VAL792 
 PHE793  MET794  SER795  GLU796  ALA797  LYS798  CYS799  TRP800  GLU811  SER814 

> <Gold.Protein.RotatedAtoms>
  150.7721  134.6580  159.6323 H   0  0  0  0  0  0  0  0  0  0  0  0  # atno 6907 bound_to 6896
  152.3777  134.6635  160.0163 H   0  0  0  0  0  0  0  0  0  0  0  0  # atno 6908 bound_to 6896
  151.6975  133.3274  159.3294 H   0  0  0  0  0  0  0  0  0  0  0  0  # atno 6909 bound_to 6896
  144.9078  139.5334  143.5723 H   0  0  0  0  0  0  0  0  0  0  0  0  # atno 7974 bound_to 7965
  154.4367  140.1866  156.0966 H   0  0  0  0  0  0  0  0  0  0  0  0  # atno 8008 bound_to 7997
  156.0325  140.3329  155.7129 H   0  0  0  0  0  0  0  0  0  0  0  0  # atno 8009 bound_to 7997
  155.5819  140.0622  157.2772 H   0  0  0  0  0  0  0  0  0  0  0  0  # atno 8010 bound_to 7997
  140.0659  144.5193  150.7261 H   0  0  0  0  0  0  0  0  0  0  0  0  # atno 10167 bound_to 10162
  156.2062  130.6889  151.0597 H   0  0  0  0  0  0  0  0  0  0  0  0  # atno 10718 bound_to 10713
  154.8724  135.3745  154.4681 H   0  0  0  0  0  0  0  0  0  0  0  0  # atno 10763 bound_to 10752
  153.5344  135.7027  153.5672 H   0  0  0  0  0  0  0  0  0  0  0  0  # atno 10764 bound_to 10752
  153.3862  135.3984  155.1856 H   0  0  0  0  0  0  0  0  0  0  0  0  # atno 10765 bound_to 10752
  140.9929  134.0513  157.3632 H   0  0  0  0  0  0  0  0  0  0  0  0  # atno 11005 bound_to 11000
  146.3143  139.7860  142.8996 LP  0  0  0  0  0  0  0  0  0  0  0  0  # atno 17320 bound_to 7965
  145.3506  141.0306  143.3341 LP  0  0  0  0  0  0  0  0  0  0  0  0  # atno 17321 bound_to 7965
  140.7149  143.2536  151.4465 LP  0  0  0  0  0  0  0  0  0  0  0  0  # atno 17342 bound_to 10162
  139.5865  144.1593  152.2035 LP  0  0  0  0  0  0  0  0  0  0  0  0  # atno 17343 bound_to 10162
  157.7014  131.0774  150.6809 LP  0  0  0  0  0  0  0  0  0  0  0  0  # atno 17370 bound_to 10713
  156.6867  130.4583  149.5611 LP  0  0  0  0  0  0  0  0  0  0  0  0  # atno 17371 bound_to 10713
  139.9001  135.0161  156.7226 LP  0  0  0  0  0  0  0  0  0  0  0  0  # atno 17394 bound_to 11000
  140.7011  133.9305  155.8025 LP  0  0  0  0  0  0  0  0  0  0  0  0  # atno 17395 bound_to 11000

$$$$
