AV-unprocessed.smi:2224|AV-procd|sdf|8997|dock1
  -GOLD-   2272012203D 1   1.00000     0.00000
 Structure written by MMmdl.
 44 46  0  0  0  0  0  0  0  0  1 V2000
  144.5949  132.8576  150.3628 C   0  0  0  0  0  0  0  0  0  0  0  0
  144.4521  133.9269  151.4255 C   0  0  0  0  0  0  0  0  0  0  0  0
  143.1993  134.2088  152.0030 C   0  0  0  0  0  0  0  0  0  0  0  0
  143.1323  135.2151  152.9865 C   0  0  0  0  0  0  0  0  0  0  0  0
  141.8181  135.5677  153.6511 C   0  0  0  0  0  0  0  0  0  0  0  0
  144.2105  135.9157  153.3982 N   0  0  0  0  0  0  0  0  0  0  0  0
  145.4223  135.6532  152.8489 C   0  0  0  0  0  0  0  0  0  0  0  0
  146.6163  136.3313  153.2132 N   0  0  0  0  0  0  0  0  0  0  0  0
  146.7956  137.2220  154.2046 C   0  0  0  0  0  0  0  0  0  0  0  0
  145.9197  137.6222  154.9719 O   0  0  0  0  0  0  0  0  0  0  0  0
  148.0708  137.6294  154.2674 N   0  0  0  0  0  0  0  0  0  0  0  0
  148.5862  138.5920  155.2472 C   0  0  2  0  0  0  0  0  0  0  0  0
  148.0119  139.9981  155.0539 C   0  0  2  0  0  0  0  0  0  0  0  0
  146.8431  140.5840  154.3474 C   0  0  0  0  0  0  0  0  0  0  0  0
  147.5720  141.8257  153.7651 C   0  0  0  0  0  0  0  0  0  0  0  0
  148.9864  141.6086  154.0047 O   0  0  0  0  0  0  0  0  0  0  0  0
  149.1137  140.2007  154.0348 C   0  0  1  0  0  0  0  0  0  0  0  0
  149.9794  139.2493  154.8907 C   0  0  0  0  0  0  0  0  0  0  0  0
  150.7793  139.8764  156.0469 C   0  0  0  0  0  0  0  0  0  0  0  0
  150.9810  138.3930  154.1077 C   0  0  0  0  0  0  0  0  0  0  0  0
  145.5765  134.6605  151.8549 C   0  0  0  0  0  0  0  0  0  0  0  0
  143.6538  132.3315  150.2009 H   0  0  0  0  0  0  0  0  0  0  0  0
  145.3467  132.1266  150.6608 H   0  0  0  0  0  0  0  0  0  0  0  0
  144.9039  133.3042  149.4176 H   0  0  0  0  0  0  0  0  0  0  0  0
  142.3140  133.6685  151.7008 H   0  0  0  0  0  0  0  0  0  0  0  0
  140.9776  135.1014  153.1362 H   0  0  0  0  0  0  0  0  0  0  0  0
  141.6628  136.6470  153.6438 H   0  0  0  0  0  0  0  0  0  0  0  0
  141.8161  135.2270  154.6868 H   0  0  0  0  0  0  0  0  0  0  0  0
  147.4299  136.1029  152.6619 H   0  0  0  0  0  0  0  0  0  0  0  0
  148.7301  137.2544  153.6013 H   0  0  0  0  0  0  0  0  0  0  0  0
  148.5215  138.2483  156.2809 H   0  0  0  0  0  0  0  0  0  0  0  0
  148.1785  140.5643  155.9736 H   0  0  0  0  0  0  0  0  0  0  0  0
  146.4609  139.9283  153.5641 H   0  0  0  0  0  0  0  0  0  0  0  0
  146.0292  140.8520  155.0214 H   0  0  0  0  0  0  0  0  0  0  0  0
  147.3774  141.9246  152.6964 H   0  0  0  0  0  0  0  0  0  0  0  0
  147.2577  142.7489  154.2527 H   0  0  0  0  0  0  0  0  0  0  0  0
  148.8934  139.7786  153.0489 H   0  0  0  0  0  0  0  0  0  0  0  0
  151.5246  140.5795  155.6741 H   0  0  0  0  0  0  0  0  0  0  0  0
  151.3095  139.1151  156.6199 H   0  0  0  0  0  0  0  0  0  0  0  0
  150.1616  140.4212  156.7589 H   0  0  0  0  0  0  0  0  0  0  0  0
  151.8636  138.9671  153.8242 H   0  0  0  0  0  0  0  0  0  0  0  0
  150.5523  138.0020  153.1849 H   0  0  0  0  0  0  0  0  0  0  0  0
  151.3182  137.5378  154.6946 H   0  0  0  0  0  0  0  0  0  0  0  0
  146.5474  134.4604  151.4246 H   0  0  0  0  0  0  0  0  0  0  0  0
  1  2  1  0  0  0  0
  1 22  1  0  0  0  0
  1 23  1  0  0  0  0
  1 24  1  0  0  0  0
  2 21  1  0  0  0  0
  2  3  2  0  0  0  0
  3  4  1  0  0  0  0
  3 25  1  0  0  0  0
  4  5  1  0  0  0  0
  4  6  2  0  0  0  0
  5 26  1  0  0  0  0
  5 27  1  0  0  0  0
  5 28  1  0  0  0  0
  6  7  1  0  0  0  0
  7  8  1  0  0  0  0
  7 21  2  0  0  0  0
  8  9  1  0  0  0  0
  8 29  1  0  0  0  0
  9 10  2  0  0  0  0
  9 11  1  0  0  0  0
 11 12  1  0  0  0  0
 11 30  1  0  0  0  0
 12 18  1  0  0  0  0
 12 13  1  0  0  0  0
 12 31  1  0  0  0  0
 13 17  1  0  0  0  0
 13 14  1  0  0  0  0
 13 32  1  0  0  0  0
 14 15  1  0  0  0  0
 14 33  1  0  0  0  0
 14 34  1  0  0  0  0
 15 16  1  0  0  0  0
 15 35  1  0  0  0  0
 15 36  1  0  0  0  0
 16 17  1  0  0  0  0
 17 18  1  0  0  0  0
 17 37  1  0  0  0  0
 18 19  1  0  0  0  0
 18 20  1  0  0  0  0
 19 38  1  0  0  0  0
 19 39  1  0  0  0  0
 19 40  1  0  0  0  0
 20 41  1  0  0  0  0
 20 42  1  0  0  0  0
 20 43  1  0  0  0  0
 21 44  1  0  0  0  0
M  END
> <s_m_source_file>
AV-unprocessed.smi

> <i_m_source_file_index>
2224

> <i_lp_mmshare_version>
43012

> <i_f3d_flags>
0

> <s_epik_input>
W0NIM11jMVtjSF1jKFtDSDNdKW5jKFtjSF0xKVtOSF1DKD1PKVtOSF1bQ0BIXTJDKFtDSDNdKShbQ0gzXSlbQ0BIXShbQ0BASF0yMylPW0NIMl1bQ0gyXTM=

> <s_epik_cmdline>
J2VwaWtfcHl0aG9uJywgJy1waCcsICc3LjAnLCAnLXRuJywgJzgnLCAnLW1hJywgJzIwMCcsICctbWV0YWxfYmluZGluZycsICctaW1hZScsICc8aW5maWxlLm1hZT4nLCAnLW9tYWUnLCAnPG91dGZpbGUubWFlPic=

> <r_lp_tautomer_probability>
1

> <r_epik_Ionization_Penalty>
0.000276544

> <r_epik_Ionization_Penalty_Charging>
0

> <r_epik_Ionization_Penalty_Neutral>
0.000276544

> <r_epik_State_Penalty>
-0

> <r_epik_Charging_Adjusted_Penalty>
0

> <i_epik_Tot_Q>
0

> <i_epik_Tot_abs_Q>
0

> <r_epik_Metal_State_Penalty>
-0

> <b_epik_Metal_Only>
0

> <s_lp_Force_Field>
OPLS_2005

> <r_lp_Energy>
64.3879

> <b_lp_Chiralities_Consistent>
1

> <s_lp_Variant>
AV-unprocessed.smi:2224-7

> <Gold.Version>
5.8.1

> <Gold.Id.Protein>
6NUR|6NUR_protein|mol2

> <Gold.PLP.Fitness>
39.4384

> <Gold.PLP.PLP>
-31.7728

> <Gold.PLP.part.hbond>
-3.2567

> <Gold.PLP.part.metal>
0.0000

> <Gold.PLP.part.buried>
-4.8524

> <Gold.PLP.part.nonpolar>
-23.5242

> <Gold.PLP.part.repulsive>
0.2963

> <Gold.PLP.ligand.clash>
0.0000

> <Gold.PLP.ligand.torsion>
0.1486

> <Gold.PLP.Chemscore.Hbond>
2.5680

> <Gold.PLP.Chemscore.CHOScore>
0.0000

> <Gold.PLP.Chemscore.Metal>
0.0000

> <Gold.Chemscore.Hbonds>
donor molecule, donor type, donor heavy atom, donor atom, acceptor molecule, acceptor atom, score
      L1  H     8    29       P1  7948  1.00
      L1  H    11    30       P1  7948  0.93
      P1  H  8011  8017       L1    16  0.62

> <Gold.PLP.Chemscore.Internal.Correction>
0.2589

> <Gold.Rescore>
     Score         DG    S(hbond)    S(metal)    S(lipo)     H(rot)  DE(clash)    DE(int)     intcor
     16.92     -18.80       1.97        0.00      79.47       1.00       0.45       1.43       ----

> <Gold.Chemscore.Fitness>
16.9170

> <Gold.Chemscore.DG>
-18.7974

> <Gold.Chemscore.ZeroCoef>
-5.4800

> <Gold.Chemscore.Hbond>
1.9699

> <Gold.Chemscore.Metal>
0.0000

> <Gold.Chemscore.Lipo>
79.4696

> <Gold.Chemscore.Internal_Hbond>
0.0000

> <Gold.Chemscore.DEClash>
0.4485

> <Gold.Chemscore.DEInternal>
1.4318

> <Gold.Chemscore.Rot>
1.0000

> <Gold.Chemscore.Internal.Correction>
   9.000000E+99

> <Gold.Chemscore.Hbonds>
donor molecule, donor type, donor heavy atom, donor atom, acceptor molecule, acceptor atom, score
      L1  H     8    29       P1  7948  1.00
      L1  H    11    30       P1  7948  0.86
      P1  H  8011  8017       L1    16  0.15

> <Gold.Chemscore.Hbond.Weighted>
-6.5794

> <Gold.Chemscore.Metal.Weighted>
-0.0000

> <Gold.Chemscore.Lipo.Weighted>
-9.2979

> <Gold.Chemscore.Internal_Hbond.Weighted>
0.0000

> <Gold.Chemscore.DEClash.Weighted>
0.4485

> <Gold.Chemscore.DEInternal.Weighted>
1.4318

> <Gold.Chemscore.Rot.Weighted>
2.5600

> <Gold.Chemscore.Internal.Correction.Weighted>
   9.000000E+99

> <Gold.Protein.RotatedTorsions>
[ 6907 6896 6895 6894 ] final -147.96 input  -60.11 | X-H torsion
[ 7974 7965 7964 7962 ] final  -15.42 input  175.53 | X-H torsion
[ 8008 7997 7996 7995 ] final  -59.44 input   59.86 | X-H torsion
[ 10167 10162 10161 10158 ] final    0.86 input  -65.29 | X-H torsion
[ 10718 10713 10712 10709 ] final  -89.24 input   66.30 | X-H torsion
[ 10763 10752 10751 10750 ] final   -3.78 input  -60.55 | X-H torsion
[ 11005 11000 10999 10996 ] final   42.14 input  -57.11 | X-H torsion

> <Gold.Protein.ActiveResidues>
 VAL166  LYS551  ARG553  GLY616  TRP617  ASP618  TYR619  PRO620  LYS621  CYS622 
 ASP623  PHE694  ASN695  SER759  ASP760  ASP761  ALA762  ILE779  LEU786  VAL792 
 PHE793  MET794  SER795  GLU796  ALA797  LYS798  CYS799  TRP800  GLU811  SER814 

> <Gold.Protein.RotatedAtoms>
  151.1631  133.4832  159.2593 H   0  0  0  0  0  0  0  0  0  0  0  0  # atno 6907 bound_to 6896
  151.1434  135.0190  159.8646 H   0  0  0  0  0  0  0  0  0  0  0  0  # atno 6908 bound_to 6896
  152.5463  134.1522  159.8576 H   0  0  0  0  0  0  0  0  0  0  0  0  # atno 6909 bound_to 6896
  146.2033  140.3490  142.8416 H   0  0  0  0  0  0  0  0  0  0  0  0  # atno 7974 bound_to 7965
  154.4352  140.1061  156.6116 H   0  0  0  0  0  0  0  0  0  0  0  0  # atno 8008 bound_to 7997
  155.5803  140.3490  155.4520 H   0  0  0  0  0  0  0  0  0  0  0  0  # atno 8009 bound_to 7997
  156.0323  140.1263  157.0234 H   0  0  0  0  0  0  0  0  0  0  0  0  # atno 8010 bound_to 7997
  140.6709  143.7050  150.7922 H   0  0  0  0  0  0  0  0  0  0  0  0  # atno 10167 bound_to 10162
  155.9984  130.4865  150.5141 H   0  0  0  0  0  0  0  0  0  0  0  0  # atno 10718 bound_to 10713
  153.3760  135.6996  153.6601 H   0  0  0  0  0  0  0  0  0  0  0  0  # atno 10763 bound_to 10752
  153.5232  135.3607  155.2642 H   0  0  0  0  0  0  0  0  0  0  0  0  # atno 10764 bound_to 10752
  154.8687  135.4163  154.3048 H   0  0  0  0  0  0  0  0  0  0  0  0  # atno 10765 bound_to 10752
  140.1768  134.4154  155.8224 H   0  0  0  0  0  0  0  0  0  0  0  0  # atno 11005 bound_to 11000
  144.8732  140.7301  143.6033 LP  0  0  0  0  0  0  0  0  0  0  0  0  # atno 17320 bound_to 7965
  145.3410  139.1732  143.4486 LP  0  0  0  0  0  0  0  0  0  0  0  0  # atno 17321 bound_to 7965
  140.0735  143.5038  152.2567 LP  0  0  0  0  0  0  0  0  0  0  0  0  # atno 17342 bound_to 10162
  139.5978  144.7572  151.3245 LP  0  0  0  0  0  0  0  0  0  0  0  0  # atno 17343 bound_to 10162
  157.3110  131.0664  151.2000 LP  0  0  0  0  0  0  0  0  0  0  0  0  # atno 17370 bound_to 10713
  157.2946  130.6813  149.6132 LP  0  0  0  0  0  0  0  0  0  0  0  0  # atno 17371 bound_to 10713
  141.2221  133.6981  156.7860 LP  0  0  0  0  0  0  0  0  0  0  0  0  # atno 17394 bound_to 11000
  140.2314  134.8683  157.3480 LP  0  0  0  0  0  0  0  0  0  0  0  0  # atno 17395 bound_to 11000

$$$$
