AV-unprocessed.smi:907|AV-procd|sdf|4111|dock10
  -GOLD-   22720 2 03D 1   1.00000     0.00000
 Structure written by MMmdl.
 54 57  0  0  0  0  0  0  0  0  3 V2000
  152.3889  139.8657  155.7852 O   0  0  0  0  0  0  0  0  0  0  0  0
  151.1989  139.5837  155.6419 C   0  0  0  0  0  0  0  0  0  0  0  0
  150.2437  140.1100  156.4257 N   0  0  0  0  0  0  0  0  0  0  0  0
  150.4907  141.0546  157.5067 C   0  0  0  0  0  0  0  0  0  0  0  0
  151.3915  142.2020  157.0296 C   0  0  0  0  0  0  0  0  0  0  0  0
  151.5473  143.2860  158.0791 C   0  0  0  0  0  0  0  0  0  0  0  0
  152.3826  143.1254  159.2059 C   0  0  0  0  0  0  0  0  0  0  0  0
  152.4853  144.1747  160.1430 C   0  0  0  0  0  0  0  0  0  0  0  0
  151.7534  145.3617  159.9330 C   0  0  0  0  0  0  0  0  0  0  0  0
  150.9356  145.4695  158.7897 C   0  0  0  0  0  0  0  0  0  0  0  0
  150.8627  144.4415  157.9156 N   0  3  0  0  0  0  0  0  0  0  0  0
  150.7531  138.6920  154.7215 N   0  0  0  0  0  0  0  0  0  0  0  0
  151.4847  137.5276  154.2086 C   0  0  0  0  0  0  0  0  0  0  0  0
  150.8754  136.2408  154.7982 C   0  0  0  0  0  0  0  0  0  0  0  0
  149.4070  136.1415  154.5446 N   0  3  0  0  0  0  0  0  0  0  0  0
  148.7563  134.9383  155.1502 C   0  0  1  0  0  0  0  0  0  0  0  0
  147.3208  134.7178  154.6021 C   0  0  0  0  0  0  0  0  0  0  0  0
  147.3390  133.2625  154.1065 C   0  0  2  0  0  0  0  0  0  0  0  0
  147.4226  132.3083  155.3094 C   0  0  0  0  0  0  0  0  0  0  0  0
  148.8706  132.5059  155.7896 C   0  0  0  0  0  0  0  0  0  0  0  0
  149.4174  133.5700  154.8171 C   0  0  1  0  0  0  0  0  0  0  0  0
  148.7383  133.1634  153.5141 C   0  0  0  0  0  0  0  0  0  0  0  0
  148.6910  137.3994  154.9140 C   0  0  0  0  0  0  0  0  0  0  0  0
  149.3533  138.6427  154.2975 C   0  0  0  0  0  0  0  0  0  0  0  0
  149.2879  139.8239  156.2722 H   0  0  0  0  0  0  0  0  0  0  0  0
  149.5363  141.4482  157.8603 H   0  0  0  0  0  0  0  0  0  0  0  0
  150.9579  140.5364  158.3460 H   0  0  0  0  0  0  0  0  0  0  0  0
  152.3792  141.8192  156.7681 H   0  0  0  0  0  0  0  0  0  0  0  0
  150.9819  142.6446  156.1205 H   0  0  0  0  0  0  0  0  0  0  0  0
  152.9392  142.2109  159.3524 H   0  0  0  0  0  0  0  0  0  0  0  0
  153.1181  144.0702  161.0122 H   0  0  0  0  0  0  0  0  0  0  0  0
  151.8187  146.1774  160.6384 H   0  0  0  0  0  0  0  0  0  0  0  0
  150.3421  146.3396  158.5497 H   0  0  0  0  0  0  0  0  0  0  0  0
  151.4027  137.5107  153.1206 H   0  0  0  0  0  0  0  0  0  0  0  0
  152.5546  137.5508  154.4151 H   0  0  0  0  0  0  0  0  0  0  0  0
  151.4025  135.4035  154.3457 H   0  0  0  0  0  0  0  0  0  0  0  0
  151.0609  136.1998  155.8726 H   0  0  0  0  0  0  0  0  0  0  0  0
  148.7378  135.0785  156.2324 H   0  0  0  0  0  0  0  0  0  0  0  0
  146.5559  134.8895  155.3605 H   0  0  0  0  0  0  0  0  0  0  0  0
  147.1011  135.3723  153.7575 H   0  0  0  0  0  0  0  0  0  0  0  0
  146.5285  133.0257  153.4164 H   0  0  0  0  0  0  0  0  0  0  0  0
  146.6897  132.5495  156.0803 H   0  0  0  0  0  0  0  0  0  0  0  0
  147.2580  131.2749  155.0010 H   0  0  0  0  0  0  0  0  0  0  0  0
  148.9256  132.8234  156.8316 H   0  0  0  0  0  0  0  0  0  0  0  0
  149.4313  131.5746  155.6976 H   0  0  0  0  0  0  0  0  0  0  0  0
  150.5044  133.5498  154.7929 H   0  0  0  0  0  0  0  0  0  0  0  0
  148.9978  132.1551  153.1860 H   0  0  0  0  0  0  0  0  0  0  0  0
  148.9156  133.8633  152.6957 H   0  0  0  0  0  0  0  0  0  0  0  0
  147.6512  137.3621  154.5918 H   0  0  0  0  0  0  0  0  0  0  0  0
  148.6758  137.4984  156.0007 H   0  0  0  0  0  0  0  0  0  0  0  0
  148.7970  139.5388  154.5766 H   0  0  0  0  0  0  0  0  0  0  0  0
  149.3045  138.5940  153.2086 H   0  0  0  0  0  0  0  0  0  0  0  0
  149.3086  136.0443  153.5440 H   0  0  0  0  0  0  0  0  0  0  0  0
  150.2646  144.5428  157.0953 H   0  0  0  0  0  0  0  0  0  0  0  0
  1  2  2  0  0  0  0
  2  3  1  0  0  0  0
  2 12  1  0  0  0  0
  3  4  1  0  0  0  0
  3 25  1  0  0  0  0
  4  5  1  0  0  0  0
  4 26  1  0  0  0  0
  4 27  1  0  0  0  0
  5  6  1  0  0  0  0
  5 28  1  0  0  0  0
  5 29  1  0  0  0  0
  6 11  1  0  0  0  0
  6  7  2  0  0  0  0
  7  8  1  0  0  0  0
  7 30  1  0  0  0  0
  8  9  2  0  0  0  0
  8 31  1  0  0  0  0
  9 10  1  0  0  0  0
  9 32  1  0  0  0  0
 10 11  2  0  0  0  0
 10 33  1  0  0  0  0
 11 54  1  0  0  0  0
 12 24  1  0  0  0  0
 12 13  1  0  0  0  0
 13 14  1  0  0  0  0
 13 34  1  0  0  0  0
 13 35  1  0  0  0  0
 14 15  1  0  0  0  0
 14 36  1  0  0  0  0
 14 37  1  0  0  0  0
 15 16  1  0  0  0  0
 15 23  1  0  0  0  0
 15 53  1  0  0  0  0
 16 21  1  0  0  0  0
 16 17  1  0  0  0  0
 16 38  1  0  0  0  0
 17 18  1  0  0  0  0
 17 39  1  0  0  0  0
 17 40  1  0  0  0  0
 18 22  1  0  0  0  0
 18 19  1  0  0  0  0
 18 41  1  0  0  0  0
 19 20  1  0  0  0  0
 19 42  1  0  0  0  0
 19 43  1  0  0  0  0
 20 21  1  0  0  0  0
 20 44  1  0  0  0  0
 20 45  1  0  0  0  0
 21 22  1  0  0  0  0
 21 46  1  0  0  0  0
 22 47  1  0  0  0  0
 22 48  1  0  0  0  0
 23 24  1  0  0  0  0
 23 49  1  0  0  0  0
 23 50  1  0  0  0  0
 24 51  1  0  0  0  0
 24 52  1  0  0  0  0
M  CHG  1  11   1
M  CHG  1  15   1
M  END
> <s_m_source_file>
AV-unprocessed.smi

> <i_m_source_file_index>
907

> <i_lp_mmshare_version>
43012

> <i_f3d_flags>
0

> <s_epik_input>
W0NIMl0xW0NIMl1bQ0BASF0oW0NIMl0yKVtDQEBIXShbQ0gyXVtDQEhdMTIpTihbQ0gyXVtDSDJdMylbQ0gyXVtDSDJdTjNDKD1PKVtOSF1bQ0gyXVtDSDJdYzRbY0hdW2NIXVtjSF1bY0hdbjQ=

> <s_epik_cmdline>
J2VwaWtfcHl0aG9uJywgJy1waCcsICc3LjAnLCAnLXRuJywgJzgnLCAnLW1hJywgJzIwMCcsICctbWV0YWxfYmluZGluZycsICctaW1hZScsICc8aW5maWxlLm1hZT4nLCAnLW9tYWUnLCAnPG91dGZpbGUubWFlPic=

> <r_epik_Ionization_Penalty>
1.63018

> <r_epik_Ionization_Penalty_Charging>
1.63015

> <r_epik_Ionization_Penalty_Neutral>
2.64641e-05

> <r_epik_State_Penalty>
1.72761

> <r_epik_Charging_Adjusted_Penalty>
3.35777

> <i_epik_Tot_Q>
2

> <i_epik_Tot_abs_Q>
2

> <r_epik_Metal_State_Penalty>
1.76501

> <b_epik_Metal_Only>
0

> <s_lp_Force_Field>
OPLS_2005

> <r_lp_Energy>
104.704

> <b_lp_Chiralities_Consistent>
1

> <s_lp_Variant>
AV-unprocessed.smi:907-6

> <Gold.Version>
5.8.1

> <Gold.Id.Protein>
6NUR|6NUR_protein|mol2

> <Gold.PLP.Fitness>
57.4559

> <Gold.PLP.PLP>
-44.1748

> <Gold.PLP.part.hbond>
-3.0930

> <Gold.PLP.part.metal>
0.0000

> <Gold.PLP.part.buried>
-2.3144

> <Gold.PLP.part.nonpolar>
-39.5779

> <Gold.PLP.part.repulsive>
0.1368

> <Gold.PLP.ligand.clash>
0.5770

> <Gold.PLP.ligand.torsion>
0.6089

> <Gold.PLP.Chemscore.Hbond>
4.9913

> <Gold.PLP.Chemscore.CHOScore>
0.0000

> <Gold.PLP.Chemscore.Metal>
0.0000

> <Gold.Chemscore.Hbonds>
donor molecule, donor type, donor heavy atom, donor atom, acceptor molecule, acceptor atom, score
      L1  H    11    54       P1  8028  2.00
      L1  H    15    53       P1  7948  2.00
      P1  H  7997  8008       L1     1  1.00

> <Gold.PLP.Chemscore.Internal.Correction>
0.1022

> <Gold.Rescore>
     Score         DG    S(hbond)    S(metal)    S(lipo)     H(rot)  DE(clash)    DE(int)     intcor
     22.16     -24.57       2.51        0.00     123.29       1.46       0.66       1.74       ----

> <Gold.Chemscore.Fitness>
22.1642

> <Gold.Chemscore.DG>
-24.5653

> <Gold.Chemscore.ZeroCoef>
-5.4800

> <Gold.Chemscore.Hbond>
2.5123

> <Gold.Chemscore.Metal>
0.0000

> <Gold.Chemscore.Lipo>
123.2869

> <Gold.Chemscore.Internal_Hbond>
0.0000

> <Gold.Chemscore.DEClash>
0.6636

> <Gold.Chemscore.DEInternal>
1.7374

> <Gold.Chemscore.Rot>
1.4572

> <Gold.Chemscore.Internal.Correction>
   9.000000E+99

> <Gold.Chemscore.Hbonds>
donor molecule, donor type, donor heavy atom, donor atom, acceptor molecule, acceptor atom, score
      L1  H    11    54       P1  8028  0.64
      L1  H    15    53       P1  7948  0.74
      P1  H  7997  8008       L1     1  0.93

> <Gold.Chemscore.Hbond.Weighted>
-8.3912

> <Gold.Chemscore.Metal.Weighted>
-0.0000

> <Gold.Chemscore.Lipo.Weighted>
-14.4246

> <Gold.Chemscore.Internal_Hbond.Weighted>
0.0000

> <Gold.Chemscore.DEClash.Weighted>
0.6636

> <Gold.Chemscore.DEInternal.Weighted>
1.7374

> <Gold.Chemscore.Rot.Weighted>
3.7305

> <Gold.Chemscore.Internal.Correction.Weighted>
   9.000000E+99

> <Gold.Protein.RotatedTorsions>
[ 6907 6896 6895 6894 ] final  108.79 input  -60.11 | X-H torsion
[ 7974 7965 7964 7962 ] final   46.11 input  175.53 | X-H torsion
[ 8008 7997 7996 7995 ] final  -27.38 input   59.86 | X-H torsion
[ 10167 10162 10161 10158 ] final   25.11 input  -65.29 | X-H torsion
[ 10718 10713 10712 10709 ] final  131.06 input   66.30 | X-H torsion
[ 10763 10752 10751 10750 ] final  -65.24 input  -60.55 | X-H torsion
[ 11005 11000 10999 10996 ] final  -37.79 input  -57.11 | X-H torsion

> <Gold.Protein.ActiveResidues>
 VAL166  LYS551  ARG553  GLY616  TRP617  ASP618  TYR619  PRO620  LYS621  CYS622 
 ASP623  PHE694  ASN695  SER759  ASP760  ASP761  ALA762  ILE779  LEU786  VAL792 
 PHE793  MET794  SER795  GLU796  ALA797  LYS798  CYS799  TRP800  GLU811  SER814 

> <Gold.Protein.RotatedAtoms>
  152.5096  133.9037  159.7453 H   0  0  0  0  0  0  0  0  0  0  0  0  # atno 6907 bound_to 6896
  150.9447  133.6608  159.2790 H   0  0  0  0  0  0  0  0  0  0  0  0  # atno 6908 bound_to 6896
  151.3907  135.0960  159.9578 H   0  0  0  0  0  0  0  0  0  0  0  0  # atno 6909 bound_to 6896
  146.0419  139.4891  142.9772 H   0  0  0  0  0  0  0  0  0  0  0  0  # atno 7974 bound_to 7965
  154.4380  140.1874  156.0922 H   0  0  0  0  0  0  0  0  0  0  0  0  # atno 8008 bound_to 7997
  156.0357  140.3325  155.7162 H   0  0  0  0  0  0  0  0  0  0  0  0  # atno 8009 bound_to 7997
  155.5774  140.0618  157.2782 H   0  0  0  0  0  0  0  0  0  0  0  0  # atno 8010 bound_to 7997
  140.5133  144.0124  150.6382 H   0  0  0  0  0  0  0  0  0  0  0  0  # atno 10167 bound_to 10162
  157.5003  131.1094  150.9436 H   0  0  0  0  0  0  0  0  0  0  0  0  # atno 10718 bound_to 10713
  154.3421  135.6154  153.5601 H   0  0  0  0  0  0  0  0  0  0  0  0  # atno 10763 bound_to 10752
  152.9803  135.5772  154.4841 H   0  0  0  0  0  0  0  0  0  0  0  0  # atno 10764 bound_to 10752
  154.4547  135.2854  155.1733 H   0  0  0  0  0  0  0  0  0  0  0  0  # atno 10765 bound_to 10752
  140.9978  133.6971  156.1967 H   0  0  0  0  0  0  0  0  0  0  0  0  # atno 11005 bound_to 11000
  145.6869  141.0175  143.1576 LP  0  0  0  0  0  0  0  0  0  0  0  0  # atno 17320 bound_to 7965
  144.7079  139.8487  143.7424 LP  0  0  0  0  0  0  0  0  0  0  0  0  # atno 17321 bound_to 7965
  140.3452  143.2995  152.0545 LP  0  0  0  0  0  0  0  0  0  0  0  0  # atno 17342 bound_to 10162
  139.4902  144.6413  151.6870 LP  0  0  0  0  0  0  0  0  0  0  0  0  # atno 17343 bound_to 10162
  157.0109  130.5636  149.5321 LP  0  0  0  0  0  0  0  0  0  0  0  0  # atno 17370 bound_to 10713
  156.0225  130.5320  150.8316 LP  0  0  0  0  0  0  0  0  0  0  0  0  # atno 17371 bound_to 10713
  140.6937  134.4638  157.5588 LP  0  0  0  0  0  0  0  0  0  0  0  0  # atno 17394 bound_to 11000
  139.9023  134.8527  156.1843 LP  0  0  0  0  0  0  0  0  0  0  0  0  # atno 17395 bound_to 11000

$$$$
