#       Name:                AV-unprocessed.smi:1950
#       Creating user name   scv26
#       Creation time:       Fri Mar 27 10:03:11 2020


#       File generated by GOLD software.
#

@<TRIPOS>MOLECULE
AV-unprocessed.smi:1950
    39    40     1
SMALL
NO_CHARGES


@<TRIPOS>ATOM
      1 ****        -3.5667  -2.9342  -0.8013 C.3            1 S1                 0.0000
      2 ****        -3.1102  -2.4238   0.5673 C.2            1 S1                 0.0000
      3 ****        -3.2291  -3.1776   1.5336 O.2            1 S1                 0.0000
      4 ****        -2.5956  -1.1747   0.6711 N.am           1 S1                 0.0000
      5 ****        -2.0737  -0.6330   1.9315 C.3            1 S1                 0.0000
      6 ****        -0.5437  -0.5003   1.8232 C.3            1 S1                 0.0000
      7 ****        -0.1386   0.3643   0.6105 C.3            1 S1                 0.0000
      8 ****         1.3114   0.3218   0.4404 N.am           1 S1                 0.0000
      9 ****         2.0639   1.2525  -0.1644 C.2            1 S1                 0.0000
     10 ****         1.5335   2.2566  -0.6454 O.2            1 S1                 0.0000
     11 ****         3.3851   0.9625  -0.1741 N.pl3          1 S1                -1.0000
     12 ****         4.2545   1.8070  -0.7533 C.2            1 S1                 0.0000
     13 ****         4.7342   1.6057  -1.9911 N.2            1 S1                 0.0000
     14 ****         5.6230   2.5910  -2.3994 N.2            1 S1                 0.0000
     15 ****         5.7969   3.5114  -1.4515 C.2            1 S1                 0.0000
     16 ****         4.8953   3.2556   0.0274 S.3            1 S1                 0.0000
     17 ****        -0.8550  -0.1047  -0.6766 C.3            1 S1                 0.0000
     18 ****        -2.3699  -0.2524  -0.4491 C.3            1 S1                 0.0000
     19 ****        -2.7428  -2.9192  -1.5152 H              1 S1                 0.0000
     20 ****        -4.3835  -2.3241  -1.1879 H              1 S1                 0.0000
     21 ****        -3.9244  -3.9618  -0.7282 H              1 S1                 0.0000
     22 ****        -2.5224   0.3437   2.1183 H              1 S1                 0.0000
     23 ****        -2.3310  -1.2476   2.7951 H              1 S1                 0.0000
     24 ****        -0.1417  -0.0689   2.7406 H              1 S1                 0.0000
     25 ****        -0.1054  -1.4955   1.7315 H              1 S1                 0.0000
     26 ****        -0.4439   1.3908   0.8217 H              1 S1                 0.0000
     27 ****         1.7897  -0.4836   0.8166 H              1 S1                 0.0000
     28 ****         6.4631   4.3436  -1.6228 H              1 S1                 0.0000
     29 ****        -0.6700   0.5994  -1.4885 H              1 S1                 0.0000
     30 ****        -0.4456  -1.0630  -1.0001 H              1 S1                 0.0000
     31 ****        -2.8535  -0.5607  -1.3747 H              1 S1                 0.0000
     32 ****        -2.8038   0.7183  -0.2052 H              1 S1                 0.0000
     33 ****        -3.6142  -4.0921   1.4099 LP             1 S1                 0.0000
     34 ****        -2.9405  -2.8752   2.4421 LP             1 S1                 0.0000
     35 ****         0.5426   2.3766  -0.5843 LP             1 S1                 0.0000
     36 ****         2.0943   2.9509  -1.0965 LP             1 S1                 0.0000
     37 ****         3.7148   0.1191   0.2501 LP             1 S1                 0.0000
     38 ****         4.4773   0.8253  -2.5611 LP             1 S1                 0.0000
     39 ****         6.0751   2.6079  -3.2912 LP             1 S1                 0.0000
@<TRIPOS>BOND
    1    1    2 1     
    2    1   19 1     
    3    1   20 1     
    4    1   21 1     
    5    2    3 2     
    6    2    4 am    
    7    4   18 1     
    8    4    5 1     
    9    5    6 1     
   10    5   22 1     
   11    5   23 1     
   12    6    7 1     
   13    6   24 1     
   14    6   25 1     
   15    7    8 1     
   16    7   17 1     
   17    7   26 1     
   18    8    9 am    
   19    8   27 1     
   20    9   10 2     
   21    9   11 1     
   22   11   12 1     
   23   12   16 1     
   24   12   13 2     
   25   13   14 1     
   26   14   15 2     
   27   15   16 1     
   28   15   28 1     
   29   17   18 1     
   30   17   29 1     
   31   17   30 1     
   32   18   31 1     
   33   18   32 1     
   34    3   33 1     
   35    3   34 1     
   36   10   35 1     
   37   10   36 1     
   38   11   37 1     
   39   13   38 1     
   40   14   39 1     
@<TRIPOS>SUBSTRUCTURE
      1 S1             1
@<TRIPOS>SET
LONE_PAIRS      STATIC     ATOMS    <user>   **** ""
7 33 34 35 36 37 38 39
DONOR_HYDROGENS      STATIC     ATOMS    <user>   **** ""
1 27
ATOM$BLUE        STATIC     ATOMS    COLORGROUP SYSTEM
7 33 34 35 36 37 38 39
ATOM$RED        STATIC     ATOMS    COLORGROUP SYSTEM
1 27
