AV-unprocessed.smi:1056|AV-procd|sdf|4649|dock2
  -GOLD-   22720 3153D 1   1.00000     0.00000
 Structure written by MMmdl.
 45 47  0  0  0  0  0  0  0  0  4 V2000
  152.4382  143.8627  161.1358 C   0  0  0  0  0  0  0  0  0  0  0  0
  152.1994  143.0087  159.9021 C   0  0  0  0  0  0  0  0  0  0  0  0
  151.2713  143.4620  158.9381 C   0  0  0  0  0  0  0  0  0  0  0  0
  151.0745  142.6595  157.8206 C   0  0  0  0  0  0  0  0  0  0  0  0
  150.2416  142.8267  156.7127 N   0  3  0  0  0  0  0  0  0  0  0  0
  150.3927  141.7705  155.8670 C   0  0  0  0  0  0  0  0  0  0  0  0
  151.3078  140.9285  156.4198 N   0  0  0  0  0  0  0  0  0  0  0  0
  151.8322  139.6554  155.9055 C   0  0  0  0  0  0  0  0  0  0  0  0
  150.7503  138.7887  155.2320 C   0  0  1  0  0  0  0  0  0  0  0  0
  150.4443  139.3907  153.9905 O   0  0  0  0  0  0  0  0  0  0  0  0
  151.1930  137.3288  154.9889 C   0  0  0  0  0  0  0  0  0  0  0  0
  150.0512  136.4146  154.7298 N   0  3  1  0  0  0  0  0  0  0  0  0
  150.3749  134.9961  155.0296 C   0  0  0  0  0  0  0  0  0  0  0  0
  149.2890  134.0667  154.4549 C   0  0  0  0  0  0  0  0  0  0  0  0
  147.9542  134.5607  154.8129 N   0  5  0  0  0  0  0  0  0  0  0  0
  147.6255  135.8468  155.1482 C   0  0  0  0  0  0  0  0  0  0  0  0
  146.4841  136.2716  155.3121 O   0  0  0  0  0  0  0  0  0  0  0  0
  148.7875  136.8462  155.3948 C   0  0  0  0  0  0  0  0  0  0  0  0
  151.7636  141.4439  157.6403 C   0  0  0  0  0  0  0  0  0  0  0  0
  152.6806  140.9824  158.5826 C   0  0  0  0  0  0  0  0  0  0  0  0
  152.8939  141.7840  159.7271 C   0  0  0  0  0  0  0  0  0  0  0  0
  153.8895  141.3061  160.7708 C   0  0  0  0  0  0  0  0  0  0  0  0
  151.8718  144.7934  161.0924 H   0  0  0  0  0  0  0  0  0  0  0  0
  153.4935  144.1204  161.2277 H   0  0  0  0  0  0  0  0  0  0  0  0
  152.1323  143.3275  162.0349 H   0  0  0  0  0  0  0  0  0  0  0  0
  150.7390  144.3935  159.0650 H   0  0  0  0  0  0  0  0  0  0  0  0
  149.8808  141.6282  154.9260 H   0  0  0  0  0  0  0  0  0  0  0  0
  152.6090  139.9061  155.1815 H   0  0  0  0  0  0  0  0  0  0  0  0
  152.3324  139.1135  156.7079 H   0  0  0  0  0  0  0  0  0  0  0  0
  149.8549  138.8219  155.8517 H   0  0  0  0  0  0  0  0  0  0  0  0
  149.5330  139.6413  153.9857 H   0  0  0  0  0  0  0  0  0  0  0  0
  151.8792  137.3163  154.1407 H   0  0  0  0  0  0  0  0  0  0  0  0
  151.7559  136.9421  155.8388 H   0  0  0  0  0  0  0  0  0  0  0  0
  151.3373  134.7229  154.5953 H   0  0  0  0  0  0  0  0  0  0  0  0
  150.4641  134.8625  156.1091 H   0  0  0  0  0  0  0  0  0  0  0  0
  149.4063  134.0253  153.3717 H   0  0  0  0  0  0  0  0  0  0  0  0
  149.4580  133.0507  154.8108 H   0  0  0  0  0  0  0  0  0  0  0  0
  148.9437  136.9351  156.4710 H   0  0  0  0  0  0  0  0  0  0  0  0
  148.4824  137.8265  155.0301 H   0  0  0  0  0  0  0  0  0  0  0  0
  153.2119  140.0512  158.4549 H   0  0  0  0  0  0  0  0  0  0  0  0
  154.2923  140.3247  160.5191 H   0  0  0  0  0  0  0  0  0  0  0  0
  153.4149  141.2289  161.7493 H   0  0  0  0  0  0  0  0  0  0  0  0
  154.7264  142.0011  160.8453 H   0  0  0  0  0  0  0  0  0  0  0  0
  149.8766  136.4382  153.7355 H   0  0  0  0  0  0  0  0  0  0  0  0
  149.6179  143.6052  156.5415 H   0  0  0  0  0  0  0  0  0  0  0  0
  1  2  1  0  0  0  0
  1 23  1  0  0  0  0
  1 24  1  0  0  0  0
  1 25  1  0  0  0  0
  2 21  1  0  0  0  0
  2  3  2  0  0  0  0
  3  4  1  0  0  0  0
  3 26  1  0  0  0  0
  4 19  2  0  0  0  0
  4  5  1  0  0  0  0
  5  6  2  0  0  0  0
  5 45  1  0  0  0  0
  6  7  1  0  0  0  0
  6 27  1  0  0  0  0
  7  8  1  0  0  0  0
  7 19  1  0  0  0  0
  8  9  1  0  0  0  0
  8 28  1  0  0  0  0
  8 29  1  0  0  0  0
  9 10  1  0  0  0  0
  9 11  1  0  0  0  0
  9 30  1  0  0  0  0
 10 31  1  0  0  0  0
 11 12  1  0  0  0  0
 11 32  1  0  0  0  0
 11 33  1  0  0  0  0
 12 18  1  0  0  0  0
 12 13  1  0  0  0  0
 12 44  1  0  0  0  0
 13 14  1  0  0  0  0
 13 34  1  0  0  0  0
 13 35  1  0  0  0  0
 14 15  1  0  0  0  0
 14 36  1  0  0  0  0
 14 37  1  0  0  0  0
 15 16  1  0  0  0  0
 16 17  2  0  0  0  0
 16 18  1  0  0  0  0
 18 38  1  0  0  0  0
 18 39  1  0  0  0  0
 19 20  1  0  0  0  0
 20 21  2  0  0  0  0
 20 40  1  0  0  0  0
 21 22  1  0  0  0  0
 22 41  1  0  0  0  0
 22 42  1  0  0  0  0
 22 43  1  0  0  0  0
M  CHG  1   5   1
M  CHG  1  12   1
M  CHG  1  15  -1
M  END
> <s_m_source_file>
AV-unprocessed.smi

> <i_m_source_file_index>
1056

> <i_lp_mmshare_version>
43012

> <i_f3d_flags>
0

> <s_epik_input>
W0NIM11jKFtjSF0xKWMoW0NIM10pW2NIXWMoYzEyKW4oW2NIXW4yKVtDSDJdW0NASF0oW09IXSlbQ0gyXU4zW0NIMl1bQ0gyXVtOSF1DKD1PKVtDSDJdMw==

> <s_epik_cmdline>
J2VwaWtfcHl0aG9uJywgJy1waCcsICc3LjAnLCAnLXRuJywgJzgnLCAnLW1hJywgJzIwMCcsICctbWV0YWxfYmluZGluZycsICctaW1hZScsICc8aW5maWxlLm1hZT4nLCAnLW9tYWUnLCAnPG91dGZpbGUubWFlPic=

> <r_epik_Ionization_Penalty>
6.22415

> <r_epik_Ionization_Penalty_Charging>
6.22415

> <r_epik_Ionization_Penalty_Neutral>
4.02797e-07

> <r_epik_State_Penalty>
6.37716

> <r_epik_Charging_Adjusted_Penalty>
12.6013

> <i_epik_Tot_Q>
1

> <i_epik_Tot_abs_Q>
3

> <r_epik_Metal_State_Penalty>
2.53509

> <b_epik_Metal_Only>
1

> <s_lp_Force_Field>
OPLS_2005

> <r_lp_Energy>
28.923

> <b_lp_Chiralities_Consistent>
1

> <s_lp_Variant>
AV-unprocessed.smi:1056-20

> <Gold.Version>
5.8.1

> <Gold.Id.Protein>
6NUR|6NUR_protein|mol2

> <Gold.PLP.Fitness>
57.4951

> <Gold.PLP.PLP>
-44.1130

> <Gold.PLP.part.hbond>
-4.0000

> <Gold.PLP.part.metal>
0.0000

> <Gold.PLP.part.buried>
-5.6629

> <Gold.PLP.part.nonpolar>
-35.4959

> <Gold.PLP.part.repulsive>
0.2261

> <Gold.PLP.ligand.clash>
0.0000

> <Gold.PLP.ligand.torsion>
0.8464

> <Gold.PLP.Chemscore.Hbond>
5.0000

> <Gold.PLP.Chemscore.CHOScore>
0.0000

> <Gold.PLP.Chemscore.Metal>
0.0000

> <Gold.Chemscore.Hbonds>
donor molecule, donor type, donor heavy atom, donor atom, acceptor molecule, acceptor atom, score
      L1  H     5    45       P1  8028  2.00
      L1  H    12    44       P1  7948  1.85
      P1  H  7989  7998       L1    10  1.00

> <Gold.PLP.Chemscore.Internal.Correction>
0.0748

> <Gold.Rescore>
     Score         DG    S(hbond)    S(metal)    S(lipo)     H(rot)  DE(clash)    DE(int)     intcor
     18.48     -20.52       2.51        0.00     108.72       2.37       0.37       1.68       ----

> <Gold.Chemscore.Fitness>
18.4780

> <Gold.Chemscore.DG>
-20.5244

> <Gold.Chemscore.ZeroCoef>
-5.4800

> <Gold.Chemscore.Hbond>
2.5142

> <Gold.Chemscore.Metal>
0.0000

> <Gold.Chemscore.Lipo>
108.7219

> <Gold.Chemscore.Internal_Hbond>
0.0000

> <Gold.Chemscore.DEClash>
0.3707

> <Gold.Chemscore.DEInternal>
1.6757

> <Gold.Chemscore.Rot>
2.3724

> <Gold.Chemscore.Internal.Correction>
   9.000000E+99

> <Gold.Chemscore.Hbonds>
donor molecule, donor type, donor heavy atom, donor atom, acceptor molecule, acceptor atom, score
      L1  H     5    45       P1  8028  0.97
      L1  H    12    44       P1  7948  0.27
      P1  H  7989  7998       L1    10  0.73

> <Gold.Chemscore.Hbond.Weighted>
-8.3974

> <Gold.Chemscore.Metal.Weighted>
-0.0000

> <Gold.Chemscore.Lipo.Weighted>
-12.7205

> <Gold.Chemscore.Internal_Hbond.Weighted>
0.0000

> <Gold.Chemscore.DEClash.Weighted>
0.3707

> <Gold.Chemscore.DEInternal.Weighted>
1.6757

> <Gold.Chemscore.Rot.Weighted>
6.0734

> <Gold.Chemscore.Internal.Correction.Weighted>
   9.000000E+99

> <Gold.Protein.RotatedTorsions>
[ 6907 6896 6895 6894 ] final -172.16 input  -60.11 | X-H torsion
[ 7974 7965 7964 7962 ] final -109.74 input  175.53 | X-H torsion
[ 8008 7997 7996 7995 ] final  -28.06 input   59.86 | X-H torsion
[ 10167 10162 10161 10158 ] final -134.30 input  -65.29 | X-H torsion
[ 10718 10713 10712 10709 ] final  -18.68 input   66.30 | X-H torsion
[ 10763 10752 10751 10750 ] final   49.52 input  -60.55 | X-H torsion
[ 11005 11000 10999 10996 ] final  -87.74 input  -57.11 | X-H torsion

> <Gold.Protein.ActiveResidues>
 VAL166  LYS551  ARG553  GLY616  TRP617  ASP618  TYR619  PRO620  LYS621  CYS622 
 ASP623  PHE694  ASN695  SER759  ASP760  ASP761  ALA762  ILE779  LEU786  VAL792 
 PHE793  MET794  SER795  GLU796  ALA797  LYS798  CYS799  TRP800  GLU811  SER814 

> <Gold.Protein.RotatedAtoms>
  151.5355  133.3442  159.2925 H   0  0  0  0  0  0  0  0  0  0  0  0  # atno 6907 bound_to 6896
  150.8568  134.7911  159.7062 H   0  0  0  0  0  0  0  0  0  0  0  0  # atno 6908 bound_to 6896
  152.4599  134.5217  159.9836 H   0  0  0  0  0  0  0  0  0  0  0  0  # atno 6909 bound_to 6896
  145.1768  140.8952  143.3503 H   0  0  0  0  0  0  0  0  0  0  0  0  # atno 7974 bound_to 7965
  154.4349  140.1855  156.1030 H   0  0  0  0  0  0  0  0  0  0  0  0  # atno 8008 bound_to 7997
  156.0277  140.3334  155.7080 H   0  0  0  0  0  0  0  0  0  0  0  0  # atno 8009 bound_to 7997
  155.5884  140.0628  157.2756 H   0  0  0  0  0  0  0  0  0  0  0  0  # atno 8010 bound_to 7997
  139.8894  143.6741  152.2614 H   0  0  0  0  0  0  0  0  0  0  0  0  # atno 10167 bound_to 10162
  156.5562  130.4714  149.6428 H   0  0  0  0  0  0  0  0  0  0  0  0  # atno 10718 bound_to 10713
  152.9786  135.5909  154.4103 H   0  0  0  0  0  0  0  0  0  0  0  0  # atno 10763 bound_to 10752
  154.3739  135.2767  155.2252 H   0  0  0  0  0  0  0  0  0  0  0  0  # atno 10764 bound_to 10752
  154.4195  135.6062  153.6056 H   0  0  0  0  0  0  0  0  0  0  0  0  # atno 10765 bound_to 10752
  141.1612  133.7529  156.9351 H   0  0  0  0  0  0  0  0  0  0  0  0  # atno 11005 bound_to 11000
  145.0177  139.3452  143.6088 LP  0  0  0  0  0  0  0  0  0  0  0  0  # atno 17320 bound_to 7965
  146.3460  139.9465  142.8734 LP  0  0  0  0  0  0  0  0  0  0  0  0  # atno 17321 bound_to 7965
  139.7123  144.7618  151.1091 LP  0  0  0  0  0  0  0  0  0  0  0  0  # atno 17342 bound_to 10162
  140.7729  143.5314  150.9419 LP  0  0  0  0  0  0  0  0  0  0  0  0  # atno 17343 bound_to 10162
  156.2840  130.7087  151.1918 LP  0  0  0  0  0  0  0  0  0  0  0  0  # atno 17370 bound_to 10713
  157.7378  131.0548  150.5335 LP  0  0  0  0  0  0  0  0  0  0  0  0  # atno 17371 bound_to 10713
  140.1360  134.9325  157.2402 LP  0  0  0  0  0  0  0  0  0  0  0  0  # atno 17394 bound_to 11000
  140.2895  134.3257  155.7319 LP  0  0  0  0  0  0  0  0  0  0  0  0  # atno 17395 bound_to 11000

$$$$
