AV-unprocessed.smi:283|AV-procd|sdf|2137|dock9
  -GOLD-   2262021463D 1   1.00000     0.00000
 Structure written by MMmdl.
 48 51  0  0  0  0  0  0  0  0  1 V2000
  153.5902  139.5767  159.5505 C   0  0  0  0  0  0  0  0  0  0  0  0
  152.1273  139.9222  159.2427 C   0  0  2  0  0  0  0  0  0  0  0  0
  151.6518  139.1189  158.1175 N   0  0  0  0  0  0  0  0  0  0  0  0
  150.7667  138.1145  158.3064 C   0  0  0  0  0  0  0  0  0  0  0  0
  150.3554  137.7644  159.5533 N   0  0  0  0  0  0  0  0  0  0  0  0
  149.4812  136.7669  159.7135 C   0  0  0  0  0  0  0  0  0  0  0  0
  148.9060  136.0036  158.7812 N   0  0  0  0  0  0  0  0  0  0  0  0
  149.3181  136.3502  157.5271 C   0  0  0  0  0  0  0  0  0  0  0  0
  150.2421  137.3837  157.2094 C   0  0  0  0  0  0  0  0  0  0  0  0
  150.4265  137.4419  155.8352 N   0  0  0  0  0  0  0  0  0  0  0  0
  149.6585  136.4919  155.3733 C   0  0  0  0  0  0  0  0  0  0  0  0
  148.9403  135.7927  156.3239 N   0  0  0  0  0  0  0  0  0  0  0  0
  147.9954  134.6344  156.1666 C   0  0  2  0  0  0  0  0  0  0  0  0
  148.6544  133.6377  155.4549 O   0  0  0  0  0  0  0  0  0  0  0  0
  148.4707  133.8537  154.0630 C   0  0  1  0  0  0  0  0  0  0  0  0
  148.7015  132.5422  153.2970 C   0  0  0  0  0  0  0  0  0  0  0  0
  148.2268  132.6622  151.9732 O   0  0  0  0  0  0  0  0  0  0  0  0
  147.0219  134.3624  153.9802 C   0  0  2  0  0  0  0  0  0  0  0  0
  146.9047  135.3139  152.9404 O   0  0  0  0  0  0  0  0  0  0  0  0
  146.7540  135.0126  155.3421 C   0  0  1  0  0  0  0  0  0  0  0  0
  145.5785  134.4865  155.9236 O   0  0  0  0  0  0  0  0  0  0  0  0
  151.9619  141.4319  159.0527 C   0  0  0  0  0  0  0  0  0  0  0  0
  152.3901  142.3177  160.0689 C   0  0  0  0  0  0  0  0  0  0  0  0
  152.2478  143.7095  159.9155 C   0  0  0  0  0  0  0  0  0  0  0  0
  151.6690  144.2314  158.7449 C   0  0  0  0  0  0  0  0  0  0  0  0
  151.2293  143.3594  157.7320 C   0  0  0  0  0  0  0  0  0  0  0  0
  151.3691  141.9648  157.8803 C   0  0  0  0  0  0  0  0  0  0  0  0
  150.7995  140.9417  156.6081 Cl  0  0  0  0  0  0  0  0  0  0  0  0
  147.7693  134.3198  157.1861 H   0  0  0  0  0  0  0  0  0  0  0  0
  149.1642  134.6252  153.7235 H   0  0  0  0  0  0  0  0  0  0  0  0
  146.3342  133.5338  153.8019 H   0  0  0  0  0  0  0  0  0  0  0  0
  146.6434  136.0964  155.2890 H   0  0  0  0  0  0  0  0  0  0  0  0
  153.9383  140.1050  160.4386 H   0  0  0  0  0  0  0  0  0  0  0  0
  154.2463  139.8490  158.7230 H   0  0  0  0  0  0  0  0  0  0  0  0
  153.7113  138.5090  159.7356 H   0  0  0  0  0  0  0  0  0  0  0  0
  151.5374  139.6085  160.1032 H   0  0  0  0  0  0  0  0  0  0  0  0
  151.8961  139.4641  157.2005 H   0  0  0  0  0  0  0  0  0  0  0  0
  149.2029  136.5493  160.7342 H   0  0  0  0  0  0  0  0  0  0  0  0
  149.6020  136.2816  154.3160 H   0  0  0  0  0  0  0  0  0  0  0  0
  149.7548  132.2602  153.2995 H   0  0  0  0  0  0  0  0  0  0  0  0
  148.1477  131.7306  153.7696 H   0  0  0  0  0  0  0  0  0  0  0  0
  148.5446  131.9274  151.4712 H   0  0  0  0  0  0  0  0  0  0  0  0
  147.7456  135.7232  152.8084 H   0  0  0  0  0  0  0  0  0  0  0  0
  145.8161  134.0146  156.7072 H   0  0  0  0  0  0  0  0  0  0  0  0
  152.8330  141.9327  160.9757 H   0  0  0  0  0  0  0  0  0  0  0  0
  152.5816  144.3760  160.6970 H   0  0  0  0  0  0  0  0  0  0  0  0
  151.5587  145.2991  158.6252 H   0  0  0  0  0  0  0  0  0  0  0  0
  150.7806  143.7636  156.8365 H   0  0  0  0  0  0  0  0  0  0  0  0
  1  2  1  0  0  0  0
  1 33  1  0  0  0  0
  1 34  1  0  0  0  0
  1 35  1  0  0  0  0
  2  3  1  0  0  0  0
  2 22  1  0  0  0  0
  2 36  1  0  0  0  0
  3  4  1  0  0  0  0
  3 37  1  0  0  0  0
  4  9  1  0  0  0  0
  4  5  2  0  0  0  0
  5  6  1  0  0  0  0
  6  7  2  0  0  0  0
  6 38  1  0  0  0  0
  7  8  1  0  0  0  0
  8 12  1  0  0  0  0
  8  9  2  0  0  0  0
  9 10  1  0  0  0  0
 10 11  2  0  0  0  0
 11 12  1  0  0  0  0
 11 39  1  0  0  0  0
 12 13  1  0  0  0  0
 13 29  1  0  0  0  0
 13 20  1  0  0  0  0
 13 14  1  0  0  0  0
 14 15  1  0  0  0  0
 15 30  1  0  0  0  0
 15 16  1  0  0  0  0
 15 18  1  0  0  0  0
 16 17  1  0  0  0  0
 16 40  1  0  0  0  0
 16 41  1  0  0  0  0
 17 42  1  0  0  0  0
 18 31  1  0  0  0  0
 18 19  1  0  0  0  0
 18 20  1  0  0  0  0
 19 43  1  0  0  0  0
 20 32  1  0  0  0  0
 20 21  1  0  0  0  0
 21 44  1  0  0  0  0
 22 27  1  0  0  0  0
 22 23  2  0  0  0  0
 23 24  1  0  0  0  0
 23 45  1  0  0  0  0
 24 25  2  0  0  0  0
 24 46  1  0  0  0  0
 25 26  1  0  0  0  0
 25 47  1  0  0  0  0
 26 27  2  0  0  0  0
 26 48  1  0  0  0  0
 27 28  1  0  0  0  0
M  END
> <s_m_source_file>
AV-unprocessed.smi

> <i_m_source_file_index>
283

> <i_lp_mmshare_version>
43012

> <i_f3d_flags>
0

> <s_epik_input>
Q2xjMVtjSF1bY0hdW2NIXVtjSF1jMVtDQEhdKFtDSDNdKVtOSF1jKG5bY0hdbjIpYyhjMjMpbltjSF1uM1tDQEBIXTRPW0NASF0oW0NIMl1bT0hdKVtDQEBIXShbT0hdKVtDQEhdNFtPSF0=

> <s_epik_cmdline>
J2VwaWtfcHl0aG9uJywgJy1waCcsICc3LjAnLCAnLXRuJywgJzgnLCAnLW1hJywgJzIwMCcsICctbWV0YWxfYmluZGluZycsICctaW1hZScsICc8aW5maWxlLm1hZT4nLCAnLW9tYWUnLCAnPG91dGZpbGUubWFlPic=

> <r_lp_tautomer_probability>
1

> <r_epik_Ionization_Penalty>
0.000266407

> <r_epik_Ionization_Penalty_Charging>
0

> <r_epik_Ionization_Penalty_Neutral>
0.000266407

> <r_epik_State_Penalty>
-0

> <r_epik_Charging_Adjusted_Penalty>
0

> <i_epik_Tot_Q>
0

> <i_epik_Tot_abs_Q>
0

> <r_epik_Metal_State_Penalty>
-0

> <b_epik_Metal_Only>
0

> <s_epik_Chemistry_Notes>
This compound contains an acetal/aminal-like group ( X-CH(R)-Y where X, Y are N, S, or O) that may be acid/base labile, releasing an aldehyde.

> <s_lp_Force_Field>
OPLS_2005

> <r_lp_Energy>
39.6204

> <b_lp_Chiralities_Consistent>
1

> <s_lp_Variant>
AV-unprocessed.smi:283-13

> <Gold.Version>
5.8.1

> <Gold.Id.Protein>
6NUR|6NUR_protein|mol2

> <Gold.PLP.Fitness>
48.5562

> <Gold.PLP.PLP>
-39.8907

> <Gold.PLP.part.hbond>
-2.5674

> <Gold.PLP.part.metal>
0.0000

> <Gold.PLP.part.buried>
-6.3722

> <Gold.PLP.part.nonpolar>
-31.4867

> <Gold.PLP.part.repulsive>
0.1463

> <Gold.PLP.ligand.clash>
0.0000

> <Gold.PLP.ligand.torsion>
0.2136

> <Gold.PLP.Chemscore.Hbond>
2.0000

> <Gold.PLP.Chemscore.CHOScore>
1.0000

> <Gold.PLP.Chemscore.Metal>
0.0000

> <Gold.Chemscore.Hbonds>
donor molecule, donor type, donor heavy atom, donor atom, acceptor molecule, acceptor atom, score
      L1  H    17    42       P1 10747  1.00
      L1  H    19    43       P1  7948  1.00
      L1  C    11    39       P1  7948  1.00

> <Gold.PLP.Chemscore.Internal.Correction>
0.0927

> <Gold.Rescore>
     Score         DG    S(hbond)    S(metal)    S(lipo)     H(rot)  DE(clash)    DE(int)     intcor
     11.28     -13.27       1.99        0.00      99.44       4.10       0.06       1.93       ----

> <Gold.Chemscore.Fitness>
11.2806

> <Gold.Chemscore.DG>
-13.2691

> <Gold.Chemscore.ZeroCoef>
-5.4800

> <Gold.Chemscore.Hbond>
1.9888

> <Gold.Chemscore.Metal>
0.0000

> <Gold.Chemscore.Lipo>
99.4394

> <Gold.Chemscore.Internal_Hbond>
0.0000

> <Gold.Chemscore.DEClash>
0.0601

> <Gold.Chemscore.DEInternal>
1.9284

> <Gold.Chemscore.Rot>
4.0968

> <Gold.Chemscore.Internal.Correction>
   9.000000E+99

> <Gold.Chemscore.Hbonds>
donor molecule, donor type, donor heavy atom, donor atom, acceptor molecule, acceptor atom, score
      L1  H    17    42       P1 10747  1.00
      L1  H    19    43       P1  7948  0.94

> <Gold.Chemscore.Hbond.Weighted>
-6.6427

> <Gold.Chemscore.Metal.Weighted>
-0.0000

> <Gold.Chemscore.Lipo.Weighted>
-11.6344

> <Gold.Chemscore.Internal_Hbond.Weighted>
0.0000

> <Gold.Chemscore.DEClash.Weighted>
0.0601

> <Gold.Chemscore.DEInternal.Weighted>
1.9284

> <Gold.Chemscore.Rot.Weighted>
10.4879

> <Gold.Chemscore.Internal.Correction.Weighted>
   9.000000E+99

> <Gold.Protein.RotatedTorsions>
[ 6907 6896 6895 6894 ] final  -19.22 input  -60.11 | X-H torsion
[ 7974 7965 7964 7962 ] final -175.07 input  175.53 | X-H torsion
[ 8008 7997 7996 7995 ] final -126.97 input   59.86 | X-H torsion
[ 10167 10162 10161 10158 ] final  -45.41 input  -65.29 | X-H torsion
[ 10718 10713 10712 10709 ] final -178.24 input   66.30 | X-H torsion
[ 10763 10752 10751 10750 ] final  -36.51 input  -60.55 | X-H torsion
[ 11005 11000 10999 10996 ] final  -71.94 input  -57.11 | X-H torsion

> <Gold.Protein.ActiveResidues>
 VAL166  LYS551  ARG553  GLY616  TRP617  ASP618  TYR619  PRO620  LYS621  CYS622 
 ASP623  PHE694  ASN695  SER759  ASP760  ASP761  ALA762  ILE779  LEU786  VAL792 
 PHE793  MET794  SER795  GLU796  ALA797  LYS798  CYS799  TRP800  GLU811  SER814 

> <Gold.Protein.RotatedAtoms>
  151.2664  135.0670  159.9117 H   0  0  0  0  0  0  0  0  0  0  0  0  # atno 6907 bound_to 6896
  152.5358  134.0177  159.7977 H   0  0  0  0  0  0  0  0  0  0  0  0  # atno 6908 bound_to 6896
  151.0408  133.5658  159.2682 H   0  0  0  0  0  0  0  0  0  0  0  0  # atno 6909 bound_to 6896
  144.7129  140.1377  143.6394 H   0  0  0  0  0  0  0  0  0  0  0  0  # atno 7974 bound_to 7965
  155.2385  140.0428  157.2972 H   0  0  0  0  0  0  0  0  0  0  0  0  # atno 8008 bound_to 7997
  154.5843  140.2409  155.7979 H   0  0  0  0  0  0  0  0  0  0  0  0  # atno 8009 bound_to 7997
  156.2215  140.2968  155.9972 H   0  0  0  0  0  0  0  0  0  0  0  0  # atno 8010 bound_to 7997
  140.6859  143.2881  151.3635 H   0  0  0  0  0  0  0  0  0  0  0  0  # atno 10167 bound_to 10162
  156.8414  130.9687  151.3099 H   0  0  0  0  0  0  0  0  0  0  0  0  # atno 10718 bound_to 10713
  153.8810  135.6821  153.4767 H   0  0  0  0  0  0  0  0  0  0  0  0  # atno 10763 bound_to 10752
  153.1234  135.4730  154.9230 H   0  0  0  0  0  0  0  0  0  0  0  0  # atno 10764 bound_to 10752
  154.7669  135.3227  154.8221 H   0  0  0  0  0  0  0  0  0  0  0  0  # atno 10765 bound_to 10752
  141.1600  133.6832  156.6982 H   0  0  0  0  0  0  0  0  0  0  0  0  # atno 11005 bound_to 11000
  145.9230  139.2558  143.1370 LP  0  0  0  0  0  0  0  0  0  0  0  0  # atno 17320 bound_to 7965
  145.9601  140.8842  143.0215 LP  0  0  0  0  0  0  0  0  0  0  0  0  # atno 17321 bound_to 7965
  139.6217  144.0894  152.2397 LP  0  0  0  0  0  0  0  0  0  0  0  0  # atno 17342 bound_to 10162
  140.0340  144.6059  150.7464 LP  0  0  0  0  0  0  0  0  0  0  0  0  # atno 17343 bound_to 10162
  157.6353  130.8762  149.9349 LP  0  0  0  0  0  0  0  0  0  0  0  0  # atno 17370 bound_to 10713
  156.0879  130.3666  150.0452 LP  0  0  0  0  0  0  0  0  0  0  0  0  # atno 17371 bound_to 10713
  140.2979  134.8188  157.4072 LP  0  0  0  0  0  0  0  0  0  0  0  0  # atno 17394 bound_to 11000
  140.1288  134.5122  155.8122 LP  0  0  0  0  0  0  0  0  0  0  0  0  # atno 17395 bound_to 11000

$$$$
