AV-unprocessed.smi:1884|AV-procd|sdf|7649|dock3
  -GOLD-   22720 9373D 1   1.00000     0.00000
 Structure written by MMmdl.
 41 43  0  0  0  0  0  0  0  0  2 V2000
  149.3463  140.9991  155.2695 C   0  0  0  0  0  0  0  0  0  0  0  0
  150.1982  141.5906  156.3419 C   0  0  0  0  0  0  0  0  0  0  0  0
  150.2567  142.9082  156.6849 N   0  3  0  0  0  0  0  0  0  0  0  0
  151.1627  143.0838  157.7319 C   0  0  0  0  0  0  0  0  0  0  0  0
  151.5559  144.2317  158.4130 C   0  0  0  0  0  0  0  0  0  0  0  0
  152.5138  144.0644  159.4346 C   0  0  0  0  0  0  0  0  0  0  0  0
  153.0417  142.7944  159.7454 C   0  0  0  0  0  0  0  0  0  0  0  0
  152.6320  141.6372  159.0507 C   0  0  0  0  0  0  0  0  0  0  0  0
  151.6842  141.8108  158.0423 C   0  0  0  0  0  0  0  0  0  0  0  0
  151.0578  140.9204  157.1613 N   0  0  0  0  0  0  0  0  0  0  0  0
  151.3733  139.4847  157.2275 C   0  0  0  0  0  0  0  0  0  0  0  0
  151.6367  138.8650  155.8404 C   0  0  1  0  0  0  0  0  0  0  0  0
  152.7155  139.4951  155.1796 O   0  0  0  0  0  0  0  0  0  0  0  0
  151.8832  137.3480  155.8814 C   0  0  0  0  0  0  0  0  0  0  0  0
  150.8533  136.7059  156.6236 O   0  0  0  0  0  0  0  0  0  0  0  0
  150.5142  135.4130  156.2877 C   0  0  0  0  0  0  0  0  0  0  0  0
  150.7180  135.0257  154.9471 C   0  0  0  0  0  0  0  0  0  0  0  0
  150.4003  133.7234  154.5152 C   0  0  0  0  0  0  0  0  0  0  0  0
  149.8722  132.7879  155.4264 C   0  0  0  0  0  0  0  0  0  0  0  0
  149.5432  131.4430  154.9848 C   0  0  0  0  0  0  0  0  0  0  0  0
  149.2815  130.3722  154.6330 N   0  0  0  0  0  0  0  0  0  0  0  0
  149.6645  133.1623  156.7687 C   0  0  0  0  0  0  0  0  0  0  0  0
  149.9826  134.4655  157.1988 C   0  0  0  0  0  0  0  0  0  0  0  0
  148.7808  141.7769  154.7559 H   0  0  0  0  0  0  0  0  0  0  0  0
  148.6435  140.2847  155.6986 H   0  0  0  0  0  0  0  0  0  0  0  0
  149.9666  140.4813  154.5378 H   0  0  0  0  0  0  0  0  0  0  0  0
  151.1536  145.2058  158.1758 H   0  0  0  0  0  0  0  0  0  0  0  0
  152.8515  144.9276  159.9897 H   0  0  0  0  0  0  0  0  0  0  0  0
  153.7766  142.7051  160.5324 H   0  0  0  0  0  0  0  0  0  0  0  0
  153.0462  140.6700  159.2949 H   0  0  0  0  0  0  0  0  0  0  0  0
  152.2176  139.3362  157.9008 H   0  0  0  0  0  0  0  0  0  0  0  0
  150.5236  138.9884  157.6974 H   0  0  0  0  0  0  0  0  0  0  0  0
  150.7610  139.0384  155.2139 H   0  0  0  0  0  0  0  0  0  0  0  0
  152.3724  139.9929  154.4535 H   0  0  0  0  0  0  0  0  0  0  0  0
  151.8743  136.9666  154.8592 H   0  0  0  0  0  0  0  0  0  0  0  0
  152.8658  137.1352  156.3067 H   0  0  0  0  0  0  0  0  0  0  0  0
  151.1224  135.7359  154.2410 H   0  0  0  0  0  0  0  0  0  0  0  0
  150.5645  133.4493  153.4828 H   0  0  0  0  0  0  0  0  0  0  0  0
  149.2600  132.4531  157.4768 H   0  0  0  0  0  0  0  0  0  0  0  0
  149.8096  134.7126  158.2351 H   0  0  0  0  0  0  0  0  0  0  0  0
  149.7142  143.6337  156.2341 H   0  0  0  0  0  0  0  0  0  0  0  0
  1  2  1  0  0  0  0
  1 24  1  0  0  0  0
  1 25  1  0  0  0  0
  1 26  1  0  0  0  0
  2 10  1  0  0  0  0
  2  3  2  0  0  0  0
  3  4  1  0  0  0  0
  3 41  1  0  0  0  0
  4  9  2  0  0  0  0
  4  5  1  0  0  0  0
  5  6  2  0  0  0  0
  5 27  1  0  0  0  0
  6  7  1  0  0  0  0
  6 28  1  0  0  0  0
  7  8  2  0  0  0  0
  7 29  1  0  0  0  0
  8  9  1  0  0  0  0
  8 30  1  0  0  0  0
  9 10  1  0  0  0  0
 10 11  1  0  0  0  0
 11 12  1  0  0  0  0
 11 31  1  0  0  0  0
 11 32  1  0  0  0  0
 12 13  1  0  0  0  0
 12 14  1  0  0  0  0
 12 33  1  0  0  0  0
 13 34  1  0  0  0  0
 14 15  1  0  0  0  0
 14 35  1  0  0  0  0
 14 36  1  0  0  0  0
 15 16  1  0  0  0  0
 16 23  1  0  0  0  0
 16 17  2  0  0  0  0
 17 18  1  0  0  0  0
 17 37  1  0  0  0  0
 18 19  2  0  0  0  0
 18 38  1  0  0  0  0
 19 20  1  0  0  0  0
 19 22  1  0  0  0  0
 20 21  3  0  0  0  0
 22 23  2  0  0  0  0
 22 39  1  0  0  0  0
 23 40  1  0  0  0  0
M  CHG  1   3   1
M  END
> <s_m_source_file>
AV-unprocessed.smi

> <i_m_source_file_index>
1884

> <i_lp_mmshare_version>
43012

> <i_f3d_flags>
0

> <s_epik_input>
W2NIXTFbY0hdW2NIXVtjSF1jKGMxMiluKGMobjIpW0NIM10pW0NIMl1bQ0BIXShbT0hdKVtDSDJdT2MzW2NIXVtjSF1jKEMjTilbY0hdW2NIXTM=

> <s_epik_cmdline>
J2VwaWtfcHl0aG9uJywgJy1waCcsICc3LjAnLCAnLXRuJywgJzgnLCAnLW1hJywgJzIwMCcsICctbWV0YWxfYmluZGluZycsICctaW1hZScsICc8aW5maWxlLm1hZT4nLCAnLW9tYWUnLCAnPG91dGZpbGUubWFlPic=

> <r_epik_Ionization_Penalty>
1.04791

> <r_epik_Ionization_Penalty_Charging>
1.04791

> <r_epik_Ionization_Penalty_Neutral>
2.3993e-06

> <r_epik_State_Penalty>
1.10051

> <r_epik_Charging_Adjusted_Penalty>
2.14841

> <i_epik_Tot_Q>
1

> <i_epik_Tot_abs_Q>
1

> <r_epik_Metal_State_Penalty>
5.09283

> <b_epik_Metal_Only>
0

> <s_lp_Force_Field>
OPLS_2005

> <r_lp_Energy>
19.6719

> <b_lp_Chiralities_Consistent>
1

> <s_lp_Variant>
AV-unprocessed.smi:1884-4

> <Gold.Version>
5.8.1

> <Gold.Id.Protein>
6NUR|6NUR_protein|mol2

> <Gold.PLP.Fitness>
50.8933

> <Gold.PLP.PLP>
-43.3222

> <Gold.PLP.part.hbond>
-2.0000

> <Gold.PLP.part.metal>
0.0000

> <Gold.PLP.part.buried>
-6.3275

> <Gold.PLP.part.nonpolar>
-36.0568

> <Gold.PLP.part.repulsive>
0.1148

> <Gold.PLP.ligand.clash>
0.0000

> <Gold.PLP.ligand.torsion>
0.7462

> <Gold.PLP.Chemscore.Hbond>
3.0000

> <Gold.PLP.Chemscore.CHOScore>
0.0000

> <Gold.PLP.Chemscore.Metal>
0.0000

> <Gold.Chemscore.Hbonds>
donor molecule, donor type, donor heavy atom, donor atom, acceptor molecule, acceptor atom, score
      L1  H     3    41       P1  8028  1.76
      P1  H  7997  8008       L1    13  1.00

> <Gold.PLP.Chemscore.Internal.Correction>
0.0636

> <Gold.Rescore>
     Score         DG    S(hbond)    S(metal)    S(lipo)     H(rot)  DE(clash)    DE(int)     intcor
     18.98     -19.71       1.92        0.00     119.04       2.39       0.02       0.71       ----

> <Gold.Chemscore.Fitness>
18.9808

> <Gold.Chemscore.DG>
-19.7066

> <Gold.Chemscore.ZeroCoef>
-5.4800

> <Gold.Chemscore.Hbond>
1.9228

> <Gold.Chemscore.Metal>
0.0000

> <Gold.Chemscore.Lipo>
119.0364

> <Gold.Chemscore.Internal_Hbond>
0.0000

> <Gold.Chemscore.DEClash>
0.0207

> <Gold.Chemscore.DEInternal>
0.7051

> <Gold.Chemscore.Rot>
2.3917

> <Gold.Chemscore.Internal.Correction>
   9.000000E+99

> <Gold.Chemscore.Hbonds>
donor molecule, donor type, donor heavy atom, donor atom, acceptor molecule, acceptor atom, score
      L1  H     3    41       P1  8028  0.86
      P1  H  7997  8008       L1    13  0.90

> <Gold.Chemscore.Hbond.Weighted>
-6.4222

> <Gold.Chemscore.Metal.Weighted>
-0.0000

> <Gold.Chemscore.Lipo.Weighted>
-13.9273

> <Gold.Chemscore.Internal_Hbond.Weighted>
0.0000

> <Gold.Chemscore.DEClash.Weighted>
0.0207

> <Gold.Chemscore.DEInternal.Weighted>
0.7051

> <Gold.Chemscore.Rot.Weighted>
6.1229

> <Gold.Chemscore.Internal.Correction.Weighted>
   9.000000E+99

> <Gold.Protein.RotatedTorsions>
[ 6907 6896 6895 6894 ] final  165.54 input  -60.11 | X-H torsion
[ 7974 7965 7964 7962 ] final  -92.54 input  175.53 | X-H torsion
[ 8008 7997 7996 7995 ] final  -22.79 input   59.86 | X-H torsion
[ 10167 10162 10161 10158 ] final  -75.23 input  -65.29 | X-H torsion
[ 10718 10713 10712 10709 ] final   92.46 input   66.30 | X-H torsion
[ 10763 10752 10751 10750 ] final  -31.76 input  -60.55 | X-H torsion
[ 11005 11000 10999 10996 ] final   97.70 input  -57.11 | X-H torsion

> <Gold.Protein.ActiveResidues>
 VAL166  LYS551  ARG553  GLY616  TRP617  ASP618  TYR619  PRO620  LYS621  CYS622 
 ASP623  PHE694  ASN695  SER759  ASP760  ASP761  ALA762  ILE779  LEU786  VAL792 
 PHE793  MET794  SER795  GLU796  ALA797  LYS798  CYS799  TRP800  GLU811  SER814 

> <Gold.Protein.RotatedAtoms>
  151.8928  133.3520  159.3803 H   0  0  0  0  0  0  0  0  0  0  0  0  # atno 6907 bound_to 6896
  150.7099  134.4906  159.5523 H   0  0  0  0  0  0  0  0  0  0  0  0  # atno 6908 bound_to 6896
  152.2480  134.8162  160.0501 H   0  0  0  0  0  0  0  0  0  0  0  0  # atno 6909 bound_to 6896
  145.3985  140.9535  143.2300 H   0  0  0  0  0  0  0  0  0  0  0  0  # atno 7974 bound_to 7965
  154.4623  140.1998  156.0211 H   0  0  0  0  0  0  0  0  0  0  0  0  # atno 8008 bound_to 7997
  156.0863  140.3264  155.7730 H   0  0  0  0  0  0  0  0  0  0  0  0  # atno 8009 bound_to 7997
  155.5029  140.0555  157.2927 H   0  0  0  0  0  0  0  0  0  0  0  0  # atno 8010 bound_to 7997
  140.4960  143.2370  151.7830 H   0  0  0  0  0  0  0  0  0  0  0  0  # atno 10167 bound_to 10162
  157.6958  131.0444  150.3885 H   0  0  0  0  0  0  0  0  0  0  0  0  # atno 10718 bound_to 10713
  153.8026  135.6889  153.4853 H   0  0  0  0  0  0  0  0  0  0  0  0  # atno 10763 bound_to 10752
  153.1678  135.4554  154.9860 H   0  0  0  0  0  0  0  0  0  0  0  0  # atno 10764 bound_to 10752
  154.8000  135.3334  154.7514 H   0  0  0  0  0  0  0  0  0  0  0  0  # atno 10765 bound_to 10752
  139.8775  134.9013  156.4346 H   0  0  0  0  0  0  0  0  0  0  0  0  # atno 11005 bound_to 11000
  144.8390  139.5502  143.6909 LP  0  0  0  0  0  0  0  0  0  0  0  0  # atno 17320 bound_to 7965
  146.2763  139.6762  142.9260 LP  0  0  0  0  0  0  0  0  0  0  0  0  # atno 17321 bound_to 7965
  139.4861  144.4586  151.9568 LP  0  0  0  0  0  0  0  0  0  0  0  0  # atno 17342 bound_to 10162
  140.3674  144.2898  150.5924 LP  0  0  0  0  0  0  0  0  0  0  0  0  # atno 17343 bound_to 10162
  156.4291  130.3968  149.6772 LP  0  0  0  0  0  0  0  0  0  0  0  0  # atno 17370 bound_to 10713
  156.3996  130.7668  151.2675 LP  0  0  0  0  0  0  0  0  0  0  0  0  # atno 17371 bound_to 10713
  140.9042  133.7757  155.9716 LP  0  0  0  0  0  0  0  0  0  0  0  0  # atno 17394 bound_to 11000
  140.8617  134.2833  157.5231 LP  0  0  0  0  0  0  0  0  0  0  0  0  # atno 17395 bound_to 11000

$$$$
