AV-unprocessed.smi:1621|AV-procd|sdf|6493|dock7
  -GOLD-   22720 7153D 1   1.00000     0.00000
 Structure written by MMmdl.
 39 40  0  0  0  0  0  0  0  0  2 V2000
  146.5380  135.7696  154.2491 C   0  0  0  0  0  0  0  0  0  0  0  0
  147.2406  137.0358  153.9496 N   0  3  2  0  0  0  0  0  0  0  0  0
  148.0024  137.5477  155.1153 C   0  0  0  0  0  0  0  0  0  0  0  0
  148.8161  138.7977  154.7405 C   0  0  0  0  0  0  0  0  0  0  0  0
  147.9119  139.9023  154.1575 C   0  0  1  0  0  0  0  0  0  0  0  0
  148.7006  141.1607  153.7368 C   0  0  0  0  0  0  0  0  0  0  0  0
  149.1199  141.9708  154.8767 N   0  0  0  0  0  0  0  0  0  0  0  0
  150.1720  141.7063  155.6650 C   0  0  0  0  0  0  0  0  0  0  0  0
  150.9121  140.7376  155.4977 O   0  0  0  0  0  0  0  0  0  0  0  0
  150.2885  142.6248  156.6407 N   0  0  0  0  0  0  0  0  0  0  0  0
  151.2433  142.7103  157.6923 C   0  0  0  0  0  0  0  0  0  0  0  0
  151.5905  143.9990  158.1491 C   0  0  0  0  0  0  0  0  0  0  0  0
  152.5395  144.1230  159.1834 C   0  0  0  0  0  0  0  0  0  0  0  0
  153.1463  143.0665  159.7630 N   0  0  0  0  0  0  0  0  0  0  0  0
  152.8217  141.8342  159.3186 C   0  0  0  0  0  0  0  0  0  0  0  0
  151.8861  141.5992  158.2910 C   0  0  0  0  0  0  0  0  0  0  0  0
  147.1161  139.3241  152.9736 C   0  0  0  0  0  0  0  0  0  0  0  0
  146.3341  138.0648  153.3836 C   0  0  0  0  0  0  0  0  0  0  0  0
  145.7836  135.9142  155.0234 H   0  0  0  0  0  0  0  0  0  0  0  0
  147.2417  135.0113  154.5938 H   0  0  0  0  0  0  0  0  0  0  0  0
  146.0441  135.3827  153.3572 H   0  0  0  0  0  0  0  0  0  0  0  0
  147.3139  137.7781  155.9300 H   0  0  0  0  0  0  0  0  0  0  0  0
  148.6768  136.7716  155.4796 H   0  0  0  0  0  0  0  0  0  0  0  0
  149.3400  139.1612  155.6249 H   0  0  0  0  0  0  0  0  0  0  0  0
  149.5851  138.5280  154.0150 H   0  0  0  0  0  0  0  0  0  0  0  0
  147.1944  140.1932  154.9266 H   0  0  0  0  0  0  0  0  0  0  0  0
  149.5944  140.8730  153.1823 H   0  0  0  0  0  0  0  0  0  0  0  0
  148.1045  141.7717  153.0569 H   0  0  0  0  0  0  0  0  0  0  0  0
  148.5603  142.7845  155.0865 H   0  0  0  0  0  0  0  0  0  0  0  0
  149.5697  143.3329  156.6624 H   0  0  0  0  0  0  0  0  0  0  0  0
  151.1377  144.8811  157.7203 H   0  0  0  0  0  0  0  0  0  0  0  0
  152.8197  145.0982  159.5534 H   0  0  0  0  0  0  0  0  0  0  0  0
  153.3278  141.0072  159.7941 H   0  0  0  0  0  0  0  0  0  0  0  0
  151.6954  140.5827  157.9863 H   0  0  0  0  0  0  0  0  0  0  0  0
  146.4237  140.0730  152.5874 H   0  0  0  0  0  0  0  0  0  0  0  0
  147.7943  139.0809  152.1543 H   0  0  0  0  0  0  0  0  0  0  0  0
  145.8188  137.6578  152.5125 H   0  0  0  0  0  0  0  0  0  0  0  0
  145.5665  138.3205  154.1159 H   0  0  0  0  0  0  0  0  0  0  0  0
  147.9191  136.8241  153.2319 H   0  0  0  0  0  0  0  0  0  0  0  0
  1  2  1  0  0  0  0
  1 19  1  0  0  0  0
  1 20  1  0  0  0  0
  1 21  1  0  0  0  0
  2 18  1  0  0  0  0
  2  3  1  0  0  0  0
  2 39  1  0  0  0  0
  3  4  1  0  0  0  0
  3 22  1  0  0  0  0
  3 23  1  0  0  0  0
  4  5  1  0  0  0  0
  4 24  1  0  0  0  0
  4 25  1  0  0  0  0
  5  6  1  0  0  0  0
  5 17  1  0  0  0  0
  5 26  1  0  0  0  0
  6  7  1  0  0  0  0
  6 27  1  0  0  0  0
  6 28  1  0  0  0  0
  7  8  1  0  0  0  0
  7 29  1  0  0  0  0
  8  9  2  0  0  0  0
  8 10  1  0  0  0  0
 10 11  1  0  0  0  0
 10 30  1  0  0  0  0
 11 16  1  0  0  0  0
 11 12  2  0  0  0  0
 12 13  1  0  0  0  0
 12 31  1  0  0  0  0
 13 14  2  0  0  0  0
 13 32  1  0  0  0  0
 14 15  1  0  0  0  0
 15 16  2  0  0  0  0
 15 33  1  0  0  0  0
 16 34  1  0  0  0  0
 17 18  1  0  0  0  0
 17 35  1  0  0  0  0
 17 36  1  0  0  0  0
 18 37  1  0  0  0  0
 18 38  1  0  0  0  0
M  CHG  1   2   1
M  END
> <s_m_source_file>
AV-unprocessed.smi

> <i_m_source_file_index>
1621

> <i_lp_mmshare_version>
43012

> <i_f3d_flags>
0

> <s_epik_input>
W0NIM11OMVtDSDJdW0NIMl1bQ0hdKFtDSDJdW0NIMl0xKVtDSDJdW05IXUMoPU8pW05IXWMyW2NIXVtjSF1uW2NIXVtjSF0y

> <s_epik_cmdline>
J2VwaWtfcHl0aG9uJywgJy1waCcsICc3LjAnLCAnLXRuJywgJzgnLCAnLW1hJywgJzIwMCcsICctbWV0YWxfYmluZGluZycsICctaW1hZScsICc8aW5maWxlLm1hZT4nLCAnLW9tYWUnLCAnPG91dGZpbGUubWFlPic=

> <r_epik_Ionization_Penalty>
0.107254

> <r_epik_Ionization_Penalty_Charging>
0.00106265

> <r_epik_Ionization_Penalty_Neutral>
0.106191

> <r_epik_State_Penalty>
0.0960133

> <r_epik_Charging_Adjusted_Penalty>
0.0970759

> <i_epik_Tot_Q>
1

> <i_epik_Tot_abs_Q>
1

> <r_epik_Metal_State_Penalty>
0.0813061

> <b_epik_Metal_Only>
0

> <s_lp_Force_Field>
OPLS_2005

> <r_lp_Energy>
22.3351

> <b_lp_Chiralities_Consistent>
1

> <s_lp_Variant>
AV-unprocessed.smi:1621-1

> <Gold.Version>
5.8.1

> <Gold.Id.Protein>
6NUR|6NUR_protein|mol2

> <Gold.PLP.Fitness>
44.3910

> <Gold.PLP.PLP>
-32.1989

> <Gold.PLP.part.hbond>
-4.0000

> <Gold.PLP.part.metal>
0.0000

> <Gold.PLP.part.buried>
-2.1115

> <Gold.PLP.part.nonpolar>
-25.6785

> <Gold.PLP.part.repulsive>
0.3267

> <Gold.PLP.ligand.clash>
0.0000

> <Gold.PLP.ligand.torsion>
0.4574

> <Gold.PLP.Chemscore.Hbond>
4.3680

> <Gold.PLP.Chemscore.CHOScore>
0.0000

> <Gold.PLP.Chemscore.Metal>
0.0000

> <Gold.Chemscore.Hbonds>
donor molecule, donor type, donor heavy atom, donor atom, acceptor molecule, acceptor atom, score
      L1  H     2    39       P1  7948  2.00
      L1  H     7    29       P1  8028  0.77
      L1  H    10    30       P1  8028  0.83
      P1  H  7989  7998       L1     9  0.65

> <Gold.PLP.Chemscore.Internal.Correction>
0.0030

> <Gold.Rescore>
     Score         DG    S(hbond)    S(metal)    S(lipo)     H(rot)  DE(clash)    DE(int)     intcor
     20.79     -22.48       3.10        0.00      84.13       1.25       0.12       1.57       ----

> <Gold.Chemscore.Fitness>
20.7873

> <Gold.Chemscore.DG>
-22.4765

> <Gold.Chemscore.ZeroCoef>
-5.4800

> <Gold.Chemscore.Hbond>
3.0984

> <Gold.Chemscore.Metal>
0.0000

> <Gold.Chemscore.Lipo>
84.1321

> <Gold.Chemscore.Internal_Hbond>
0.0000

> <Gold.Chemscore.DEClash>
0.1181

> <Gold.Chemscore.DEInternal>
1.5711

> <Gold.Chemscore.Rot>
1.2482

> <Gold.Chemscore.Internal.Correction>
   9.000000E+99

> <Gold.Chemscore.Hbonds>
donor molecule, donor type, donor heavy atom, donor atom, acceptor molecule, acceptor atom, score
      L1  H     2    39       P1  7948  1.00
      L1  H     7    29       P1  8028  0.71
      L1  H    10    30       P1  8028  0.83
      P1  H  7989  7998       L1     9  0.34

> <Gold.Chemscore.Hbond.Weighted>
-10.3485

> <Gold.Chemscore.Metal.Weighted>
-0.0000

> <Gold.Chemscore.Lipo.Weighted>
-9.8435

> <Gold.Chemscore.Internal_Hbond.Weighted>
0.0000

> <Gold.Chemscore.DEClash.Weighted>
0.1181

> <Gold.Chemscore.DEInternal.Weighted>
1.5711

> <Gold.Chemscore.Rot.Weighted>
3.1954

> <Gold.Chemscore.Internal.Correction.Weighted>
   9.000000E+99

> <Gold.Protein.RotatedTorsions>
[ 6907 6896 6895 6894 ] final -163.16 input  -60.11 | X-H torsion
[ 7974 7965 7964 7962 ] final  -85.73 input  175.53 | X-H torsion
[ 8008 7997 7996 7995 ] final  109.17 input   59.86 | X-H torsion
[ 10167 10162 10161 10158 ] final  125.45 input  -65.29 | X-H torsion
[ 10718 10713 10712 10709 ] final   64.16 input   66.30 | X-H torsion
[ 10763 10752 10751 10750 ] final  176.46 input  -60.55 | X-H torsion
[ 11005 11000 10999 10996 ] final  -20.70 input  -57.11 | X-H torsion

> <Gold.Protein.ActiveResidues>
 VAL166  LYS551  ARG553  GLY616  TRP617  ASP618  TYR619  PRO620  LYS621  CYS622 
 ASP623  PHE694  ASN695  SER759  ASP760  ASP761  ALA762  ILE779  LEU786  VAL792 
 PHE793  MET794  SER795  GLU796  ALA797  LYS798  CYS799  TRP800  GLU811  SER814 

> <Gold.Protein.RotatedAtoms>
  151.3917  133.3787  159.2721 H   0  0  0  0  0  0  0  0  0  0  0  0  # atno 6907 bound_to 6896
  150.9500  134.8902  159.7676 H   0  0  0  0  0  0  0  0  0  0  0  0  # atno 6908 bound_to 6896
  152.5108  134.3872  159.9423 H   0  0  0  0  0  0  0  0  0  0  0  0  # atno 6909 bound_to 6896
  145.4893  140.9553  143.1821 H   0  0  0  0  0  0  0  0  0  0  0  0  # atno 7974 bound_to 7965
  156.1959  140.3062  155.9426 H   0  0  0  0  0  0  0  0  0  0  0  0  # atno 8008 bound_to 7997
  155.3067  140.0449  157.3049 H   0  0  0  0  0  0  0  0  0  0  0  0  # atno 8009 bound_to 7997
  154.5509  140.2291  155.8496 H   0  0  0  0  0  0  0  0  0  0  0  0  # atno 8010 bound_to 7997
  139.5685  144.6925  151.3844 H   0  0  0  0  0  0  0  0  0  0  0  0  # atno 10167 bound_to 10162
  157.6021  130.9145  149.9809 H   0  0  0  0  0  0  0  0  0  0  0  0  # atno 10718 bound_to 10713
  154.4814  135.2775  155.1567 H   0  0  0  0  0  0  0  0  0  0  0  0  # atno 10763 bound_to 10752
  154.3276  135.6197  153.5540 H   0  0  0  0  0  0  0  0  0  0  0  0  # atno 10764 bound_to 10752
  152.9876  135.5757  154.5216 H   0  0  0  0  0  0  0  0  0  0  0  0  # atno 10765 bound_to 10752
  140.8489  133.7871  155.9944 H   0  0  0  0  0  0  0  0  0  0  0  0  # atno 11005 bound_to 11000
  144.7843  139.6459  143.7141 LP  0  0  0  0  0  0  0  0  0  0  0  0  # atno 17320 bound_to 7965
  146.2294  139.5784  142.9565 LP  0  0  0  0  0  0  0  0  0  0  0  0  # atno 17321 bound_to 7965
  140.6969  143.7727  150.7341 LP  0  0  0  0  0  0  0  0  0  0  0  0  # atno 17342 bound_to 10162
  140.1226  143.4598  152.2304 LP  0  0  0  0  0  0  0  0  0  0  0  0  # atno 17343 bound_to 10162
  156.1096  130.3650  150.0072 LP  0  0  0  0  0  0  0  0  0  0  0  0  # atno 17370 bound_to 10713
  156.8172  130.9346  151.3642 LP  0  0  0  0  0  0  0  0  0  0  0  0  # atno 17371 bound_to 10713
  140.8812  134.2609  157.5143 LP  0  0  0  0  0  0  0  0  0  0  0  0  # atno 17394 bound_to 11000
  139.8704  134.9616  156.4401 LP  0  0  0  0  0  0  0  0  0  0  0  0  # atno 17395 bound_to 11000

$$$$
