AV-unprocessed.smi:212|AV-procd|sdf|1621|dock6
  -GOLD-   2262019553D 1   1.00000     0.00000
 Structure written by MMmdl.
 65 68  0  0  0  0  0  0  0  0  2 V2000
  147.3955  135.6332  154.9250 C   0  0  0  0  0  0  0  0  0  0  0  0
  145.9668  135.7281  154.3546 C   0  0  2  0  0  0  0  0  0  0  0  0
  145.9008  135.3260  152.8671 C   0  0  0  0  0  0  0  0  0  0  0  0
  144.5007  135.3541  152.3722 N   0  3  2  0  0  0  0  0  0  0  0  0
  144.3610  134.8551  150.9782 C   0  0  0  0  0  0  0  0  0  0  0  0
  144.7440  133.3630  150.8398 C   0  0  0  0  0  0  0  0  0  0  0  0
  144.1188  132.7720  149.5648 C   0  0  0  0  0  0  0  0  0  0  0  0
  146.2693  133.1501  150.8325 C   0  0  0  0  0  0  0  0  0  0  0  0
  144.1981  132.6413  151.9266 O   0  0  0  0  0  0  0  0  0  0  0  0
  143.8512  136.6725  152.5912 C   0  0  0  0  0  0  0  0  0  0  0  0
  143.9530  137.1149  154.0656 C   0  0  0  0  0  0  0  0  0  0  0  0
  145.3188  137.0252  154.5779 N   0  0  0  0  0  0  0  0  0  0  0  0
  146.0716  138.1403  154.4195 C   0  0  0  0  0  0  0  0  0  0  0  0
  146.2708  138.6628  153.1819 N   0  0  0  0  0  0  0  0  0  0  0  0
  147.0251  139.7558  153.0323 C   0  0  0  0  0  0  0  0  0  0  0  0
  147.6624  140.4633  153.9671 N   0  0  0  0  0  0  0  0  0  0  0  0
  147.4700  139.9367  155.2100 C   0  0  0  0  0  0  0  0  0  0  0  0
  146.6885  138.7895  155.5212 C   0  0  0  0  0  0  0  0  0  0  0  0
  146.7083  138.5540  156.8888 N   0  0  0  0  0  0  0  0  0  0  0  0
  147.4605  139.5102  157.3613 C   0  0  0  0  0  0  0  0  0  0  0  0
  147.9768  140.3764  156.4218 N   0  0  0  0  0  0  0  0  0  0  0  0
  148.8449  141.5187  156.6770 C   0  0  0  0  0  0  0  0  0  0  0  0
  150.2558  141.1451  157.2055 C   0  0  1  0  0  0  0  0  0  0  0  0
  151.2244  140.8684  156.0304 C   0  0  0  0  0  0  0  0  0  0  0  0
  150.5747  140.2361  154.9476 O   0  0  0  0  0  0  0  0  0  0  0  0
  150.8031  142.2060  158.2008 C   0  0  2  0  0  0  0  0  0  0  0  0
  151.2199  143.5343  157.5925 C   0  0  0  0  0  0  0  0  0  0  0  0
  152.1059  144.1331  158.6801 C   0  0  0  0  0  0  0  0  0  0  0  0
  152.7012  143.0254  159.3464 O   0  0  0  0  0  0  0  0  0  0  0  0
  152.1209  141.8128  158.8791 C   0  0  0  0  0  0  0  0  0  0  0  0
  147.7842  134.6192  154.8284 H   0  0  0  0  0  0  0  0  0  0  0  0
  147.4141  135.8884  155.9851 H   0  0  0  0  0  0  0  0  0  0  0  0
  148.0876  136.2974  154.4061 H   0  0  0  0  0  0  0  0  0  0  0  0
  145.3685  135.0046  154.9104 H   0  0  0  0  0  0  0  0  0  0  0  0
  146.5186  135.9883  152.2586 H   0  0  0  0  0  0  0  0  0  0  0  0
  146.3025  134.3188  152.7475 H   0  0  0  0  0  0  0  0  0  0  0  0
  143.3454  135.0258  150.6165 H   0  0  0  0  0  0  0  0  0  0  0  0
  145.0030  135.4354  150.3131 H   0  0  0  0  0  0  0  0  0  0  0  0
  144.4935  133.2739  148.6720 H   0  0  0  0  0  0  0  0  0  0  0  0
  143.0328  132.8753  149.5681 H   0  0  0  0  0  0  0  0  0  0  0  0
  144.3468  131.7102  149.4631 H   0  0  0  0  0  0  0  0  0  0  0  0
  146.7384  133.6995  150.0154 H   0  0  0  0  0  0  0  0  0  0  0  0
  146.5218  132.0967  150.7062 H   0  0  0  0  0  0  0  0  0  0  0  0
  146.7317  133.4837  151.7620 H   0  0  0  0  0  0  0  0  0  0  0  0
  143.8735  133.2576  152.5662 H   0  0  0  0  0  0  0  0  0  0  0  0
  144.3143  137.4137  151.9393 H   0  0  0  0  0  0  0  0  0  0  0  0
  142.8016  136.6229  152.3015 H   0  0  0  0  0  0  0  0  0  0  0  0
  143.5688  138.1295  154.1825 H   0  0  0  0  0  0  0  0  0  0  0  0
  143.3208  136.4756  154.6827 H   0  0  0  0  0  0  0  0  0  0  0  0
  147.1360  140.1140  152.0195 H   0  0  0  0  0  0  0  0  0  0  0  0
  147.6647  139.6056  158.4177 H   0  0  0  0  0  0  0  0  0  0  0  0
  148.9152  142.1131  155.7659 H   0  0  0  0  0  0  0  0  0  0  0  0
  148.3439  142.1591  157.4040 H   0  0  0  0  0  0  0  0  0  0  0  0
  150.1343  140.2085  157.7522 H   0  0  0  0  0  0  0  0  0  0  0  0
  151.6288  141.8044  155.6449 H   0  0  0  0  0  0  0  0  0  0  0  0
  152.0713  140.2621  156.3537 H   0  0  0  0  0  0  0  0  0  0  0  0
  149.6452  140.2257  155.1185 H   0  0  0  0  0  0  0  0  0  0  0  0
  150.0559  142.4114  158.9684 H   0  0  0  0  0  0  0  0  0  0  0  0
  151.8046  143.3712  156.6858 H   0  0  0  0  0  0  0  0  0  0  0  0
  150.3763  144.1792  157.3453 H   0  0  0  0  0  0  0  0  0  0  0  0
  152.8598  144.8093  158.2761 H   0  0  0  0  0  0  0  0  0  0  0  0
  151.5035  144.6876  159.4006 H   0  0  0  0  0  0  0  0  0  0  0  0
  151.9916  141.1061  159.6974 H   0  0  0  0  0  0  0  0  0  0  0  0
  152.8051  141.3631  158.1580 H   0  0  0  0  0  0  0  0  0  0  0  0
  143.9970  134.6951  152.9485 H   0  0  0  0  0  0  0  0  0  0  0  0
  1  2  1  0  0  0  0
  1 31  1  0  0  0  0
  1 32  1  0  0  0  0
  1 33  1  0  0  0  0
  2 12  1  0  0  0  0
  2  3  1  0  0  0  0
  2 34  1  0  0  0  0
  3  4  1  0  0  0  0
  3 35  1  0  0  0  0
  3 36  1  0  0  0  0
  4  5  1  0  0  0  0
  4 10  1  0  0  0  0
  4 65  1  0  0  0  0
  5  6  1  0  0  0  0
  5 37  1  0  0  0  0
  5 38  1  0  0  0  0
  6  7  1  0  0  0  0
  6  8  1  0  0  0  0
  6  9  1  0  0  0  0
  7 39  1  0  0  0  0
  7 40  1  0  0  0  0
  7 41  1  0  0  0  0
  8 42  1  0  0  0  0
  8 43  1  0  0  0  0
  8 44  1  0  0  0  0
  9 45  1  0  0  0  0
 10 11  1  0  0  0  0
 10 46  1  0  0  0  0
 10 47  1  0  0  0  0
 11 12  1  0  0  0  0
 11 48  1  0  0  0  0
 11 49  1  0  0  0  0
 12 13  1  0  0  0  0
 13 18  1  0  0  0  0
 13 14  2  0  0  0  0
 14 15  1  0  0  0  0
 15 16  2  0  0  0  0
 15 50  1  0  0  0  0
 16 17  1  0  0  0  0
 17 21  1  0  0  0  0
 17 18  2  0  0  0  0
 18 19  1  0  0  0  0
 19 20  2  0  0  0  0
 20 21  1  0  0  0  0
 20 51  1  0  0  0  0
 21 22  1  0  0  0  0
 22 23  1  0  0  0  0
 22 52  1  0  0  0  0
 22 53  1  0  0  0  0
 23 24  1  0  0  0  0
 23 26  1  0  0  0  0
 23 54  1  0  0  0  0
 24 25  1  0  0  0  0
 24 55  1  0  0  0  0
 24 56  1  0  0  0  0
 25 57  1  0  0  0  0
 26 30  1  0  0  0  0
 26 27  1  0  0  0  0
 26 58  1  0  0  0  0
 27 28  1  0  0  0  0
 27 59  1  0  0  0  0
 27 60  1  0  0  0  0
 28 29  1  0  0  0  0
 28 61  1  0  0  0  0
 28 62  1  0  0  0  0
 29 30  1  0  0  0  0
 30 63  1  0  0  0  0
 30 64  1  0  0  0  0
M  CHG  1   4   1
M  END
> <s_m_source_file>
AV-unprocessed.smi

> <i_m_source_file_index>
212

> <i_lp_mmshare_version>
43012

> <i_f3d_flags>
0

> <s_epik_input>
W0NIM11bQ0BASF0xW0NIMl1OKFtDSDJdQyhbQ0gzXSkoW0NIM10pW09IXSlbQ0gyXVtDSDJdTjFjKG5bY0hdbjIpYyhjMjMpbltjSF1uM1tDSDJdW0NASF0oW0NIMl1bT0hdKVtDQEBIXTRbQ0gyXVtDSDJdT1tDSDJdNA==

> <s_epik_cmdline>
J2VwaWtfcHl0aG9uJywgJy1waCcsICc3LjAnLCAnLXRuJywgJzgnLCAnLW1hJywgJzIwMCcsICctbWV0YWxfYmluZGluZycsICctaW1hZScsICc8aW5maWxlLm1hZT4nLCAnLW9tYWUnLCAnPG91dGZpbGUubWFlPic=

> <r_lp_tautomer_probability>
1

> <r_epik_Ionization_Penalty>
0.00182193

> <r_epik_Ionization_Penalty_Charging>
0.00173996

> <r_epik_Ionization_Penalty_Neutral>
8.19718e-05

> <r_epik_State_Penalty>
-0

> <r_epik_Charging_Adjusted_Penalty>
0.00173996

> <i_epik_Tot_Q>
1

> <i_epik_Tot_abs_Q>
1

> <r_epik_Metal_State_Penalty>
-0

> <b_epik_Metal_Only>
0

> <s_lp_Force_Field>
OPLS_2005

> <r_lp_Energy>
60.0398

> <b_lp_Chiralities_Consistent>
1

> <s_lp_Variant>
AV-unprocessed.smi:212-5

> <Gold.Version>
5.8.1

> <Gold.Id.Protein>
6NUR|6NUR_protein|mol2

> <Gold.PLP.Fitness>
43.5579

> <Gold.PLP.PLP>
-39.9061

> <Gold.PLP.part.hbond>
-1.0000

> <Gold.PLP.part.metal>
0.0000

> <Gold.PLP.part.buried>
-6.5981

> <Gold.PLP.part.nonpolar>
-32.7531

> <Gold.PLP.part.repulsive>
0.4605

> <Gold.PLP.ligand.clash>
0.0000

> <Gold.PLP.ligand.torsion>
1.3074

> <Gold.PLP.Chemscore.Hbond>
1.0000

> <Gold.PLP.Chemscore.CHOScore>
0.7002

> <Gold.PLP.Chemscore.Metal>
0.0000

> <Gold.Chemscore.Hbonds>
donor molecule, donor type, donor heavy atom, donor atom, acceptor molecule, acceptor atom, score
      P1  H  7989  7998       L1    25  1.00
      L1  C    15    50       P1  7957  0.59

> <Gold.PLP.Chemscore.Internal.Correction>
1.1661

> <Gold.Rescore>
     Score         DG    S(hbond)    S(metal)    S(lipo)     H(rot)  DE(clash)    DE(int)     intcor
      8.79     -10.49       0.90        0.00      97.75       3.68       0.12       1.59       ----

> <Gold.Chemscore.Fitness>
8.7904

> <Gold.Chemscore.DG>
-10.4941

> <Gold.Chemscore.ZeroCoef>
-5.4800

> <Gold.Chemscore.Hbond>
0.8987

> <Gold.Chemscore.Metal>
0.0000

> <Gold.Chemscore.Lipo>
97.7470

> <Gold.Chemscore.Internal_Hbond>
0.0000

> <Gold.Chemscore.DEClash>
0.1186

> <Gold.Chemscore.DEInternal>
1.5851

> <Gold.Chemscore.Rot>
3.6812

> <Gold.Chemscore.Internal.Correction>
   9.000000E+99

> <Gold.Chemscore.Hbonds>
donor molecule, donor type, donor heavy atom, donor atom, acceptor molecule, acceptor atom, score
      P1  H  7989  7998       L1    25  0.25

> <Gold.Chemscore.Hbond.Weighted>
-3.0016

> <Gold.Chemscore.Metal.Weighted>
-0.0000

> <Gold.Chemscore.Lipo.Weighted>
-11.4364

> <Gold.Chemscore.Internal_Hbond.Weighted>
0.0000

> <Gold.Chemscore.DEClash.Weighted>
0.1186

> <Gold.Chemscore.DEInternal.Weighted>
1.5851

> <Gold.Chemscore.Rot.Weighted>
9.4239

> <Gold.Chemscore.Internal.Correction.Weighted>
   9.000000E+99

> <Gold.Protein.RotatedTorsions>
[ 6907 6896 6895 6894 ] final  -46.15 input  -60.11 | X-H torsion
[ 7974 7965 7964 7962 ] final   33.01 input  175.53 | X-H torsion
[ 8008 7997 7996 7995 ] final  147.47 input   59.86 | X-H torsion
[ 10167 10162 10161 10158 ] final -144.03 input  -65.29 | X-H torsion
[ 10718 10713 10712 10709 ] final   -9.25 input   66.30 | X-H torsion
[ 10763 10752 10751 10750 ] final  -18.22 input  -60.55 | X-H torsion
[ 11005 11000 10999 10996 ] final  146.59 input  -57.11 | X-H torsion

> <Gold.Protein.ActiveResidues>
 VAL166  LYS551  ARG553  GLY616  TRP617  ASP618  TYR619  PRO620  LYS621  CYS622 
 ASP623  PHE694  ASN695  SER759  ASP760  ASP761  ALA762  ILE779  LEU786  VAL792 
 PHE793  MET794  SER795  GLU796  ALA797  LYS798  CYS799  TRP800  GLU811  SER814 

> <Gold.Protein.RotatedAtoms>
  150.9143  134.8560  159.7445 H   0  0  0  0  0  0  0  0  0  0  0  0  # atno 6907 bound_to 6896
  152.4960  134.4313  159.9523 H   0  0  0  0  0  0  0  0  0  0  0  0  # atno 6908 bound_to 6896
  151.4352  133.3619  159.2809 H   0  0  0  0  0  0  0  0  0  0  0  0  # atno 6909 bound_to 6896
  146.1448  139.6451  142.9138 H   0  0  0  0  0  0  0  0  0  0  0  0  # atno 7974 bound_to 7965
  156.2823  140.2154  156.5544 H   0  0  0  0  0  0  0  0  0  0  0  0  # atno 8008 bound_to 7997
  154.7265  140.0499  157.0710 H   0  0  0  0  0  0  0  0  0  0  0  0  # atno 8009 bound_to 7997
  155.0410  140.3145  155.4728 H   0  0  0  0  0  0  0  0  0  0  0  0  # atno 8010 bound_to 7997
  139.7937  143.7930  152.2652 H   0  0  0  0  0  0  0  0  0  0  0  0  # atno 10167 bound_to 10162
  156.6908  130.5064  149.5944 H   0  0  0  0  0  0  0  0  0  0  0  0  # atno 10718 bound_to 10713
  153.5859  135.7004  153.5443 H   0  0  0  0  0  0  0  0  0  0  0  0  # atno 10763 bound_to 10752
  153.3220  135.4071  155.1424 H   0  0  0  0  0  0  0  0  0  0  0  0  # atno 10764 bound_to 10752
  154.8609  135.3698  154.5389 H   0  0  0  0  0  0  0  0  0  0  0  0  # atno 10765 bound_to 10752
  140.0806  134.9099  157.1494 H   0  0  0  0  0  0  0  0  0  0  0  0  # atno 11005 bound_to 11000
  145.4962  141.0438  143.2566 LP  0  0  0  0  0  0  0  0  0  0  0  0  # atno 17320 bound_to 7965
  144.7834  139.6477  143.7144 LP  0  0  0  0  0  0  0  0  0  0  0  0  # atno 17321 bound_to 7965
  139.8029  144.7367  150.9800 LP  0  0  0  0  0  0  0  0  0  0  0  0  # atno 17342 bound_to 10162
  140.7820  143.4327  151.0670 LP  0  0  0  0  0  0  0  0  0  0  0  0  # atno 17343 bound_to 10162
  156.1799  130.6492  151.0939 LP  0  0  0  0  0  0  0  0  0  0  0  0  # atno 17370 bound_to 10713
  157.7009  131.0776  150.6822 LP  0  0  0  0  0  0  0  0  0  0  0  0  # atno 17371 bound_to 10713
  140.3494  134.2616  155.7200 LP  0  0  0  0  0  0  0  0  0  0  0  0  # atno 17394 bound_to 11000
  141.2045  133.7884  157.0283 LP  0  0  0  0  0  0  0  0  0  0  0  0  # atno 17395 bound_to 11000

$$$$
