AV-unprocessed.smi:17|AV-procd|sdf|102|dock3
  -GOLD-   2262015253D 1   1.00000     0.00000
 Structure written by MMmdl.
 57 59  0  0  0  0  0  0  0  0  1 V2000
  147.3006  135.4611  161.9202 C   0  0  0  0  0  0  0  0  0  0  0  0
  147.0642  136.3209  160.6703 C   0  0  0  0  0  0  0  0  0  0  0  0
  147.9493  135.9519  159.5615 N   0  0  0  0  0  0  0  0  0  0  0  0
  148.8798  136.8545  159.1468 C   0  0  0  0  0  0  0  0  0  0  0  0
  150.1261  136.7797  159.6846 N   0  0  0  0  0  0  0  0  0  0  0  0
  151.0823  137.6327  159.3091 C   0  0  0  0  0  0  0  0  0  0  0  0
  151.0085  138.6320  158.4299 N   0  0  0  0  0  0  0  0  0  0  0  0
  149.7577  138.7293  157.8974 C   0  0  0  0  0  0  0  0  0  0  0  0
  148.6436  137.8919  158.1953 C   0  0  0  0  0  0  0  0  0  0  0  0
  147.5356  138.3185  157.4697 N   0  0  0  0  0  0  0  0  0  0  0  0
  147.9718  139.3328  156.7754 C   0  0  0  0  0  0  0  0  0  0  0  0
  149.2936  139.6532  156.9775 N   0  0  0  0  0  0  0  0  0  0  0  0
  150.0255  140.7374  156.3455 C   0  0  0  0  0  0  0  0  0  0  0  0
  149.9700  142.0587  157.1517 C   0  0  1  0  0  0  0  0  0  0  0  0
  148.8160  142.0804  158.1840 C   0  0  0  0  0  0  0  0  0  0  0  0
  148.4142  143.4019  158.4815 O   0  0  0  0  0  0  0  0  0  0  0  0
  151.3387  142.3952  157.7964 C   0  0  1  0  0  0  0  0  0  0  0  0
  151.4386  143.7865  158.3967 C   0  0  0  0  0  0  0  0  0  0  0  0
  152.6461  143.6482  159.3155 C   0  0  0  0  0  0  0  0  0  0  0  0
  152.5929  142.3153  159.8094 O   0  0  0  0  0  0  0  0  0  0  0  0
  151.7030  141.5373  159.0139 C   0  0  0  0  0  0  0  0  0  0  0  0
  147.7722  134.6906  158.8329 C   0  0  2  0  0  0  0  0  0  0  0  0
  147.9486  133.4782  159.7625 C   0  0  0  0  0  0  0  0  0  0  0  0
  148.6806  134.5874  157.5884 C   0  0  0  0  0  0  0  0  0  0  0  0
  149.0617  132.8410  157.1036 S   0  0  0  0  0  0  0  0  0  0  0  0
  150.0520  133.0534  155.5666 C   0  0  0  0  0  0  0  0  0  0  0  0
  149.9517  132.2716  158.1265 O   0  0  0  0  0  0  0  0  0  0  0  0
  147.8121  132.1482  156.7541 O   0  0  0  0  0  0  0  0  0  0  0  0
  146.6475  135.7772  162.7336 H   0  0  0  0  0  0  0  0  0  0  0  0
  148.3293  135.5436  162.2707 H   0  0  0  0  0  0  0  0  0  0  0  0
  147.0971  134.4080  161.7248 H   0  0  0  0  0  0  0  0  0  0  0  0
  146.0206  136.2532  160.3628 H   0  0  0  0  0  0  0  0  0  0  0  0
  147.2248  137.3659  160.9324 H   0  0  0  0  0  0  0  0  0  0  0  0
  152.0440  137.4950  159.7809 H   0  0  0  0  0  0  0  0  0  0  0  0
  147.3355  139.8850  156.0993 H   0  0  0  0  0  0  0  0  0  0  0  0
  151.0602  140.4253  156.1995 H   0  0  0  0  0  0  0  0  0  0  0  0
  149.6048  140.8772  155.3497 H   0  0  0  0  0  0  0  0  0  0  0  0
  149.7514  142.8524  156.4356 H   0  0  0  0  0  0  0  0  0  0  0  0
  147.9523  141.5301  157.8118 H   0  0  0  0  0  0  0  0  0  0  0  0
  149.1075  141.5859  159.1106 H   0  0  0  0  0  0  0  0  0  0  0  0
  148.8016  143.9850  157.8466 H   0  0  0  0  0  0  0  0  0  0  0  0
  152.1293  142.2905  157.0512 H   0  0  0  0  0  0  0  0  0  0  0  0
  151.5728  144.5708  157.6511 H   0  0  0  0  0  0  0  0  0  0  0  0
  150.5469  144.0171  158.9814 H   0  0  0  0  0  0  0  0  0  0  0  0
  153.5701  143.7729  158.7492 H   0  0  0  0  0  0  0  0  0  0  0  0
  152.6434  144.3776  160.1258 H   0  0  0  0  0  0  0  0  0  0  0  0
  150.8184  141.3168  159.6131 H   0  0  0  0  0  0  0  0  0  0  0  0
  152.1610  140.5895  158.7300 H   0  0  0  0  0  0  0  0  0  0  0  0
  146.7549  134.6383  158.4500 H   0  0  0  0  0  0  0  0  0  0  0  0
  147.7188  132.5492  159.2404 H   0  0  0  0  0  0  0  0  0  0  0  0
  147.2831  133.5418  160.6236 H   0  0  0  0  0  0  0  0  0  0  0  0
  148.9702  133.4023  160.1356 H   0  0  0  0  0  0  0  0  0  0  0  0
  148.2799  135.1165  156.7245 H   0  0  0  0  0  0  0  0  0  0  0  0
  149.6399  135.0523  157.8161 H   0  0  0  0  0  0  0  0  0  0  0  0
  150.4176  132.0806  155.2387 H   0  0  0  0  0  0  0  0  0  0  0  0
  150.9002  133.7084  155.7636 H   0  0  0  0  0  0  0  0  0  0  0  0
  149.4358  133.4811  154.7790 H   0  0  0  0  0  0  0  0  0  0  0  0
  1  2  1  0  0  0  0
  1 29  1  0  0  0  0
  1 30  1  0  0  0  0
  1 31  1  0  0  0  0
  2  3  1  0  0  0  0
  2 32  1  0  0  0  0
  2 33  1  0  0  0  0
  3  4  1  0  0  0  0
  3 22  1  0  0  0  0
  4  9  1  0  0  0  0
  4  5  2  0  0  0  0
  5  6  1  0  0  0  0
  6  7  2  0  0  0  0
  6 34  1  0  0  0  0
  7  8  1  0  0  0  0
  8 12  1  0  0  0  0
  8  9  2  0  0  0  0
  9 10  1  0  0  0  0
 10 11  2  0  0  0  0
 11 12  1  0  0  0  0
 11 35  1  0  0  0  0
 12 13  1  0  0  0  0
 13 14  1  0  0  0  0
 13 36  1  0  0  0  0
 13 37  1  0  0  0  0
 14 15  1  0  0  0  0
 14 17  1  0  0  0  0
 14 38  1  0  0  0  0
 15 16  1  0  0  0  0
 15 39  1  0  0  0  0
 15 40  1  0  0  0  0
 16 41  1  0  0  0  0
 17 21  1  0  0  0  0
 17 18  1  0  0  0  0
 17 42  1  0  0  0  0
 18 19  1  0  0  0  0
 18 43  1  0  0  0  0
 18 44  1  0  0  0  0
 19 20  1  0  0  0  0
 19 45  1  0  0  0  0
 19 46  1  0  0  0  0
 20 21  1  0  0  0  0
 21 47  1  0  0  0  0
 21 48  1  0  0  0  0
 22 23  1  0  0  0  0
 22 24  1  0  0  0  0
 22 49  1  0  0  0  0
 23 50  1  0  0  0  0
 23 51  1  0  0  0  0
 23 52  1  0  0  0  0
 24 25  1  0  0  0  0
 24 53  1  0  0  0  0
 24 54  1  0  0  0  0
 25 26  1  0  0  0  0
 25 27  2  0  0  0  0
 25 28  2  0  0  0  0
 26 55  1  0  0  0  0
 26 56  1  0  0  0  0
 26 57  1  0  0  0  0
M  END
> <s_m_source_file>
AV-unprocessed.smi

> <i_m_source_file_index>
17

> <i_lp_mmshare_version>
43012

> <i_f3d_flags>
0

> <s_epik_input>
W0NIM11TKD1PKSg9TylbQ0gyXVtDQEBIXShbQ0gzXSlOKFtDSDJdW0NIM10pYyhuW2NIXW4xKWMoYzEyKW5bY0hdbjJbQ0gyXVtDQEhdKFtDSDJdW09IXSlbQ0BASF0zW0NIMl1bQ0gyXU9bQ0gyXTM=

> <s_epik_cmdline>
J2VwaWtfcHl0aG9uJywgJy1waCcsICc3LjAnLCAnLXRuJywgJzgnLCAnLW1hJywgJzIwMCcsICctbWV0YWxfYmluZGluZycsICctaW1hZScsICc8aW5maWxlLm1hZT4nLCAnLW9tYWUnLCAnPG91dGZpbGUubWFlPic=

> <r_lp_tautomer_probability>
1

> <r_epik_Ionization_Penalty>
0.00119955

> <r_epik_Ionization_Penalty_Charging>
0

> <r_epik_Ionization_Penalty_Neutral>
0.00119955

> <r_epik_State_Penalty>
0.000665399

> <r_epik_Charging_Adjusted_Penalty>
0.000665399

> <i_epik_Tot_Q>
0

> <i_epik_Tot_abs_Q>
0

> <r_epik_Metal_State_Penalty>
-0

> <b_epik_Metal_Only>
0

> <s_lp_Force_Field>
OPLS_2005

> <r_lp_Energy>
33.4806

> <b_lp_Chiralities_Consistent>
1

> <s_lp_Variant>
AV-unprocessed.smi:17-4

> <Gold.Version>
5.8.1

> <Gold.Id.Protein>
6NUR|6NUR_protein|mol2

> <Gold.PLP.Fitness>
41.0707

> <Gold.PLP.PLP>
-39.7656

> <Gold.PLP.part.hbond>
-3.7612

> <Gold.PLP.part.metal>
0.0000

> <Gold.PLP.part.buried>
-6.1392

> <Gold.PLP.part.nonpolar>
-30.7926

> <Gold.PLP.part.repulsive>
0.0000

> <Gold.PLP.ligand.clash>
0.0000

> <Gold.PLP.ligand.torsion>
3.3440

> <Gold.PLP.Chemscore.Hbond>
2.1441

> <Gold.PLP.Chemscore.CHOScore>
0.0000

> <Gold.PLP.Chemscore.Metal>
0.0000

> <Gold.Chemscore.Hbonds>
donor molecule, donor type, donor heavy atom, donor atom, acceptor molecule, acceptor atom, score
      L1  H    16    41       P1  8028  0.11
      P1  H  6896  6908       L1    27  1.00
      P1  H  6896  6909       L1     5  1.00

> <Gold.PLP.Chemscore.Internal.Correction>
1.5606

> <Gold.Rescore>
     Score         DG    S(hbond)    S(metal)    S(lipo)     H(rot)  DE(clash)    DE(int)     intcor
      7.29     -12.94       1.93        0.00      85.50       3.51       0.05       5.60       ----

> <Gold.Chemscore.Fitness>
7.2884

> <Gold.Chemscore.DG>
-12.9396

> <Gold.Chemscore.ZeroCoef>
-5.4800

> <Gold.Chemscore.Hbond>
1.9256

> <Gold.Chemscore.Metal>
0.0000

> <Gold.Chemscore.Lipo>
85.4952

> <Gold.Chemscore.Internal_Hbond>
0.0000

> <Gold.Chemscore.DEClash>
0.0515

> <Gold.Chemscore.DEInternal>
5.5997

> <Gold.Chemscore.Rot>
3.5059

> <Gold.Chemscore.Internal.Correction>
   9.000000E+99

> <Gold.Chemscore.Hbonds>
donor molecule, donor type, donor heavy atom, donor atom, acceptor molecule, acceptor atom, score
      P1  H  6896  6908       L1    27  0.95
      P1  H  6896  6909       L1     5  0.39

> <Gold.Chemscore.Hbond.Weighted>
-6.4316

> <Gold.Chemscore.Metal.Weighted>
-0.0000

> <Gold.Chemscore.Lipo.Weighted>
-10.0029

> <Gold.Chemscore.Internal_Hbond.Weighted>
0.0000

> <Gold.Chemscore.DEClash.Weighted>
0.0515

> <Gold.Chemscore.DEInternal.Weighted>
5.5997

> <Gold.Chemscore.Rot.Weighted>
8.9750

> <Gold.Chemscore.Internal.Correction.Weighted>
   9.000000E+99

> <Gold.Protein.RotatedTorsions>
[ 6907 6896 6895 6894 ] final   90.41 input  -60.11 | X-H torsion
[ 7974 7965 7964 7962 ] final  177.20 input  175.53 | X-H torsion
[ 8008 7997 7996 7995 ] final   14.27 input   59.86 | X-H torsion
[ 10167 10162 10161 10158 ] final  127.89 input  -65.29 | X-H torsion
[ 10718 10713 10712 10709 ] final   64.03 input   66.30 | X-H torsion
[ 10763 10752 10751 10750 ] final   17.99 input  -60.55 | X-H torsion
[ 11005 11000 10999 10996 ] final -130.05 input  -57.11 | X-H torsion

> <Gold.Protein.ActiveResidues>
 VAL166  LYS551  ARG553  GLY616  TRP617  ASP618  TYR619  PRO620  LYS621  CYS622 
 ASP623  PHE694  ASN695  SER759  ASP760  ASP761  ALA762  ILE779  LEU786  VAL792 
 PHE793  MET794  SER795  GLU796  ALA797  LYS798  CYS799  TRP800  GLU811  SER814 

> <Gold.Protein.RotatedAtoms>
  152.5444  134.1816  159.8637 H   0  0  0  0  0  0  0  0  0  0  0  0  # atno 6907 bound_to 6896
  151.1818  133.4713  159.2601 H   0  0  0  0  0  0  0  0  0  0  0  0  # atno 6908 bound_to 6896
  151.1171  135.0070  159.8576 H   0  0  0  0  0  0  0  0  0  0  0  0  # atno 6909 bound_to 6896
  144.7172  140.0212  143.6440 H   0  0  0  0  0  0  0  0  0  0  0  0  # atno 7974 bound_to 7965
  154.8461  140.2922  155.5628 H   0  0  0  0  0  0  0  0  0  0  0  0  # atno 8008 bound_to 7997
  156.3014  140.2505  156.3344 H   0  0  0  0  0  0  0  0  0  0  0  0  # atno 8009 bound_to 7997
  154.9072  140.0389  157.1915 H   0  0  0  0  0  0  0  0  0  0  0  0  # atno 8010 bound_to 7997
  139.5555  144.6845  151.4195 H   0  0  0  0  0  0  0  0  0  0  0  0  # atno 10167 bound_to 10162
  157.6012  130.9138  149.9793 H   0  0  0  0  0  0  0  0  0  0  0  0  # atno 10718 bound_to 10713
  153.1289  135.6736  153.9211 H   0  0  0  0  0  0  0  0  0  0  0  0  # atno 10763 bound_to 10752
  153.8703  135.3070  155.3443 H   0  0  0  0  0  0  0  0  0  0  0  0  # atno 10764 bound_to 10752
  154.7690  135.4949  153.9691 H   0  0  0  0  0  0  0  0  0  0  0  0  # atno 10765 bound_to 10752
  140.9379  134.1232  157.4177 H   0  0  0  0  0  0  0  0  0  0  0  0  # atno 11005 bound_to 11000
  146.0179  139.3226  143.0830 LP  0  0  0  0  0  0  0  0  0  0  0  0  # atno 17320 bound_to 7965
  145.8603  140.9479  143.0703 LP  0  0  0  0  0  0  0  0  0  0  0  0  # atno 17321 bound_to 7965
  140.6827  143.8045  150.7143 LP  0  0  0  0  0  0  0  0  0  0  0  0  # atno 17342 bound_to 10162
  140.1504  143.4363  152.2135 LP  0  0  0  0  0  0  0  0  0  0  0  0  # atno 17343 bound_to 10162
  156.1086  130.3651  150.0089 LP  0  0  0  0  0  0  0  0  0  0  0  0  # atno 17370 bound_to 10713
  156.8192  130.9352  151.3642 LP  0  0  0  0  0  0  0  0  0  0  0  0  # atno 17371 bound_to 10713
  139.8812  135.0027  156.6142 LP  0  0  0  0  0  0  0  0  0  0  0  0  # atno 17394 bound_to 11000
  140.7774  133.8688  155.8540 LP  0  0  0  0  0  0  0  0  0  0  0  0  # atno 17395 bound_to 11000

$$$$
