AV-unprocessed.smi:1157|AV-procd|sdf|4909|dock1
  -GOLD-   22720 3483D 1   1.00000     0.00000
 Structure written by MMmdl.
 56 58  0  0  0  0  0  0  0  0  3 V2000
  149.1533  132.2999  153.7652 C   0  0  0  0  0  0  0  0  0  0  0  0
  148.8405  133.6641  154.4362 C   0  0  0  0  0  0  0  0  0  0  0  0
  148.3205  133.3824  155.8670 C   0  0  0  0  0  0  0  0  0  0  0  0
  150.1618  134.4901  154.5061 C   0  0  0  0  0  0  0  0  0  0  0  0
  149.9655  135.9389  154.4401 N   0  0  0  0  0  0  0  0  0  0  0  0
  150.4350  136.8288  155.3266 C   0  0  0  0  0  0  0  0  0  0  0  0
  151.0770  136.5152  156.3287 O   0  0  0  0  0  0  0  0  0  0  0  0
  150.0895  138.0831  154.9891 N   0  0  0  0  0  0  0  0  0  0  0  0
  150.4071  139.2941  155.6613 C   0  0  0  0  0  0  0  0  0  0  0  0
  150.1026  140.5826  155.1573 C   0  0  0  0  0  0  0  0  0  0  0  0
  150.4450  141.7234  155.9122 C   0  0  0  0  0  0  0  0  0  0  0  0
  151.0830  141.5720  157.1658 C   0  0  0  0  0  0  0  0  0  0  0  0
  151.4489  142.6664  157.9721 N   0  0  0  0  0  0  0  0  0  0  0  0
  152.2781  142.4975  159.1549 C   0  0  0  0  0  0  0  0  0  0  0  0
  152.5745  143.9210  159.6242 C   0  0  0  0  0  0  0  0  0  0  0  0
  152.6163  144.7144  158.3179 C   0  0  0  0  0  0  0  0  0  0  0  0
  151.6033  144.0024  157.4134 C   0  0  0  0  0  0  0  0  0  0  0  0
  151.3362  140.3193  157.6145 N   0  3  0  0  0  0  0  0  0  0  0  0
  151.0248  139.2007  156.9251 C   0  0  0  0  0  0  0  0  0  0  0  0
  147.8268  134.4377  153.6256 N   0  3  0  0  0  0  0  0  0  0  0  0
  146.9310  133.6308  152.7462 C   0  0  0  0  0  0  0  0  0  0  0  0
  146.0508  134.5407  151.8710 C   0  0  0  0  0  0  0  0  0  0  0  0
  145.3021  135.4285  152.6875 O   0  0  0  0  0  0  0  0  0  0  0  0
  146.1507  136.2762  153.4465 C   0  0  0  0  0  0  0  0  0  0  0  0
  147.0084  135.4215  154.3928 C   0  0  0  0  0  0  0  0  0  0  0  0
  149.9468  131.7595  154.2802 H   0  0  0  0  0  0  0  0  0  0  0  0
  149.4680  132.4272  152.7286 H   0  0  0  0  0  0  0  0  0  0  0  0
  148.2988  131.6237  153.7820 H   0  0  0  0  0  0  0  0  0  0  0  0
  149.0061  132.7380  156.4182 H   0  0  0  0  0  0  0  0  0  0  0  0
  147.3547  132.8776  155.8559 H   0  0  0  0  0  0  0  0  0  0  0  0
  148.2123  134.2957  156.4524 H   0  0  0  0  0  0  0  0  0  0  0  0
  150.7262  134.2138  155.3986 H   0  0  0  0  0  0  0  0  0  0  0  0
  150.8124  134.2624  153.6641 H   0  0  0  0  0  0  0  0  0  0  0  0
  149.4394  136.2878  153.6520 H   0  0  0  0  0  0  0  0  0  0  0  0
  149.4831  138.1779  154.1875 H   0  0  0  0  0  0  0  0  0  0  0  0
  149.5984  140.7204  154.2132 H   0  0  0  0  0  0  0  0  0  0  0  0
  150.2033  142.7014  155.5232 H   0  0  0  0  0  0  0  0  0  0  0  0
  151.7695  141.9168  159.9252 H   0  0  0  0  0  0  0  0  0  0  0  0
  153.2004  141.9821  158.8831 H   0  0  0  0  0  0  0  0  0  0  0  0
  151.7565  144.2829  160.2489 H   0  0  0  0  0  0  0  0  0  0  0  0
  153.4975  143.9951  160.2000 H   0  0  0  0  0  0  0  0  0  0  0  0
  152.3904  145.7723  158.4549 H   0  0  0  0  0  0  0  0  0  0  0  0
  153.6125  144.6396  157.8799 H   0  0  0  0  0  0  0  0  0  0  0  0
  151.9521  143.9817  156.3804 H   0  0  0  0  0  0  0  0  0  0  0  0
  150.6380  144.5089  157.4404 H   0  0  0  0  0  0  0  0  0  0  0  0
  151.2853  138.2680  157.4042 H   0  0  0  0  0  0  0  0  0  0  0  0
  147.4975  132.9987  152.0649 H   0  0  0  0  0  0  0  0  0  0  0  0
  146.3022  132.9766  153.3510 H   0  0  0  0  0  0  0  0  0  0  0  0
  146.6596  135.1057  151.1632 H   0  0  0  0  0  0  0  0  0  0  0  0
  145.3590  133.9380  151.2819 H   0  0  0  0  0  0  0  0  0  0  0  0
  146.7760  136.8807  152.7871 H   0  0  0  0  0  0  0  0  0  0  0  0
  145.5335  136.9671  154.0211 H   0  0  0  0  0  0  0  0  0  0  0  0
  146.3512  134.9018  155.0906 H   0  0  0  0  0  0  0  0  0  0  0  0
  147.6285  136.0952  154.9793 H   0  0  0  0  0  0  0  0  0  0  0  0
  148.3814  134.9898  152.9866 H   0  0  0  0  0  0  0  0  0  0  0  0
  151.7870  140.2141  158.5236 H   0  0  0  0  0  0  0  0  0  0  0  0
  1  2  1  0  0  0  0
  1 26  1  0  0  0  0
  1 27  1  0  0  0  0
  1 28  1  0  0  0  0
  2  3  1  0  0  0  0
  2  4  1  0  0  0  0
  2 20  1  0  0  0  0
  3 29  1  0  0  0  0
  3 30  1  0  0  0  0
  3 31  1  0  0  0  0
  4  5  1  0  0  0  0
  4 32  1  0  0  0  0
  4 33  1  0  0  0  0
  5  6  1  0  0  0  0
  5 34  1  0  0  0  0
  6  7  2  0  0  0  0
  6  8  1  0  0  0  0
  8  9  1  0  0  0  0
  8 35  1  0  0  0  0
  9 19  1  0  0  0  0
  9 10  2  0  0  0  0
 10 11  1  0  0  0  0
 10 36  1  0  0  0  0
 11 12  2  0  0  0  0
 11 37  1  0  0  0  0
 12 13  1  0  0  0  0
 12 18  1  0  0  0  0
 13 17  1  0  0  0  0
 13 14  1  0  0  0  0
 14 15  1  0  0  0  0
 14 38  1  0  0  0  0
 14 39  1  0  0  0  0
 15 16  1  0  0  0  0
 15 40  1  0  0  0  0
 15 41  1  0  0  0  0
 16 17  1  0  0  0  0
 16 42  1  0  0  0  0
 16 43  1  0  0  0  0
 17 44  1  0  0  0  0
 17 45  1  0  0  0  0
 18 19  2  0  0  0  0
 18 56  1  0  0  0  0
 19 46  1  0  0  0  0
 20 25  1  0  0  0  0
 20 21  1  0  0  0  0
 20 55  1  0  0  0  0
 21 22  1  0  0  0  0
 21 47  1  0  0  0  0
 21 48  1  0  0  0  0
 22 23  1  0  0  0  0
 22 49  1  0  0  0  0
 22 50  1  0  0  0  0
 23 24  1  0  0  0  0
 24 25  1  0  0  0  0
 24 51  1  0  0  0  0
 24 52  1  0  0  0  0
 25 53  1  0  0  0  0
 25 54  1  0  0  0  0
M  CHG  1  18   1
M  CHG  1  20   1
M  END
> <s_m_source_file>
AV-unprocessed.smi

> <i_m_source_file_index>
1157

> <i_lp_mmshare_version>
43012

> <i_f3d_flags>
0

> <s_epik_input>
W0NIMl0xW0NIMl1PW0NIMl1bQ0gyXU4xQyhbQ0gzXSkoW0NIM10pW0NIMl1bTkhdQyg9TylbTkhdYzJbY0hdW2NIXWMobltjSF0yKU4zW0NIMl1bQ0gyXVtDSDJdW0NIMl0z

> <s_epik_cmdline>
J2VwaWtfcHl0aG9uJywgJy1waCcsICc3LjAnLCAnLXRuJywgJzgnLCAnLW1hJywgJzIwMCcsICctbWV0YWxfYmluZGluZycsICctaW1hZScsICc8aW5maWxlLm1hZT4nLCAnLW9tYWUnLCAnPG91dGZpbGUubWFlPic=

> <r_lp_tautomer_probability>
0.999994

> <r_epik_Ionization_Penalty>
1.80144

> <r_epik_Ionization_Penalty_Charging>
1.80142

> <r_epik_Ionization_Penalty_Neutral>
2.04065e-05

> <r_epik_State_Penalty>
1.84115

> <r_epik_Charging_Adjusted_Penalty>
3.64257

> <i_epik_Tot_Q>
2

> <i_epik_Tot_abs_Q>
2

> <r_epik_Metal_State_Penalty>
1.92436

> <b_epik_Metal_Only>
0

> <s_lp_Force_Field>
OPLS_2005

> <r_lp_Energy>
58.4852

> <b_lp_Chiralities_Consistent>
1

> <s_lp_Variant>
AV-unprocessed.smi:1157-4

> <Gold.Version>
5.8.1

> <Gold.Id.Protein>
6NUR|6NUR_protein|mol2

> <Gold.PLP.Fitness>
48.9285

> <Gold.PLP.PLP>
-43.3655

> <Gold.PLP.part.hbond>
-2.5573

> <Gold.PLP.part.metal>
0.0000

> <Gold.PLP.part.buried>
-3.2282

> <Gold.PLP.part.nonpolar>
-37.1509

> <Gold.PLP.part.repulsive>
0.2362

> <Gold.PLP.ligand.clash>
0.0000

> <Gold.PLP.ligand.torsion>
1.9298

> <Gold.PLP.Chemscore.Hbond>
3.0000

> <Gold.PLP.Chemscore.CHOScore>
0.0000

> <Gold.PLP.Chemscore.Metal>
0.0000

> <Gold.Chemscore.Hbonds>
donor molecule, donor type, donor heavy atom, donor atom, acceptor molecule, acceptor atom, score
      L1  H     5    34       P1  7948  1.00
      L1  H    20    55       P1  7948  2.00

> <Gold.PLP.Chemscore.Internal.Correction>
0.4226

> <Gold.Rescore>
     Score         DG    S(hbond)    S(metal)    S(lipo)     H(rot)  DE(clash)    DE(int)     intcor
     15.92     -20.46       1.75        0.00     109.59       1.45       0.06       4.48       ----

> <Gold.Chemscore.Fitness>
15.9220

> <Gold.Chemscore.DG>
-20.4611

> <Gold.Chemscore.ZeroCoef>
-5.4800

> <Gold.Chemscore.Hbond>
1.7546

> <Gold.Chemscore.Metal>
0.0000

> <Gold.Chemscore.Lipo>
109.5881

> <Gold.Chemscore.Internal_Hbond>
0.0000

> <Gold.Chemscore.DEClash>
0.0622

> <Gold.Chemscore.DEInternal>
4.4768

> <Gold.Chemscore.Rot>
1.4458

> <Gold.Chemscore.Internal.Correction>
   9.000000E+99

> <Gold.Chemscore.Hbonds>
donor molecule, donor type, donor heavy atom, donor atom, acceptor molecule, acceptor atom, score
      L1  H     5    34       P1  7948  0.70
      L1  H    20    55       P1  7948  0.78

> <Gold.Chemscore.Hbond.Weighted>
-5.8605

> <Gold.Chemscore.Metal.Weighted>
-0.0000

> <Gold.Chemscore.Lipo.Weighted>
-12.8218

> <Gold.Chemscore.Internal_Hbond.Weighted>
0.0000

> <Gold.Chemscore.DEClash.Weighted>
0.0622

> <Gold.Chemscore.DEInternal.Weighted>
4.4768

> <Gold.Chemscore.Rot.Weighted>
3.7012

> <Gold.Chemscore.Internal.Correction.Weighted>
   9.000000E+99

> <Gold.Protein.RotatedTorsions>
[ 6907 6896 6895 6894 ] final  144.91 input  -60.11 | X-H torsion
[ 7974 7965 7964 7962 ] final  125.58 input  175.53 | X-H torsion
[ 8008 7997 7996 7995 ] final  -17.82 input   59.86 | X-H torsion
[ 10167 10162 10161 10158 ] final  -77.04 input  -65.29 | X-H torsion
[ 10718 10713 10712 10709 ] final  120.00 input   66.30 | X-H torsion
[ 10763 10752 10751 10750 ] final   92.56 input  -60.55 | X-H torsion
[ 11005 11000 10999 10996 ] final -122.01 input  -57.11 | X-H torsion

> <Gold.Protein.ActiveResidues>
 VAL166  LYS551  ARG553  GLY616  TRP617  ASP618  TYR619  PRO620  LYS621  CYS622 
 ASP623  PHE694  ASN695  SER759  ASP760  ASP761  ALA762  ILE779  LEU786  VAL792 
 PHE793  MET794  SER795  GLU796  ALA797  LYS798  CYS799  TRP800  GLU811  SER814 

> <Gold.Protein.RotatedAtoms>
  152.1876  133.4750  159.4990 H   0  0  0  0  0  0  0  0  0  0  0  0  # atno 6907 bound_to 6896
  150.6945  134.1753  159.4237 H   0  0  0  0  0  0  0  0  0  0  0  0  # atno 6908 bound_to 6896
  151.9667  135.0097  160.0601 H   0  0  0  0  0  0  0  0  0  0  0  0  # atno 6909 bound_to 6896
  145.0714  139.3727  143.4955 H   0  0  0  0  0  0  0  0  0  0  0  0  # atno 7974 bound_to 7965
  154.4950  140.2132  155.9466 H   0  0  0  0  0  0  0  0  0  0  0  0  # atno 8008 bound_to 7997
  156.1358  140.3188  155.8387 H   0  0  0  0  0  0  0  0  0  0  0  0  # atno 8009 bound_to 7997
  155.4212  140.0497  157.3016 H   0  0  0  0  0  0  0  0  0  0  0  0  # atno 8010 bound_to 7997
  140.4804  143.2403  151.8066 H   0  0  0  0  0  0  0  0  0  0  0  0  # atno 10167 bound_to 10162
  157.5922  131.1063  150.7974 H   0  0  0  0  0  0  0  0  0  0  0  0  # atno 10718 bound_to 10713
  153.2206  135.4357  155.0484 H   0  0  0  0  0  0  0  0  0  0  0  0  # atno 10763 bound_to 10752
  154.8248  135.3355  154.6933 H   0  0  0  0  0  0  0  0  0  0  0  0  # atno 10764 bound_to 10752
  153.7366  135.7007  153.5033 H   0  0  0  0  0  0  0  0  0  0  0  0  # atno 10765 bound_to 10752
  141.0028  134.0378  157.3516 H   0  0  0  0  0  0  0  0  0  0  0  0  # atno 11005 bound_to 11000
  146.3529  140.0461  142.8639 LP  0  0  0  0  0  0  0  0  0  0  0  0  # atno 17320 bound_to 7965
  145.1287  140.9505  143.4557 LP  0  0  0  0  0  0  0  0  0  0  0  0  # atno 17321 bound_to 7965
  139.4832  144.4779  151.9343 LP  0  0  0  0  0  0  0  0  0  0  0  0  # atno 17342 bound_to 10162
  140.3864  144.2671  150.5903 LP  0  0  0  0  0  0  0  0  0  0  0  0  # atno 17343 bound_to 10162
  156.8394  130.5043  149.5323 LP  0  0  0  0  0  0  0  0  0  0  0  0  # atno 17370 bound_to 10713
  156.0978  130.5946  150.9844 LP  0  0  0  0  0  0  0  0  0  0  0  0  # atno 17371 bound_to 10713
  139.9047  135.0176  156.7433 LP  0  0  0  0  0  0  0  0  0  0  0  0  # atno 17394 bound_to 11000
  140.6862  133.9431  155.7939 LP  0  0  0  0  0  0  0  0  0  0  0  0  # atno 17395 bound_to 11000

$$$$
