#       Name:                AV-unprocessed.smi:354
#       Creating user name   scv26
#       Creation time:       Thu Mar 26 22:33:52 2020


#       File generated by GOLD software.
#

@<TRIPOS>MOLECULE
AV-unprocessed.smi:354
    41    43     1
SMALL
NO_CHARGES


@<TRIPOS>ATOM
      1 ****        -0.9037   3.0351  -2.0478 O.3            1 S1                 0.0000
      2 ****        -1.3932   2.7144  -0.7636 C.3            1 S1                 0.0000
      3 ****        -1.9935   1.3434  -0.6998 C.2            1 S1                 0.0000
      4 ****        -3.3125   1.1494  -0.7322 N.2            1 S1                 0.0000
      5 ****        -3.4189  -0.2261  -0.6633 C.ar           1 S1                 0.0000
      6 ****        -4.5602  -1.0596  -0.6597 C.ar           1 S1                 0.0000
      7 ****        -4.4207  -2.4607  -0.5794 C.ar           1 S1                 0.0000
      8 ****        -3.1410  -3.0473  -0.5006 C.ar           1 S1                 0.0000
      9 ****        -1.9907  -2.2350  -0.5047 C.ar           1 S1                 0.0000
     10 ****        -2.1353  -0.8370  -0.5867 C.ar           1 S1                 0.0000
     11 ****        -1.2336   0.2227  -0.6140 N.pl3          1 S1                 0.0000
     12 ****         0.2189   0.1198  -0.5663 C.3            1 S1                 0.0000
     13 ****         0.7840   0.2216   0.8660 C.3            1 S1                 0.0000
     14 ****         0.2186  -0.7773   1.6929 O.3            1 S1                 0.0000
     15 ****         2.3063   0.1803   0.8686 C.ar           1 S1                 0.0000
     16 ****         3.0342   1.3607   1.1354 C.ar           1 S1                 0.0000
     17 ****         4.4424   1.3460   1.1329 C.ar           1 S1                 0.0000
     18 ****         5.1338   0.1506   0.8612 C.ar           1 S1                 0.0000
     19 ****         4.4156  -1.0297   0.5917 C.ar           1 S1                 0.0000
     20 ****         3.0070  -1.0182   0.5938 C.ar           1 S1                 0.0000
     21 ****         2.3355  -2.1640   0.3257 F              1 S1                 0.0000
     22 ****        -0.5621   3.9158  -2.0269 H              1 S1                 0.0000
     23 ****        -0.5864   2.8017  -0.0366 H              1 S1                 0.0000
     24 ****        -2.1472   3.4513  -0.4844 H              1 S1                 0.0000
     25 ****        -5.5445  -0.6197  -0.7190 H              1 S1                 0.0000
     26 ****        -5.2999  -3.0883  -0.5772 H              1 S1                 0.0000
     27 ****        -3.0424  -4.1211  -0.4365 H              1 S1                 0.0000
     28 ****        -1.0088  -2.6800  -0.4412 H              1 S1                 0.0000
     29 ****         0.5098  -0.8259  -1.0247 H              1 S1                 0.0000
     30 ****         0.6473   0.8994  -1.1965 H              1 S1                 0.0000
     31 ****         0.4717   1.1744   1.2941 H              1 S1                 0.0000
     32 ****         0.5021  -0.6275   2.5818 H              1 S1                 0.0000
     33 ****         2.5154   2.2854   1.3419 H              1 S1                 0.0000
     34 ****         4.9922   2.2529   1.3381 H              1 S1                 0.0000
     35 ****         6.2139   0.1388   0.8578 H              1 S1                 0.0000
     36 ****         4.9460  -1.9466   0.3808 H              1 S1                 0.0000
     37 ****        -1.6455   2.9767  -2.7159 LP             1 S1                 0.0000
     38 ****        -0.1764   2.3971  -2.3007 LP             1 S1                 0.0000
     39 ****        -4.0426   1.8301  -0.7916 LP             1 S1                 0.0000
     40 ****         0.5245  -1.6795   1.3889 LP             1 S1                 0.0000
     41 ****        -0.7791  -0.7299   1.6447 LP             1 S1                 0.0000
@<TRIPOS>BOND
    1    1    2 1     
    2    1   22 1     
    3    2    3 1     
    4    2   23 1     
    5    2   24 1     
    6    3   11 1     
    7    3    4 2     
    8    4    5 1     
    9    5   10 ar    
   10    5    6 ar    
   11    6    7 ar    
   12    6   25 1     
   13    7    8 ar    
   14    7   26 1     
   15    8    9 ar    
   16    8   27 1     
   17    9   10 ar    
   18    9   28 1     
   19   10   11 1     
   20   11   12 1     
   21   12   13 1     
   22   12   29 1     
   23   12   30 1     
   24   13   14 1     
   25   13   15 1     
   26   13   31 1     
   27   14   32 1     
   28   15   20 ar    
   29   15   16 ar    
   30   16   17 ar    
   31   16   33 1     
   32   17   18 ar    
   33   17   34 1     
   34   18   19 ar    
   35   18   35 1     
   36   19   20 ar    
   37   19   36 1     
   38   20   21 1     
   39    1   37 1     
   40    1   38 1     
   41    4   39 1     
   42   14   40 1     
   43   14   41 1     
@<TRIPOS>SUBSTRUCTURE
      1 S1             1
@<TRIPOS>SET
LONE_PAIRS      STATIC     ATOMS    <user>   **** ""
5 37 38 39 40 41
DONOR_HYDROGENS      STATIC     ATOMS    <user>   **** ""
2 22 32
ATOM$BLUE        STATIC     ATOMS    COLORGROUP SYSTEM
5 37 38 39 40 41
ATOM$RED        STATIC     ATOMS    COLORGROUP SYSTEM
2 22 32
