#       Name:                AV-unprocessed.smi:2847
#       Creating user name   scv26
#       Creation time:       Fri Mar 27 15:40:56 2020


#       File generated by GOLD software.
#

@<TRIPOS>MOLECULE
AV-unprocessed.smi:2847
    51    52     1
SMALL
NO_CHARGES


@<TRIPOS>ATOM
      1 ****        -5.5885   2.3890   0.6352 C.3            1 S1                 0.0000
      2 ****        -4.4707   2.7644  -0.3663 C.3            1 S1                 0.0000
      3 ****        -5.0116   2.6568  -1.8038 C.3            1 S1                 0.0000
      4 ****        -4.0998   4.2349  -0.0611 C.3            1 S1                 0.0000
      5 ****        -3.2498   1.8415  -0.2068 C.ar           1 S1                 0.0000
      6 ****        -3.4891   0.5620   0.1097 N.ar           1 S1                 0.0000
      7 ****        -2.4388  -0.2848   0.1315 C.ar           1 S1                 0.0000
      8 ****        -1.1335   0.1364  -0.1908 C.ar           1 S1                 0.0000
      9 ****        -0.0765  -0.8120  -0.1628 N.am           1 S1                 0.0000
     10 ****         1.2465  -0.5843  -0.1107 C.2            1 S1                 0.0000
     11 ****         1.7699   0.5276  -0.0521 O.2            1 S1                 0.0000
     12 ****         1.9296  -1.7406  -0.1139 N.am           1 S1                 0.0000
     13 ****         3.3831  -1.9515  -0.0683 C.3            1 S1                 0.0000
     14 ****         4.0522  -1.2899  -1.2968 C.3            1 S1                 0.0000
     15 ****         3.5911  -3.4908  -0.1426 C.3            1 S1                 0.0000
     16 ****         3.0828  -4.0461  -1.3412 O.3            1 S1                 0.0000
     17 ****         4.0084  -1.3440   1.2005 C.3            1 S1                 0.0000
     18 ****         5.3383  -1.7696   1.7801 C.3            1 S1                 0.0000
     19 ****         4.0546  -2.0383   2.5422 C.3            1 S1                 0.0000
     20 ****        -1.0004   1.4951  -0.5637 C.ar           1 S1                 0.0000
     21 ****        -2.0607   2.3311  -0.5822 N.ar           1 S1                 0.0000
     22 ****        -6.4354   3.0720   0.5591 H              1 S1                 0.0000
     23 ****        -5.2291   2.4270   1.6643 H              1 S1                 0.0000
     24 ****        -5.9777   1.3860   0.4568 H              1 S1                 0.0000
     25 ****        -5.3135   1.6354  -2.0380 H              1 S1                 0.0000
     26 ****        -4.2571   2.9518  -2.5341 H              1 S1                 0.0000
     27 ****        -5.8806   3.2990  -1.9507 H              1 S1                 0.0000
     28 ****        -4.9724   4.8857  -0.1273 H              1 S1                 0.0000
     29 ****        -3.3629   4.6257  -0.7637 H              1 S1                 0.0000
     30 ****        -3.6879   4.3408   0.9434 H              1 S1                 0.0000
     31 ****        -2.6453  -1.3090   0.4062 H              1 S1                 0.0000
     32 ****        -0.3624  -1.7798  -0.1336 H              1 S1                 0.0000
     33 ****         1.3804  -2.5859  -0.1687 H              1 S1                 0.0000
     34 ****         5.1074  -1.5579  -1.3588 H              1 S1                 0.0000
     35 ****         4.0041  -0.2018  -1.2513 H              1 S1                 0.0000
     36 ****         3.5809  -1.5938  -2.2321 H              1 S1                 0.0000
     37 ****         4.6474  -3.7518  -0.0985 H              1 S1                 0.0000
     38 ****         3.0994  -3.9978   0.6873 H              1 S1                 0.0000
     39 ****         3.2521  -4.9760  -1.3367 H              1 S1                 0.0000
     40 ****         3.8463  -0.2699   1.2609 H              1 S1                 0.0000
     41 ****         5.8563  -2.6246   1.3540 H              1 S1                 0.0000
     42 ****         5.9888  -0.9844   2.1599 H              1 S1                 0.0000
     43 ****         3.8574  -1.4298   3.4225 H              1 S1                 0.0000
     44 ****         3.7294  -3.0724   2.6191 H              1 S1                 0.0000
     45 ****        -0.0622   1.9266  -0.8760 H              1 S1                 0.0000
     46 ****        -4.4136   0.2455   0.3223 LP             1 S1                 0.0000
     47 ****         1.1994   1.3488  -0.0404 LP             1 S1                 0.0000
     48 ****         2.7658   0.6101  -0.0162 LP             1 S1                 0.0000
     49 ****         3.5358  -3.6247  -2.1268 LP             1 S1                 0.0000
     50 ****         2.0978  -3.8830  -1.3973 LP             1 S1                 0.0000
     51 ****        -1.9615   3.2845  -0.8669 LP             1 S1                 0.0000
@<TRIPOS>BOND
    1    1    2 1     
    2    1   22 1     
    3    1   23 1     
    4    1   24 1     
    5    2    3 1     
    6    2    4 1     
    7    2    5 1     
    8    3   25 1     
    9    3   26 1     
   10    3   27 1     
   11    4   28 1     
   12    4   29 1     
   13    4   30 1     
   14    5   21 ar    
   15    5    6 ar    
   16    6    7 ar    
   17    7    8 ar    
   18    7   31 1     
   19    8    9 1     
   20    8   20 ar    
   21    9   10 am    
   22    9   32 1     
   23   10   11 2     
   24   10   12 am    
   25   12   13 1     
   26   12   33 1     
   27   13   14 1     
   28   13   15 1     
   29   13   17 1     
   30   14   34 1     
   31   14   35 1     
   32   14   36 1     
   33   15   16 1     
   34   15   37 1     
   35   15   38 1     
   36   16   39 1     
   37   17   19 1     
   38   17   18 1     
   39   17   40 1     
   40   18   19 1     
   41   18   41 1     
   42   18   42 1     
   43   19   43 1     
   44   19   44 1     
   45   20   21 ar    
   46   20   45 1     
   47    6   46 1     
   48   11   47 1     
   49   11   48 1     
   50   16   49 1     
   51   16   50 1     
   52   21   51 1     
@<TRIPOS>SUBSTRUCTURE
      1 S1             1
@<TRIPOS>SET
LONE_PAIRS      STATIC     ATOMS    <user>   **** ""
6 46 47 48 49 50 51
DONOR_HYDROGENS      STATIC     ATOMS    <user>   **** ""
3 32 33 39
ATOM$BLUE        STATIC     ATOMS    COLORGROUP SYSTEM
6 46 47 48 49 50 51
ATOM$RED        STATIC     ATOMS    COLORGROUP SYSTEM
3 32 33 39
