AV-unprocessed.smi:113|AV-procd|sdf|1106|dock1
  -GOLD-   2262018223D 1   1.00000     0.00000
 Structure written by MMmdl.
 53 56  0  0  0  0  0  0  0  0  2 V2000
  149.3135  141.9078  154.5046 C   0  0  0  0  0  0  0  0  0  0  0  0
  150.1523  141.6574  155.7398 C   0  0  0  0  0  0  0  0  0  0  0  0
  150.6829  140.3883  156.0420 C   0  0  0  0  0  0  0  0  0  0  0  0
  151.4632  140.2080  157.2110 C   0  0  0  0  0  0  0  0  0  0  0  0
  152.0494  138.8379  157.5684 C   0  0  0  0  0  0  0  0  0  0  0  0
  151.1692  137.6868  157.4253 N   0  0  0  0  0  0  0  0  0  0  0  0
  151.5170  136.7010  156.4703 C   0  0  0  0  0  0  0  0  0  0  0  0
  152.5260  136.8102  155.7703 O   0  0  0  0  0  0  0  0  0  0  0  0
  150.5839  135.5763  156.3693 C   0  0  0  0  0  0  0  0  0  0  0  0
  150.8980  134.4726  155.3717 C   0  0  0  0  0  0  0  0  0  0  0  0
  149.4775  135.5467  157.1506 C   0  0  0  0  0  0  0  0  0  0  0  0
  149.1513  136.5359  158.0657 N   0  0  0  0  0  0  0  0  0  0  0  0
  147.8885  136.4757  158.9043 C   0  0  1  0  0  0  0  0  0  0  0  0
  147.0049  135.3100  158.4588 C   0  0  0  0  0  0  0  0  0  0  0  0
  147.5160  134.1898  159.3399 C   0  0  2  0  0  0  0  0  0  0  0  0
  146.5583  133.1588  159.4746 O   0  0  0  0  0  0  0  0  0  0  0  0
  147.8756  134.9213  160.6464 C   0  0  2  0  0  0  0  0  0  0  0  0
  146.7397  135.0426  161.6823 C   0  0  0  0  0  0  0  0  0  0  0  0
  146.2731  133.7660  162.0654 O   0  0  0  0  0  0  0  0  0  0  0  0
  148.2163  136.2516  160.2451 O   0  0  0  0  0  0  0  0  0  0  0  0
  150.0004  137.6512  158.2174 C   0  0  0  0  0  0  0  0  0  0  0  0
  149.7154  138.5638  158.9968 O   0  0  0  0  0  0  0  0  0  0  0  0
  151.6918  141.3338  158.0491 C   0  0  0  0  0  0  0  0  0  0  0  0
  152.4624  141.2480  159.2334 C   0  0  0  0  0  0  0  0  0  0  0  0
  152.6691  142.3867  160.0366 C   0  0  0  0  0  0  0  0  0  0  0  0
  152.1093  143.6248  159.6705 C   0  0  0  0  0  0  0  0  0  0  0  0
  151.3390  143.7277  158.4974 C   0  0  0  0  0  0  0  0  0  0  0  0
  151.1321  142.5903  157.6918 C   0  0  0  0  0  0  0  0  0  0  0  0
  150.3944  142.6955  156.5660 N   0  3  0  0  0  0  0  0  0  0  0  0
  148.9670  140.9692  154.0707 H   0  0  0  0  0  0  0  0  0  0  0  0
  149.8985  142.4368  153.7519 H   0  0  0  0  0  0  0  0  0  0  0  0
  148.4383  142.5106  154.7491 H   0  0  0  0  0  0  0  0  0  0  0  0
  150.4838  139.5669  155.3700 H   0  0  0  0  0  0  0  0  0  0  0  0
  152.9419  138.6434  156.9716 H   0  0  0  0  0  0  0  0  0  0  0  0
  152.4106  138.8404  158.5981 H   0  0  0  0  0  0  0  0  0  0  0  0
  150.1472  133.6820  155.3899 H   0  0  0  0  0  0  0  0  0  0  0  0
  151.8638  134.0186  155.5962 H   0  0  0  0  0  0  0  0  0  0  0  0
  150.9344  134.8737  154.3583 H   0  0  0  0  0  0  0  0  0  0  0  0
  148.8170  134.7010  157.0367 H   0  0  0  0  0  0  0  0  0  0  0  0
  147.4168  137.4546  158.8047 H   0  0  0  0  0  0  0  0  0  0  0  0
  145.9686  135.5550  158.6966 H   0  0  0  0  0  0  0  0  0  0  0  0
  147.0834  135.1084  157.3898 H   0  0  0  0  0  0  0  0  0  0  0  0
  148.4214  133.7697  158.9001 H   0  0  0  0  0  0  0  0  0  0  0  0
  146.5642  132.8585  160.3710 H   0  0  0  0  0  0  0  0  0  0  0  0
  148.7482  134.4651  161.1159 H   0  0  0  0  0  0  0  0  0  0  0  0
  147.1099  135.5349  162.5819 H   0  0  0  0  0  0  0  0  0  0  0  0
  145.9151  135.6479  161.3048 H   0  0  0  0  0  0  0  0  0  0  0  0
  146.8084  133.4523  162.7783 H   0  0  0  0  0  0  0  0  0  0  0  0
  152.9085  140.3161  159.5464 H   0  0  0  0  0  0  0  0  0  0  0  0
  153.2608  142.3091  160.9374 H   0  0  0  0  0  0  0  0  0  0  0  0
  152.2718  144.4952  160.2894 H   0  0  0  0  0  0  0  0  0  0  0  0
  150.9116  144.6810  158.2215 H   0  0  0  0  0  0  0  0  0  0  0  0
  150.0014  143.6058  156.3277 H   0  0  0  0  0  0  0  0  0  0  0  0
  1  2  1  0  0  0  0
  1 30  1  0  0  0  0
  1 31  1  0  0  0  0
  1 32  1  0  0  0  0
  2 29  1  0  0  0  0
  2  3  2  0  0  0  0
  3  4  1  0  0  0  0
  3 33  1  0  0  0  0
  4  5  1  0  0  0  0
  4 23  2  0  0  0  0
  5  6  1  0  0  0  0
  5 34  1  0  0  0  0
  5 35  1  0  0  0  0
  6 21  1  0  0  0  0
  6  7  1  0  0  0  0
  7  8  2  0  0  0  0
  7  9  1  0  0  0  0
  9 10  1  0  0  0  0
  9 11  2  0  0  0  0
 10 36  1  0  0  0  0
 10 37  1  0  0  0  0
 10 38  1  0  0  0  0
 11 12  1  0  0  0  0
 11 39  1  0  0  0  0
 12 13  1  0  0  0  0
 12 21  1  0  0  0  0
 13 20  1  0  0  0  0
 13 14  1  0  0  0  0
 13 40  1  0  0  0  0
 14 15  1  0  0  0  0
 14 41  1  0  0  0  0
 14 42  1  0  0  0  0
 15 16  1  0  0  0  0
 15 17  1  0  0  0  0
 15 43  1  0  0  0  0
 16 44  1  0  0  0  0
 17 18  1  0  0  0  0
 17 20  1  0  0  0  0
 17 45  1  0  0  0  0
 18 19  1  0  0  0  0
 18 46  1  0  0  0  0
 18 47  1  0  0  0  0
 19 48  1  0  0  0  0
 21 22  2  0  0  0  0
 23 28  1  0  0  0  0
 23 24  1  0  0  0  0
 24 25  2  0  0  0  0
 24 49  1  0  0  0  0
 25 26  1  0  0  0  0
 25 50  1  0  0  0  0
 26 27  2  0  0  0  0
 26 51  1  0  0  0  0
 27 28  1  0  0  0  0
 27 52  1  0  0  0  0
 28 29  2  0  0  0  0
 29 53  1  0  0  0  0
M  CHG  1  29   1
M  END
> <s_m_source_file>
AV-unprocessed.smi

> <i_m_source_file_index>
113

> <i_lp_mmshare_version>
43012

> <i_f3d_flags>
0

> <s_epik_input>
W2NIXTFbY0hdW2NIXVtjSF1jKGMxMiluYyhbQ0gzXSlbY0hdYzJbQ0gyXW4zYyg9TyljKFtDSDNdKVtjSF1uKGMzPU8pW0NAQEhdNFtDSDJdW0NAQEhdKFtPSF0pW0NASF0oTzQpW0NIMl1bT0hd

> <s_epik_cmdline>
J2VwaWtfcHl0aG9uJywgJy1waCcsICc3LjAnLCAnLXRuJywgJzgnLCAnLW1hJywgJzIwMCcsICctbWV0YWxfYmluZGluZycsICctaW1hZScsICc8aW5maWxlLm1hZT4nLCAnLW9tYWUnLCAnPG91dGZpbGUubWFlPic=

> <r_lp_tautomer_probability>
1

> <r_epik_Ionization_Penalty>
0.705471

> <r_epik_Ionization_Penalty_Charging>
0.70547

> <r_epik_Ionization_Penalty_Neutral>
1.19947e-07

> <r_epik_State_Penalty>
0.728574

> <r_epik_Charging_Adjusted_Penalty>
1.43404

> <i_epik_Tot_Q>
1

> <i_epik_Tot_abs_Q>
1

> <r_epik_Metal_State_Penalty>
4.61665

> <b_epik_Metal_Only>
0

> <s_epik_Chemistry_Notes>
This compound contains an acetal/aminal-like group ( X-CH(R)-Y where X, Y are N, S, or O) that may be acid/base labile, releasing an aldehyde.

> <s_lp_Force_Field>
OPLS_2005

> <r_lp_Energy>
45.4749

> <b_lp_Chiralities_Consistent>
1

> <s_lp_Variant>
AV-unprocessed.smi:113-16

> <Gold.Version>
5.8.1

> <Gold.Id.Protein>
6NUR|6NUR_protein|mol2

> <Gold.PLP.Fitness>
61.1791

> <Gold.PLP.PLP>
-49.8883

> <Gold.PLP.part.hbond>
-5.4923

> <Gold.PLP.part.metal>
0.0000

> <Gold.PLP.part.buried>
-4.2271

> <Gold.PLP.part.nonpolar>
-38.8954

> <Gold.PLP.part.repulsive>
0.1181

> <Gold.PLP.ligand.clash>
0.0000

> <Gold.PLP.ligand.torsion>
0.3675

> <Gold.PLP.Chemscore.Hbond>
4.0000

> <Gold.PLP.Chemscore.CHOScore>
0.0000

> <Gold.PLP.Chemscore.Metal>
0.0000

> <Gold.Chemscore.Hbonds>
donor molecule, donor type, donor heavy atom, donor atom, acceptor molecule, acceptor atom, score
      L1  H    29    53       P1  8028  2.00
      P1  H 10752 10764       L1     8  0.85

> <Gold.PLP.Chemscore.Internal.Correction>
0.0257

> <Gold.Rescore>
     Score         DG    S(hbond)    S(metal)    S(lipo)     H(rot)  DE(clash)    DE(int)     intcor
     19.55     -22.31       2.89        0.00     127.24       3.01       0.38       2.38       ----

> <Gold.Chemscore.Fitness>
19.5534

> <Gold.Chemscore.DG>
-22.3118

> <Gold.Chemscore.ZeroCoef>
-5.4800

> <Gold.Chemscore.Hbond>
2.8910

> <Gold.Chemscore.Metal>
0.0000

> <Gold.Chemscore.Lipo>
127.2370

> <Gold.Chemscore.Internal_Hbond>
0.0000

> <Gold.Chemscore.DEClash>
0.3784

> <Gold.Chemscore.DEInternal>
2.3800

> <Gold.Chemscore.Rot>
3.0120

> <Gold.Chemscore.Internal.Correction>
   9.000000E+99

> <Gold.Chemscore.Hbonds>
donor molecule, donor type, donor heavy atom, donor atom, acceptor molecule, acceptor atom, score
      L1  H    29    53       P1  8028  0.99
      P1  H 10752 10764       L1     8  0.82

> <Gold.Chemscore.Hbond.Weighted>
-9.6559

> <Gold.Chemscore.Metal.Weighted>
-0.0000

> <Gold.Chemscore.Lipo.Weighted>
-14.8867

> <Gold.Chemscore.Internal_Hbond.Weighted>
0.0000

> <Gold.Chemscore.DEClash.Weighted>
0.3784

> <Gold.Chemscore.DEInternal.Weighted>
2.3800

> <Gold.Chemscore.Rot.Weighted>
7.7108

> <Gold.Chemscore.Internal.Correction.Weighted>
   9.000000E+99

> <Gold.Protein.RotatedTorsions>
[ 6907 6896 6895 6894 ] final   53.48 input  -60.11 | X-H torsion
[ 7974 7965 7964 7962 ] final  105.69 input  175.53 | X-H torsion
[ 8008 7997 7996 7995 ] final  -58.38 input   59.86 | X-H torsion
[ 10167 10162 10161 10158 ] final  -66.52 input  -65.29 | X-H torsion
[ 10718 10713 10712 10709 ] final  -52.63 input   66.30 | X-H torsion
[ 10763 10752 10751 10750 ] final  -29.87 input  -60.55 | X-H torsion
[ 11005 11000 10999 10996 ] final    3.35 input  -57.11 | X-H torsion

> <Gold.Protein.ActiveResidues>
 VAL166  LYS551  ARG553  GLY616  TRP617  ASP618  TYR619  PRO620  LYS621  CYS622 
 ASP623  PHE694  ASN695  SER759  ASP760  ASP761  ALA762  ILE779  LEU786  VAL792 
 PHE793  MET794  SER795  GLU796  ALA797  LYS798  CYS799  TRP800  GLU811  SER814 

> <Gold.Protein.RotatedAtoms>
  152.3341  134.7221  160.0281 H   0  0  0  0  0  0  0  0  0  0  0  0  # atno 6907 bound_to 6896
  151.7628  133.3329  159.3430 H   0  0  0  0  0  0  0  0  0  0  0  0  # atno 6908 bound_to 6896
  150.7440  134.6022  159.6087 H   0  0  0  0  0  0  0  0  0  0  0  0  # atno 6909 bound_to 6896
  145.3164  139.2525  143.3735 H   0  0  0  0  0  0  0  0  0  0  0  0  # atno 7974 bound_to 7965
  154.4306  140.1085  156.5948 H   0  0  0  0  0  0  0  0  0  0  0  0  # atno 8008 bound_to 7997
  155.5974  140.3493  155.4565 H   0  0  0  0  0  0  0  0  0  0  0  0  # atno 8009 bound_to 7997
  156.0200  140.1237  157.0357 H   0  0  0  0  0  0  0  0  0  0  0  0  # atno 8010 bound_to 7997
  140.5650  143.2314  151.6652 H   0  0  0  0  0  0  0  0  0  0  0  0  # atno 10167 bound_to 10162
  156.1605  130.4150  149.9801 H   0  0  0  0  0  0  0  0  0  0  0  0  # atno 10718 bound_to 10713
  153.7718  135.6912  153.4905 H   0  0  0  0  0  0  0  0  0  0  0  0  # atno 10763 bound_to 10752
  153.1870  135.4485  155.0099 H   0  0  0  0  0  0  0  0  0  0  0  0  # atno 10764 bound_to 10752
  154.8115  135.3379  154.7226 H   0  0  0  0  0  0  0  0  0  0  0  0  # atno 10765 bound_to 10752
  140.5941  133.9896  155.8102 H   0  0  0  0  0  0  0  0  0  0  0  0  # atno 11005 bound_to 11000
  146.3099  140.3711  142.8674 LP  0  0  0  0  0  0  0  0  0  0  0  0  # atno 17320 bound_to 7965
  144.8975  140.7601  143.5888 LP  0  0  0  0  0  0  0  0  0  0  0  0  # atno 17321 bound_to 7965
  139.5089  144.3596  152.0574 LP  0  0  0  0  0  0  0  0  0  0  0  0  # atno 17342 bound_to 10162
  140.2727  144.3946  150.6146 LP  0  0  0  0  0  0  0  0  0  0  0  0  # atno 17343 bound_to 10162
  156.7632  130.9158  151.3642 LP  0  0  0  0  0  0  0  0  0  0  0  0  # atno 17370 bound_to 10713
  157.6728  130.9067  150.0081 LP  0  0  0  0  0  0  0  0  0  0  0  0  # atno 17371 bound_to 10713
  141.0915  133.9909  157.3229 LP  0  0  0  0  0  0  0  0  0  0  0  0  # atno 17394 bound_to 11000
  139.9261  135.0201  156.8238 LP  0  0  0  0  0  0  0  0  0  0  0  0  # atno 17395 bound_to 11000

$$$$
