AV-unprocessed.smi:2822|AV-procd|sdf|10872|dock2
  -GOLD-   2272015313D 1   1.00000     0.00000
 Structure written by MMmdl.
 40 42  0  0  0  0  0  0  0  0  2 V2000
  146.8531  141.9548  155.2899 Cl  0  0  0  0  0  0  0  0  0  0  0  0
  148.1202  140.8100  155.0158 C   0  0  0  0  0  0  0  0  0  0  0  0
  149.4533  141.2557  154.9045 C   0  0  0  0  0  0  0  0  0  0  0  0
  150.4986  140.4296  154.6894 N   0  0  0  0  0  0  0  0  0  0  0  0
  150.2429  139.1097  154.5771 C   0  0  0  0  0  0  0  0  0  0  0  0
  148.9494  138.5590  154.6720 C   0  0  0  0  0  0  0  0  0  0  0  0
  147.8541  139.4264  154.8962 C   0  0  0  0  0  0  0  0  0  0  0  0
  146.5337  138.9626  155.0037 N   0  0  0  0  0  0  0  0  0  0  0  0
  146.2607  137.6046  155.4486 C   0  0  0  0  0  0  0  0  0  0  0  0
  146.6872  136.5673  154.4005 C   0  0  2  0  0  0  0  0  0  0  0  0
  145.9189  136.7497  153.0786 C   0  0  0  0  0  0  0  0  0  0  0  0
  146.2825  135.6851  152.1106 N   0  3  2  0  0  0  0  0  0  0  0  0
  145.6237  135.8257  150.7856 C   0  0  0  0  0  0  0  0  0  0  0  0
  144.1395  135.4144  150.8258 C   0  0  0  0  0  0  0  0  0  0  0  0
  143.9740  133.9979  151.3927 C   0  0  0  0  0  0  0  0  0  0  0  0
  144.6567  133.8868  152.7636 C   0  0  0  0  0  0  0  0  0  0  0  0
  146.1378  134.3191  152.6854 C   0  0  2  0  0  0  0  0  0  0  0  0
  146.8541  134.2363  154.0480 C   0  0  0  0  0  0  0  0  0  0  0  0
  146.3957  135.2703  154.9103 O   0  0  0  0  0  0  0  0  0  0  0  0
  149.6879  142.3065  154.9903 H   0  0  0  0  0  0  0  0  0  0  0  0
  151.0965  138.4703  154.4071 H   0  0  0  0  0  0  0  0  0  0  0  0
  148.8231  137.4912  154.5749 H   0  0  0  0  0  0  0  0  0  0  0  0
  145.8044  139.4647  154.5170 H   0  0  0  0  0  0  0  0  0  0  0  0
  146.7698  137.4146  156.3945 H   0  0  0  0  0  0  0  0  0  0  0  0
  145.1894  137.5138  155.6316 H   0  0  0  0  0  0  0  0  0  0  0  0
  147.7592  136.6627  154.2160 H   0  0  0  0  0  0  0  0  0  0  0  0
  144.8457  136.7394  153.2707 H   0  0  0  0  0  0  0  0  0  0  0  0
  146.1526  137.7238  152.6469 H   0  0  0  0  0  0  0  0  0  0  0  0
  145.7273  136.8494  150.4240 H   0  0  0  0  0  0  0  0  0  0  0  0
  146.1538  135.1936  150.0723 H   0  0  0  0  0  0  0  0  0  0  0  0
  143.5690  136.1214  151.4287 H   0  0  0  0  0  0  0  0  0  0  0  0
  143.7157  135.4624  149.8223 H   0  0  0  0  0  0  0  0  0  0  0  0
  142.9161  133.7479  151.4775 H   0  0  0  0  0  0  0  0  0  0  0  0
  144.4115  133.2739  150.7041 H   0  0  0  0  0  0  0  0  0  0  0  0
  144.1196  134.4965  153.4910 H   0  0  0  0  0  0  0  0  0  0  0  0
  144.5883  132.8587  153.1210 H   0  0  0  0  0  0  0  0  0  0  0  0
  146.6438  133.6302  152.0071 H   0  0  0  0  0  0  0  0  0  0  0  0
  146.6687  133.2705  154.5190 H   0  0  0  0  0  0  0  0  0  0  0  0
  147.9349  134.3175  153.9200 H   0  0  0  0  0  0  0  0  0  0  0  0
  147.2704  135.8099  151.9412 H   0  0  0  0  0  0  0  0  0  0  0  0
  1  2  1  0  0  0  0
  2  7  1  0  0  0  0
  2  3  2  0  0  0  0
  3  4  1  0  0  0  0
  3 20  1  0  0  0  0
  4  5  2  0  0  0  0
  5  6  1  0  0  0  0
  5 21  1  0  0  0  0
  6  7  2  0  0  0  0
  6 22  1  0  0  0  0
  7  8  1  0  0  0  0
  8  9  1  0  0  0  0
  8 23  1  0  0  0  0
  9 10  1  0  0  0  0
  9 24  1  0  0  0  0
  9 25  1  0  0  0  0
 10 19  1  0  0  0  0
 10 11  1  0  0  0  0
 10 26  1  0  0  0  0
 11 12  1  0  0  0  0
 11 27  1  0  0  0  0
 11 28  1  0  0  0  0
 12 17  1  0  0  0  0
 12 13  1  0  0  0  0
 12 40  1  0  0  0  0
 13 14  1  0  0  0  0
 13 29  1  0  0  0  0
 13 30  1  0  0  0  0
 14 15  1  0  0  0  0
 14 31  1  0  0  0  0
 14 32  1  0  0  0  0
 15 16  1  0  0  0  0
 15 33  1  0  0  0  0
 15 34  1  0  0  0  0
 16 17  1  0  0  0  0
 16 35  1  0  0  0  0
 16 36  1  0  0  0  0
 17 18  1  0  0  0  0
 17 37  1  0  0  0  0
 18 19  1  0  0  0  0
 18 38  1  0  0  0  0
 18 39  1  0  0  0  0
M  CHG  1  12   1
M  END
> <s_m_source_file>
AV-unprocessed.smi

> <i_m_source_file_index>
2822

> <i_lp_mmshare_version>
43012

> <i_f3d_flags>
0

> <s_epik_input>
Q2xjMVtjSF1uW2NIXVtjSF1jMVtOSF1bQ0gyXVtDQEhdKFtDSDJdMilPW0NIMl1bQ0BASF0oTjIzKVtDSDJdW0NIMl1bQ0gyXVtDSDJdMw==

> <s_epik_cmdline>
J2VwaWtfcHl0aG9uJywgJy1waCcsICc3LjAnLCAnLXRuJywgJzgnLCAnLW1hJywgJzIwMCcsICctbWV0YWxfYmluZGluZycsICctaW1hZScsICc8aW5maWxlLm1hZT4nLCAnLW9tYWUnLCAnPG91dGZpbGUubWFlPic=

> <r_lp_tautomer_probability>
0.999999

> <r_epik_Ionization_Penalty>
0.88937

> <r_epik_Ionization_Penalty_Charging>
0.0803403

> <r_epik_Ionization_Penalty_Neutral>
0.80903

> <r_epik_State_Penalty>
0.931884

> <r_epik_Charging_Adjusted_Penalty>
1.01222

> <i_epik_Tot_Q>
1

> <i_epik_Tot_abs_Q>
1

> <r_epik_Metal_State_Penalty>
0.0782275

> <b_epik_Metal_Only>
0

> <s_lp_Force_Field>
OPLS_2005

> <r_lp_Energy>
31.6827

> <b_lp_Chiralities_Consistent>
1

> <s_lp_Variant>
AV-unprocessed.smi:2822-13

> <Gold.Version>
5.8.1

> <Gold.Id.Protein>
6NUR|6NUR_protein|mol2

> <Gold.PLP.Fitness>
38.0761

> <Gold.PLP.PLP>
-26.6287

> <Gold.PLP.part.hbond>
-1.9922

> <Gold.PLP.part.metal>
0.0000

> <Gold.PLP.part.buried>
-4.3938

> <Gold.PLP.part.nonpolar>
-21.1565

> <Gold.PLP.part.repulsive>
0.1918

> <Gold.PLP.ligand.clash>
0.0000

> <Gold.PLP.ligand.torsion>
0.1900

> <Gold.PLP.Chemscore.Hbond>
2.9440

> <Gold.PLP.Chemscore.CHOScore>
0.9977

> <Gold.PLP.Chemscore.Metal>
0.0000

> <Gold.Chemscore.Hbonds>
donor molecule, donor type, donor heavy atom, donor atom, acceptor molecule, acceptor atom, score
      L1  H    12    40       P1  7948  2.00
      P1  H  7989  7998       L1     4  1.00
      L1  C     3    20       P1  8028  0.77

> <Gold.PLP.Chemscore.Internal.Correction>
0.0022

> <Gold.Rescore>
     Score         DG    S(hbond)    S(metal)    S(lipo)     H(rot)  DE(clash)    DE(int)     intcor
     15.77     -16.95       1.81        0.00      72.01       1.17       0.09       1.08       ----

> <Gold.Chemscore.Fitness>
15.7742

> <Gold.Chemscore.DG>
-16.9474

> <Gold.Chemscore.ZeroCoef>
-5.4800

> <Gold.Chemscore.Hbond>
1.8069

> <Gold.Chemscore.Metal>
0.0000

> <Gold.Chemscore.Lipo>
72.0144

> <Gold.Chemscore.Internal_Hbond>
0.0000

> <Gold.Chemscore.DEClash>
0.0901

> <Gold.Chemscore.DEInternal>
1.0830

> <Gold.Chemscore.Rot>
1.1693

> <Gold.Chemscore.Internal.Correction>
   9.000000E+99

> <Gold.Chemscore.Hbonds>
donor molecule, donor type, donor heavy atom, donor atom, acceptor molecule, acceptor atom, score
      L1  H    12    40       P1  7948  1.00
      P1  H  7989  7998       L1     4  0.64

> <Gold.Chemscore.Hbond.Weighted>
-6.0351

> <Gold.Chemscore.Metal.Weighted>
-0.0000

> <Gold.Chemscore.Lipo.Weighted>
-8.4257

> <Gold.Chemscore.Internal_Hbond.Weighted>
0.0000

> <Gold.Chemscore.DEClash.Weighted>
0.0901

> <Gold.Chemscore.DEInternal.Weighted>
1.0830

> <Gold.Chemscore.Rot.Weighted>
2.9934

> <Gold.Chemscore.Internal.Correction.Weighted>
   9.000000E+99

> <Gold.Protein.RotatedTorsions>
[ 6907 6896 6895 6894 ] final  -21.96 input  -60.11 | X-H torsion
[ 7974 7965 7964 7962 ] final  177.82 input  175.53 | X-H torsion
[ 8008 7997 7996 7995 ] final  -45.16 input   59.86 | X-H torsion
[ 10167 10162 10161 10158 ] final   56.81 input  -65.29 | X-H torsion
[ 10718 10713 10712 10709 ] final  -80.72 input   66.30 | X-H torsion
[ 10763 10752 10751 10750 ] final   79.76 input  -60.55 | X-H torsion
[ 11005 11000 10999 10996 ] final  -42.75 input  -57.11 | X-H torsion

> <Gold.Protein.ActiveResidues>
 VAL166  LYS551  ARG553  GLY616  TRP617  ASP618  TYR619  PRO620  LYS621  CYS622 
 ASP623  PHE694  ASN695  SER759  ASP760  ASP761  ALA762  ILE779  LEU786  VAL792 
 PHE793  MET794  SER795  GLU796  ALA797  LYS798  CYS799  TRP800  GLU811  SER814 

> <Gold.Protein.RotatedAtoms>
  151.2256  135.0535  159.8966 H   0  0  0  0  0  0  0  0  0  0  0  0  # atno 6907 bound_to 6896
  152.5410  134.0592  159.8155 H   0  0  0  0  0  0  0  0  0  0  0  0  # atno 6908 bound_to 6896
  151.0765  133.5376  159.2655 H   0  0  0  0  0  0  0  0  0  0  0  0  # atno 6909 bound_to 6896
  144.7164  140.0304  143.6439 H   0  0  0  0  0  0  0  0  0  0  0  0  # atno 7974 bound_to 7965
  154.4000  140.1404  156.3802 H   0  0  0  0  0  0  0  0  0  0  0  0  # atno 8008 bound_to 7997
  155.8011  140.3476  155.5382 H   0  0  0  0  0  0  0  0  0  0  0  0  # atno 8009 bound_to 7997
  155.8483  140.0937  157.1681 H   0  0  0  0  0  0  0  0  0  0  0  0  # atno 8010 bound_to 7997
  140.2047  144.3951  150.6514 H   0  0  0  0  0  0  0  0  0  0  0  0  # atno 10167 bound_to 10162
  156.0064  130.4582  150.3844 H   0  0  0  0  0  0  0  0  0  0  0  0  # atno 10718 bound_to 10713
  153.0979  135.4827  154.8812 H   0  0  0  0  0  0  0  0  0  0  0  0  # atno 10763 bound_to 10752
  154.7345  135.3068  154.8837 H   0  0  0  0  0  0  0  0  0  0  0  0  # atno 10764 bound_to 10752
  153.9463  135.6828  153.4797 H   0  0  0  0  0  0  0  0  0  0  0  0  # atno 10765 bound_to 10752
  141.0337  133.6809  156.2638 H   0  0  0  0  0  0  0  0  0  0  0  0  # atno 11005 bound_to 11000
  146.0107  139.3167  143.0872 LP  0  0  0  0  0  0  0  0  0  0  0  0  # atno 17320 bound_to 7965
  145.8685  140.9434  143.0663 LP  0  0  0  0  0  0  0  0  0  0  0  0  # atno 17321 bound_to 7965
  140.6366  143.2196  151.6382 LP  0  0  0  0  0  0  0  0  0  0  0  0  # atno 17342 bound_to 10162
  139.5203  144.3226  152.0897 LP  0  0  0  0  0  0  0  0  0  0  0  0  # atno 17343 bound_to 10162
  157.1922  131.0418  151.2694 LP  0  0  0  0  0  0  0  0  0  0  0  0  # atno 17370 bound_to 10713
  157.4051  130.7354  149.6796 LP  0  0  0  0  0  0  0  0  0  0  0  0  # atno 17371 bound_to 10713
  140.6361  134.5214  157.5565 LP  0  0  0  0  0  0  0  0  0  0  0  0  # atno 17394 bound_to 11000
  139.9225  134.8120  156.1166 LP  0  0  0  0  0  0  0  0  0  0  0  0  # atno 17395 bound_to 11000

$$$$
