AV-unprocessed.smi:137|AV-procd|sdf|1175|dock6
  -GOLD-   2262018323D 1   1.00000     0.00000
 Structure written by MMmdl.
 51 54  0  0  0  0  0  0  0  0  1 V2000
  152.0331  141.1894  159.0991 C   0  0  0  0  0  0  0  0  0  0  0  0
  152.5238  139.7602  158.8185 C   0  0  2  0  0  0  0  0  0  0  0  0
  151.3802  138.9462  158.1782 C   0  0  0  0  0  0  0  0  0  0  0  0
  151.6530  137.5187  157.9831 N   0  0  0  0  0  0  0  0  0  0  0  0
  150.6004  136.6975  157.6957 C   0  0  0  0  0  0  0  0  0  0  0  0
  149.5788  136.6062  158.5909 N   0  0  0  0  0  0  0  0  0  0  0  0
  148.5180  135.8330  158.3472 C   0  0  0  0  0  0  0  0  0  0  0  0
  148.2733  135.0665  157.2854 N   0  0  0  0  0  0  0  0  0  0  0  0
  149.2942  135.1327  156.3848 C   0  0  0  0  0  0  0  0  0  0  0  0
  150.4806  135.9151  156.5052 C   0  0  0  0  0  0  0  0  0  0  0  0
  151.2762  135.7178  155.3808 N   0  0  0  0  0  0  0  0  0  0  0  0
  150.5960  134.8898  154.6374 C   0  0  0  0  0  0  0  0  0  0  0  0
  149.4041  134.4662  155.1765 N   0  0  0  0  0  0  0  0  0  0  0  0
  148.4428  133.6016  154.5572 C   0  0  0  0  0  0  0  0  0  0  0  0
  148.7094  132.9600  153.1934 C   0  0  0  0  0  0  0  0  0  0  0  0
  147.1971  133.0146  152.8831 C   0  0  0  0  0  0  0  0  0  0  0  0
  146.8368  133.4174  151.4438 C   0  0  0  0  0  0  0  0  0  0  0  0
  146.8769  132.3031  150.5753 O   0  0  0  0  0  0  0  0  0  0  0  0
  146.4020  131.7500  153.2673 C   0  0  0  0  0  0  0  0  0  0  0  0
  146.7543  130.6523  152.4503 O   0  0  0  0  0  0  0  0  0  0  0  0
  147.1647  134.1568  153.9245 C   0  0  0  0  0  0  0  0  0  0  0  0
  152.9983  137.0624  157.6371 C   0  0  0  0  0  0  0  0  0  0  0  0
  153.7926  136.6203  158.8785 C   0  0  0  0  0  0  0  0  0  0  0  0
  154.5810  138.0775  159.7182 S   0  0  1  0  0  0  0  0  0  0  0  0
  155.4329  138.8112  158.6800 O   0  0  0  0  0  0  0  0  0  0  0  0
  153.0853  139.1148  160.1063 C   0  0  0  0  0  0  0  0  0  0  0  0
  151.2326  141.1968  159.8397 H   0  0  0  0  0  0  0  0  0  0  0  0
  151.6524  141.6599  158.1920 H   0  0  0  0  0  0  0  0  0  0  0  0
  152.8417  141.8167  159.4756 H   0  0  0  0  0  0  0  0  0  0  0  0
  153.3213  139.8673  158.0846 H   0  0  0  0  0  0  0  0  0  0  0  0
  150.5012  139.0403  158.8180 H   0  0  0  0  0  0  0  0  0  0  0  0
  151.1159  139.3884  157.2164 H   0  0  0  0  0  0  0  0  0  0  0  0
  147.7557  135.8296  159.1122 H   0  0  0  0  0  0  0  0  0  0  0  0
  150.9513  134.5610  153.6715 H   0  0  0  0  0  0  0  0  0  0  0  0
  148.2046  132.8400  155.3015 H   0  0  0  0  0  0  0  0  0  0  0  0
  149.3030  133.6026  152.5403 H   0  0  0  0  0  0  0  0  0  0  0  0
  149.1321  131.9558  153.2410 H   0  0  0  0  0  0  0  0  0  0  0  0
  145.8482  133.8737  151.3892 H   0  0  0  0  0  0  0  0  0  0  0  0
  147.5370  134.1609  151.0621 H   0  0  0  0  0  0  0  0  0  0  0  0
  147.7623  131.9740  150.5510 H   0  0  0  0  0  0  0  0  0  0  0  0
  146.5636  131.4767  154.3101 H   0  0  0  0  0  0  0  0  0  0  0  0
  145.3289  131.9101  153.1619 H   0  0  0  0  0  0  0  0  0  0  0  0
  147.5188  130.8867  151.9464 H   0  0  0  0  0  0  0  0  0  0  0  0
  146.2989  134.1568  154.5875 H   0  0  0  0  0  0  0  0  0  0  0  0
  147.3133  135.1427  153.4798 H   0  0  0  0  0  0  0  0  0  0  0  0
  152.9372  136.2344  156.9308 H   0  0  0  0  0  0  0  0  0  0  0  0
  153.5348  137.8415  157.0959 H   0  0  0  0  0  0  0  0  0  0  0  0
  153.1646  136.0831  159.5891 H   0  0  0  0  0  0  0  0  0  0  0  0
  154.5921  135.9420  158.5806 H   0  0  0  0  0  0  0  0  0  0  0  0
  153.4222  139.8877  160.7977 H   0  0  0  0  0  0  0  0  0  0  0  0
  152.3337  138.5270  160.6348 H   0  0  0  0  0  0  0  0  0  0  0  0
  1  2  1  0  0  0  0
  1 27  1  0  0  0  0
  1 28  1  0  0  0  0
  1 29  1  0  0  0  0
  2 26  1  0  0  0  0
  2  3  1  0  0  0  0
  2 30  1  0  0  0  0
  3  4  1  0  0  0  0
  3 31  1  0  0  0  0
  3 32  1  0  0  0  0
  4  5  1  0  0  0  0
  4 22  1  0  0  0  0
  5 10  1  0  0  0  0
  5  6  2  0  0  0  0
  6  7  1  0  0  0  0
  7  8  2  0  0  0  0
  7 33  1  0  0  0  0
  8  9  1  0  0  0  0
  9 13  1  0  0  0  0
  9 10  2  0  0  0  0
 10 11  1  0  0  0  0
 11 12  2  0  0  0  0
 12 13  1  0  0  0  0
 12 34  1  0  0  0  0
 13 14  1  0  0  0  0
 14 21  1  0  0  0  0
 14 15  1  0  0  0  0
 14 35  1  0  0  0  0
 15 16  1  0  0  0  0
 15 36  1  0  0  0  0
 15 37  1  0  0  0  0
 16 17  1  0  0  0  0
 16 19  1  0  0  0  0
 16 21  1  0  0  0  0
 17 18  1  0  0  0  0
 17 38  1  0  0  0  0
 17 39  1  0  0  0  0
 18 40  1  0  0  0  0
 19 20  1  0  0  0  0
 19 41  1  0  0  0  0
 19 42  1  0  0  0  0
 20 43  1  0  0  0  0
 21 44  1  0  0  0  0
 21 45  1  0  0  0  0
 22 23  1  0  0  0  0
 22 46  1  0  0  0  0
 22 47  1  0  0  0  0
 23 24  1  0  0  0  0
 23 48  1  0  0  0  0
 23 49  1  0  0  0  0
 24 25  2  0  0  0  0
 24 26  1  0  0  0  0
 26 50  1  0  0  0  0
 26 51  1  0  0  0  0
M  END
> <s_m_source_file>
AV-unprocessed.smi

> <i_m_source_file_index>
137

> <i_lp_mmshare_version>
43012

> <i_f3d_flags>
0

> <s_epik_input>
Tz1bU0BAXShbQ0gyXTEpW0NIMl1bQ0gyXU4oW0NIMl1bQ0BIXTFbQ0gzXSljKG5bY0hdbjIpYyhjMjMpbltjSF1uM1tDSF0oW0NIMl00KVtDSDJdQzQoW0NIMl1bT0hdKVtDSDJdW09IXQ==

> <s_epik_cmdline>
J2VwaWtfcHl0aG9uJywgJy1waCcsICc3LjAnLCAnLXRuJywgJzgnLCAnLW1hJywgJzIwMCcsICctbWV0YWxfYmluZGluZycsICctaW1hZScsICc8aW5maWxlLm1hZT4nLCAnLW9tYWUnLCAnPG91dGZpbGUubWFlPic=

> <r_lp_tautomer_probability>
1

> <r_epik_Ionization_Penalty>
0.000811024

> <r_epik_Ionization_Penalty_Charging>
0

> <r_epik_Ionization_Penalty_Neutral>
0.000811024

> <r_epik_State_Penalty>
0.000429598

> <r_epik_Charging_Adjusted_Penalty>
0.000429598

> <i_epik_Tot_Q>
0

> <i_epik_Tot_abs_Q>
0

> <r_epik_Metal_State_Penalty>
-0

> <b_epik_Metal_Only>
0

> <s_lp_Force_Field>
OPLS_2005

> <r_lp_Energy>
41.7942

> <b_lp_Chiralities_Consistent>
1

> <s_lp_Variant>
AV-unprocessed.smi:137-1

> <Gold.Version>
5.8.1

> <Gold.Id.Protein>
6NUR|6NUR_protein|mol2

> <Gold.PLP.Fitness>
44.3724

> <Gold.PLP.PLP>
-30.5084

> <Gold.PLP.part.hbond>
-5.0000

> <Gold.PLP.part.metal>
0.0000

> <Gold.PLP.part.buried>
-5.0700

> <Gold.PLP.part.nonpolar>
-20.7948

> <Gold.PLP.part.repulsive>
0.1174

> <Gold.PLP.ligand.clash>
0.0000

> <Gold.PLP.ligand.torsion>
1.3144

> <Gold.PLP.Chemscore.Hbond>
4.7207

> <Gold.PLP.Chemscore.CHOScore>
0.5780

> <Gold.PLP.Chemscore.Metal>
0.0000

> <Gold.Chemscore.Hbonds>
donor molecule, donor type, donor heavy atom, donor atom, acceptor molecule, acceptor atom, score
      L1  H    18    40       P1 10747  1.00
      L1  H    20    43       P1 10747  0.55
      P1  H  7997  8009       L1    25  1.00
      P1  H 10752 10765       L1    11  1.00
      L1  C    12    34       P1  7949  0.48

> <Gold.PLP.Chemscore.Internal.Correction>
0.5967

> <Gold.Rescore>
     Score         DG    S(hbond)    S(metal)    S(lipo)     H(rot)  DE(clash)    DE(int)     intcor
     15.36     -17.24       3.43        0.00      65.48       2.87       0.26       1.62       ----

> <Gold.Chemscore.Fitness>
15.3632

> <Gold.Chemscore.DG>
-17.2426

> <Gold.Chemscore.ZeroCoef>
-5.4800

> <Gold.Chemscore.Hbond>
3.4295

> <Gold.Chemscore.Metal>
0.0000

> <Gold.Chemscore.Lipo>
65.4847

> <Gold.Chemscore.Internal_Hbond>
0.0000

> <Gold.Chemscore.DEClash>
0.2639

> <Gold.Chemscore.DEInternal>
1.6155

> <Gold.Chemscore.Rot>
2.8725

> <Gold.Chemscore.Internal.Correction>
   9.000000E+99

> <Gold.Chemscore.Hbonds>
donor molecule, donor type, donor heavy atom, donor atom, acceptor molecule, acceptor atom, score
      L1  H    18    40       P1 10747  0.99
      L1  H    20    43       P1 10747  0.54
      P1  H  7997  8009       L1    25  1.00
      P1  H 10752 10765       L1    11  0.30

> <Gold.Chemscore.Hbond.Weighted>
-11.4545

> <Gold.Chemscore.Metal.Weighted>
-0.0000

> <Gold.Chemscore.Lipo.Weighted>
-7.6617

> <Gold.Chemscore.Internal_Hbond.Weighted>
0.0000

> <Gold.Chemscore.DEClash.Weighted>
0.2639

> <Gold.Chemscore.DEInternal.Weighted>
1.6155

> <Gold.Chemscore.Rot.Weighted>
7.3535

> <Gold.Chemscore.Internal.Correction.Weighted>
   9.000000E+99

> <Gold.Protein.RotatedTorsions>
[ 6907 6896 6895 6894 ] final -155.85 input  -60.11 | X-H torsion
[ 7974 7965 7964 7962 ] final  124.67 input  175.53 | X-H torsion
[ 8008 7997 7996 7995 ] final  103.69 input   59.86 | X-H torsion
[ 10167 10162 10161 10158 ] final  -89.88 input  -65.29 | X-H torsion
[ 10718 10713 10712 10709 ] final   24.03 input   66.30 | X-H torsion
[ 10763 10752 10751 10750 ] final -176.00 input  -60.55 | X-H torsion
[ 11005 11000 10999 10996 ] final -143.21 input  -57.11 | X-H torsion

> <Gold.Protein.ActiveResidues>
 VAL166  LYS551  ARG553  GLY616  TRP617  ASP618  TYR619  PRO620  LYS621  CYS622 
 ASP623  PHE694  ASN695  SER759  ASP760  ASP761  ALA762  ILE779  LEU786  VAL792 
 PHE793  MET794  SER795  GLU796  ALA797  LYS798  CYS799  TRP800  GLU811  SER814 

> <Gold.Protein.RotatedAtoms>
  151.2787  133.4220  159.2625 H   0  0  0  0  0  0  0  0  0  0  0  0  # atno 6907 bound_to 6896
  151.0380  134.9587  159.8156 H   0  0  0  0  0  0  0  0  0  0  0  0  # atno 6908 bound_to 6896
  152.5359  134.2746  159.9037 H   0  0  0  0  0  0  0  0  0  0  0  0  # atno 6909 bound_to 6896
  145.0818  139.3651  143.4905 H   0  0  0  0  0  0  0  0  0  0  0  0  # atno 7974 bound_to 7965
  156.1507  140.3160  155.8643 H   0  0  0  0  0  0  0  0  0  0  0  0  # atno 8008 bound_to 7997
  155.3977  140.0497  157.3055 H   0  0  0  0  0  0  0  0  0  0  0  0  # atno 8009 bound_to 7997
  154.5055  140.2145  155.9270 H   0  0  0  0  0  0  0  0  0  0  0  0  # atno 8010 bound_to 7997
  140.3604  143.2844  151.9621 H   0  0  0  0  0  0  0  0  0  0  0  0  # atno 10167 bound_to 10162
  157.1742  130.6773  149.6089 H   0  0  0  0  0  0  0  0  0  0  0  0  # atno 10718 bound_to 10713
  154.5776  135.2833  155.0765 H   0  0  0  0  0  0  0  0  0  0  0  0  # atno 10763 bound_to 10752
  154.2113  135.6407  153.5120 H   0  0  0  0  0  0  0  0  0  0  0  0  # atno 10764 bound_to 10752
  153.0077  135.5492  154.6420 H   0  0  0  0  0  0  0  0  0  0  0  0  # atno 10765 bound_to 10752
  140.8148  134.2701  157.4925 H   0  0  0  0  0  0  0  0  0  0  0  0  # atno 11005 bound_to 11000
  146.3531  140.0611  142.8629 LP  0  0  0  0  0  0  0  0  0  0  0  0  # atno 17320 bound_to 7965
  145.1169  140.9439  143.4623 LP  0  0  0  0  0  0  0  0  0  0  0  0  # atno 17321 bound_to 7965
  139.4815  144.5997  151.7627 LP  0  0  0  0  0  0  0  0  0  0  0  0  # atno 17342 bound_to 10162
  140.5132  144.0993  150.6001 LP  0  0  0  0  0  0  0  0  0  0  0  0  # atno 17343 bound_to 10162
  155.9734  130.4668  150.6304 LP  0  0  0  0  0  0  0  0  0  0  0  0  # atno 17370 bound_to 10713
  157.4014  131.0810  151.1305 LP  0  0  0  0  0  0  0  0  0  0  0  0  # atno 17371 bound_to 10713
  139.8712  134.9503  156.4051 LP  0  0  0  0  0  0  0  0  0  0  0  0  # atno 17394 bound_to 11000
  140.9160  133.7678  155.9849 LP  0  0  0  0  0  0  0  0  0  0  0  0  # atno 17395 bound_to 11000

$$$$
