AV-unprocessed.smi:1313|AV-procd|sdf|5451|dock6
  -GOLD-   22720 5 23D 1   1.00000     0.00000
 Structure written by MMmdl.
 37 38  0  0  0  0  0  0  0  0  1 V2000
  146.2933  138.0078  152.5650 C   0  0  0  0  0  0  0  0  0  0  0  0
  147.1448  139.0879  153.1960 C   0  0  0  0  0  0  0  0  0  0  0  0
  146.4805  140.2913  153.3650 N   0  0  0  0  0  0  0  0  0  0  0  0
  147.1792  141.3428  153.9315 C   0  0  0  0  0  0  0  0  0  0  0  0
  146.3778  142.6249  154.0774 C   0  0  0  0  0  0  0  0  0  0  0  0
  148.4739  141.2008  154.3144 C   0  0  0  0  0  0  0  0  0  0  0  0
  149.2787  142.3363  154.9436 C   0  0  0  0  0  0  0  0  0  0  0  0
  149.8994  142.0167  156.3047 C   0  0  0  0  0  0  0  0  0  0  0  0
  149.8904  140.8614  156.7288 O   0  0  0  0  0  0  0  0  0  0  0  0
  150.4255  143.0487  156.9820 N   0  0  0  0  0  0  0  0  0  0  0  0
  151.0321  142.9635  158.3076 C   0  0  0  0  0  0  0  0  0  0  0  0
  150.3156  143.9023  159.2976 C   0  0  0  0  0  0  0  0  0  0  0  0
  151.4175  144.6884  160.0105 C   0  0  0  0  0  0  0  0  0  0  0  0
  152.5474  144.7659  158.9890 C   0  0  0  0  0  0  0  0  0  0  0  0
  152.5079  143.4095  158.2853 C   0  0  0  0  0  0  0  0  0  0  0  0
  149.1287  139.8858  154.1156 C   0  0  0  0  0  0  0  0  0  0  0  0
  150.2947  139.6884  154.4545 O   0  0  0  0  0  0  0  0  0  0  0  0
  148.3775  138.8542  153.5292 N   0  0  0  0  0  0  0  0  0  0  0  0
  145.5186  140.4392  153.0960 H   0  0  0  0  0  0  0  0  0  0  0  0
  146.8625  137.0861  152.4389 H   0  0  0  0  0  0  0  0  0  0  0  0
  145.9394  138.3266  151.5841 H   0  0  0  0  0  0  0  0  0  0  0  0
  145.4284  137.7911  153.1927 H   0  0  0  0  0  0  0  0  0  0  0  0
  146.8472  143.4349  153.5191 H   0  0  0  0  0  0  0  0  0  0  0  0
  146.3139  142.9180  155.1253 H   0  0  0  0  0  0  0  0  0  0  0  0
  145.3604  142.5072  153.7026 H   0  0  0  0  0  0  0  0  0  0  0  0
  148.6290  143.2069  155.0398 H   0  0  0  0  0  0  0  0  0  0  0  0
  150.0751  142.6633  154.2745 H   0  0  0  0  0  0  0  0  0  0  0  0
  150.3909  143.9629  156.5547 H   0  0  0  0  0  0  0  0  0  0  0  0
  150.9683  141.9366  158.6726 H   0  0  0  0  0  0  0  0  0  0  0  0
  149.6684  144.6022  158.7665 H   0  0  0  0  0  0  0  0  0  0  0  0
  149.6870  143.3554  160.0009 H   0  0  0  0  0  0  0  0  0  0  0  0
  151.0837  145.6713  160.3444 H   0  0  0  0  0  0  0  0  0  0  0  0
  151.7549  144.1355  160.8881 H   0  0  0  0  0  0  0  0  0  0  0  0
  152.3389  145.5595  158.2704 H   0  0  0  0  0  0  0  0  0  0  0  0
  153.5153  144.9743  159.4458 H   0  0  0  0  0  0  0  0  0  0  0  0
  153.1057  142.6941  158.8517 H   0  0  0  0  0  0  0  0  0  0  0  0
  152.9347  143.4572  157.2826 H   0  0  0  0  0  0  0  0  0  0  0  0
  1 20  1  0  0  0  0
  1 21  1  0  0  0  0
  1 22  1  0  0  0  0
  1  2  1  0  0  0  0
  2  3  1  0  0  0  0
  2 18  2  0  0  0  0
  3  4  1  0  0  0  0
  3 19  1  0  0  0  0
  4  6  2  0  0  0  0
  4  5  1  0  0  0  0
  5 23  1  0  0  0  0
  5 24  1  0  0  0  0
  5 25  1  0  0  0  0
  6 16  1  0  0  0  0
  6  7  1  0  0  0  0
  7  8  1  0  0  0  0
  7 26  1  0  0  0  0
  7 27  1  0  0  0  0
  8  9  2  0  0  0  0
  8 10  1  0  0  0  0
 10 11  1  0  0  0  0
 10 28  1  0  0  0  0
 11 15  1  0  0  0  0
 11 12  1  0  0  0  0
 11 29  1  0  0  0  0
 12 13  1  0  0  0  0
 12 30  1  0  0  0  0
 12 31  1  0  0  0  0
 13 14  1  0  0  0  0
 13 32  1  0  0  0  0
 13 33  1  0  0  0  0
 14 15  1  0  0  0  0
 14 34  1  0  0  0  0
 14 35  1  0  0  0  0
 15 36  1  0  0  0  0
 15 37  1  0  0  0  0
 16 17  2  0  0  0  0
 16 18  1  0  0  0  0
M  END
> <s_m_source_file>
AV-unprocessed.smi

> <i_m_source_file_index>
1313

> <i_lp_mmshare_version>
43012

> <i_f3d_flags>
0

> <s_epik_input>
W0NIM11jMW5jKFtDSDNdKWMoYyg9TylbbkhdMSlbQ0gyXUMoPU8pW05IXVtDSF0yW0NIMl1bQ0gyXVtDSDJdW0NIMl0y

> <s_epik_cmdline>
J2VwaWtfcHl0aG9uJywgJy1waCcsICc3LjAnLCAnLXRuJywgJzgnLCAnLW1hJywgJzIwMCcsICctbWV0YWxfYmluZGluZycsICctaW1hZScsICc8aW5maWxlLm1hZT4nLCAnLW9tYWUnLCAnPG91dGZpbGUubWFlPic=

> <r_lp_tautomer_probability>
0.156392

> <r_epik_Ionization_Penalty>
0.0140409

> <r_epik_Ionization_Penalty_Charging>
0.0139177

> <r_epik_Ionization_Penalty_Neutral>
0.000123229

> <r_epik_State_Penalty>
1.53066

> <r_epik_Charging_Adjusted_Penalty>
1.54458

> <i_epik_Tot_Q>
0

> <i_epik_Tot_abs_Q>
0

> <r_epik_Metal_State_Penalty>
1.70649

> <b_epik_Metal_Only>
0

> <s_lp_Force_Field>
OPLS_2005

> <r_lp_Energy>
23.2441

> <b_lp_Chiralities_Consistent>
1

> <s_lp_Variant>
AV-unprocessed.smi:1313-2

> <Gold.Version>
5.8.1

> <Gold.Id.Protein>
6NUR|6NUR_protein|mol2

> <Gold.PLP.Fitness>
40.7909

> <Gold.PLP.PLP>
-33.3461

> <Gold.PLP.part.hbond>
-3.0000

> <Gold.PLP.part.metal>
0.0000

> <Gold.PLP.part.buried>
1.9343

> <Gold.PLP.part.nonpolar>
-33.8348

> <Gold.PLP.part.repulsive>
1.7030

> <Gold.PLP.ligand.clash>
0.0000

> <Gold.PLP.ligand.torsion>
0.1190

> <Gold.PLP.Chemscore.Hbond>
2.5600

> <Gold.PLP.Chemscore.CHOScore>
0.0000

> <Gold.PLP.Chemscore.Metal>
0.0000

> <Gold.Chemscore.Hbonds>
donor molecule, donor type, donor heavy atom, donor atom, acceptor molecule, acceptor atom, score
      L1  H     3    19       P1 10175  1.00
      L1  H    10    28       P1  8028  0.54
      P1  H  7989  7998       L1    17  1.00

> <Gold.PLP.Chemscore.Internal.Correction>
0.0028

> <Gold.Rescore>
     Score         DG    S(hbond)    S(metal)    S(lipo)     H(rot)  DE(clash)    DE(int)     intcor
     13.38     -20.80       2.64        0.00      88.72       1.51       3.56       3.86       ----

> <Gold.Chemscore.Fitness>
13.3782

> <Gold.Chemscore.DG>
-20.7974

> <Gold.Chemscore.ZeroCoef>
-5.4800

> <Gold.Chemscore.Hbond>
2.6377

> <Gold.Chemscore.Metal>
0.0000

> <Gold.Chemscore.Lipo>
88.7184

> <Gold.Chemscore.Internal_Hbond>
0.0000

> <Gold.Chemscore.DEClash>
3.5561

> <Gold.Chemscore.DEInternal>
3.8631

> <Gold.Chemscore.Rot>
1.5128

> <Gold.Chemscore.Internal.Correction>
   9.000000E+99

> <Gold.Chemscore.Hbonds>
donor molecule, donor type, donor heavy atom, donor atom, acceptor molecule, acceptor atom, score
      L1  H     3    19       P1 10175  0.92
      L1  H    10    28       P1  8028  0.54
      P1  H  7989  7998       L1    17  0.80

> <Gold.Chemscore.Hbond.Weighted>
-8.8100

> <Gold.Chemscore.Metal.Weighted>
-0.0000

> <Gold.Chemscore.Lipo.Weighted>
-10.3801

> <Gold.Chemscore.Internal_Hbond.Weighted>
0.0000

> <Gold.Chemscore.DEClash.Weighted>
3.5561

> <Gold.Chemscore.DEInternal.Weighted>
3.8631

> <Gold.Chemscore.Rot.Weighted>
3.8727

> <Gold.Chemscore.Internal.Correction.Weighted>
   9.000000E+99

> <Gold.Protein.RotatedTorsions>
[ 6907 6896 6895 6894 ] final   14.21 input  -60.11 | X-H torsion
[ 7974 7965 7964 7962 ] final    8.97 input  175.53 | X-H torsion
[ 8008 7997 7996 7995 ] final -149.31 input   59.86 | X-H torsion
[ 10167 10162 10161 10158 ] final  141.31 input  -65.29 | X-H torsion
[ 10718 10713 10712 10709 ] final   84.06 input   66.30 | X-H torsion
[ 10763 10752 10751 10750 ] final -151.21 input  -60.55 | X-H torsion
[ 11005 11000 10999 10996 ] final  -18.69 input  -57.11 | X-H torsion

> <Gold.Protein.ActiveResidues>
 VAL166  LYS551  ARG553  GLY616  TRP617  ASP618  TYR619  PRO620  LYS621  CYS622 
 ASP623  PHE694  ASN695  SER759  ASP760  ASP761  ALA762  ILE779  LEU786  VAL792 
 PHE793  MET794  SER795  GLU796  ALA797  LYS798  CYS799  TRP800  GLU811  SER814 

> <Gold.Protein.RotatedAtoms>
  151.7986  135.0715  160.0396 H   0  0  0  0  0  0  0  0  0  0  0  0  # atno 6907 bound_to 6896
  152.3105  133.5743  159.5686 H   0  0  0  0  0  0  0  0  0  0  0  0  # atno 6908 bound_to 6896
  150.7317  134.0075  159.3700 H   0  0  0  0  0  0  0  0  0  0  0  0  # atno 6909 bound_to 6896
  146.2409  139.9853  142.8431 H   0  0  0  0  0  0  0  0  0  0  0  0  # atno 7974 bound_to 7965
  155.6056  140.0666  157.2721 H   0  0  0  0  0  0  0  0  0  0  0  0  # atno 8008 bound_to 7997
  154.4267  140.1810  156.1266 H   0  0  0  0  0  0  0  0  0  0  0  0  # atno 8009 bound_to 7997
  156.0125  140.3325  155.6959 H   0  0  0  0  0  0  0  0  0  0  0  0  # atno 8010 bound_to 7997
  139.5024  144.6179  151.6120 H   0  0  0  0  0  0  0  0  0  0  0  0  # atno 10167 bound_to 10162
  157.6891  131.0117  150.2617 H   0  0  0  0  0  0  0  0  0  0  0  0  # atno 10718 bound_to 10713
  154.8071  135.3265  154.7401 H   0  0  0  0  0  0  0  0  0  0  0  0  # atno 10763 bound_to 10752
  153.8058  135.6900  153.4853 H   0  0  0  0  0  0  0  0  0  0  0  0  # atno 10764 bound_to 10752
  153.1825  135.4581  154.9991 H   0  0  0  0  0  0  0  0  0  0  0  0  # atno 10765 bound_to 10752
  140.8292  133.8009  155.9741 H   0  0  0  0  0  0  0  0  0  0  0  0  # atno 11005 bound_to 11000
  145.1554  140.9645  143.4408 LP  0  0  0  0  0  0  0  0  0  0  0  0  # atno 17320 bound_to 7965
  145.0166  139.3461  143.6093 LP  0  0  0  0  0  0  0  0  0  0  0  0  # atno 17321 bound_to 7965
  140.5873  143.9842  150.6303 LP  0  0  0  0  0  0  0  0  0  0  0  0  # atno 17342 bound_to 10162
  140.3011  143.3260  152.0971 LP  0  0  0  0  0  0  0  0  0  0  0  0  # atno 17343 bound_to 10162
  156.3195  130.3784  149.7588 LP  0  0  0  0  0  0  0  0  0  0  0  0  # atno 17370 bound_to 10713
  156.5163  130.8194  151.3187 LP  0  0  0  0  0  0  0  0  0  0  0  0  # atno 17371 bound_to 10713
  140.9016  134.2371  157.5038 LP  0  0  0  0  0  0  0  0  0  0  0  0  # atno 17394 bound_to 11000
  139.8705  134.9709  156.4718 LP  0  0  0  0  0  0  0  0  0  0  0  0  # atno 17395 bound_to 11000

$$$$
