AV-unprocessed.smi:1983|AV-procd|sdf|8031|dock5
  -GOLD-   2272010223D 1   1.00000     0.00000
 Structure written by MMmdl.
 49 50  0  0  0  0  0  0  0  0  1 V2000
  144.9479  134.5914  153.3613 C   0  0  0  0  0  0  0  0  0  0  0  0
  145.5341  134.9913  151.9988 C   0  0  1  0  0  0  0  0  0  0  0  0
  144.4377  135.2836  150.9545 C   0  0  0  0  0  0  0  0  0  0  0  0
  144.9955  135.8901  149.8081 O   0  0  0  0  0  0  0  0  0  0  0  0
  146.3953  136.1577  152.1742 N   0  0  0  0  0  0  0  0  0  0  0  0
  145.9707  137.3983  152.4540 C   0  0  0  0  0  0  0  0  0  0  0  0
  144.7876  137.7069  152.5994 O   0  0  0  0  0  0  0  0  0  0  0  0
  146.9903  138.2609  152.5683 N   0  0  0  0  0  0  0  0  0  0  0  0
  146.8466  139.6710  152.9105 C   0  0  0  0  0  0  0  0  0  0  0  0
  147.7451  140.0904  154.0605 C   0  0  0  0  0  0  0  0  0  0  0  0
  147.5609  139.5640  155.3541 C   0  0  0  0  0  0  0  0  0  0  0  0
  148.4109  139.9922  156.3915 C   0  0  0  0  0  0  0  0  0  0  0  0
  149.4219  140.9401  156.1068 C   0  0  0  0  0  0  0  0  0  0  0  0
  150.2793  141.3839  157.1349 N   0  0  0  0  0  0  0  0  0  0  0  0
  151.0477  140.3821  157.8678 C   0  0  0  0  0  0  0  0  0  0  0  0
  152.1547  141.0592  158.6948 C   0  0  2  0  0  0  0  0  0  0  0  0
  152.9051  140.0561  159.5767 C   0  0  0  0  0  0  0  0  0  0  0  0
  151.5773  142.0505  159.5437 O   0  0  0  0  0  0  0  0  0  0  0  0
  150.8366  143.0660  158.8621 C   0  0  1  0  0  0  0  0  0  0  0  0
  151.7500  144.0294  158.0835 C   0  0  0  0  0  0  0  0  0  0  0  0
  149.7329  142.4305  157.9932 C   0  0  0  0  0  0  0  0  0  0  0  0
  149.5927  141.4472  154.8606 N   0  0  0  0  0  0  0  0  0  0  0  0
  148.7779  141.0300  153.8687 C   0  0  0  0  0  0  0  0  0  0  0  0
  144.3347  133.6937  153.2795 H   0  0  0  0  0  0  0  0  0  0  0  0
  144.3229  135.3843  153.7730 H   0  0  0  0  0  0  0  0  0  0  0  0
  145.7385  134.3812  154.0823 H   0  0  0  0  0  0  0  0  0  0  0  0
  146.1515  134.1648  151.6413 H   0  0  0  0  0  0  0  0  0  0  0  0
  143.9136  134.3712  150.6683 H   0  0  0  0  0  0  0  0  0  0  0  0
  143.6913  135.9693  151.3571 H   0  0  0  0  0  0  0  0  0  0  0  0
  144.4717  136.6438  149.5828 H   0  0  0  0  0  0  0  0  0  0  0  0
  147.3884  136.0060  152.0771 H   0  0  0  0  0  0  0  0  0  0  0  0
  147.9285  137.9162  152.4273 H   0  0  0  0  0  0  0  0  0  0  0  0
  147.1056  140.2646  152.0335 H   0  0  0  0  0  0  0  0  0  0  0  0
  145.8039  139.8987  153.1389 H   0  0  0  0  0  0  0  0  0  0  0  0
  146.7781  138.8464  155.5514 H   0  0  0  0  0  0  0  0  0  0  0  0
  148.2706  139.6054  157.3900 H   0  0  0  0  0  0  0  0  0  0  0  0
  150.3768  139.8224  158.5209 H   0  0  0  0  0  0  0  0  0  0  0  0
  151.4968  139.6702  157.1739 H   0  0  0  0  0  0  0  0  0  0  0  0
  152.8782  141.5248  158.0251 H   0  0  0  0  0  0  0  0  0  0  0  0
  153.3800  139.2823  158.9731 H   0  0  0  0  0  0  0  0  0  0  0  0
  152.2312  139.5664  160.2802 H   0  0  0  0  0  0  0  0  0  0  0  0
  153.6854  140.5528  160.1539 H   0  0  0  0  0  0  0  0  0  0  0  0
  150.3475  143.6557  159.6377 H   0  0  0  0  0  0  0  0  0  0  0  0
  151.1763  144.8658  157.6838 H   0  0  0  0  0  0  0  0  0  0  0  0
  152.2421  143.5443  157.2409 H   0  0  0  0  0  0  0  0  0  0  0  0
  152.5234  144.4405  158.7324 H   0  0  0  0  0  0  0  0  0  0  0  0
  149.2288  143.2066  157.4183 H   0  0  0  0  0  0  0  0  0  0  0  0
  148.9766  141.9794  158.6371 H   0  0  0  0  0  0  0  0  0  0  0  0
  148.9529  141.4664  152.8963 H   0  0  0  0  0  0  0  0  0  0  0  0
  1  2  1  0  0  0  0
  1 24  1  0  0  0  0
  1 25  1  0  0  0  0
  1 26  1  0  0  0  0
  2  3  1  0  0  0  0
  2  5  1  0  0  0  0
  2 27  1  0  0  0  0
  3  4  1  0  0  0  0
  3 28  1  0  0  0  0
  3 29  1  0  0  0  0
  4 30  1  0  0  0  0
  5  6  1  0  0  0  0
  5 31  1  0  0  0  0
  6  7  2  0  0  0  0
  6  8  1  0  0  0  0
  8  9  1  0  0  0  0
  8 32  1  0  0  0  0
  9 10  1  0  0  0  0
  9 33  1  0  0  0  0
  9 34  1  0  0  0  0
 10 23  1  0  0  0  0
 10 11  2  0  0  0  0
 11 12  1  0  0  0  0
 11 35  1  0  0  0  0
 12 13  2  0  0  0  0
 12 36  1  0  0  0  0
 13 14  1  0  0  0  0
 13 22  1  0  0  0  0
 14 21  1  0  0  0  0
 14 15  1  0  0  0  0
 15 16  1  0  0  0  0
 15 37  1  0  0  0  0
 15 38  1  0  0  0  0
 16 17  1  0  0  0  0
 16 18  1  0  0  0  0
 16 39  1  0  0  0  0
 17 40  1  0  0  0  0
 17 41  1  0  0  0  0
 17 42  1  0  0  0  0
 18 19  1  0  0  0  0
 19 20  1  0  0  0  0
 19 21  1  0  0  0  0
 19 43  1  0  0  0  0
 20 44  1  0  0  0  0
 20 45  1  0  0  0  0
 20 46  1  0  0  0  0
 21 47  1  0  0  0  0
 21 48  1  0  0  0  0
 22 23  2  0  0  0  0
 23 49  1  0  0  0  0
M  END
> <s_m_source_file>
AV-unprocessed.smi

> <i_m_source_file_index>
1983

> <i_lp_mmshare_version>
43012

> <i_f3d_flags>
0

> <s_epik_input>
W09IXVtDSDJdW0NAQEhdKFtDSDNdKVtOSF1DKD1PKVtOSF1bQ0gyXWMxW2NIXVtjSF1jKG5bY0hdMSlOMltDSDJdW0NAQEhdKFtDSDNdKU9bQ0BASF0oW0NIM10pW0NIMl0y

> <s_epik_cmdline>
J2VwaWtfcHl0aG9uJywgJy1waCcsICc3LjAnLCAnLXRuJywgJzgnLCAnLW1hJywgJzIwMCcsICctbWV0YWxfYmluZGluZycsICctaW1hZScsICc8aW5maWxlLm1hZT4nLCAnLW9tYWUnLCAnPG91dGZpbGUubWFlPic=

> <r_lp_tautomer_probability>
1

> <r_epik_Ionization_Penalty>
0.00801967

> <r_epik_Ionization_Penalty_Charging>
0

> <r_epik_Ionization_Penalty_Neutral>
0.00801967

> <r_epik_State_Penalty>
0.00598289

> <r_epik_Charging_Adjusted_Penalty>
0.00598289

> <i_epik_Tot_Q>
0

> <i_epik_Tot_abs_Q>
0

> <r_epik_Metal_State_Penalty>
0.00590297

> <b_epik_Metal_Only>
0

> <s_lp_Force_Field>
OPLS_2005

> <r_lp_Energy>
16.1949

> <b_lp_Chiralities_Consistent>
1

> <s_lp_Variant>
AV-unprocessed.smi:1983-4

> <Gold.Version>
5.8.1

> <Gold.Id.Protein>
6NUR|6NUR_protein|mol2

> <Gold.PLP.Fitness>
43.1008

> <Gold.PLP.PLP>
-33.0212

> <Gold.PLP.part.hbond>
-4.5527

> <Gold.PLP.part.metal>
0.0000

> <Gold.PLP.part.buried>
-5.2027

> <Gold.PLP.part.nonpolar>
-25.8281

> <Gold.PLP.part.repulsive>
1.7772

> <Gold.PLP.ligand.clash>
0.0000

> <Gold.PLP.ligand.torsion>
0.5272

> <Gold.PLP.Chemscore.Hbond>
2.8320

> <Gold.PLP.Chemscore.CHOScore>
0.7589

> <Gold.PLP.Chemscore.Metal>
0.0000

> <Gold.Chemscore.Hbonds>
donor molecule, donor type, donor heavy atom, donor atom, acceptor molecule, acceptor atom, score
      L1  H     4    30       P1 10171  1.00
      L1  H     5    31       P1  7948  1.00
      L1  H     8    32       P1  7948  0.84
      L1  C    23    49       P1  7957  0.78

> <Gold.PLP.Chemscore.Internal.Correction>
0.3613

> <Gold.Rescore>
     Score         DG    S(hbond)    S(metal)    S(lipo)     H(rot)  DE(clash)    DE(int)     intcor
     15.13     -17.41       2.78        0.00      79.78       2.61       0.37       1.91       ----

> <Gold.Chemscore.Fitness>
15.1304

> <Gold.Chemscore.DG>
-17.4115

> <Gold.Chemscore.ZeroCoef>
-5.4800

> <Gold.Chemscore.Hbond>
2.7780

> <Gold.Chemscore.Metal>
0.0000

> <Gold.Chemscore.Lipo>
79.7784

> <Gold.Chemscore.Internal_Hbond>
0.0000

> <Gold.Chemscore.DEClash>
0.3674

> <Gold.Chemscore.DEInternal>
1.9137

> <Gold.Chemscore.Rot>
2.6097

> <Gold.Chemscore.Internal.Correction>
   9.000000E+99

> <Gold.Chemscore.Hbonds>
donor molecule, donor type, donor heavy atom, donor atom, acceptor molecule, acceptor atom, score
      L1  H     4    30       P1 10171  0.93
      L1  H     5    31       P1  7948  0.97
      L1  H     8    32       P1  7948  0.78

> <Gold.Chemscore.Hbond.Weighted>
-9.2784

> <Gold.Chemscore.Metal.Weighted>
-0.0000

> <Gold.Chemscore.Lipo.Weighted>
-9.3341

> <Gold.Chemscore.Internal_Hbond.Weighted>
0.0000

> <Gold.Chemscore.DEClash.Weighted>
0.3674

> <Gold.Chemscore.DEInternal.Weighted>
1.9137

> <Gold.Chemscore.Rot.Weighted>
6.6809

> <Gold.Chemscore.Internal.Correction.Weighted>
   9.000000E+99

> <Gold.Protein.RotatedTorsions>
[ 6907 6896 6895 6894 ] final  157.67 input  -60.11 | X-H torsion
[ 7974 7965 7964 7962 ] final   -8.92 input  175.53 | X-H torsion
[ 8008 7997 7996 7995 ] final -119.05 input   59.86 | X-H torsion
[ 10167 10162 10161 10158 ] final -125.04 input  -65.29 | X-H torsion
[ 10718 10713 10712 10709 ] final  172.69 input   66.30 | X-H torsion
[ 10763 10752 10751 10750 ] final  -31.80 input  -60.55 | X-H torsion
[ 11005 11000 10999 10996 ] final   98.23 input  -57.11 | X-H torsion

> <Gold.Protein.ActiveResidues>
 VAL166  LYS551  ARG553  GLY616  TRP617  ASP618  TYR619  PRO620  LYS621  CYS622 
 ASP623  PHE694  ASN695  SER759  ASP760  ASP761  ALA762  ILE779  LEU786  VAL792 
 PHE793  MET794  SER795  GLU796  ALA797  LYS798  CYS799  TRP800  GLU811  SER814 

> <Gold.Protein.RotatedAtoms>
  152.0116  133.3863  159.4221 H   0  0  0  0  0  0  0  0  0  0  0  0  # atno 6907 bound_to 6896
  150.6899  134.3724  159.5007 H   0  0  0  0  0  0  0  0  0  0  0  0  # atno 6908 bound_to 6896
  152.1485  134.9006  160.0600 H   0  0  0  0  0  0  0  0  0  0  0  0  # atno 6909 bound_to 6896
  146.2267  140.2540  142.8348 H   0  0  0  0  0  0  0  0  0  0  0  0  # atno 7974 bound_to 7965
  155.1096  140.0397  157.2720 H   0  0  0  0  0  0  0  0  0  0  0  0  # atno 8008 bound_to 7997
  154.6696  140.2609  155.6996 H   0  0  0  0  0  0  0  0  0  0  0  0  # atno 8009 bound_to 7997
  156.2653  140.2800  156.1199 H   0  0  0  0  0  0  0  0  0  0  0  0  # atno 8010 bound_to 7997
  139.9863  143.5688  152.2359 H   0  0  0  0  0  0  0  0  0  0  0  0  # atno 10167 bound_to 10162
  156.9752  131.0102  151.2895 H   0  0  0  0  0  0  0  0  0  0  0  0  # atno 10718 bound_to 10713
  153.8033  135.6888  153.4852 H   0  0  0  0  0  0  0  0  0  0  0  0  # atno 10763 bound_to 10752
  153.1674  135.4556  154.9855 H   0  0  0  0  0  0  0  0  0  0  0  0  # atno 10764 bound_to 10752
  154.7997  135.3333  154.7520 H   0  0  0  0  0  0  0  0  0  0  0  0  # atno 10765 bound_to 10752
  139.8773  134.9039  156.4426 H   0  0  0  0  0  0  0  0  0  0  0  0  # atno 11005 bound_to 11000
  144.9390  140.8058  143.5642 LP  0  0  0  0  0  0  0  0  0  0  0  0  # atno 17320 bound_to 7965
  145.2490  139.2040  143.4952 LP  0  0  0  0  0  0  0  0  0  0  0  0  # atno 17321 bound_to 7965
  139.6372  144.7651  151.2412 LP  0  0  0  0  0  0  0  0  0  0  0  0  # atno 17342 bound_to 10162
  140.7471  143.6377  150.8363 LP  0  0  0  0  0  0  0  0  0  0  0  0  # atno 17343 bound_to 10162
  157.5564  130.8216  149.8210 LP  0  0  0  0  0  0  0  0  0  0  0  0  # atno 17370 bound_to 10713
  156.0266  130.3777  150.1805 LP  0  0  0  0  0  0  0  0  0  0  0  0  # atno 17371 bound_to 10713
  140.8989  133.7794  155.9657 LP  0  0  0  0  0  0  0  0  0  0  0  0  # atno 17394 bound_to 11000
  140.8673  134.2769  157.5207 LP  0  0  0  0  0  0  0  0  0  0  0  0  # atno 17395 bound_to 11000

$$$$
