AV-unprocessed.smi:1115|AV-procd|sdf|4804|dock9
  -GOLD-   22720 3353D 1   1.00000     0.00000
 Structure written by MMmdl.
 52 53  0  0  0  0  0  0  0  0  3 V2000
  138.8469  139.1799  153.3230 C   0  0  0  0  0  0  0  0  0  0  0  0
  140.2628  139.0614  153.6460 N   0  0  0  0  0  0  0  0  0  0  0  0
  140.9987  140.2088  154.1654 C   0  0  0  0  0  0  0  0  0  0  0  0
  140.9125  137.8158  153.5077 C   0  0  0  0  0  0  0  0  0  0  0  0
  140.2855  136.5778  153.7917 C   0  0  0  0  0  0  0  0  0  0  0  0
  141.0017  135.3747  153.6270 C   0  0  0  0  0  0  0  0  0  0  0  0
  142.3416  135.4081  153.1876 C   0  0  0  0  0  0  0  0  0  0  0  0
  143.0148  134.1665  153.0241 N   0  0  0  0  0  0  0  0  0  0  0  0
  144.1587  133.9107  152.3660 C   0  0  0  0  0  0  0  0  0  0  0  0
  144.8618  134.7513  151.8064 O   0  0  0  0  0  0  0  0  0  0  0  0
  144.4627  132.6055  152.4117 N   0  0  0  0  0  0  0  0  0  0  0  0
  145.6340  131.9833  151.7951 C   0  0  0  0  0  0  0  0  0  0  0  0
  146.8286  131.7944  152.7785 C   0  0  0  0  0  0  0  0  0  0  0  0
  147.8849  132.9089  152.5685 C   0  0  0  0  0  0  0  0  0  0  0  0
  146.3312  131.9455  154.2377 C   0  0  0  0  0  0  0  0  0  0  0  0
  147.4753  130.4437  152.6021 N   0  3  0  0  0  0  0  0  0  0  0  0
  148.4155  130.0286  153.6821 C   0  0  0  0  0  0  0  0  0  0  0  0
  149.1451  128.7310  153.2973 C   0  0  0  0  0  0  0  0  0  0  0  0
  148.1947  127.7071  153.0413 O   0  0  0  0  0  0  0  0  0  0  0  0
  147.3447  128.0417  151.9536 C   0  0  0  0  0  0  0  0  0  0  0  0
  146.5515  129.3167  152.2863 C   0  0  0  0  0  0  0  0  0  0  0  0
  142.9211  136.6689  152.9079 C   0  0  0  0  0  0  0  0  0  0  0  0
  142.1981  137.7967  153.0783 N   0  3  0  0  0  0  0  0  0  0  0  0
  138.6623  138.8853  152.2895 H   0  0  0  0  0  0  0  0  0  0  0  0
  138.4978  140.2059  153.4422 H   0  0  0  0  0  0  0  0  0  0  0  0
  138.2510  138.5452  153.9798 H   0  0  0  0  0  0  0  0  0  0  0  0
  141.8329  140.4584  153.5093 H   0  0  0  0  0  0  0  0  0  0  0  0
  141.3916  139.9941  155.1599 H   0  0  0  0  0  0  0  0  0  0  0  0
  140.3596  141.0887  154.2425 H   0  0  0  0  0  0  0  0  0  0  0  0
  139.2628  136.5289  154.1342 H   0  0  0  0  0  0  0  0  0  0  0  0
  140.5204  134.4317  153.8425 H   0  0  0  0  0  0  0  0  0  0  0  0
  142.5893  133.3800  153.4928 H   0  0  0  0  0  0  0  0  0  0  0  0
  143.8297  131.9890  152.9003 H   0  0  0  0  0  0  0  0  0  0  0  0
  145.2968  131.0189  151.4171 H   0  0  0  0  0  0  0  0  0  0  0  0
  145.9362  132.5553  150.9176 H   0  0  0  0  0  0  0  0  0  0  0  0
  147.5189  133.8820  152.8972 H   0  0  0  0  0  0  0  0  0  0  0  0
  148.1578  133.0278  151.5199 H   0  0  0  0  0  0  0  0  0  0  0  0
  148.7956  132.7061  153.1333 H   0  0  0  0  0  0  0  0  0  0  0  0
  146.0338  132.9713  154.4585 H   0  0  0  0  0  0  0  0  0  0  0  0
  147.1103  131.6783  154.9528 H   0  0  0  0  0  0  0  0  0  0  0  0
  145.4580  131.3277  154.4457 H   0  0  0  0  0  0  0  0  0  0  0  0
  149.1688  130.7903  153.8727 H   0  0  0  0  0  0  0  0  0  0  0  0
  147.8740  129.8689  154.6146 H   0  0  0  0  0  0  0  0  0  0  0  0
  149.7812  128.8842  152.4239 H   0  0  0  0  0  0  0  0  0  0  0  0
  149.7954  128.4109  154.1117 H   0  0  0  0  0  0  0  0  0  0  0  0
  147.9315  128.1730  151.0429 H   0  0  0  0  0  0  0  0  0  0  0  0
  146.6610  127.2119  151.7735 H   0  0  0  0  0  0  0  0  0  0  0  0
  145.8911  129.1199  153.1308 H   0  0  0  0  0  0  0  0  0  0  0  0
  145.9198  129.5425  151.4296 H   0  0  0  0  0  0  0  0  0  0  0  0
  143.9244  136.8292  152.5440 H   0  0  0  0  0  0  0  0  0  0  0  0
  142.6474  138.6881  152.8674 H   0  0  0  0  0  0  0  0  0  0  0  0
  148.0512  130.5456  151.7785 H   0  0  0  0  0  0  0  0  0  0  0  0
  1  2  1  0  0  0  0
  1 24  1  0  0  0  0
  1 25  1  0  0  0  0
  1 26  1  0  0  0  0
  2  3  1  0  0  0  0
  2  4  1  0  0  0  0
  3 27  1  0  0  0  0
  3 28  1  0  0  0  0
  3 29  1  0  0  0  0
  4 23  1  0  0  0  0
  4  5  2  0  0  0  0
  5  6  1  0  0  0  0
  5 30  1  0  0  0  0
  6  7  2  0  0  0  0
  6 31  1  0  0  0  0
  7  8  1  0  0  0  0
  7 22  1  0  0  0  0
  8  9  1  0  0  0  0
  8 32  1  0  0  0  0
  9 10  2  0  0  0  0
  9 11  1  0  0  0  0
 11 12  1  0  0  0  0
 11 33  1  0  0  0  0
 12 13  1  0  0  0  0
 12 34  1  0  0  0  0
 12 35  1  0  0  0  0
 13 14  1  0  0  0  0
 13 15  1  0  0  0  0
 13 16  1  0  0  0  0
 14 36  1  0  0  0  0
 14 37  1  0  0  0  0
 14 38  1  0  0  0  0
 15 39  1  0  0  0  0
 15 40  1  0  0  0  0
 15 41  1  0  0  0  0
 16 21  1  0  0  0  0
 16 17  1  0  0  0  0
 16 52  1  0  0  0  0
 17 18  1  0  0  0  0
 17 42  1  0  0  0  0
 17 43  1  0  0  0  0
 18 19  1  0  0  0  0
 18 44  1  0  0  0  0
 18 45  1  0  0  0  0
 19 20  1  0  0  0  0
 20 21  1  0  0  0  0
 20 46  1  0  0  0  0
 20 47  1  0  0  0  0
 21 48  1  0  0  0  0
 21 49  1  0  0  0  0
 22 23  2  0  0  0  0
 22 50  1  0  0  0  0
 23 51  1  0  0  0  0
M  CHG  1  16   1
M  CHG  1  23   1
M  END
> <s_m_source_file>
AV-unprocessed.smi

> <i_m_source_file_index>
1115

> <i_lp_mmshare_version>
43012

> <i_f3d_flags>
0

> <s_epik_input>
W0NIM11OKFtDSDNdKWMxW2NIXVtjSF1jKFtjSF1uMSlbTkhdQyg9TylbTkhdW0NIMl1DKFtDSDNdKShbQ0gzXSlOMltDSDJdW0NIMl1PW0NIMl1bQ0gyXTI=

> <s_epik_cmdline>
J2VwaWtfcHl0aG9uJywgJy1waCcsICc3LjAnLCAnLXRuJywgJzgnLCAnLW1hJywgJzIwMCcsICctbWV0YWxfYmluZGluZycsICctaW1hZScsICc8aW5maWxlLm1hZT4nLCAnLW9tYWUnLCAnPG91dGZpbGUubWFlPic=

> <r_lp_tautomer_probability>
0.999994

> <r_epik_Ionization_Penalty>
0.90424

> <r_epik_Ionization_Penalty_Charging>
0.90422

> <r_epik_Ionization_Penalty_Neutral>
2.023e-05

> <r_epik_State_Penalty>
0.905868

> <r_epik_Charging_Adjusted_Penalty>
1.81009

> <i_epik_Tot_Q>
2

> <i_epik_Tot_abs_Q>
2

> <r_epik_Metal_State_Penalty>
1.19318

> <b_epik_Metal_Only>
0

> <s_lp_Force_Field>
OPLS_2005

> <r_lp_Energy>
35.8961

> <b_lp_Chiralities_Consistent>
1

> <s_lp_Variant>
AV-unprocessed.smi:1115-3

> <Gold.Version>
5.8.1

> <Gold.Id.Protein>
6NUR|6NUR_protein|mol2

> <Gold.PLP.Fitness>
46.2798

> <Gold.PLP.PLP>
-41.1751

> <Gold.PLP.part.hbond>
-3.2634

> <Gold.PLP.part.metal>
0.0000

> <Gold.PLP.part.buried>
-5.4385

> <Gold.PLP.part.nonpolar>
-32.7516

> <Gold.PLP.part.repulsive>
0.2834

> <Gold.PLP.ligand.clash>
1.9933

> <Gold.PLP.ligand.torsion>
2.1677

> <Gold.PLP.Chemscore.Hbond>
3.7770

> <Gold.PLP.Chemscore.CHOScore>
0.0000

> <Gold.PLP.Chemscore.Metal>
0.0000

> <Gold.Chemscore.Hbonds>
donor molecule, donor type, donor heavy atom, donor atom, acceptor molecule, acceptor atom, score
      L1  H     8    32       P1 10957  0.93
      L1  H    11    33       P1 10957  0.05
      L1  H    16    52       P1 10747  1.00
      L1  H    23    51       P1 10175  1.98

> <Gold.PLP.Chemscore.Internal.Correction>
0.1025

> <Gold.Rescore>
     Score         DG    S(hbond)    S(metal)    S(lipo)     H(rot)  DE(clash)    DE(int)     intcor
     17.06     -20.73       2.81        0.00      82.64       1.49       0.04       3.64       ----

> <Gold.Chemscore.Fitness>
17.0563

> <Gold.Chemscore.DG>
-20.7332

> <Gold.Chemscore.ZeroCoef>
-5.4800

> <Gold.Chemscore.Hbond>
2.8124

> <Gold.Chemscore.Metal>
0.0000

> <Gold.Chemscore.Lipo>
82.6378

> <Gold.Chemscore.Internal_Hbond>
0.0000

> <Gold.Chemscore.DEClash>
0.0407

> <Gold.Chemscore.DEInternal>
3.6362

> <Gold.Chemscore.Rot>
1.4878

> <Gold.Chemscore.Internal.Correction>
   9.000000E+99

> <Gold.Chemscore.Hbonds>
donor molecule, donor type, donor heavy atom, donor atom, acceptor molecule, acceptor atom, score
      L1  H     8    32       P1 10957  0.84
      L1  H    16    52       P1 10747  1.00
      L1  H    23    51       P1 10175  0.92

> <Gold.Chemscore.Hbond.Weighted>
-9.3934

> <Gold.Chemscore.Metal.Weighted>
-0.0000

> <Gold.Chemscore.Lipo.Weighted>
-9.6686

> <Gold.Chemscore.Internal_Hbond.Weighted>
0.0000

> <Gold.Chemscore.DEClash.Weighted>
0.0407

> <Gold.Chemscore.DEInternal.Weighted>
3.6362

> <Gold.Chemscore.Rot.Weighted>
3.8089

> <Gold.Chemscore.Internal.Correction.Weighted>
   9.000000E+99

> <Gold.Protein.RotatedTorsions>
[ 6907 6896 6895 6894 ] final  -38.31 input  -60.11 | X-H torsion
[ 7974 7965 7964 7962 ] final -163.19 input  175.53 | X-H torsion
[ 8008 7997 7996 7995 ] final  -14.50 input   59.86 | X-H torsion
[ 10167 10162 10161 10158 ] final  118.53 input  -65.29 | X-H torsion
[ 10718 10713 10712 10709 ] final   62.97 input   66.30 | X-H torsion
[ 10763 10752 10751 10750 ] final   84.79 input  -60.55 | X-H torsion
[ 11005 11000 10999 10996 ] final   87.61 input  -57.11 | X-H torsion

> <Gold.Protein.ActiveResidues>
 VAL166  LYS551  ARG553  GLY616  TRP617  ASP618  TYR619  PRO620  LYS621  CYS622 
 ASP623  PHE694  ASN695  SER759  ASP760  ASP761  ALA762  ILE779  LEU786  VAL792 
 PHE793  MET794  SER795  GLU796  ALA797  LYS798  CYS799  TRP800  GLU811  SER814 

> <Gold.Protein.RotatedAtoms>
  151.0040  134.9345  159.7969 H   0  0  0  0  0  0  0  0  0  0  0  0  # atno 6907 bound_to 6896
  152.5285  134.3116  159.9125 H   0  0  0  0  0  0  0  0  0  0  0  0  # atno 6908 bound_to 6896
  151.3121  133.4034  159.2682 H   0  0  0  0  0  0  0  0  0  0  0  0  # atno 6909 bound_to 6896
  144.7333  140.3143  143.6182 H   0  0  0  0  0  0  0  0  0  0  0  0  # atno 7974 bound_to 7965
  154.5205  140.2221  155.8985 H   0  0  0  0  0  0  0  0  0  0  0  0  # atno 8008 bound_to 7997
  156.1656  140.3133  155.8849 H   0  0  0  0  0  0  0  0  0  0  0  0  # atno 8009 bound_to 7997
  155.3662  140.0464  157.3036 H   0  0  0  0  0  0  0  0  0  0  0  0  # atno 8010 bound_to 7997
  139.6105  144.7080  151.2855 H   0  0  0  0  0  0  0  0  0  0  0  0  # atno 10167 bound_to 10162
  157.5939  130.9080  149.9656 H   0  0  0  0  0  0  0  0  0  0  0  0  # atno 10718 bound_to 10713
  153.1414  135.4641  154.9501 H   0  0  0  0  0  0  0  0  0  0  0  0  # atno 10763 bound_to 10752
  154.7750  135.3170  154.8113 H   0  0  0  0  0  0  0  0  0  0  0  0  # atno 10764 bound_to 10752
  153.8635  135.6910  153.4835 H   0  0  0  0  0  0  0  0  0  0  0  0  # atno 10765 bound_to 10752
  139.8915  134.8434  156.2885 H   0  0  0  0  0  0  0  0  0  0  0  0  # atno 11005 bound_to 11000
  145.7633  139.1832  143.2254 LP  0  0  0  0  0  0  0  0  0  0  0  0  # atno 17320 bound_to 7965
  146.0969  140.7590  142.9568 LP  0  0  0  0  0  0  0  0  0  0  0  0  # atno 17321 bound_to 7965
  140.7316  143.6848  150.7971 LP  0  0  0  0  0  0  0  0  0  0  0  0  # atno 17342 bound_to 10162
  140.0442  143.5315  152.2704 LP  0  0  0  0  0  0  0  0  0  0  0  0  # atno 17343 bound_to 10162
  156.0998  130.3656  150.0239 LP  0  0  0  0  0  0  0  0  0  0  0  0  # atno 17370 bound_to 10713
  156.8357  130.9408  151.3635 LP  0  0  0  0  0  0  0  0  0  0  0  0  # atno 17371 bound_to 10713
  140.9992  133.7162  156.0934 LP  0  0  0  0  0  0  0  0  0  0  0  0  # atno 17394 bound_to 11000
  140.7521  134.4033  157.5539 LP  0  0  0  0  0  0  0  0  0  0  0  0  # atno 17395 bound_to 11000

$$$$
