AV-unprocessed.smi:539|AV-procd|sdf|2868|dock4
  -GOLD-   2262023363D 1   1.00000     0.00000
 Structure written by MMmdl.
 39 41  0  0  0  0  0  0  0  0  2 V2000
  154.6310  136.0385  161.1241 C   0  0  0  0  0  0  0  0  0  0  0  0
  153.6529  136.3276  160.1422 O   0  0  0  0  0  0  0  0  0  0  0  0
  152.9075  137.4967  160.4396 C   0  0  0  0  0  0  0  0  0  0  0  0
  153.7594  138.7446  160.1608 C   0  0  0  0  0  0  0  0  0  0  0  0
  153.0590  139.7091  159.3120 N   0  0  0  0  0  0  0  0  0  0  0  0
  152.6900  140.9944  159.5967 C   0  0  0  0  0  0  0  0  0  0  0  0
  152.9549  141.6489  160.8098 N   0  0  0  0  0  0  0  0  0  0  0  0
  153.7390  141.2262  161.9715 C   0  0  0  0  0  0  0  0  0  0  0  0
  153.9936  142.4447  162.8559 C   0  0  0  0  0  0  0  0  0  0  0  0
  152.7889  143.3102  162.5602 C   0  0  0  0  0  0  0  0  0  0  0  0
  152.5745  143.0352  161.0764 C   0  0  0  0  0  0  0  0  0  0  0  0
  152.0132  141.5962  158.6157 N   0  0  0  0  0  0  0  0  0  0  0  0
  151.9503  140.6329  157.6251 C   0  0  0  0  0  0  0  0  0  0  0  0
  152.5623  139.4844  158.0183 C   0  0  0  0  0  0  0  0  0  0  0  0
  152.6205  138.2643  157.1754 C   0  0  0  0  0  0  0  0  0  0  0  0
  153.1504  137.2307  157.5767 O   0  0  0  0  0  0  0  0  0  0  0  0
  152.0265  138.4470  155.9538 N   0  5  0  0  0  0  0  0  0  0  0  0
  151.4094  139.5977  155.5162 C   0  0  0  0  0  0  0  0  0  0  0  0
  150.9037  139.6789  154.3959 O   0  0  0  0  0  0  0  0  0  0  0  0
  151.3498  140.6911  156.3381 N   0  0  0  0  0  0  0  0  0  0  0  0
  150.6916  141.9269  155.9040 C   0  0  0  0  0  0  0  0  0  0  0  0
  155.1731  135.1353  160.8443 H   0  0  0  0  0  0  0  0  0  0  0  0
  154.1723  135.8678  162.0988 H   0  0  0  0  0  0  0  0  0  0  0  0
  155.3530  136.8510  161.2130 H   0  0  0  0  0  0  0  0  0  0  0  0
  152.0012  137.5160  159.8331 H   0  0  0  0  0  0  0  0  0  0  0  0
  152.5996  137.4866  161.4861 H   0  0  0  0  0  0  0  0  0  0  0  0
  154.0748  139.2175  161.0849 H   0  0  0  0  0  0  0  0  0  0  0  0
  154.6995  138.4562  159.6991 H   0  0  0  0  0  0  0  0  0  0  0  0
  153.1740  140.4829  162.5329 H   0  0  0  0  0  0  0  0  0  0  0  0
  154.6851  140.7802  161.6640 H   0  0  0  0  0  0  0  0  0  0  0  0
  154.0939  142.1923  163.9119 H   0  0  0  0  0  0  0  0  0  0  0  0
  154.9047  142.9540  162.5383 H   0  0  0  0  0  0  0  0  0  0  0  0
  151.9284  142.9665  163.1361 H   0  0  0  0  0  0  0  0  0  0  0  0
  152.9517  144.3657  162.7799 H   0  0  0  0  0  0  0  0  0  0  0  0
  153.2065  143.6896  160.4745 H   0  0  0  0  0  0  0  0  0  0  0  0
  151.5389  143.2191  160.7882 H   0  0  0  0  0  0  0  0  0  0  0  0
  149.6667  141.7272  155.5871 H   0  0  0  0  0  0  0  0  0  0  0  0
  151.2293  142.3670  155.0631 H   0  0  0  0  0  0  0  0  0  0  0  0
  150.6432  142.6778  156.6926 H   0  0  0  0  0  0  0  0  0  0  0  0
  1  2  1  0  0  0  0
  1 22  1  0  0  0  0
  1 23  1  0  0  0  0
  1 24  1  0  0  0  0
  2  3  1  0  0  0  0
  3  4  1  0  0  0  0
  3 25  1  0  0  0  0
  3 26  1  0  0  0  0
  4  5  1  0  0  0  0
  4 27  1  0  0  0  0
  4 28  1  0  0  0  0
  5 14  1  0  0  0  0
  5  6  1  0  0  0  0
  6  7  1  0  0  0  0
  6 12  2  0  0  0  0
  7 11  1  0  0  0  0
  7  8  1  0  0  0  0
  8  9  1  0  0  0  0
  8 29  1  0  0  0  0
  8 30  1  0  0  0  0
  9 10  1  0  0  0  0
  9 31  1  0  0  0  0
  9 32  1  0  0  0  0
 10 11  1  0  0  0  0
 10 33  1  0  0  0  0
 10 34  1  0  0  0  0
 11 35  1  0  0  0  0
 11 36  1  0  0  0  0
 12 13  1  0  0  0  0
 13 20  1  0  0  0  0
 13 14  2  0  0  0  0
 14 15  1  0  0  0  0
 15 16  2  0  0  0  0
 15 17  1  0  0  0  0
 17 18  1  0  0  0  0
 18 19  2  0  0  0  0
 18 20  1  0  0  0  0
 20 21  1  0  0  0  0
 21 37  1  0  0  0  0
 21 38  1  0  0  0  0
 21 39  1  0  0  0  0
M  CHG  1  17  -1
M  END
> <s_m_source_file>
AV-unprocessed.smi

> <i_m_source_file_index>
539

> <i_lp_mmshare_version>
43012

> <i_f3d_flags>
0

> <s_epik_input>
W0NIM11uMWMoPU8pW25IXWMoPU8pYyhjMTIpbihbQ0gyXVtDSDJdT1tDSDNdKWMobjIpTjNbQ0gyXVtDSDJdW0NIMl1bQ0gyXTM=

> <s_epik_cmdline>
J2VwaWtfcHl0aG9uJywgJy1waCcsICc3LjAnLCAnLXRuJywgJzgnLCAnLW1hJywgJzIwMCcsICctbWV0YWxfYmluZGluZycsICctaW1hZScsICc8aW5maWxlLm1hZT4nLCAnLW9tYWUnLCAnPG91dGZpbGUubWFlPic=

> <r_lp_tautomer_probability>
1

> <r_epik_Ionization_Penalty>
6.13244

> <r_epik_Ionization_Penalty_Charging>
0.078064

> <r_epik_Ionization_Penalty_Neutral>
6.05438

> <r_epik_State_Penalty>
6.05106

> <r_epik_Charging_Adjusted_Penalty>
6.12912

> <i_epik_Tot_Q>
-1

> <i_epik_Tot_abs_Q>
1

> <r_epik_Metal_State_Penalty>
2.00027

> <b_epik_Metal_Only>
1

> <s_lp_Force_Field>
OPLS_2005

> <r_lp_Energy>
49.7723

> <b_lp_Chiralities_Consistent>
1

> <s_lp_Variant>
AV-unprocessed.smi:539-2

> <Gold.Version>
5.8.1

> <Gold.Id.Protein>
6NUR|6NUR_protein|mol2

> <Gold.PLP.Fitness>
44.2429

> <Gold.PLP.PLP>
-39.0582

> <Gold.PLP.part.hbond>
-1.9932

> <Gold.PLP.part.metal>
0.0000

> <Gold.PLP.part.buried>
-2.8173

> <Gold.PLP.part.nonpolar>
-32.8922

> <Gold.PLP.part.repulsive>
0.1245

> <Gold.PLP.ligand.clash>
0.0000

> <Gold.PLP.ligand.torsion>
0.4213

> <Gold.PLP.Chemscore.Hbond>
2.0000

> <Gold.PLP.Chemscore.CHOScore>
0.0000

> <Gold.PLP.Chemscore.Metal>
0.0000

> <Gold.Chemscore.Hbonds>
donor molecule, donor type, donor heavy atom, donor atom, acceptor molecule, acceptor atom, score
      P1  H  6896  6907       L1     2  1.00
      P1  H  7989  7998       L1    19  1.00

> <Gold.PLP.Chemscore.Internal.Correction>
0.0273

> <Gold.Rescore>
     Score         DG    S(hbond)    S(metal)    S(lipo)     H(rot)  DE(clash)    DE(int)     intcor
     15.88     -17.20       1.94        0.00      77.36       1.50       0.20       1.12       ----

> <Gold.Chemscore.Fitness>
15.8788

> <Gold.Chemscore.DG>
-17.1952

> <Gold.Chemscore.ZeroCoef>
-5.4800

> <Gold.Chemscore.Hbond>
1.9442

> <Gold.Chemscore.Metal>
0.0000

> <Gold.Chemscore.Lipo>
77.3568

> <Gold.Chemscore.Internal_Hbond>
0.0000

> <Gold.Chemscore.DEClash>
0.1970

> <Gold.Chemscore.DEInternal>
1.1195

> <Gold.Chemscore.Rot>
1.4957

> <Gold.Chemscore.Internal.Correction>
   9.000000E+99

> <Gold.Chemscore.Hbonds>
donor molecule, donor type, donor heavy atom, donor atom, acceptor molecule, acceptor atom, score
      P1  H  6896  6907       L1     2  0.31
      P1  H  7989  7998       L1    19  0.78

> <Gold.Chemscore.Hbond.Weighted>
-6.4935

> <Gold.Chemscore.Metal.Weighted>
-0.0000

> <Gold.Chemscore.Lipo.Weighted>
-9.0507

> <Gold.Chemscore.Internal_Hbond.Weighted>
0.0000

> <Gold.Chemscore.DEClash.Weighted>
0.1970

> <Gold.Chemscore.DEInternal.Weighted>
1.1195

> <Gold.Chemscore.Rot.Weighted>
3.8290

> <Gold.Chemscore.Internal.Correction.Weighted>
   9.000000E+99

> <Gold.Protein.RotatedTorsions>
[ 6907 6896 6895 6894 ] final   41.56 input  -60.11 | X-H torsion
[ 7974 7965 7964 7962 ] final  169.99 input  175.53 | X-H torsion
[ 8008 7997 7996 7995 ] final  170.07 input   59.86 | X-H torsion
[ 10167 10162 10161 10158 ] final  -49.25 input  -65.29 | X-H torsion
[ 10718 10713 10712 10709 ] final   97.80 input   66.30 | X-H torsion
[ 10763 10752 10751 10750 ] final -124.75 input  -60.55 | X-H torsion
[ 11005 11000 10999 10996 ] final   36.27 input  -57.11 | X-H torsion

> <Gold.Protein.ActiveResidues>
 VAL166  LYS551  ARG553  GLY616  TRP617  ASP618  TYR619  PRO620  LYS621  CYS622 
 ASP623  PHE694  ASN695  SER759  ASP760  ASP761  ALA762  ILE779  LEU786  VAL792 
 PHE793  MET794  SER795  GLU796  ALA797  LYS798  CYS799  TRP800  GLU811  SER814 

> <Gold.Protein.RotatedAtoms>
  152.1968  134.8624  160.0511 H   0  0  0  0  0  0  0  0  0  0  0  0  # atno 6907 bound_to 6896
  151.9492  133.3656  159.4002 H   0  0  0  0  0  0  0  0  0  0  0  0  # atno 6908 bound_to 6896
  150.6946  134.4282  159.5280 H   0  0  0  0  0  0  0  0  0  0  0  0  # atno 6909 bound_to 6896
  144.7337  139.9136  143.6416 H   0  0  0  0  0  0  0  0  0  0  0  0  # atno 7974 bound_to 7965
  156.1399  140.1547  156.8936 H   0  0  0  0  0  0  0  0  0  0  0  0  # atno 8008 bound_to 7997
  154.4979  140.0833  156.7774 H   0  0  0  0  0  0  0  0  0  0  0  0  # atno 8009 bound_to 7997
  155.4097  140.3418  155.4265 H   0  0  0  0  0  0  0  0  0  0  0  0  # atno 8010 bound_to 7997
  140.6694  143.2705  151.4188 H   0  0  0  0  0  0  0  0  0  0  0  0  # atno 10167 bound_to 10162
  157.6906  131.0620  150.4699 H   0  0  0  0  0  0  0  0  0  0  0  0  # atno 10718 bound_to 10713
  154.8727  135.4053  154.3156 H   0  0  0  0  0  0  0  0  0  0  0  0  # atno 10763 bound_to 10752
  153.3993  135.7017  153.6443 H   0  0  0  0  0  0  0  0  0  0  0  0  # atno 10764 bound_to 10752
  153.5193  135.3690  155.2595 H   0  0  0  0  0  0  0  0  0  0  0  0  # atno 10765 bound_to 10752
  140.2342  134.3491  155.7951 H   0  0  0  0  0  0  0  0  0  0  0  0  # atno 11005 bound_to 11000
  146.0982  139.3976  143.0363 LP  0  0  0  0  0  0  0  0  0  0  0  0  # atno 17320 bound_to 7965
  145.7616  140.9933  143.1197 LP  0  0  0  0  0  0  0  0  0  0  0  0  # atno 17321 bound_to 7965
  139.5955  144.1406  152.2139 LP  0  0  0  0  0  0  0  0  0  0  0  0  # atno 17342 bound_to 10162
  140.0774  144.5729  150.7147 LP  0  0  0  0  0  0  0  0  0  0  0  0  # atno 17343 bound_to 10162
  156.5037  130.4123  149.6339 LP  0  0  0  0  0  0  0  0  0  0  0  0  # atno 17370 bound_to 10713
  156.3304  130.7328  151.2257 LP  0  0  0  0  0  0  0  0  0  0  0  0  # atno 17371 bound_to 10713
  141.2215  133.7262  156.8781 LP  0  0  0  0  0  0  0  0  0  0  0  0  # atno 17394 bound_to 11000
  140.1719  134.9094  157.2844 LP  0  0  0  0  0  0  0  0  0  0  0  0  # atno 17395 bound_to 11000

$$$$
