AV-unprocessed.smi:3249|AV-procd|sdf|12418|dock2
  -GOLD-   2272018303D 1   1.00000     0.00000
 Structure written by MMmdl.
 44 45  0  0  0  0  0  0  0  0  2 V2000
  154.4470  140.7351  161.8817 C   0  0  0  0  0  0  0  0  0  0  0  0
  153.5142  141.8743  161.5875 C   0  0  0  0  0  0  0  0  0  0  0  0
  153.0825  142.9025  162.4721 C   0  0  0  0  0  0  0  0  0  0  0  0
  152.2457  143.7529  161.9009 N   0  0  0  0  0  0  0  0  0  0  0  0
  152.1257  143.3128  160.6298 N   0  0  0  0  0  0  0  0  0  0  0  0
  151.2354  144.0087  159.7066 C   0  0  1  0  0  0  0  0  0  0  0  0
  151.9128  145.2965  159.2011 C   0  0  0  0  0  0  0  0  0  0  0  0
  150.7787  143.0598  158.5680 C   0  0  2  0  0  0  0  0  0  0  0  0
  151.7498  143.0564  157.3723 C   0  0  0  0  0  0  0  0  0  0  0  0
  149.4215  143.4425  158.1119 N   0  3  0  0  0  0  0  0  0  0  0  0
  148.5012  142.3186  157.8414 C   0  0  0  0  0  0  0  0  0  0  0  0
  149.2556  141.1339  157.2226 C   0  0  2  0  0  0  0  0  0  0  0  0
  149.7583  141.4510  155.8008 C   0  0  0  0  0  0  0  0  0  0  0  0
  150.4282  140.2202  155.1793 C   0  0  0  0  0  0  0  0  0  0  0  0
  149.4780  139.0207  155.2556 C   0  0  0  0  0  0  0  0  0  0  0  0
  148.9768  138.8266  156.6953 C   0  0  0  0  0  0  0  0  0  0  0  0
  148.3617  140.0242  157.1613 O   0  0  0  0  0  0  0  0  0  0  0  0
  152.8752  142.1727  160.4178 C   0  0  0  0  0  0  0  0  0  0  0  0
  154.9296  140.8465  162.8529 H   0  0  0  0  0  0  0  0  0  0  0  0
  155.2395  140.6609  161.1369 H   0  0  0  0  0  0  0  0  0  0  0  0
  153.9230  139.7792  161.8914 H   0  0  0  0  0  0  0  0  0  0  0  0
  153.3458  143.0511  163.5092 H   0  0  0  0  0  0  0  0  0  0  0  0
  150.3511  144.3133  160.2702 H   0  0  0  0  0  0  0  0  0  0  0  0
  151.2159  145.9301  158.6535 H   0  0  0  0  0  0  0  0  0  0  0  0
  152.7529  145.0764  158.5417 H   0  0  0  0  0  0  0  0  0  0  0  0
  152.2913  145.8901  160.0340 H   0  0  0  0  0  0  0  0  0  0  0  0
  150.7287  142.0488  158.9763 H   0  0  0  0  0  0  0  0  0  0  0  0
  152.7365  142.6917  157.6561 H   0  0  0  0  0  0  0  0  0  0  0  0
  151.8708  144.0577  156.9574 H   0  0  0  0  0  0  0  0  0  0  0  0
  151.3990  142.4067  156.5709 H   0  0  0  0  0  0  0  0  0  0  0  0
  149.0044  143.9976  158.8462 H   0  0  0  0  0  0  0  0  0  0  0  0
  147.9982  142.0090  158.7578 H   0  0  0  0  0  0  0  0  0  0  0  0
  147.7299  142.6590  157.1492 H   0  0  0  0  0  0  0  0  0  0  0  0
  150.1061  140.8818  157.8591 H   0  0  0  0  0  0  0  0  0  0  0  0
  148.9211  141.7651  155.1756 H   0  0  0  0  0  0  0  0  0  0  0  0
  150.4610  142.2847  155.8234 H   0  0  0  0  0  0  0  0  0  0  0  0
  150.7075  140.4198  154.1443 H   0  0  0  0  0  0  0  0  0  0  0  0
  151.3506  139.9935  155.7153 H   0  0  0  0  0  0  0  0  0  0  0  0
  148.6267  139.1845  154.5935 H   0  0  0  0  0  0  0  0  0  0  0  0
  149.9790  138.1183  154.9042 H   0  0  0  0  0  0  0  0  0  0  0  0
  148.2456  138.0188  156.7310 H   0  0  0  0  0  0  0  0  0  0  0  0
  149.7958  138.5437  157.3585 H   0  0  0  0  0  0  0  0  0  0  0  0
  152.8896  141.6692  159.4622 H   0  0  0  0  0  0  0  0  0  0  0  0
  149.4997  144.0193  157.2864 H   0  0  0  0  0  0  0  0  0  0  0  0
  1  2  1  0  0  0  0
  1 19  1  0  0  0  0
  1 20  1  0  0  0  0
  1 21  1  0  0  0  0
  2 18  2  0  0  0  0
  2  3  1  0  0  0  0
  3  4  2  0  0  0  0
  3 22  1  0  0  0  0
  4  5  1  0  0  0  0
  5  6  1  0  0  0  0
  5 18  1  0  0  0  0
  6  7  1  0  0  0  0
  6  8  1  0  0  0  0
  6 23  1  0  0  0  0
  7 24  1  0  0  0  0
  7 25  1  0  0  0  0
  7 26  1  0  0  0  0
  8  9  1  0  0  0  0
  8 10  1  0  0  0  0
  8 27  1  0  0  0  0
  9 28  1  0  0  0  0
  9 29  1  0  0  0  0
  9 30  1  0  0  0  0
 10 11  1  0  0  0  0
 10 31  1  0  0  0  0
 10 44  1  0  0  0  0
 11 12  1  0  0  0  0
 11 32  1  0  0  0  0
 11 33  1  0  0  0  0
 12 17  1  0  0  0  0
 12 13  1  0  0  0  0
 12 34  1  0  0  0  0
 13 14  1  0  0  0  0
 13 35  1  0  0  0  0
 13 36  1  0  0  0  0
 14 15  1  0  0  0  0
 14 37  1  0  0  0  0
 14 38  1  0  0  0  0
 15 16  1  0  0  0  0
 15 39  1  0  0  0  0
 15 40  1  0  0  0  0
 16 17  1  0  0  0  0
 16 41  1  0  0  0  0
 16 42  1  0  0  0  0
 18 43  1  0  0  0  0
M  CHG  1  10   1
M  END
> <s_m_source_file>
AV-unprocessed.smi

> <i_m_source_file_index>
3249

> <i_lp_mmshare_version>
43012

> <i_f3d_flags>
0

> <s_epik_input>
W0NIM11jMVtjSF1ubihbY0hdMSlbQ0BIXShbQ0gzXSlbQ0BIXShbQ0gzXSlbTkhdW0NIMl1bQ0BASF0yW0NIMl1bQ0gyXVtDSDJdW0NIMl1PMg==

> <s_epik_cmdline>
J2VwaWtfcHl0aG9uJywgJy1waCcsICc3LjAnLCAnLXRuJywgJzgnLCAnLW1hJywgJzIwMCcsICctbWV0YWxfYmluZGluZycsICctaW1hZScsICc8aW5maWxlLm1hZT4nLCAnLW9tYWUnLCAnPG91dGZpbGUubWFlPic=

> <r_lp_tautomer_probability>
1

> <r_epik_Ionization_Penalty>
0.00659207

> <r_epik_Ionization_Penalty_Charging>
0.00656881

> <r_epik_Ionization_Penalty_Neutral>
2.32662e-05

> <r_epik_State_Penalty>
0.0048654

> <r_epik_Charging_Adjusted_Penalty>
0.0114342

> <i_epik_Tot_Q>
1

> <i_epik_Tot_abs_Q>
1

> <r_epik_Metal_State_Penalty>
-0

> <b_epik_Metal_Only>
0

> <s_lp_Force_Field>
OPLS_2005

> <r_lp_Energy>
17.4327

> <b_lp_Chiralities_Consistent>
1

> <s_lp_Variant>
AV-unprocessed.smi:3249-2

> <Gold.Version>
5.8.1

> <Gold.Id.Protein>
6NUR|6NUR_protein|mol2

> <Gold.PLP.Fitness>
41.7731

> <Gold.PLP.PLP>
-39.4370

> <Gold.PLP.part.hbond>
-1.9402

> <Gold.PLP.part.metal>
0.0000

> <Gold.PLP.part.buried>
-4.1930

> <Gold.PLP.part.nonpolar>
-33.3949

> <Gold.PLP.part.repulsive>
0.2243

> <Gold.PLP.ligand.clash>
0.0000

> <Gold.PLP.ligand.torsion>
1.8857

> <Gold.PLP.Chemscore.Hbond>
2.0000

> <Gold.PLP.Chemscore.CHOScore>
0.0000

> <Gold.PLP.Chemscore.Metal>
0.0000

> <Gold.Chemscore.Hbonds>
donor molecule, donor type, donor heavy atom, donor atom, acceptor molecule, acceptor atom, score
      L1  H    10    44       P1  8028  2.00

> <Gold.PLP.Chemscore.Internal.Correction>
0.1075

> <Gold.Rescore>
     Score         DG    S(hbond)    S(metal)    S(lipo)     H(rot)  DE(clash)    DE(int)     intcor
     14.44     -17.42       0.90        0.00     109.79       1.53       1.41       1.57       ----

> <Gold.Chemscore.Fitness>
14.4395

> <Gold.Chemscore.DG>
-17.4208

> <Gold.Chemscore.ZeroCoef>
-5.4800

> <Gold.Chemscore.Hbond>
0.9043

> <Gold.Chemscore.Metal>
0.0000

> <Gold.Chemscore.Lipo>
109.7918

> <Gold.Chemscore.Internal_Hbond>
0.0000

> <Gold.Chemscore.DEClash>
1.4104

> <Gold.Chemscore.DEInternal>
1.5709

> <Gold.Chemscore.Rot>
1.5333

> <Gold.Chemscore.Internal.Correction>
   9.000000E+99

> <Gold.Chemscore.Hbonds>
donor molecule, donor type, donor heavy atom, donor atom, acceptor molecule, acceptor atom, score
      L1  H    10    44       P1  8028  0.39

> <Gold.Chemscore.Hbond.Weighted>
-3.0204

> <Gold.Chemscore.Metal.Weighted>
-0.0000

> <Gold.Chemscore.Lipo.Weighted>
-12.8456

> <Gold.Chemscore.Internal_Hbond.Weighted>
0.0000

> <Gold.Chemscore.DEClash.Weighted>
1.4104

> <Gold.Chemscore.DEInternal.Weighted>
1.5709

> <Gold.Chemscore.Rot.Weighted>
3.9252

> <Gold.Chemscore.Internal.Correction.Weighted>
   9.000000E+99

> <Gold.Protein.RotatedTorsions>
[ 6907 6896 6895 6894 ] final -158.34 input  -60.11 | X-H torsion
[ 7974 7965 7964 7962 ] final  116.71 input  175.53 | X-H torsion
[ 8008 7997 7996 7995 ] final   85.17 input   59.86 | X-H torsion
[ 10167 10162 10161 10158 ] final -139.22 input  -65.29 | X-H torsion
[ 10718 10713 10712 10709 ] final   56.26 input   66.30 | X-H torsion
[ 10763 10752 10751 10750 ] final   98.77 input  -60.55 | X-H torsion
[ 11005 11000 10999 10996 ] final   51.11 input  -57.11 | X-H torsion

> <Gold.Protein.ActiveResidues>
 VAL166  LYS551  ARG553  GLY616  TRP617  ASP618  TYR619  PRO620  LYS621  CYS622 
 ASP623  PHE694  ASN695  SER759  ASP760  ASP761  ALA762  ILE779  LEU786  VAL792 
 PHE793  MET794  SER795  GLU796  ALA797  LYS798  CYS799  TRP800  GLU811  SER814 

> <Gold.Protein.RotatedAtoms>
  151.3167  133.4057  159.2650 H   0  0  0  0  0  0  0  0  0  0  0  0  # atno 6907 bound_to 6896
  151.0068  134.9366  159.7995 H   0  0  0  0  0  0  0  0  0  0  0  0  # atno 6908 bound_to 6896
  152.5290  134.3132  159.9173 H   0  0  0  0  0  0  0  0  0  0  0  0  # atno 6909 bound_to 6896
  145.1762  139.3074  143.4441 H   0  0  0  0  0  0  0  0  0  0  0  0  # atno 7974 bound_to 7965
  155.9465  140.3404  155.6371 H   0  0  0  0  0  0  0  0  0  0  0  0  # atno 8008 bound_to 7997
  155.6974  140.0756  157.2442 H   0  0  0  0  0  0  0  0  0  0  0  0  # atno 8009 bound_to 7997
  154.4113  140.1646  156.2141 H   0  0  0  0  0  0  0  0  0  0  0  0  # atno 8010 bound_to 7997
  139.8401  143.7334  152.2663 H   0  0  0  0  0  0  0  0  0  0  0  0  # atno 10167 bound_to 10162
  157.5416  130.8701  149.8830 H   0  0  0  0  0  0  0  0  0  0  0  0  # atno 10718 bound_to 10713
  153.2931  135.4137  155.1185 H   0  0  0  0  0  0  0  0  0  0  0  0  # atno 10763 bound_to 10752
  154.8526  135.3523  154.5954 H   0  0  0  0  0  0  0  0  0  0  0  0  # atno 10764 bound_to 10752
  153.6377  135.7058  153.5311 H   0  0  0  0  0  0  0  0  0  0  0  0  # atno 10765 bound_to 10752
  140.0960  134.5145  155.8807 H   0  0  0  0  0  0  0  0  0  0  0  0  # atno 11005 bound_to 11000
  146.3460  140.1926  142.8589 LP  0  0  0  0  0  0  0  0  0  0  0  0  # atno 17320 bound_to 7965
  145.0182  140.8771  143.5183 LP  0  0  0  0  0  0  0  0  0  0  0  0  # atno 17321 bound_to 7965
  139.7568  144.7518  151.0424 LP  0  0  0  0  0  0  0  0  0  0  0  0  # atno 17342 bound_to 10162
  140.7799  143.4796  151.0035 LP  0  0  0  0  0  0  0  0  0  0  0  0  # atno 17343 bound_to 10162
  156.0501  130.3719  150.1221 LP  0  0  0  0  0  0  0  0  0  0  0  0  # atno 17370 bound_to 10713
  156.9401  130.9741  151.3518 LP  0  0  0  0  0  0  0  0  0  0  0  0  # atno 17371 bound_to 10713
  141.2092  133.6681  156.6423 LP  0  0  0  0  0  0  0  0  0  0  0  0  # atno 17394 bound_to 11000
  140.3286  134.7948  157.4308 LP  0  0  0  0  0  0  0  0  0  0  0  0  # atno 17395 bound_to 11000

$$$$
