AV-unprocessed.smi:864|AV-procd|sdf|3989|dock6
  -GOLD-   22720 1463D 1   1.00000     0.00000
 Structure written by MMmdl.
 45 47  0  0  0  0  0  0  0  0  2 V2000
  143.6404  132.6085  148.5331 C   0  0  0  0  0  0  0  0  0  0  0  0
  144.2323  132.9256  149.8897 C   0  0  0  0  0  0  0  0  0  0  0  0
  145.5588  132.5865  150.2316 C   0  0  0  0  0  0  0  0  0  0  0  0
  146.0375  132.8968  151.5212 C   0  0  0  0  0  0  0  0  0  0  0  0
  145.1812  133.5387  152.4437 C   0  0  0  0  0  0  0  0  0  0  0  0
  145.6452  133.8280  153.8619 C   0  0  0  0  0  0  0  0  0  0  0  0
  147.1594  133.6169  154.0738 C   0  0  0  0  0  0  0  0  0  0  0  0
  147.9089  134.8710  154.0181 N   0  0  0  0  0  0  0  0  0  0  0  0
  148.5086  135.4585  155.0642 C   0  0  0  0  0  0  0  0  0  0  0  0
  148.4294  135.0520  156.2240 O   0  0  0  0  0  0  0  0  0  0  0  0
  149.2543  136.5065  154.6900 N   0  0  0  0  0  0  0  0  0  0  0  0
  150.1335  137.2555  155.5841 C   0  0  1  0  0  0  0  0  0  0  0  0
  151.5574  137.4064  155.0214 C   0  0  0  0  0  0  0  0  0  0  0  0
  151.8602  138.8824  155.2014 C   0  0  0  0  0  0  0  0  0  0  0  0
  152.9775  139.3578  155.0031 O   0  0  0  0  0  0  0  0  0  0  0  0
  150.7763  139.5568  155.6009 N   0  0  0  0  0  0  0  0  0  0  0  0
  150.7670  140.9395  155.9793 C   0  0  0  0  0  0  0  0  0  0  0  0
  150.7293  141.3521  157.4384 C   0  0  0  0  0  0  0  0  0  0  0  0
  149.5002  141.5078  156.5768 C   0  0  0  0  0  0  0  0  0  0  0  0
  149.6192  138.6919  155.7887 C   0  0  0  0  0  0  0  0  0  0  0  0
  143.8696  133.8676  152.0396 C   0  0  0  0  0  0  0  0  0  0  0  0
  143.4475  133.5502  150.7962 N   0  3  0  0  0  0  0  0  0  0  0  0
  144.3781  132.1374  147.8827 H   0  0  0  0  0  0  0  0  0  0  0  0
  143.2903  133.5196  148.0472 H   0  0  0  0  0  0  0  0  0  0  0  0
  142.7958  131.9268  148.6384 H   0  0  0  0  0  0  0  0  0  0  0  0
  146.1997  132.0853  149.5209 H   0  0  0  0  0  0  0  0  0  0  0  0
  147.0446  132.6262  151.8026 H   0  0  0  0  0  0  0  0  0  0  0  0
  145.3817  134.8547  154.1196 H   0  0  0  0  0  0  0  0  0  0  0  0
  145.0868  133.1920  154.5497 H   0  0  0  0  0  0  0  0  0  0  0  0
  147.3318  133.1574  155.0472 H   0  0  0  0  0  0  0  0  0  0  0  0
  147.5455  132.9119  153.3355 H   0  0  0  0  0  0  0  0  0  0  0  0
  148.0293  135.2871  153.1058 H   0  0  0  0  0  0  0  0  0  0  0  0
  149.2570  136.7714  153.7158 H   0  0  0  0  0  0  0  0  0  0  0  0
  150.1786  136.7528  156.5523 H   0  0  0  0  0  0  0  0  0  0  0  0
  152.2769  136.7872  155.5582 H   0  0  0  0  0  0  0  0  0  0  0  0
  151.6152  137.1621  153.9599 H   0  0  0  0  0  0  0  0  0  0  0  0
  151.3269  141.6072  155.3260 H   0  0  0  0  0  0  0  0  0  0  0  0
  150.6936  140.5876  158.2113 H   0  0  0  0  0  0  0  0  0  0  0  0
  151.2632  142.2593  157.7141 H   0  0  0  0  0  0  0  0  0  0  0  0
  149.2158  142.5156  156.2811 H   0  0  0  0  0  0  0  0  0  0  0  0
  148.6727  140.8242  156.7569 H   0  0  0  0  0  0  0  0  0  0  0  0
  148.8550  138.9591  155.0564 H   0  0  0  0  0  0  0  0  0  0  0  0
  149.1924  138.8170  156.7848 H   0  0  0  0  0  0  0  0  0  0  0  0
  143.1416  134.3475  152.6775 H   0  0  0  0  0  0  0  0  0  0  0  0
  142.4901  133.7848  150.5325 H   0  0  0  0  0  0  0  0  0  0  0  0
  1  2  1  0  0  0  0
  1 23  1  0  0  0  0
  1 24  1  0  0  0  0
  1 25  1  0  0  0  0
  2 22  1  0  0  0  0
  2  3  2  0  0  0  0
  3  4  1  0  0  0  0
  3 26  1  0  0  0  0
  4  5  2  0  0  0  0
  4 27  1  0  0  0  0
  5  6  1  0  0  0  0
  5 21  1  0  0  0  0
  6  7  1  0  0  0  0
  6 28  1  0  0  0  0
  6 29  1  0  0  0  0
  7  8  1  0  0  0  0
  7 30  1  0  0  0  0
  7 31  1  0  0  0  0
  8  9  1  0  0  0  0
  8 32  1  0  0  0  0
  9 10  2  0  0  0  0
  9 11  1  0  0  0  0
 11 12  1  0  0  0  0
 11 33  1  0  0  0  0
 12 20  1  0  0  0  0
 12 13  1  0  0  0  0
 12 34  1  0  0  0  0
 13 14  1  0  0  0  0
 13 35  1  0  0  0  0
 13 36  1  0  0  0  0
 14 15  2  0  0  0  0
 14 16  1  0  0  0  0
 16 17  1  0  0  0  0
 16 20  1  0  0  0  0
 17 19  1  0  0  0  0
 17 18  1  0  0  0  0
 17 37  1  0  0  0  0
 18 19  1  0  0  0  0
 18 38  1  0  0  0  0
 18 39  1  0  0  0  0
 19 40  1  0  0  0  0
 19 41  1  0  0  0  0
 20 42  1  0  0  0  0
 20 43  1  0  0  0  0
 21 22  2  0  0  0  0
 21 44  1  0  0  0  0
 22 45  1  0  0  0  0
M  CHG  1  22   1
M  END
> <s_m_source_file>
AV-unprocessed.smi

> <i_m_source_file_index>
864

> <i_lp_mmshare_version>
43012

> <i_f3d_flags>
0

> <s_epik_input>
W0NIM11jMVtjSF1bY0hdYyhbY0hdbjEpW0NIMl1bQ0gyXVtOSF1DKD1PKVtOSF1bQ0BASF0yW0NIMl1DKD1PKU4oW0NIMl0yKVtDSF0zW0NIMl1bQ0gyXTM=

> <s_epik_cmdline>
J2VwaWtfcHl0aG9uJywgJy1waCcsICc3LjAnLCAnLXRuJywgJzgnLCAnLW1hJywgJzIwMCcsICctbWV0YWxfYmluZGluZycsICctaW1hZScsICc8aW5maWxlLm1hZT4nLCAnLW9tYWUnLCAnPG91dGZpbGUubWFlPic=

> <r_epik_Ionization_Penalty>
1.42657

> <r_epik_Ionization_Penalty_Charging>
1.42653

> <r_epik_Ionization_Penalty_Neutral>
4.57062e-05

> <r_epik_State_Penalty>
1.51075

> <r_epik_Charging_Adjusted_Penalty>
2.93728

> <i_epik_Tot_Q>
1

> <i_epik_Tot_abs_Q>
1

> <r_epik_Metal_State_Penalty>
1.56242

> <b_epik_Metal_Only>
0

> <s_lp_Force_Field>
OPLS_2005

> <r_lp_Energy>
39.135

> <b_lp_Chiralities_Consistent>
1

> <s_lp_Variant>
AV-unprocessed.smi:864-4

> <Gold.Version>
5.8.1

> <Gold.Id.Protein>
6NUR|6NUR_protein|mol2

> <Gold.PLP.Fitness>
53.3416

> <Gold.PLP.PLP>
-39.9906

> <Gold.PLP.part.hbond>
-4.9821

> <Gold.PLP.part.metal>
0.0000

> <Gold.PLP.part.buried>
-4.3433

> <Gold.PLP.part.nonpolar>
-30.6705

> <Gold.PLP.part.repulsive>
0.0598

> <Gold.PLP.ligand.clash>
0.0000

> <Gold.PLP.ligand.torsion>
0.6601

> <Gold.PLP.Chemscore.Hbond>
4.8320

> <Gold.PLP.Chemscore.CHOScore>
0.0000

> <Gold.PLP.Chemscore.Metal>
0.0000

> <Gold.Chemscore.Hbonds>
donor molecule, donor type, donor heavy atom, donor atom, acceptor molecule, acceptor atom, score
      L1  H     8    32       P1  7948  1.00
      L1  H    11    33       P1  7948  0.96
      L1  H    22    45       P1 10186  2.00
      P1  H  7997  8008       L1    15  1.00

> <Gold.PLP.Chemscore.Internal.Correction>
0.1751

> <Gold.Rescore>
     Score         DG    S(hbond)    S(metal)    S(lipo)     H(rot)  DE(clash)    DE(int)     intcor
     23.38     -24.06       3.81        0.00      90.30       1.84       0.01       0.67       ----

> <Gold.Chemscore.Fitness>
23.3796

> <Gold.Chemscore.DG>
-24.0595

> <Gold.Chemscore.ZeroCoef>
-5.4800

> <Gold.Chemscore.Hbond>
3.8082

> <Gold.Chemscore.Metal>
0.0000

> <Gold.Chemscore.Lipo>
90.3046

> <Gold.Chemscore.Internal_Hbond>
0.0000

> <Gold.Chemscore.DEClash>
0.0069

> <Gold.Chemscore.DEInternal>
0.6730

> <Gold.Chemscore.Rot>
1.8381

> <Gold.Chemscore.Internal.Correction>
   9.000000E+99

> <Gold.Chemscore.Hbonds>
donor molecule, donor type, donor heavy atom, donor atom, acceptor molecule, acceptor atom, score
      L1  H     8    32       P1  7948  0.97
      L1  H    11    33       P1  7948  0.90
      L1  H    22    45       P1 10186  0.92
      P1  H  7997  8008       L1    15  1.00

> <Gold.Chemscore.Hbond.Weighted>
-12.7192

> <Gold.Chemscore.Metal.Weighted>
-0.0000

> <Gold.Chemscore.Lipo.Weighted>
-10.5656

> <Gold.Chemscore.Internal_Hbond.Weighted>
0.0000

> <Gold.Chemscore.DEClash.Weighted>
0.0069

> <Gold.Chemscore.DEInternal.Weighted>
0.6730

> <Gold.Chemscore.Rot.Weighted>
4.7054

> <Gold.Chemscore.Internal.Correction.Weighted>
   9.000000E+99

> <Gold.Protein.RotatedTorsions>
[ 6907 6896 6895 6894 ] final -172.49 input  -60.11 | X-H torsion
[ 7974 7965 7964 7962 ] final  162.47 input  175.53 | X-H torsion
[ 8008 7997 7996 7995 ] final  -18.19 input   59.86 | X-H torsion
[ 10167 10162 10161 10158 ] final -113.34 input  -65.29 | X-H torsion
[ 10718 10713 10712 10709 ] final   72.08 input   66.30 | X-H torsion
[ 10763 10752 10751 10750 ] final  -53.00 input  -60.55 | X-H torsion
[ 11005 11000 10999 10996 ] final   89.48 input  -57.11 | X-H torsion

> <Gold.Protein.ActiveResidues>
 VAL166  LYS551  ARG553  GLY616  TRP617  ASP618  TYR619  PRO620  LYS621  CYS622 
 ASP623  PHE694  ASN695  SER759  ASP760  ASP761  ALA762  ILE779  LEU786  VAL792 
 PHE793  MET794  SER795  GLU796  ALA797  LYS798  CYS799  TRP800  GLU811  SER814 

> <Gold.Protein.RotatedAtoms>
  151.5408  133.3433  159.2934 H   0  0  0  0  0  0  0  0  0  0  0  0  # atno 6907 bound_to 6896
  150.8537  134.7871  159.7039 H   0  0  0  0  0  0  0  0  0  0  0  0  # atno 6908 bound_to 6896
  152.4576  134.5265  159.9850 H   0  0  0  0  0  0  0  0  0  0  0  0  # atno 6909 bound_to 6896
  144.7635  139.8044  143.6324 H   0  0  0  0  0  0  0  0  0  0  0  0  # atno 7974 bound_to 7965
  154.4924  140.2122  155.9520 H   0  0  0  0  0  0  0  0  0  0  0  0  # atno 8008 bound_to 7997
  156.1323  140.3194  155.8336 H   0  0  0  0  0  0  0  0  0  0  0  0  # atno 8009 bound_to 7997
  155.4273  140.0501  157.3012 H   0  0  0  0  0  0  0  0  0  0  0  0  # atno 8010 bound_to 7997
  140.1129  143.4512  152.1741 H   0  0  0  0  0  0  0  0  0  0  0  0  # atno 10167 bound_to 10162
  157.6483  130.9560  150.0878 H   0  0  0  0  0  0  0  0  0  0  0  0  # atno 10718 bound_to 10713
  154.1518  135.6489  153.4965 H   0  0  0  0  0  0  0  0  0  0  0  0  # atno 10763 bound_to 10752
  153.0135  135.5340  154.6800 H   0  0  0  0  0  0  0  0  0  0  0  0  # atno 10764 bound_to 10752
  154.6090  135.2952  155.0424 H   0  0  0  0  0  0  0  0  0  0  0  0  # atno 10765 bound_to 10752
  139.8874  134.8554  156.3147 H   0  0  0  0  0  0  0  0  0  0  0  0  # atno 11005 bound_to 11000
  146.1721  139.4876  142.9921 LP  0  0  0  0  0  0  0  0  0  0  0  0  # atno 17320 bound_to 7965
  145.6543  141.0256  143.1743 LP  0  0  0  0  0  0  0  0  0  0  0  0  # atno 17321 bound_to 7965
  139.5610  144.7405  151.4156 LP  0  0  0  0  0  0  0  0  0  0  0  0  # atno 17342 bound_to 10162
  140.6916  143.7849  150.7263 LP  0  0  0  0  0  0  0  0  0  0  0  0  # atno 17343 bound_to 10162
  156.1836  130.3651  149.9003 LP  0  0  0  0  0  0  0  0  0  0  0  0  # atno 17370 bound_to 10713
  156.6949  130.8910  151.3592 LP  0  0  0  0  0  0  0  0  0  0  0  0  # atno 17371 bound_to 10713
  140.9826  133.7258  156.0695 LP  0  0  0  0  0  0  0  0  0  0  0  0  # atno 17394 bound_to 11000
  140.7729  134.3812  157.5504 LP  0  0  0  0  0  0  0  0  0  0  0  0  # atno 17395 bound_to 11000

$$$$
