AV-unprocessed.smi:3202|AV-procd|sdf|12241|dock1
  -GOLD-   2272018 73D 1   1.00000     0.00000
 Structure written by MMmdl.
 43 44  0  0  0  0  0  0  0  0  2 V2000
  146.5753  138.5851  152.1198 C   0  0  0  0  0  0  0  0  0  0  0  0
  147.5525  139.3010  152.9887 C   0  0  0  0  0  0  0  0  0  0  0  0
  147.5470  140.5662  153.5045 C   0  0  0  0  0  0  0  0  0  0  0  0
  148.7588  140.6486  154.2515 C   0  0  0  0  0  0  0  0  0  0  0  0
  149.2809  141.8247  155.0319 C   0  0  0  0  0  0  0  0  0  0  0  0
  149.3810  141.5595  156.5523 C   0  0  2  0  0  0  0  0  0  0  0  0
  148.0326  141.1685  157.1795 C   0  0  0  0  0  0  0  0  0  0  0  0
  149.9075  142.7502  157.2584 N   0  3  0  0  0  0  0  0  0  0  0  0
  151.3268  142.6834  157.6822 C   0  0  2  0  0  0  0  0  0  0  0  0
  151.5843  141.6511  158.7894 C   0  0  0  0  0  0  0  0  0  0  0  0
  152.8250  142.1528  159.5392 C   0  0  0  0  0  0  0  0  0  0  0  0
  153.1335  143.5486  158.9779 C   0  0  0  0  0  0  0  0  0  0  0  0
  151.8606  144.0165  158.2495 C   0  0  0  0  0  0  0  0  0  0  0  0
  152.1970  145.0200  157.1308 C   0  0  0  0  0  0  0  0  0  0  0  0
  150.8905  144.6734  159.2591 C   0  0  0  0  0  0  0  0  0  0  0  0
  149.4591  139.5240  154.2024 N   0  0  0  0  0  0  0  0  0  0  0  0
  148.7148  138.7116  153.4296 N   0  0  0  0  0  0  0  0  0  0  0  0
  149.0071  137.7683  153.2156 H   0  0  0  0  0  0  0  0  0  0  0  0
  145.6957  139.2012  151.9321 H   0  0  0  0  0  0  0  0  0  0  0  0
  146.2429  137.6593  152.5899 H   0  0  0  0  0  0  0  0  0  0  0  0
  147.0228  138.3355  151.1577 H   0  0  0  0  0  0  0  0  0  0  0  0
  146.7886  141.3231  153.3682 H   0  0  0  0  0  0  0  0  0  0  0  0
  150.2584  142.0941  154.6334 H   0  0  0  0  0  0  0  0  0  0  0  0
  148.6471  142.6955  154.8567 H   0  0  0  0  0  0  0  0  0  0  0  0
  150.0657  140.7278  156.7195 H   0  0  0  0  0  0  0  0  0  0  0  0
  147.6603  140.2259  156.7782 H   0  0  0  0  0  0  0  0  0  0  0  0
  147.2741  141.9312  157.0004 H   0  0  0  0  0  0  0  0  0  0  0  0
  148.1255  141.0391  158.2582 H   0  0  0  0  0  0  0  0  0  0  0  0
  149.7844  143.5517  156.6564 H   0  0  0  0  0  0  0  0  0  0  0  0
  151.9436  142.4147  156.8240 H   0  0  0  0  0  0  0  0  0  0  0  0
  150.7376  141.6061  159.4760 H   0  0  0  0  0  0  0  0  0  0  0  0
  151.7309  140.6480  158.3878 H   0  0  0  0  0  0  0  0  0  0  0  0
  152.6210  142.2028  160.6094 H   0  0  0  0  0  0  0  0  0  0  0  0
  153.6749  141.4833  159.4016 H   0  0  0  0  0  0  0  0  0  0  0  0
  153.4596  144.2431  159.7529 H   0  0  0  0  0  0  0  0  0  0  0  0
  153.9565  143.4618  158.2668 H   0  0  0  0  0  0  0  0  0  0  0  0
  152.6560  145.9221  157.5368 H   0  0  0  0  0  0  0  0  0  0  0  0
  151.3014  145.3222  156.5869 H   0  0  0  0  0  0  0  0  0  0  0  0
  152.8932  144.5972  156.4057 H   0  0  0  0  0  0  0  0  0  0  0  0
  151.3443  145.5507  159.7215 H   0  0  0  0  0  0  0  0  0  0  0  0
  150.6116  143.9932  160.0642 H   0  0  0  0  0  0  0  0  0  0  0  0
  149.9712  145.0073  158.7774 H   0  0  0  0  0  0  0  0  0  0  0  0
  149.3540  142.8923  158.0913 H   0  0  0  0  0  0  0  0  0  0  0  0
  1  2  1  0  0  0  0
  1 19  1  0  0  0  0
  1 20  1  0  0  0  0
  1 21  1  0  0  0  0
  2 17  1  0  0  0  0
  2  3  2  0  0  0  0
  3  4  1  0  0  0  0
  3 22  1  0  0  0  0
  4  5  1  0  0  0  0
  4 16  2  0  0  0  0
  5  6  1  0  0  0  0
  5 23  1  0  0  0  0
  5 24  1  0  0  0  0
  6  7  1  0  0  0  0
  6  8  1  0  0  0  0
  6 25  1  0  0  0  0
  7 26  1  0  0  0  0
  7 27  1  0  0  0  0
  7 28  1  0  0  0  0
  8  9  1  0  0  0  0
  8 29  1  0  0  0  0
  8 43  1  0  0  0  0
  9 13  1  0  0  0  0
  9 10  1  0  0  0  0
  9 30  1  0  0  0  0
 10 11  1  0  0  0  0
 10 31  1  0  0  0  0
 10 32  1  0  0  0  0
 11 12  1  0  0  0  0
 11 33  1  0  0  0  0
 11 34  1  0  0  0  0
 12 13  1  0  0  0  0
 12 35  1  0  0  0  0
 12 36  1  0  0  0  0
 13 14  1  0  0  0  0
 13 15  1  0  0  0  0
 14 37  1  0  0  0  0
 14 38  1  0  0  0  0
 14 39  1  0  0  0  0
 15 40  1  0  0  0  0
 15 41  1  0  0  0  0
 15 42  1  0  0  0  0
 16 17  1  0  0  0  0
 17 18  1  0  0  0  0
M  CHG  1   8   1
M  END
> <s_m_source_file>
AV-unprocessed.smi

> <i_m_source_file_index>
3202

> <i_lp_mmshare_version>
43012

> <i_f3d_flags>
0

> <s_epik_input>
W0NIM11jMVtjSF1jKG5bbkhdMSlbQ0gyXVtDQEhdKFtDSDNdKVtOSF1bQ0BASF0oQzIoW0NIM10pW0NIM10pW0NIMl1bQ0gyXVtDSDJdMg==

> <s_epik_cmdline>
J2VwaWtfcHl0aG9uJywgJy1waCcsICc3LjAnLCAnLXRuJywgJzgnLCAnLW1hJywgJzIwMCcsICctbWV0YWxfYmluZGluZycsICctaW1hZScsICc8aW5maWxlLm1hZT4nLCAnLW9tYWUnLCAnPG91dGZpbGUubWFlPic=

> <r_lp_tautomer_probability>
0.5

> <r_epik_Ionization_Penalty>
0.000341671

> <r_epik_Ionization_Penalty_Charging>
0.000281809

> <r_epik_Ionization_Penalty_Neutral>
5.9862e-05

> <r_epik_State_Penalty>
0.41068

> <r_epik_Charging_Adjusted_Penalty>
0.410962

> <i_epik_Tot_Q>
1

> <i_epik_Tot_abs_Q>
1

> <r_epik_Metal_State_Penalty>
0.410672

> <b_epik_Metal_Only>
0

> <s_lp_Force_Field>
OPLS_2005

> <r_lp_Energy>
28.8614

> <b_lp_Chiralities_Consistent>
1

> <s_lp_Variant>
AV-unprocessed.smi:3202-1

> <Gold.Version>
5.8.1

> <Gold.Id.Protein>
6NUR|6NUR_protein|mol2

> <Gold.PLP.Fitness>
46.4958

> <Gold.PLP.PLP>
-38.8458

> <Gold.PLP.part.hbond>
-3.0000

> <Gold.PLP.part.metal>
0.0000

> <Gold.PLP.part.buried>
-1.0183

> <Gold.PLP.part.nonpolar>
-35.7266

> <Gold.PLP.part.repulsive>
0.7918

> <Gold.PLP.ligand.clash>
0.0000

> <Gold.PLP.ligand.torsion>
0.6959

> <Gold.PLP.Chemscore.Hbond>
3.0000

> <Gold.PLP.Chemscore.CHOScore>
0.0000

> <Gold.PLP.Chemscore.Metal>
0.0000

> <Gold.Chemscore.Hbonds>
donor molecule, donor type, donor heavy atom, donor atom, acceptor molecule, acceptor atom, score
      L1  H     8    29       P1  8028  2.00
      L1  H    17    18       P1  7948  0.93

> <Gold.PLP.Chemscore.Internal.Correction>
0.0418

> <Gold.Rescore>
     Score         DG    S(hbond)    S(metal)    S(lipo)     H(rot)  DE(clash)    DE(int)     intcor
     19.42     -22.81       1.92        0.00     125.08       1.46       2.57       0.82       ----

> <Gold.Chemscore.Fitness>
19.4166

> <Gold.Chemscore.DG>
-22.8058

> <Gold.Chemscore.ZeroCoef>
-5.4800

> <Gold.Chemscore.Hbond>
1.9245

> <Gold.Chemscore.Metal>
0.0000

> <Gold.Chemscore.Lipo>
125.0800

> <Gold.Chemscore.Internal_Hbond>
0.0000

> <Gold.Chemscore.DEClash>
2.5717

> <Gold.Chemscore.DEInternal>
0.8176

> <Gold.Chemscore.Rot>
1.4596

> <Gold.Chemscore.Internal.Correction>
   9.000000E+99

> <Gold.Chemscore.Hbonds>
donor molecule, donor type, donor heavy atom, donor atom, acceptor molecule, acceptor atom, score
      L1  H     8    29       P1  8028  0.99
      L1  H    17    18       P1  7948  0.84

> <Gold.Chemscore.Hbond.Weighted>
-6.4280

> <Gold.Chemscore.Metal.Weighted>
-0.0000

> <Gold.Chemscore.Lipo.Weighted>
-14.6344

> <Gold.Chemscore.Internal_Hbond.Weighted>
0.0000

> <Gold.Chemscore.DEClash.Weighted>
2.5717

> <Gold.Chemscore.DEInternal.Weighted>
0.8176

> <Gold.Chemscore.Rot.Weighted>
3.7365

> <Gold.Chemscore.Internal.Correction.Weighted>
   9.000000E+99

> <Gold.Protein.RotatedTorsions>
[ 6907 6896 6895 6894 ] final   -1.17 input  -60.11 | X-H torsion
[ 7974 7965 7964 7962 ] final  168.23 input  175.53 | X-H torsion
[ 8008 7997 7996 7995 ] final  153.37 input   59.86 | X-H torsion
[ 10167 10162 10161 10158 ] final  148.55 input  -65.29 | X-H torsion
[ 10718 10713 10712 10709 ] final  -27.38 input   66.30 | X-H torsion
[ 10763 10752 10751 10750 ] final   37.63 input  -60.55 | X-H torsion
[ 11005 11000 10999 10996 ] final -155.69 input  -57.11 | X-H torsion

> <Gold.Protein.ActiveResidues>
 VAL166  LYS551  ARG553  GLY616  TRP617  ASP618  TYR619  PRO620  LYS621  CYS622 
 ASP623  PHE694  ASN695  SER759  ASP760  ASP761  ALA762  ILE779  LEU786  VAL792 
 PHE793  MET794  SER795  GLU796  ALA797  LYS798  CYS799  TRP800  GLU811  SER814 

> <Gold.Protein.RotatedAtoms>
  151.5503  135.1067  159.9947 H   0  0  0  0  0  0  0  0  0  0  0  0  # atno 6907 bound_to 6896
  152.4494  133.7596  159.6750 H   0  0  0  0  0  0  0  0  0  0  0  0  # atno 6908 bound_to 6896
  150.8418  133.7856  159.3082 H   0  0  0  0  0  0  0  0  0  0  0  0  # atno 6909 bound_to 6896
  144.7396  139.8876  143.6401 H   0  0  0  0  0  0  0  0  0  0  0  0  # atno 7974 bound_to 7965
  156.2584  140.1995  156.6480 H   0  0  0  0  0  0  0  0  0  0  0  0  # atno 8008 bound_to 7997
  154.6558  140.0566  157.0032 H   0  0  0  0  0  0  0  0  0  0  0  0  # atno 8009 bound_to 7997
  155.1349  140.3237  155.4468 H   0  0  0  0  0  0  0  0  0  0  0  0  # atno 8010 bound_to 7997
  139.4873  144.5671  151.7124 H   0  0  0  0  0  0  0  0  0  0  0  0  # atno 10167 bound_to 10162
  156.4389  130.4460  149.7066 H   0  0  0  0  0  0  0  0  0  0  0  0  # atno 10718 bound_to 10713
  153.0030  135.6272  154.2175 H   0  0  0  0  0  0  0  0  0  0  0  0  # atno 10763 bound_to 10752
  154.1918  135.2808  155.3021 H   0  0  0  0  0  0  0  0  0  0  0  0  # atno 10764 bound_to 10752
  154.5753  135.5664  153.7193 H   0  0  0  0  0  0  0  0  0  0  0  0  # atno 10765 bound_to 10752
  140.6837  134.4116  157.5225 H   0  0  0  0  0  0  0  0  0  0  0  0  # atno 11005 bound_to 11000
  146.1165  139.4177  143.0255 LP  0  0  0  0  0  0  0  0  0  0  0  0  # atno 17320 bound_to 7965
  145.7367  141.0023  143.1323 LP  0  0  0  0  0  0  0  0  0  0  0  0  # atno 17321 bound_to 7965
  140.5251  144.0818  150.6035 LP  0  0  0  0  0  0  0  0  0  0  0  0  # atno 17342 bound_to 10162
  140.3789  143.2813  152.0193 LP  0  0  0  0  0  0  0  0  0  0  0  0  # atno 17343 bound_to 10162
  156.3938  130.7641  151.2644 LP  0  0  0  0  0  0  0  0  0  0  0  0  # atno 17370 bound_to 10713
  157.7507  131.0260  150.3942 LP  0  0  0  0  0  0  0  0  0  0  0  0  # atno 17371 bound_to 10713
  139.8944  134.8708  156.2179 LP  0  0  0  0  0  0  0  0  0  0  0  0  # atno 17394 bound_to 11000
  141.0297  133.6995  156.1408 LP  0  0  0  0  0  0  0  0  0  0  0  0  # atno 17395 bound_to 11000

$$$$
