#       Name:                AV-unprocessed.smi:3336
#       Creating user name   scv26
#       Creation time:       Fri Mar 27 19:25:43 2020


#       File generated by GOLD software.
#

@<TRIPOS>MOLECULE
AV-unprocessed.smi:3336
    47    48     1
SMALL
NO_CHARGES


@<TRIPOS>ATOM
      1 ****        -1.6776  -2.8165  -1.5395 C.3            1 S1                 0.0000
      2 ****        -1.2831  -1.5356  -0.7868 C.3            1 S1                 0.0000
      3 ****        -1.7534  -1.5448   0.6906 C.3            1 S1                 0.0000
      4 ****        -1.2059  -2.6352   1.4823 N.pl3          1 S1                 0.0000
      5 ****        -1.7373  -3.8897   1.6985 C.2            1 S1                 0.0000
      6 ****        -0.8726  -4.5640   2.5122 C.2            1 S1                 0.0000
      7 ****         0.1702  -3.6253   2.7485 C.2            1 S1                 0.0000
      8 ****        -0.0347  -2.4709   2.1358 N.2            1 S1                 0.0000
      9 ****         0.1684  -1.3838  -0.9282 N.3            1 S1                 0.0000
     10 ****         0.7601  -0.1181  -0.4448 C.3            1 S1                 0.0000
     11 ****         2.2896  -0.1950  -0.5748 C.3            1 S1                 0.0000
     12 ****         0.2306   1.1406  -1.1716 C.2            1 S1                 0.0000
     13 ****        -0.1205   1.0238  -2.3475 O.2            1 S1                 0.0000
     14 ****         0.1667   2.3319  -0.5243 N.am           1 S1                 0.0000
     15 ****         0.6954   2.6437   0.8098 C.3            1 S1                 0.0000
     16 ****         1.8095   3.6962   0.6615 C.3            1 S1                 0.0000
     17 ****         1.2986   4.8565   0.0117 O.3            1 S1                 0.0000
     18 ****         0.7634   4.5780  -1.2788 C.3            1 S1                 0.0000
     19 ****        -0.3695   3.5453  -1.1515 C.3            1 S1                 0.0000
     20 ****        -2.7503  -2.9973  -1.4668 H              1 S1                 0.0000
     21 ****        -1.1652  -3.6947  -1.1451 H              1 S1                 0.0000
     22 ****        -1.4311  -2.7406  -2.5991 H              1 S1                 0.0000
     23 ****        -1.7854  -0.7111  -1.2916 H              1 S1                 0.0000
     24 ****        -1.5335  -0.5993   1.1868 H              1 S1                 0.0000
     25 ****        -2.8401  -1.6334   0.7162 H              1 S1                 0.0000
     26 ****        -2.6749  -4.1947   1.2574 H              1 S1                 0.0000
     27 ****        -0.9703  -5.5736   2.8826 H              1 S1                 0.0000
     28 ****         1.0625  -3.7467   3.3450 H              1 S1                 0.0000
     29 ****         0.4291  -1.5604  -1.8880 H              1 S1                 0.0000
     30 ****         0.5238  -0.0558   0.6132 H              1 S1                 0.0000
     31 ****         2.7726   0.7005  -0.1833 H              1 S1                 0.0000
     32 ****         2.5974  -0.3099  -1.6150 H              1 S1                 0.0000
     33 ****         2.6848  -1.0447  -0.0172 H              1 S1                 0.0000
     34 ****        -0.1105   3.0336   1.4332 H              1 S1                 0.0000
     35 ****         1.1028   1.7913   1.3465 H              1 S1                 0.0000
     36 ****         2.1916   3.9812   1.6417 H              1 S1                 0.0000
     37 ****         2.6508   3.2929   0.0955 H              1 S1                 0.0000
     38 ****         0.3840   5.5043  -1.7103 H              1 S1                 0.0000
     39 ****         1.5503   4.2138  -1.9411 H              1 S1                 0.0000
     40 ****        -0.8112   3.3634  -2.1319 H              1 S1                 0.0000
     41 ****        -1.1735   3.9455  -0.5317 H              1 S1                 0.0000
     42 ****         0.5474  -1.6580   2.1525 LP             1 S1                 0.0000
     43 ****         0.5589  -2.0641  -0.3079 LP             1 S1                 0.0000
     44 ****        -0.0582   0.1352  -2.8020 LP             1 S1                 0.0000
     45 ****        -0.4677   1.8176  -2.8469 LP             1 S1                 0.0000
     46 ****         2.0403   5.5199  -0.0867 LP             1 S1                 0.0000
     47 ****         0.5746   5.2478   0.5798 LP             1 S1                 0.0000
@<TRIPOS>BOND
    1    1    2 1     
    2    1   20 1     
    3    1   21 1     
    4    1   22 1     
    5    2    3 1     
    6    2    9 1     
    7    2   23 1     
    8    3    4 1     
    9    3   24 1     
   10    3   25 1     
   11    4    8 1     
   12    4    5 1     
   13    5    6 2     
   14    5   26 1     
   15    6    7 1     
   16    6   27 1     
   17    7    8 2     
   18    7   28 1     
   19    9   10 1     
   20    9   29 1     
   21   10   11 1     
   22   10   12 1     
   23   10   30 1     
   24   11   31 1     
   25   11   32 1     
   26   11   33 1     
   27   12   13 2     
   28   12   14 am    
   29   14   19 1     
   30   14   15 1     
   31   15   16 1     
   32   15   34 1     
   33   15   35 1     
   34   16   17 1     
   35   16   36 1     
   36   16   37 1     
   37   17   18 1     
   38   18   19 1     
   39   18   38 1     
   40   18   39 1     
   41   19   40 1     
   42   19   41 1     
   43    8   42 1     
   44    9   43 1     
   45   13   44 1     
   46   13   45 1     
   47   17   46 1     
   48   17   47 1     
@<TRIPOS>SUBSTRUCTURE
      1 S1             1
@<TRIPOS>SET
LONE_PAIRS      STATIC     ATOMS    <user>   **** ""
6 42 43 44 45 46 47
DONOR_HYDROGENS      STATIC     ATOMS    <user>   **** ""
1 29
ATOM$BLUE        STATIC     ATOMS    COLORGROUP SYSTEM
6 42 43 44 45 46 47
ATOM$RED        STATIC     ATOMS    COLORGROUP SYSTEM
1 29
