AV-unprocessed.smi:3345|AV-procd|sdf|12904|dock3
  -GOLD-   2272019313D 1   1.00000     0.00000
 Structure written by MMmdl.
 41 42  0  0  0  0  0  0  0  0  2 V2000
  146.6316  142.5788  154.3805 C   0  0  0  0  0  0  0  0  0  0  0  0
  146.8055  141.0542  154.4057 C   0  0  1  0  0  0  0  0  0  0  0  0
  146.9963  140.4879  152.9795 C   0  0  0  0  0  0  0  0  0  0  0  0
  146.2602  139.2183  152.7537 N   0  3  0  0  0  0  0  0  0  0  0  0
  146.6374  138.5308  151.4949 C   0  0  0  0  0  0  0  0  0  0  0  0
  145.7721  137.2754  151.2976 C   0  0  0  0  0  0  0  0  0  0  0  0
  145.9241  136.4133  152.4191 O   0  0  0  0  0  0  0  0  0  0  0  0
  145.4972  137.0297  153.6277 C   0  0  0  0  0  0  0  0  0  0  0  0
  146.3466  138.2833  153.8994 C   0  0  0  0  0  0  0  0  0  0  0  0
  147.9382  140.7211  155.2701 N   0  0  0  0  0  0  0  0  0  0  0  0
  149.2222  141.0534  155.0560 C   0  0  0  0  0  0  0  0  0  0  0  0
  149.5902  141.7350  154.0987 O   0  0  0  0  0  0  0  0  0  0  0  0
  150.2390  140.5397  156.0860 C   0  0  2  0  0  0  0  0  0  0  0  0
  151.0574  141.6815  156.7224 C   0  0  0  0  0  0  0  0  0  0  0  0
  151.0864  139.5177  155.4843 N   0  0  0  0  0  0  0  0  0  0  0  0
  151.9994  138.7219  156.0457 C   0  0  0  0  0  0  0  0  0  0  0  0
  152.5548  137.8613  155.2044 N   0  0  0  0  0  0  0  0  0  0  0  0
  151.8850  138.1946  154.0616 C   0  0  0  0  0  0  0  0  0  0  0  0
  150.9858  139.1716  154.1765 N   0  0  0  0  0  0  0  0  0  0  0  0
  145.7712  142.8648  153.7748 H   0  0  0  0  0  0  0  0  0  0  0  0
  147.5098  143.0742  153.9647 H   0  0  0  0  0  0  0  0  0  0  0  0
  146.4709  142.9727  155.3848 H   0  0  0  0  0  0  0  0  0  0  0  0
  145.8927  140.6416  154.8379 H   0  0  0  0  0  0  0  0  0  0  0  0
  146.6973  141.2210  152.2287 H   0  0  0  0  0  0  0  0  0  0  0  0
  148.0627  140.3156  152.8249 H   0  0  0  0  0  0  0  0  0  0  0  0
  146.5072  139.1973  150.6428 H   0  0  0  0  0  0  0  0  0  0  0  0
  147.6927  138.2555  151.5269 H   0  0  0  0  0  0  0  0  0  0  0  0
  144.7222  137.5430  151.1662 H   0  0  0  0  0  0  0  0  0  0  0  0
  146.0806  136.7428  150.3980 H   0  0  0  0  0  0  0  0  0  0  0  0
  144.4377  137.2836  153.5652 H   0  0  0  0  0  0  0  0  0  0  0  0
  145.6064  136.3175  154.4458 H   0  0  0  0  0  0  0  0  0  0  0  0
  147.3879  138.0036  154.0680 H   0  0  0  0  0  0  0  0  0  0  0  0
  145.9932  138.7739  154.8070 H   0  0  0  0  0  0  0  0  0  0  0  0
  147.7311  140.1601  156.0840 H   0  0  0  0  0  0  0  0  0  0  0  0
  149.6812  140.0575  156.8908 H   0  0  0  0  0  0  0  0  0  0  0  0
  150.4053  142.4074  157.2091 H   0  0  0  0  0  0  0  0  0  0  0  0
  151.6568  142.2190  155.9866 H   0  0  0  0  0  0  0  0  0  0  0  0
  151.7378  141.2941  157.4812 H   0  0  0  0  0  0  0  0  0  0  0  0
  152.2605  138.7697  157.0927 H   0  0  0  0  0  0  0  0  0  0  0  0
  152.0596  137.6972  153.1189 H   0  0  0  0  0  0  0  0  0  0  0  0
  145.2851  139.4687  152.6683 H   0  0  0  0  0  0  0  0  0  0  0  0
  1  2  1  0  0  0  0
  1 20  1  0  0  0  0
  1 21  1  0  0  0  0
  1 22  1  0  0  0  0
  2  3  1  0  0  0  0
  2 10  1  0  0  0  0
  2 23  1  0  0  0  0
  3  4  1  0  0  0  0
  3 24  1  0  0  0  0
  3 25  1  0  0  0  0
  4  9  1  0  0  0  0
  4  5  1  0  0  0  0
  4 41  1  0  0  0  0
  5  6  1  0  0  0  0
  5 26  1  0  0  0  0
  5 27  1  0  0  0  0
  6  7  1  0  0  0  0
  6 28  1  0  0  0  0
  6 29  1  0  0  0  0
  7  8  1  0  0  0  0
  8  9  1  0  0  0  0
  8 30  1  0  0  0  0
  8 31  1  0  0  0  0
  9 32  1  0  0  0  0
  9 33  1  0  0  0  0
 10 11  1  0  0  0  0
 10 34  1  0  0  0  0
 11 12  2  0  0  0  0
 11 13  1  0  0  0  0
 13 14  1  0  0  0  0
 13 15  1  0  0  0  0
 13 35  1  0  0  0  0
 14 36  1  0  0  0  0
 14 37  1  0  0  0  0
 14 38  1  0  0  0  0
 15 19  1  0  0  0  0
 15 16  1  0  0  0  0
 16 17  2  0  0  0  0
 16 39  1  0  0  0  0
 17 18  1  0  0  0  0
 18 19  2  0  0  0  0
 18 40  1  0  0  0  0
M  CHG  1   4   1
M  END
> <s_m_source_file>
AV-unprocessed.smi

> <i_m_source_file_index>
3345

> <i_lp_mmshare_version>
43012

> <i_f3d_flags>
0

> <s_epik_input>
W0NIMl0xW0NIMl1PW0NIMl1bQ0gyXU4xW0NIMl1bQ0BASF0oW0NIM10pW05IXUMoPU8pW0NASF0oW0NIM10pbjJbY0hdbltjSF1uMg==

> <s_epik_cmdline>
J2VwaWtfcHl0aG9uJywgJy1waCcsICc3LjAnLCAnLXRuJywgJzgnLCAnLW1hJywgJzIwMCcsICctbWV0YWxfYmluZGluZycsICctaW1hZScsICc8aW5maWxlLm1hZT4nLCAnLW9tYWUnLCAnPG91dGZpbGUubWFlPic=

> <r_lp_tautomer_probability>
1

> <r_epik_Ionization_Penalty>
0.71326

> <r_epik_Ionization_Penalty_Charging>
0.713252

> <r_epik_Ionization_Penalty_Neutral>
8.27671e-06

> <r_epik_State_Penalty>
0.737017

> <r_epik_Charging_Adjusted_Penalty>
1.45027

> <i_epik_Tot_Q>
1

> <i_epik_Tot_abs_Q>
1

> <r_epik_Metal_State_Penalty>
0.73702

> <b_epik_Metal_Only>
0

> <s_lp_Force_Field>
OPLS_2005

> <r_lp_Energy>
28.084

> <b_lp_Chiralities_Consistent>
1

> <s_lp_Variant>
AV-unprocessed.smi:3345-6

> <Gold.Version>
5.8.1

> <Gold.Id.Protein>
6NUR|6NUR_protein|mol2

> <Gold.PLP.Fitness>
41.4307

> <Gold.PLP.PLP>
-29.6201

> <Gold.PLP.part.hbond>
-4.8662

> <Gold.PLP.part.metal>
0.0000

> <Gold.PLP.part.buried>
3.0493

> <Gold.PLP.part.nonpolar>
-28.9454

> <Gold.PLP.part.repulsive>
0.8202

> <Gold.PLP.ligand.clash>
0.0000

> <Gold.PLP.ligand.torsion>
0.8170

> <Gold.PLP.Chemscore.Hbond>
3.4277

> <Gold.PLP.Chemscore.CHOScore>
1.0000

> <Gold.PLP.Chemscore.Metal>
0.0000

> <Gold.Chemscore.Hbonds>
donor molecule, donor type, donor heavy atom, donor atom, acceptor molecule, acceptor atom, score
      L1  H     4    41       P1 10175  2.00
      P1  H  7989  7998       L1    19  0.80
      P1  H  8011  8017       L1    12  0.51
      P1  H 10752 10764       L1    17  0.04
      L1  C    18    40       P1  7949  1.00

> <Gold.PLP.Chemscore.Internal.Correction>
0.1615

> <Gold.Rescore>
     Score         DG    S(hbond)    S(metal)    S(lipo)     H(rot)  DE(clash)    DE(int)     intcor
      7.58     -13.83       2.38        0.00      60.59       2.61       3.11       3.14       ----

> <Gold.Chemscore.Fitness>
7.5808

> <Gold.Chemscore.DG>
-13.8262

> <Gold.Chemscore.ZeroCoef>
-5.4800

> <Gold.Chemscore.Hbond>
2.3799

> <Gold.Chemscore.Metal>
0.0000

> <Gold.Chemscore.Lipo>
60.5870

> <Gold.Chemscore.Internal_Hbond>
0.0000

> <Gold.Chemscore.DEClash>
3.1072

> <Gold.Chemscore.DEInternal>
3.1382

> <Gold.Chemscore.Rot>
2.6138

> <Gold.Chemscore.Internal.Correction>
   9.000000E+99

> <Gold.Chemscore.Hbonds>
donor molecule, donor type, donor heavy atom, donor atom, acceptor molecule, acceptor atom, score
      L1  H     4    41       P1 10175  1.00
      P1  H  7989  7998       L1    19  0.10
      P1  H  8011  8017       L1    12  0.52

> <Gold.Chemscore.Hbond.Weighted>
-7.9488

> <Gold.Chemscore.Metal.Weighted>
-0.0000

> <Gold.Chemscore.Lipo.Weighted>
-7.0887

> <Gold.Chemscore.Internal_Hbond.Weighted>
0.0000

> <Gold.Chemscore.DEClash.Weighted>
3.1072

> <Gold.Chemscore.DEInternal.Weighted>
3.1382

> <Gold.Chemscore.Rot.Weighted>
6.6912

> <Gold.Chemscore.Internal.Correction.Weighted>
   9.000000E+99

> <Gold.Protein.RotatedTorsions>
[ 6907 6896 6895 6894 ] final  -53.94 input  -60.11 | X-H torsion
[ 7974 7965 7964 7962 ] final  -64.42 input  175.53 | X-H torsion
[ 8008 7997 7996 7995 ] final  142.17 input   59.86 | X-H torsion
[ 10167 10162 10161 10158 ] final   35.26 input  -65.29 | X-H torsion
[ 10718 10713 10712 10709 ] final -150.52 input   66.30 | X-H torsion
[ 10763 10752 10751 10750 ] final  -70.52 input  -60.55 | X-H torsion
[ 11005 11000 10999 10996 ] final   89.31 input  -57.11 | X-H torsion

> <Gold.Protein.ActiveResidues>
 VAL166  LYS551  ARG553  GLY616  TRP617  ASP618  TYR619  PRO620  LYS621  CYS622 
 ASP623  PHE694  ASN695  SER759  ASP760  ASP761  ALA762  ILE779  LEU786  VAL792 
 PHE793  MET794  SER795  GLU796  ALA797  LYS798  CYS799  TRP800  GLU811  SER814 

> <Gold.Protein.RotatedAtoms>
  150.8382  134.7664  159.6910 H   0  0  0  0  0  0  0  0  0  0  0  0  # atno 6907 bound_to 6896
  152.4475  134.5461  159.9863 H   0  0  0  0  0  0  0  0  0  0  0  0  # atno 6908 bound_to 6896
  151.5607  133.3366  159.3006 H   0  0  0  0  0  0  0  0  0  0  0  0  # atno 6909 bound_to 6896
  145.7669  140.8833  143.0400 H   0  0  0  0  0  0  0  0  0  0  0  0  # atno 7974 bound_to 7965
  156.2954  140.2296  156.4685 H   0  0  0  0  0  0  0  0  0  0  0  0  # atno 8008 bound_to 7997
  154.7956  140.0451  157.1255 H   0  0  0  0  0  0  0  0  0  0  0  0  # atno 8009 bound_to 7997
  154.9593  140.3052  155.5041 H   0  0  0  0  0  0  0  0  0  0  0  0  # atno 8010 bound_to 7997
  140.4239  144.1421  150.6151 H   0  0  0  0  0  0  0  0  0  0  0  0  # atno 10167 bound_to 10162
  156.4472  130.8150  151.2381 H   0  0  0  0  0  0  0  0  0  0  0  0  # atno 10718 bound_to 10713
  154.4189  135.5991  153.5997 H   0  0  0  0  0  0  0  0  0  0  0  0  # atno 10763 bound_to 10752
  152.9793  135.5947  154.3979 H   0  0  0  0  0  0  0  0  0  0  0  0  # atno 10764 bound_to 10752
  154.3802  135.2841  155.2194 H   0  0  0  0  0  0  0  0  0  0  0  0  # atno 10765 bound_to 10752
  139.8878  134.8544  156.3125 H   0  0  0  0  0  0  0  0  0  0  0  0  # atno 11005 bound_to 11000
  144.6820  139.9801  143.7483 LP  0  0  0  0  0  0  0  0  0  0  0  0  # atno 17320 bound_to 7965
  146.0209  139.3250  143.0814 LP  0  0  0  0  0  0  0  0  0  0  0  0  # atno 17321 bound_to 7965
  140.4503  143.2489  151.9356 LP  0  0  0  0  0  0  0  0  0  0  0  0  # atno 17342 bound_to 10162
  139.4783  144.5568  151.8301 LP  0  0  0  0  0  0  0  0  0  0  0  0  # atno 17343 bound_to 10162
  157.7504  131.0149  150.3484 LP  0  0  0  0  0  0  0  0  0  0  0  0  # atno 17370 bound_to 10713
  156.3854  130.3888  149.7070 LP  0  0  0  0  0  0  0  0  0  0  0  0  # atno 17371 bound_to 10713
  140.9841  133.7249  156.0715 LP  0  0  0  0  0  0  0  0  0  0  0  0  # atno 17394 bound_to 11000
  140.7711  134.3831  157.5507 LP  0  0  0  0  0  0  0  0  0  0  0  0  # atno 17395 bound_to 11000

$$$$
