AV-unprocessed.smi:2881|AV-procd|sdf|11059|dock3
  -GOLD-   2272015533D 1   1.00000     0.00000
 Structure written by MMmdl.
 40 42  0  0  0  0  0  0  0  0  1 V2000
  147.2342  142.1807  154.1312 C   0  0  0  0  0  0  0  0  0  0  0  0
  148.4370  141.3727  154.4826 C   0  0  0  0  0  0  0  0  0  0  0  0
  149.0806  141.1802  155.6723 C   0  0  0  0  0  0  0  0  0  0  0  0
  150.1640  140.3091  155.3518 C   0  0  0  0  0  0  0  0  0  0  0  0
  151.2176  139.7643  156.2779 C   0  0  0  0  0  0  0  0  0  0  0  0
  151.1414  140.4772  157.6279 C   0  0  0  0  0  0  0  0  0  0  0  0
  150.9557  139.8295  158.6580 O   0  0  0  0  0  0  0  0  0  0  0  0
  151.2846  141.8116  157.6072 N   0  0  0  0  0  0  0  0  0  0  0  0
  151.1775  142.6957  158.7681 C   0  0  2  0  0  0  0  0  0  0  0  0
  151.2418  144.1706  158.3159 C   0  0  1  0  0  0  0  0  0  0  0  0
  150.7402  145.0713  159.4593 C   0  0  0  0  0  0  0  0  0  0  0  0
  151.8890  144.9835  160.4821 C   0  0  0  0  0  0  0  0  0  0  0  0
  152.8969  144.0465  159.7870 C   0  0  2  0  0  0  0  0  0  0  0  0
  152.7382  144.4587  158.3290 C   0  0  0  0  0  0  0  0  0  0  0  0
  152.3454  142.5992  159.7973 C   0  0  2  0  0  0  0  0  0  0  0  0
  153.4262  141.5319  159.5111 C   0  0  0  0  0  0  0  0  0  0  0  0
  154.4251  141.5613  160.5092 O   0  0  0  0  0  0  0  0  0  0  0  0
  150.1848  139.9821  154.0666 N   0  0  0  0  0  0  0  0  0  0  0  0
  149.1297  140.6376  153.5481 N   0  0  0  0  0  0  0  0  0  0  0  0
  148.8972  140.5756  152.5670 H   0  0  0  0  0  0  0  0  0  0  0  0
  146.7749  142.6041  155.0249 H   0  0  0  0  0  0  0  0  0  0  0  0
  146.4869  141.5672  153.6276 H   0  0  0  0  0  0  0  0  0  0  0  0
  147.5013  143.0040  153.4681 H   0  0  0  0  0  0  0  0  0  0  0  0
  148.8215  141.6032  156.6316 H   0  0  0  0  0  0  0  0  0  0  0  0
  151.0729  138.6940  156.4285 H   0  0  0  0  0  0  0  0  0  0  0  0
  152.2154  139.8836  155.8522 H   0  0  0  0  0  0  0  0  0  0  0  0
  151.4348  142.2553  156.7124 H   0  0  0  0  0  0  0  0  0  0  0  0
  150.2215  142.5073  159.2608 H   0  0  0  0  0  0  0  0  0  0  0  0
  150.7428  144.3666  157.3658 H   0  0  0  0  0  0  0  0  0  0  0  0
  150.6116  146.0985  159.1162 H   0  0  0  0  0  0  0  0  0  0  0  0
  149.7879  144.7344  159.8702 H   0  0  0  0  0  0  0  0  0  0  0  0
  152.3268  145.9683  160.6497 H   0  0  0  0  0  0  0  0  0  0  0  0
  151.5595  144.5981  161.4475 H   0  0  0  0  0  0  0  0  0  0  0  0
  153.9090  144.1429  160.1810 H   0  0  0  0  0  0  0  0  0  0  0  0
  153.3072  143.8391  157.6343 H   0  0  0  0  0  0  0  0  0  0  0  0
  152.9785  145.5076  158.1467 H   0  0  0  0  0  0  0  0  0  0  0  0
  151.9264  142.3768  160.7801 H   0  0  0  0  0  0  0  0  0  0  0  0
  152.9886  140.5337  159.5152 H   0  0  0  0  0  0  0  0  0  0  0  0
  153.8903  141.6816  158.5363 H   0  0  0  0  0  0  0  0  0  0  0  0
  154.0453  141.2676  161.3232 H   0  0  0  0  0  0  0  0  0  0  0  0
  1  2  1  0  0  0  0
  1 21  1  0  0  0  0
  1 22  1  0  0  0  0
  1 23  1  0  0  0  0
  2 19  1  0  0  0  0
  2  3  2  0  0  0  0
  3  4  1  0  0  0  0
  3 24  1  0  0  0  0
  4  5  1  0  0  0  0
  4 18  2  0  0  0  0
  5  6  1  0  0  0  0
  5 25  1  0  0  0  0
  5 26  1  0  0  0  0
  6  7  2  0  0  0  0
  6  8  1  0  0  0  0
  8  9  1  0  0  0  0
  8 27  1  0  0  0  0
  9 15  1  0  0  0  0
  9 10  1  0  0  0  0
  9 28  1  0  0  0  0
 10 14  1  0  0  0  0
 10 11  1  0  0  0  0
 10 29  1  0  0  0  0
 11 12  1  0  0  0  0
 11 30  1  0  0  0  0
 11 31  1  0  0  0  0
 12 13  1  0  0  0  0
 12 32  1  0  0  0  0
 12 33  1  0  0  0  0
 13 14  1  0  0  0  0
 13 15  1  0  0  0  0
 13 34  1  0  0  0  0
 14 35  1  0  0  0  0
 14 36  1  0  0  0  0
 15 16  1  0  0  0  0
 15 37  1  0  0  0  0
 16 17  1  0  0  0  0
 16 38  1  0  0  0  0
 16 39  1  0  0  0  0
 17 40  1  0  0  0  0
 18 19  1  0  0  0  0
 19 20  1  0  0  0  0
M  END
> <s_m_source_file>
AV-unprocessed.smi

> <i_m_source_file_index>
2881

> <i_lp_mmshare_version>
43012

> <i_f3d_flags>
0

> <s_epik_input>
W0NIM11jMVtjSF1jKG5bbkhdMSlbQ0gyXUMoPU8pW05IXVtDQEhdKFtDQEBIXTIzKVtDQEhdKFtDSDJdW09IXSlbQ0BASF0oW0NIMl0zKVtDSDJdW0NIMl0y

> <s_epik_cmdline>
J2VwaWtfcHl0aG9uJywgJy1waCcsICc3LjAnLCAnLXRuJywgJzgnLCAnLW1hJywgJzIwMCcsICctbWV0YWxfYmluZGluZycsICctaW1hZScsICc8aW5maWxlLm1hZT4nLCAnLW9tYWUnLCAnPG91dGZpbGUubWFlPic=

> <r_lp_tautomer_probability>
0.5

> <r_epik_Ionization_Penalty>
9.4349e-05

> <r_epik_Ionization_Penalty_Charging>
0

> <r_epik_Ionization_Penalty_Neutral>
9.4349e-05

> <r_epik_State_Penalty>
0.41068

> <r_epik_Charging_Adjusted_Penalty>
0.41068

> <i_epik_Tot_Q>
0

> <i_epik_Tot_abs_Q>
0

> <r_epik_Metal_State_Penalty>
0.4107

> <b_epik_Metal_Only>
0

> <s_lp_Force_Field>
OPLS_2005

> <r_lp_Energy>
48.9716

> <b_lp_Chiralities_Consistent>
1

> <s_lp_Variant>
AV-unprocessed.smi:2881-5

> <Gold.Version>
5.8.1

> <Gold.Id.Protein>
6NUR|6NUR_protein|mol2

> <Gold.PLP.Fitness>
50.2397

> <Gold.PLP.PLP>
-45.0898

> <Gold.PLP.part.hbond>
-2.2657

> <Gold.PLP.part.metal>
0.0000

> <Gold.PLP.part.buried>
-8.1803

> <Gold.PLP.part.nonpolar>
-36.6486

> <Gold.PLP.part.repulsive>
1.8419

> <Gold.PLP.ligand.clash>
0.0000

> <Gold.PLP.ligand.torsion>
0.1803

> <Gold.PLP.Chemscore.Hbond>
1.8320

> <Gold.PLP.Chemscore.CHOScore>
0.0000

> <Gold.PLP.Chemscore.Metal>
0.0000

> <Gold.Chemscore.Hbonds>
donor molecule, donor type, donor heavy atom, donor atom, acceptor molecule, acceptor atom, score
      L1  H    19    20       P1  7957  0.77
      P1  H  7989  7998       L1    18  1.00

> <Gold.PLP.Chemscore.Internal.Correction>
0.0146

> <Gold.Rescore>
     Score         DG    S(hbond)    S(metal)    S(lipo)     H(rot)  DE(clash)    DE(int)     intcor
     18.04     -18.61       1.64        0.00     115.05       2.28       0.07       0.50       ----

> <Gold.Chemscore.Fitness>
18.0375

> <Gold.Chemscore.DG>
-18.6062

> <Gold.Chemscore.ZeroCoef>
-5.4800

> <Gold.Chemscore.Hbond>
1.6439

> <Gold.Chemscore.Metal>
0.0000

> <Gold.Chemscore.Lipo>
115.0477

> <Gold.Chemscore.Internal_Hbond>
0.0000

> <Gold.Chemscore.DEClash>
0.0650

> <Gold.Chemscore.DEInternal>
0.5036

> <Gold.Chemscore.Rot>
2.2755

> <Gold.Chemscore.Internal.Correction>
   9.000000E+99

> <Gold.Chemscore.Hbonds>
donor molecule, donor type, donor heavy atom, donor atom, acceptor molecule, acceptor atom, score
      L1  H    19    20       P1  7957  0.78
      P1  H  7989  7998       L1    18  0.16

> <Gold.Chemscore.Hbond.Weighted>
-5.4908

> <Gold.Chemscore.Metal.Weighted>
-0.0000

> <Gold.Chemscore.Lipo.Weighted>
-13.4606

> <Gold.Chemscore.Internal_Hbond.Weighted>
0.0000

> <Gold.Chemscore.DEClash.Weighted>
0.0650

> <Gold.Chemscore.DEInternal.Weighted>
0.5036

> <Gold.Chemscore.Rot.Weighted>
5.8252

> <Gold.Chemscore.Internal.Correction.Weighted>
   9.000000E+99

> <Gold.Protein.RotatedTorsions>
[ 6907 6896 6895 6894 ] final  177.99 input  -60.11 | X-H torsion
[ 7974 7965 7964 7962 ] final  -53.36 input  175.53 | X-H torsion
[ 8008 7997 7996 7995 ] final   39.01 input   59.86 | X-H torsion
[ 10167 10162 10161 10158 ] final  166.56 input  -65.29 | X-H torsion
[ 10718 10713 10712 10709 ] final -107.60 input   66.30 | X-H torsion
[ 10763 10752 10751 10750 ] final  152.80 input  -60.55 | X-H torsion
[ 11005 11000 10999 10996 ] final    5.94 input  -57.11 | X-H torsion

> <Gold.Protein.ActiveResidues>
 VAL166  LYS551  ARG553  GLY616  TRP617  ASP618  TYR619  PRO620  LYS621  CYS622 
 ASP623  PHE694  ASN695  SER759  ASP760  ASP761  ALA762  ILE779  LEU786  VAL792 
 PHE793  MET794  SER795  GLU796  ALA797  LYS798  CYS799  TRP800  GLU811  SER814 

> <Gold.Protein.RotatedAtoms>
  151.6950  133.3311  159.3252 H   0  0  0  0  0  0  0  0  0  0  0  0  # atno 6907 bound_to 6896
  150.7761  134.6665  159.6377 H   0  0  0  0  0  0  0  0  0  0  0  0  # atno 6908 bound_to 6896
  152.3804  134.6602  160.0197 H   0  0  0  0  0  0  0  0  0  0  0  0  # atno 6909 bound_to 6896
  145.8977  140.8020  142.9759 H   0  0  0  0  0  0  0  0  0  0  0  0  # atno 7974 bound_to 7965
  155.2296  140.3337  155.4305 H   0  0  0  0  0  0  0  0  0  0  0  0  # atno 8008 bound_to 7997
  156.2300  140.1846  156.7312 H   0  0  0  0  0  0  0  0  0  0  0  0  # atno 8009 bound_to 7997
  154.5962  140.0630  156.9292 H   0  0  0  0  0  0  0  0  0  0  0  0  # atno 8010 bound_to 7997
  139.4927  144.4014  151.9405 H   0  0  0  0  0  0  0  0  0  0  0  0  # atno 10167 bound_to 10162
  156.0444  130.5671  150.7844 H   0  0  0  0  0  0  0  0  0  0  0  0  # atno 10718 bound_to 10713
  154.1258  135.2830  155.3197 H   0  0  0  0  0  0  0  0  0  0  0  0  # atno 10763 bound_to 10752
  154.6391  135.5409  153.7771 H   0  0  0  0  0  0  0  0  0  0  0  0  # atno 10764 bound_to 10752
  153.0297  135.6481  154.1410 H   0  0  0  0  0  0  0  0  0  0  0  0  # atno 10765 bound_to 10752
  140.5650  134.0156  155.7986 H   0  0  0  0  0  0  0  0  0  0  0  0  # atno 11005 bound_to 11000
  144.6734  140.1628  143.7421 LP  0  0  0  0  0  0  0  0  0  0  0  0  # atno 17320 bound_to 7965
  145.8830  139.2333  143.1594 LP  0  0  0  0  0  0  0  0  0  0  0  0  # atno 17321 bound_to 7965
  140.3453  144.3154  150.5959 LP  0  0  0  0  0  0  0  0  0  0  0  0  # atno 17342 bound_to 10162
  140.5531  143.2203  151.7893 LP  0  0  0  0  0  0  0  0  0  0  0  0  # atno 17343 bound_to 10162
  157.5302  131.0936  150.9964 LP  0  0  0  0  0  0  0  0  0  0  0  0  # atno 17370 bound_to 10713
  157.0272  130.5697  149.5338 LP  0  0  0  0  0  0  0  0  0  0  0  0  # atno 17371 bound_to 10713
  141.1091  133.9646  157.2943 LP  0  0  0  0  0  0  0  0  0  0  0  0  # atno 17394 bound_to 11000
  139.9389  135.0193  156.8645 LP  0  0  0  0  0  0  0  0  0  0  0  0  # atno 17395 bound_to 11000

$$$$
