#       Name:                AV-unprocessed.smi:623
#       Creating user name   scv26
#       Creation time:       Fri Mar 27 00:01:42 2020


#       File generated by GOLD software.
#

@<TRIPOS>MOLECULE
AV-unprocessed.smi:623
    51    53     1
SMALL
NO_CHARGES


@<TRIPOS>ATOM
      1 ****        -2.0717  -2.1923   1.3224 C.3            1 S1                 0.0000
      2 ****        -1.3321  -1.3700   0.2296 C.3            1 S1                 0.0000
      3 ****         0.1704  -1.7334   0.3963 C.3            1 S1                 0.0000
      4 ****        -1.8791  -1.5742  -1.1976 C.3            1 S1                 0.0000
      5 ****        -3.3281  -1.0439  -1.1083 C.3            1 S1                 0.0000
      6 ****        -3.1920   0.1405  -0.1284 C.3            1 S1                 0.0000
      7 ****        -1.6749   0.1462   0.1931 C.3            1 S1                 0.0000
      8 ****        -1.3440   0.9435   1.4709 C.3            1 S1                 0.0000
      9 ****        -0.9929   0.6691  -1.1084 C.3            1 S1                 0.0000
     10 ****         0.3729   1.1256  -0.8820 N.am           1 S1                 0.0000
     11 ****         1.1388   1.8258  -1.7323 C.2            1 S1                 0.0000
     12 ****         0.7460   2.1947  -2.8385 O.2            1 S1                 0.0000
     13 ****         2.5769   2.1495  -1.2890 C.3            1 S1                 0.0000
     14 ****         2.9671   1.5307  -0.0075 N.am           1 S1                 0.0000
     15 ****         3.5791   0.2659  -0.0605 C.2            1 S1                 0.0000
     16 ****         3.9245  -0.4044   1.0550 C.2            1 S1                 0.0000
     17 ****         3.6496   0.2156   2.3452 C.2            1 S1                 0.0000
     18 ****         3.9544  -0.3833   3.3745 O.2            1 S1                 0.0000
     19 ****         3.0577   1.4457   2.3449 N.pl3          1 S1                -1.0000
     20 ****         2.7074   2.1134   1.2023 C.2            1 S1                 0.0000
     21 ****         2.1545   3.2131   1.2252 O.2            1 S1                 0.0000
     22 ****        -1.0845  -0.5562  -2.0474 C.3            1 S1                 0.0000
     23 ****        -1.9057  -3.2601   1.1773 H              1 S1                 0.0000
     24 ****        -3.1495  -2.0526   1.3576 H              1 S1                 0.0000
     25 ****        -1.6946  -1.9423   2.3146 H              1 S1                 0.0000
     26 ****         0.8367  -1.3159  -0.3531 H              1 S1                 0.0000
     27 ****         0.3108  -2.8135   0.3478 H              1 S1                 0.0000
     28 ****         0.5449  -1.4058   1.3664 H              1 S1                 0.0000
     29 ****        -1.8140  -2.5953  -1.5746 H              1 S1                 0.0000
     30 ****        -3.7143  -0.7312  -2.0791 H              1 S1                 0.0000
     31 ****        -4.0101  -1.8017  -0.7219 H              1 S1                 0.0000
     32 ****        -3.5330   1.0784  -0.5685 H              1 S1                 0.0000
     33 ****        -3.7967  -0.0177   0.7649 H              1 S1                 0.0000
     34 ****        -1.5899   1.9984   1.3462 H              1 S1                 0.0000
     35 ****        -0.2867   0.8802   1.7292 H              1 S1                 0.0000
     36 ****        -1.9089   0.5732   2.3261 H              1 S1                 0.0000
     37 ****        -1.5522   1.5107  -1.5216 H              1 S1                 0.0000
     38 ****         0.7832   0.8782   0.0074 H              1 S1                 0.0000
     39 ****         3.2577   1.8260  -2.0775 H              1 S1                 0.0000
     40 ****         2.6914   3.2336  -1.2434 H              1 S1                 0.0000
     41 ****         3.7367  -0.1262  -1.0545 H              1 S1                 0.0000
     42 ****         4.3875  -1.3784   0.9967 H              1 S1                 0.0000
     43 ****        -0.1029  -0.9450  -2.3191 H              1 S1                 0.0000
     44 ****        -1.5920  -0.3130  -2.9816 H              1 S1                 0.0000
     45 ****        -0.1820   1.9742  -3.1386 LP             1 S1                 0.0000
     46 ****         1.3549   2.7149  -3.4373 LP             1 S1                 0.0000
     47 ****         4.3852  -1.2841   3.3200 LP             1 S1                 0.0000
     48 ****         3.7716   0.0303   4.2664 LP             1 S1                 0.0000
     49 ****         2.8703   1.8817   3.2251 LP             1 S1                 0.0000
     50 ****         1.9035   3.6644   0.3689 LP             1 S1                 0.0000
     51 ****         1.9564   3.6550   2.1001 LP             1 S1                 0.0000
@<TRIPOS>BOND
    1    1    2 1     
    2    1   23 1     
    3    1   24 1     
    4    1   25 1     
    5    2    7 1     
    6    2    3 1     
    7    2    4 1     
    8    3   26 1     
    9    3   27 1     
   10    3   28 1     
   11    4   22 1     
   12    4    5 1     
   13    4   29 1     
   14    5    6 1     
   15    5   30 1     
   16    5   31 1     
   17    6    7 1     
   18    6   32 1     
   19    6   33 1     
   20    7    8 1     
   21    7    9 1     
   22    8   34 1     
   23    8   35 1     
   24    8   36 1     
   25    9   10 1     
   26    9   22 1     
   27    9   37 1     
   28   10   11 am    
   29   10   38 1     
   30   11   12 2     
   31   11   13 1     
   32   13   14 1     
   33   13   39 1     
   34   13   40 1     
   35   14   20 am    
   36   14   15 1     
   37   15   16 2     
   38   15   41 1     
   39   16   17 1     
   40   16   42 1     
   41   17   18 2     
   42   17   19 1     
   43   19   20 1     
   44   20   21 2     
   45   22   43 1     
   46   22   44 1     
   47   12   45 1     
   48   12   46 1     
   49   18   47 1     
   50   18   48 1     
   51   19   49 1     
   52   21   50 1     
   53   21   51 1     
@<TRIPOS>SUBSTRUCTURE
      1 S1             1
@<TRIPOS>SET
LONE_PAIRS      STATIC     ATOMS    <user>   **** ""
7 45 46 47 48 49 50 51
DONOR_HYDROGENS      STATIC     ATOMS    <user>   **** ""
1 38
ATOM$BLUE        STATIC     ATOMS    COLORGROUP SYSTEM
7 45 46 47 48 49 50 51
ATOM$RED        STATIC     ATOMS    COLORGROUP SYSTEM
1 38
