AV-unprocessed.smi:1456|AV-procd|sdf|5918|dock5
  -GOLD-   22720 6 03D 1   1.00000     0.00000
 Structure written by MMmdl.
 41 42  0  0  0  0  0  0  0  0  3 V2000
  146.0454  142.5053  156.6367 C   0  0  0  0  0  0  0  0  0  0  0  0
  145.5539  142.2221  155.1996 C   0  0  0  0  0  0  0  0  0  0  0  0
  144.1734  142.8953  155.0691 C   0  0  0  0  0  0  0  0  0  0  0  0
  146.4858  142.8342  154.1214 C   0  0  0  0  0  0  0  0  0  0  0  0
  147.7604  142.0277  153.8276 C   0  0  0  0  0  0  0  0  0  0  0  0
  148.7611  142.1979  154.8778 N   0  0  0  0  0  0  0  0  0  0  0  0
  149.8022  141.3929  155.1305 C   0  0  0  0  0  0  0  0  0  0  0  0
  150.0072  140.4070  154.4197 O   0  0  0  0  0  0  0  0  0  0  0  0
  150.5313  141.7793  156.2011 N   0  5  0  0  0  0  0  0  0  0  0  0
  151.2723  140.8804  156.8687 C   0  0  0  0  0  0  0  0  0  0  0  0
  152.0555  139.9834  156.2590 N   0  0  0  0  0  0  0  0  0  0  0  0
  152.7416  139.1519  157.1463 C   0  0  0  0  0  0  0  0  0  0  0  0
  152.4818  139.4289  158.4625 C   0  0  0  0  0  0  0  0  0  0  0  0
  151.3614  140.7505  158.6278 S   0  0  0  0  0  0  0  0  0  0  0  0
  147.4011  140.5548  153.5522 C   0  0  0  0  0  0  0  0  0  0  0  0
  146.4957  139.8883  154.6185 C   0  0  0  0  0  0  0  0  0  0  0  0
  145.9041  138.6057  154.0018 C   0  0  0  0  0  0  0  0  0  0  0  0
  147.2846  139.4492  155.8723 C   0  0  0  0  0  0  0  0  0  0  0  0
  145.3431  140.7642  154.9724 N   0  3  0  0  0  0  0  0  0  0  0  0
  146.0558  143.5771  156.8387 H   0  0  0  0  0  0  0  0  0  0  0  0
  147.0517  142.1522  156.8355 H   0  0  0  0  0  0  0  0  0  0  0  0
  145.3903  142.0444  157.3767 H   0  0  0  0  0  0  0  0  0  0  0  0
  144.2421  143.9754  155.2059 H   0  0  0  0  0  0  0  0  0  0  0  0
  143.4713  142.5155  155.8127 H   0  0  0  0  0  0  0  0  0  0  0  0
  143.7316  142.7192  154.0874 H   0  0  0  0  0  0  0  0  0  0  0  0
  145.9331  142.9042  153.1829 H   0  0  0  0  0  0  0  0  0  0  0  0
  146.7427  143.8624  154.3807 H   0  0  0  0  0  0  0  0  0  0  0  0
  148.1990  142.4415  152.9176 H   0  0  0  0  0  0  0  0  0  0  0  0
  148.6498  142.9970  155.4845 H   0  0  0  0  0  0  0  0  0  0  0  0
  153.3965  138.3890  156.7527 H   0  0  0  0  0  0  0  0  0  0  0  0
  152.8787  138.9410  159.3397 H   0  0  0  0  0  0  0  0  0  0  0  0
  146.8804  140.5334  152.5936 H   0  0  0  0  0  0  0  0  0  0  0  0
  148.3018  139.9594  153.3973 H   0  0  0  0  0  0  0  0  0  0  0  0
  146.6890  137.9173  153.6858 H   0  0  0  0  0  0  0  0  0  0  0  0
  145.2933  138.8263  153.1254 H   0  0  0  0  0  0  0  0  0  0  0  0
  145.2705  138.0748  154.7137 H   0  0  0  0  0  0  0  0  0  0  0  0
  148.0200  138.6845  155.6188 H   0  0  0  0  0  0  0  0  0  0  0  0
  146.6231  139.0233  156.6277 H   0  0  0  0  0  0  0  0  0  0  0  0
  147.8406  140.2515  156.3455 H   0  0  0  0  0  0  0  0  0  0  0  0
  144.8678  140.3727  155.7728 H   0  0  0  0  0  0  0  0  0  0  0  0
  144.7148  140.7064  154.1840 H   0  0  0  0  0  0  0  0  0  0  0  0
  1  2  1  0  0  0  0
  1 20  1  0  0  0  0
  1 21  1  0  0  0  0
  1 22  1  0  0  0  0
  2 19  1  0  0  0  0
  2  3  1  0  0  0  0
  2  4  1  0  0  0  0
  3 23  1  0  0  0  0
  3 24  1  0  0  0  0
  3 25  1  0  0  0  0
  4  5  1  0  0  0  0
  4 26  1  0  0  0  0
  4 27  1  0  0  0  0
  5  6  1  0  0  0  0
  5 15  1  0  0  0  0
  5 28  1  0  0  0  0
  6  7  1  0  0  0  0
  6 29  1  0  0  0  0
  7  8  2  0  0  0  0
  7  9  1  0  0  0  0
  9 10  1  0  0  0  0
 10 14  1  0  0  0  0
 10 11  2  0  0  0  0
 11 12  1  0  0  0  0
 12 13  2  0  0  0  0
 12 30  1  0  0  0  0
 13 14  1  0  0  0  0
 13 31  1  0  0  0  0
 15 16  1  0  0  0  0
 15 32  1  0  0  0  0
 15 33  1  0  0  0  0
 16 17  1  0  0  0  0
 16 18  1  0  0  0  0
 16 19  1  0  0  0  0
 17 34  1  0  0  0  0
 17 35  1  0  0  0  0
 17 36  1  0  0  0  0
 18 37  1  0  0  0  0
 18 38  1  0  0  0  0
 18 39  1  0  0  0  0
 19 40  1  0  0  0  0
 19 41  1  0  0  0  0
M  CHG  1   9  -1
M  CHG  1  19   1
M  END
> <s_m_source_file>
AV-unprocessed.smi

> <i_m_source_file_index>
1456

> <i_lp_mmshare_version>
43012

> <i_f3d_flags>
0

> <s_epik_input>
W0NIM11DMShbQ0gzXSlbQ0gyXVtDSF0oW0NIMl1DKFtDSDNdKShbQ0gzXSlbTkhdMSlbTkhdQyg9TylbTkhdYzJuW2NIXVtjSF1zMg==

> <s_epik_cmdline>
J2VwaWtfcHl0aG9uJywgJy1waCcsICc3LjAnLCAnLXRuJywgJzgnLCAnLW1hJywgJzIwMCcsICctbWV0YWxfYmluZGluZycsICctaW1hZScsICc8aW5maWxlLm1hZT4nLCAnLW9tYWUnLCAnPG91dGZpbGUubWFlPic=

> <r_lp_tautomer_probability>
1

> <r_epik_Ionization_Penalty>
7.98581

> <r_epik_Ionization_Penalty_Charging>
6.48842

> <r_epik_Ionization_Penalty_Neutral>
1.49739

> <r_epik_State_Penalty>
6.48831

> <r_epik_Charging_Adjusted_Penalty>
12.9767

> <i_epik_Tot_Q>
0

> <i_epik_Tot_abs_Q>
2

> <r_epik_Metal_State_Penalty>
2.41622

> <b_epik_Metal_Only>
1

> <s_lp_Force_Field>
OPLS_2005

> <r_lp_Energy>
15.6093

> <b_lp_Chiralities_Consistent>
1

> <s_lp_Variant>
AV-unprocessed.smi:1456-2

> <Gold.Version>
5.8.1

> <Gold.Id.Protein>
6NUR|6NUR_protein|mol2

> <Gold.PLP.Fitness>
38.0078

> <Gold.PLP.PLP>
-27.8303

> <Gold.PLP.part.hbond>
-3.0000

> <Gold.PLP.part.metal>
0.0000

> <Gold.PLP.part.buried>
-3.8193

> <Gold.PLP.part.nonpolar>
-20.6291

> <Gold.PLP.part.repulsive>
0.3914

> <Gold.PLP.ligand.clash>
0.0000

> <Gold.PLP.ligand.torsion>
0.8016

> <Gold.PLP.Chemscore.Hbond>
3.9200

> <Gold.PLP.Chemscore.CHOScore>
0.0000

> <Gold.PLP.Chemscore.Metal>
0.0000

> <Gold.Chemscore.Hbonds>
donor molecule, donor type, donor heavy atom, donor atom, acceptor molecule, acceptor atom, score
      L1  H     6    29       P1  8028  0.91
      L1  H    19    41       P1 10175  2.00
      P1  H  7989  7998       L1     8  0.90

> <Gold.PLP.Chemscore.Internal.Correction>
0.0207

> <Gold.Rescore>
     Score         DG    S(hbond)    S(metal)    S(lipo)     H(rot)  DE(clash)    DE(int)     intcor
     12.60     -16.83       2.30        0.00      53.15       1.00       0.68       3.56       ----

> <Gold.Chemscore.Fitness>
12.5978

> <Gold.Chemscore.DG>
-16.8334

> <Gold.Chemscore.ZeroCoef>
-5.4800

> <Gold.Chemscore.Hbond>
2.3038

> <Gold.Chemscore.Metal>
0.0000

> <Gold.Chemscore.Lipo>
53.1519

> <Gold.Chemscore.Internal_Hbond>
0.0000

> <Gold.Chemscore.DEClash>
0.6800

> <Gold.Chemscore.DEInternal>
3.5556

> <Gold.Chemscore.Rot>
1.0000

> <Gold.Chemscore.Internal.Correction>
   9.000000E+99

> <Gold.Chemscore.Hbonds>
donor molecule, donor type, donor heavy atom, donor atom, acceptor molecule, acceptor atom, score
      L1  H     6    29       P1  8028  0.88
      L1  H    19    41       P1 10175  0.96
      P1  H  7989  7998       L1     8  0.35

> <Gold.Chemscore.Hbond.Weighted>
-7.6946

> <Gold.Chemscore.Metal.Weighted>
-0.0000

> <Gold.Chemscore.Lipo.Weighted>
-6.2188

> <Gold.Chemscore.Internal_Hbond.Weighted>
0.0000

> <Gold.Chemscore.DEClash.Weighted>
0.6800

> <Gold.Chemscore.DEInternal.Weighted>
3.5556

> <Gold.Chemscore.Rot.Weighted>
2.5600

> <Gold.Chemscore.Internal.Correction.Weighted>
   9.000000E+99

> <Gold.Protein.RotatedTorsions>
[ 6907 6896 6895 6894 ] final  -22.40 input  -60.11 | X-H torsion
[ 7974 7965 7964 7962 ] final -107.51 input  175.53 | X-H torsion
[ 8008 7997 7996 7995 ] final -141.44 input   59.86 | X-H torsion
[ 10167 10162 10161 10158 ] final  168.90 input  -65.29 | X-H torsion
[ 10718 10713 10712 10709 ] final -173.14 input   66.30 | X-H torsion
[ 10763 10752 10751 10750 ] final  -99.49 input  -60.55 | X-H torsion
[ 11005 11000 10999 10996 ] final   57.96 input  -57.11 | X-H torsion

> <Gold.Protein.ActiveResidues>
 VAL166  LYS551  ARG553  GLY616  TRP617  ASP618  TYR619  PRO620  LYS621  CYS622 
 ASP623  PHE694  ASN695  SER759  ASP760  ASP761  ALA762  ILE779  LEU786  VAL792 
 PHE793  MET794  SER795  GLU796  ALA797  LYS798  CYS799  TRP800  GLU811  SER814 

> <Gold.Protein.RotatedAtoms>
  151.2191  135.0511  159.8942 H   0  0  0  0  0  0  0  0  0  0  0  0  # atno 6907 bound_to 6896
  152.5417  134.0660  159.8183 H   0  0  0  0  0  0  0  0  0  0  0  0  # atno 6908 bound_to 6896
  151.0824  133.5332  159.2651 H   0  0  0  0  0  0  0  0  0  0  0  0  # atno 6909 bound_to 6896
  145.2044  140.9070  143.3351 H   0  0  0  0  0  0  0  0  0  0  0  0  # atno 7974 bound_to 7965
  155.4778  140.0558  157.2971 H   0  0  0  0  0  0  0  0  0  0  0  0  # atno 8008 bound_to 7997
  154.4672  140.2024  156.0039 H   0  0  0  0  0  0  0  0  0  0  0  0  # atno 8009 bound_to 7997
  156.0995  140.3221  155.7927 H   0  0  0  0  0  0  0  0  0  0  0  0  # atno 8010 bound_to 7997
  139.4979  144.3764  151.9669 H   0  0  0  0  0  0  0  0  0  0  0  0  # atno 10167 bound_to 10162
  156.7660  130.9431  151.3119 H   0  0  0  0  0  0  0  0  0  0  0  0  # atno 10718 bound_to 10713
  154.7502  135.4970  153.9275 H   0  0  0  0  0  0  0  0  0  0  0  0  # atno 10763 bound_to 10752
  153.1135  135.6715  153.9467 H   0  0  0  0  0  0  0  0  0  0  0  0  # atno 10764 bound_to 10752
  153.9219  135.3087  155.3426 H   0  0  0  0  0  0  0  0  0  0  0  0  # atno 10765 bound_to 10752
  140.0413  134.5869  155.9378 H   0  0  0  0  0  0  0  0  0  0  0  0  # atno 11005 bound_to 11000
  144.9917  139.3683  143.6211 LP  0  0  0  0  0  0  0  0  0  0  0  0  # atno 17320 bound_to 7965
  146.3411  139.9102  142.8781 LP  0  0  0  0  0  0  0  0  0  0  0  0  # atno 17321 bound_to 7965
  140.3200  144.3438  150.6012 LP  0  0  0  0  0  0  0  0  0  0  0  0  # atno 17342 bound_to 10162
  140.5730  143.2179  151.7565 LP  0  0  0  0  0  0  0  0  0  0  0  0  # atno 17343 bound_to 10162
  157.6713  130.9053  150.0047 LP  0  0  0  0  0  0  0  0  0  0  0  0  # atno 17370 bound_to 10713
  156.1309  130.3643  149.9734 LP  0  0  0  0  0  0  0  0  0  0  0  0  # atno 17371 bound_to 10713
  141.1884  133.6562  156.5324 LP  0  0  0  0  0  0  0  0  0  0  0  0  # atno 17394 bound_to 11000
  140.4065  134.7310  157.4810 LP  0  0  0  0  0  0  0  0  0  0  0  0  # atno 17395 bound_to 11000

$$$$
