AV-unprocessed.smi:1843|AV-procd|sdf|7506|dock7
  -GOLD-   22720 9213D 1   1.00000     0.00000
 Structure written by MMmdl.
 36 38  0  0  0  0  0  0  0  0  2 V2000
  146.2289  140.9040  155.2087 O   0  0  0  0  0  0  0  0  0  0  0  0
  146.7413  142.0253  155.1808 C   0  0  0  0  0  0  0  0  0  0  0  0
  146.1067  143.1897  154.9155 N   0  5  0  0  0  0  0  0  0  0  0  0
  144.8205  143.3494  155.2689 C   0  0  0  0  0  0  0  0  0  0  0  0
  144.1218  142.3889  155.8904 N   0  0  0  0  0  0  0  0  0  0  0  0
  142.8144  142.7602  156.1684 N   0  0  0  0  0  0  0  0  0  0  0  0
  142.5463  144.0033  155.7619 C   0  0  0  0  0  0  0  0  0  0  0  0
  141.2071  144.6340  155.9495 C   0  0  0  0  0  0  0  0  0  0  0  0
  140.3270  144.9911  154.7716 C   0  0  0  0  0  0  0  0  0  0  0  0
  140.9765  146.0823  155.5835 C   0  0  0  0  0  0  0  0  0  0  0  0
  143.8953  144.8249  154.9935 S   0  0  0  0  0  0  0  0  0  0  0  0
  148.0522  142.1693  155.4225 N   0  0  0  0  0  0  0  0  0  0  0  0
  148.9977  141.0950  155.7215 C   0  0  2  0  0  0  0  0  0  0  0  0
  150.3759  141.6787  156.0880 C   0  0  0  0  0  0  0  0  0  0  0  0
  151.3828  140.5641  156.4142 C   0  0  0  0  0  0  0  0  0  0  0  0
  151.5036  139.5628  155.2544 C   0  0  0  0  0  0  0  0  0  0  0  0
  150.1321  138.9793  154.8679 C   0  0  0  0  0  0  0  0  0  0  0  0
  149.0973  140.0784  154.5572 C   0  0  2  0  0  0  0  0  0  0  0  0
  149.4581  140.7261  153.3508 O   0  0  0  0  0  0  0  0  0  0  0  0
  140.7243  144.2501  156.8460 H   0  0  0  0  0  0  0  0  0  0  0  0
  140.7138  144.8211  153.7688 H   0  0  0  0  0  0  0  0  0  0  0  0
  139.2545  144.8492  154.8870 H   0  0  0  0  0  0  0  0  0  0  0  0
  140.3380  146.6700  156.2396 H   0  0  0  0  0  0  0  0  0  0  0  0
  141.7996  146.6254  155.1235 H   0  0  0  0  0  0  0  0  0  0  0  0
  148.4262  143.1063  155.3920 H   0  0  0  0  0  0  0  0  0  0  0  0
  148.6316  140.5637  156.6022 H   0  0  0  0  0  0  0  0  0  0  0  0
  150.7566  142.2857  155.2654 H   0  0  0  0  0  0  0  0  0  0  0  0
  150.2811  142.3470  156.9447 H   0  0  0  0  0  0  0  0  0  0  0  0
  152.3585  140.9981  156.6339 H   0  0  0  0  0  0  0  0  0  0  0  0
  151.0671  140.0403  157.3173 H   0  0  0  0  0  0  0  0  0  0  0  0
  151.9491  140.0582  154.3907 H   0  0  0  0  0  0  0  0  0  0  0  0
  152.1841  138.7567  155.5294 H   0  0  0  0  0  0  0  0  0  0  0  0
  150.2377  138.3076  154.0152 H   0  0  0  0  0  0  0  0  0  0  0  0
  149.7633  138.3673  155.6920 H   0  0  0  0  0  0  0  0  0  0  0  0
  148.1262  139.6099  154.3940 H   0  0  0  0  0  0  0  0  0  0  0  0
  149.3806  140.0996  152.6467 H   0  0  0  0  0  0  0  0  0  0  0  0
  1  2  2  0  0  0  0
  2  3  1  0  0  0  0
  2 12  1  0  0  0  0
  3  4  1  0  0  0  0
  4 11  1  0  0  0  0
  4  5  2  0  0  0  0
  5  6  1  0  0  0  0
  6  7  2  0  0  0  0
  7  8  1  0  0  0  0
  7 11  1  0  0  0  0
  8 10  1  0  0  0  0
  8  9  1  0  0  0  0
  8 20  1  0  0  0  0
  9 10  1  0  0  0  0
  9 21  1  0  0  0  0
  9 22  1  0  0  0  0
 10 23  1  0  0  0  0
 10 24  1  0  0  0  0
 12 13  1  0  0  0  0
 12 25  1  0  0  0  0
 13 18  1  0  0  0  0
 13 14  1  0  0  0  0
 13 26  1  0  0  0  0
 14 15  1  0  0  0  0
 14 27  1  0  0  0  0
 14 28  1  0  0  0  0
 15 16  1  0  0  0  0
 15 29  1  0  0  0  0
 15 30  1  0  0  0  0
 16 17  1  0  0  0  0
 16 31  1  0  0  0  0
 16 32  1  0  0  0  0
 17 18  1  0  0  0  0
 17 33  1  0  0  0  0
 17 34  1  0  0  0  0
 18 19  1  0  0  0  0
 18 35  1  0  0  0  0
 19 36  1  0  0  0  0
M  CHG  1   3  -1
M  END
> <s_m_source_file>
AV-unprocessed.smi

> <i_m_source_file_index>
1843

> <i_lp_mmshare_version>
43012

> <i_f3d_flags>
0

> <s_epik_input>
W09IXVtDQEBIXTFbQ0gyXVtDSDJdW0NIMl1bQ0gyXVtDQEhdMVtOSF1DKD1PKVtOSF1jMm5uYyhzMilbQ0hdM1tDSDJdW0NIMl0z

> <s_epik_cmdline>
J2VwaWtfcHl0aG9uJywgJy1waCcsICc3LjAnLCAnLXRuJywgJzgnLCAnLW1hJywgJzIwMCcsICctbWV0YWxfYmluZGluZycsICctaW1hZScsICc8aW5maWxlLm1hZT4nLCAnLW9tYWUnLCAnPG91dGZpbGUubWFlPic=

> <r_lp_tautomer_probability>
1

> <r_epik_Ionization_Penalty>
4.7996

> <r_epik_Ionization_Penalty_Charging>
4.64516

> <r_epik_Ionization_Penalty_Neutral>
0.154442

> <r_epik_State_Penalty>
4.64493

> <r_epik_Charging_Adjusted_Penalty>
9.29009

> <i_epik_Tot_Q>
-1

> <i_epik_Tot_abs_Q>
1

> <r_epik_Metal_State_Penalty>
0.896144

> <b_epik_Metal_Only>
1

> <s_lp_Force_Field>
OPLS_2005

> <r_lp_Energy>
9.09011

> <b_lp_Chiralities_Consistent>
1

> <s_lp_Variant>
AV-unprocessed.smi:1843-7

> <Gold.Version>
5.8.1

> <Gold.Id.Protein>
6NUR|6NUR_protein|mol2

> <Gold.PLP.Fitness>
37.1927

> <Gold.PLP.PLP>
-28.7903

> <Gold.PLP.part.hbond>
-3.2276

> <Gold.PLP.part.metal>
0.0000

> <Gold.PLP.part.buried>
-5.2264

> <Gold.PLP.part.nonpolar>
-22.3928

> <Gold.PLP.part.repulsive>
0.6442

> <Gold.PLP.ligand.clash>
0.0000

> <Gold.PLP.ligand.torsion>
0.2897

> <Gold.PLP.Chemscore.Hbond>
2.9363

> <Gold.PLP.Chemscore.CHOScore>
0.0000

> <Gold.PLP.Chemscore.Metal>
0.0000

> <Gold.Chemscore.Hbonds>
donor molecule, donor type, donor heavy atom, donor atom, acceptor molecule, acceptor atom, score
      L1  H    12    25       P1  8028  1.00
      L1  H    19    36       P1  7957  0.72
      P1  H  7989  7998       L1    19  0.22
      P1  H  8011  8017       L1    19  1.00

> <Gold.PLP.Chemscore.Internal.Correction>
0.1731

> <Gold.Rescore>
     Score         DG    S(hbond)    S(metal)    S(lipo)     H(rot)  DE(clash)    DE(int)     intcor
     13.17     -15.05       1.97        0.00      63.11       1.72       0.01       1.86       ----

> <Gold.Chemscore.Fitness>
13.1717

> <Gold.Chemscore.DG>
-15.0460

> <Gold.Chemscore.ZeroCoef>
-5.4800

> <Gold.Chemscore.Hbond>
1.9685

> <Gold.Chemscore.Metal>
0.0000

> <Gold.Chemscore.Lipo>
63.1122

> <Gold.Chemscore.Internal_Hbond>
0.0000

> <Gold.Chemscore.DEClash>
0.0126

> <Gold.Chemscore.DEInternal>
1.8617

> <Gold.Chemscore.Rot>
1.7160

> <Gold.Chemscore.Internal.Correction>
   9.000000E+99

> <Gold.Chemscore.Hbonds>
donor molecule, donor type, donor heavy atom, donor atom, acceptor molecule, acceptor atom, score
      L1  H    12    25       P1  8028  0.99
      L1  H    19    36       P1  7957  0.68
      P1  H  7989  7998       L1    19  0.03
      P1  H  8011  8017       L1    19  0.29

> <Gold.Chemscore.Hbond.Weighted>
-6.5748

> <Gold.Chemscore.Metal.Weighted>
-0.0000

> <Gold.Chemscore.Lipo.Weighted>
-7.3841

> <Gold.Chemscore.Internal_Hbond.Weighted>
0.0000

> <Gold.Chemscore.DEClash.Weighted>
0.0126

> <Gold.Chemscore.DEInternal.Weighted>
1.8617

> <Gold.Chemscore.Rot.Weighted>
4.3930

> <Gold.Chemscore.Internal.Correction.Weighted>
   9.000000E+99

> <Gold.Protein.RotatedTorsions>
[ 6907 6896 6895 6894 ] final   23.45 input  -60.11 | X-H torsion
[ 7974 7965 7964 7962 ] final    1.05 input  175.53 | X-H torsion
[ 8008 7997 7996 7995 ] final  146.87 input   59.86 | X-H torsion
[ 10167 10162 10161 10158 ] final  -13.22 input  -65.29 | X-H torsion
[ 10718 10713 10712 10709 ] final -130.54 input   66.30 | X-H torsion
[ 10763 10752 10751 10750 ] final -151.13 input  -60.55 | X-H torsion
[ 11005 11000 10999 10996 ] final -124.60 input  -57.11 | X-H torsion

> <Gold.Protein.ActiveResidues>
 VAL166  LYS551  ARG553  GLY616  TRP617  ASP618  TYR619  PRO620  LYS621  CYS622 
 ASP623  PHE694  ASN695  SER759  ASP760  ASP761  ALA762  ILE779  LEU786  VAL792 
 PHE793  MET794  SER795  GLU796  ALA797  LYS798  CYS799  TRP800  GLU811  SER814 

> <Gold.Protein.RotatedAtoms>
  151.9426  135.0206  160.0536 H   0  0  0  0  0  0  0  0  0  0  0  0  # atno 6907 bound_to 6896
  152.2023  133.4845  159.5073 H   0  0  0  0  0  0  0  0  0  0  0  0  # atno 6908 bound_to 6896
  150.6957  134.1491  159.4176 H   0  0  0  0  0  0  0  0  0  0  0  0  # atno 6909 bound_to 6896
  146.2438  140.1045  142.8346 H   0  0  0  0  0  0  0  0  0  0  0  0  # atno 7974 bound_to 7965
  156.2842  140.2171  156.5446 H   0  0  0  0  0  0  0  0  0  0  0  0  # atno 8008 bound_to 7997
  154.7342  140.0493  157.0776 H   0  0  0  0  0  0  0  0  0  0  0  0  # atno 8009 bound_to 7997
  155.0315  140.3135  155.4760 H   0  0  0  0  0  0  0  0  0  0  0  0  # atno 8010 bound_to 7997
  140.7177  143.5450  150.9366 H   0  0  0  0  0  0  0  0  0  0  0  0  # atno 10167 bound_to 10162
  156.2154  130.6945  151.0697 H   0  0  0  0  0  0  0  0  0  0  0  0  # atno 10718 bound_to 10713
  154.8077  135.3267  154.7389 H   0  0  0  0  0  0  0  0  0  0  0  0  # atno 10763 bound_to 10752
  153.8044  135.6901  153.4855 H   0  0  0  0  0  0  0  0  0  0  0  0  # atno 10764 bound_to 10752
  153.1833  135.4578  155.0001 H   0  0  0  0  0  0  0  0  0  0  0  0  # atno 10765 bound_to 10752
  140.9828  134.0649  157.3745 H   0  0  0  0  0  0  0  0  0  0  0  0  # atno 11005 bound_to 11000
  145.0540  140.9039  143.4978 LP  0  0  0  0  0  0  0  0  0  0  0  0  # atno 17320 bound_to 7965
  145.1148  139.2733  143.5619 LP  0  0  0  0  0  0  0  0  0  0  0  0  # atno 17321 bound_to 7965
  139.9173  143.6648  152.3104 LP  0  0  0  0  0  0  0  0  0  0  0  0  # atno 17342 bound_to 10162
  139.7052  144.7629  151.1204 LP  0  0  0  0  0  0  0  0  0  0  0  0  # atno 17343 bound_to 10162
  157.7060  131.0756  150.6663 LP  0  0  0  0  0  0  0  0  0  0  0  0  # atno 17370 bound_to 10713
  156.6724  130.4543  149.5653 LP  0  0  0  0  0  0  0  0  0  0  0  0  # atno 17371 bound_to 10713
  139.8957  135.0142  156.7017 LP  0  0  0  0  0  0  0  0  0  0  0  0  # atno 17394 bound_to 11000
  140.7160  133.9181  155.8115 LP  0  0  0  0  0  0  0  0  0  0  0  0  # atno 17395 bound_to 11000

$$$$
