AV-unprocessed.smi:279|AV-procd|sdf|2095|dock1
  -GOLD-   2262021373D 1   1.00000     0.00000
 Structure written by MMmdl.
 50 54  0  0  0  0  0  0  0  0  1 V2000
  148.9899  139.0768  157.4221 O   0  0  0  0  0  0  0  0  0  0  0  0
  148.6975  140.5097  157.2627 S   0  0  0  0  0  0  0  0  0  0  0  0
  148.2765  141.3246  158.4124 O   0  0  0  0  0  0  0  0  0  0  0  0
  150.1149  141.3243  156.4402 C   0  0  0  0  0  0  0  0  0  0  0  0
  149.8035  141.2548  154.9427 C   0  0  0  0  0  0  0  0  0  0  0  0
  148.2884  141.4713  154.7443 C   0  0  1  0  0  0  0  0  0  0  0  0
  147.7435  140.8725  153.4365 C   0  0  0  0  0  0  0  0  0  0  0  0
  146.8354  139.7990  153.8191 N   0  0  0  0  0  0  0  0  0  0  0  0
  146.4883  138.8413  152.9179 C   0  0  0  0  0  0  0  0  0  0  0  0
  146.7583  139.0556  151.6022 N   0  0  0  0  0  0  0  0  0  0  0  0
  146.4319  138.1446  150.6819 C   0  0  0  0  0  0  0  0  0  0  0  0
  145.8451  136.9601  150.8541 N   0  0  0  0  0  0  0  0  0  0  0  0
  145.5840  136.7254  152.1715 C   0  0  0  0  0  0  0  0  0  0  0  0
  145.8648  137.6033  153.2589 C   0  0  0  0  0  0  0  0  0  0  0  0
  145.4455  137.0162  154.4484 N   0  0  0  0  0  0  0  0  0  0  0  0
  144.9365  135.8713  154.0846 C   0  0  0  0  0  0  0  0  0  0  0  0
  145.0044  135.6033  152.7372 N   0  0  0  0  0  0  0  0  0  0  0  0
  144.4900  134.4469  152.0640 C   0  0  0  0  0  0  0  0  0  0  0  0
  145.1262  133.0675  152.2511 C   0  0  0  0  0  0  0  0  0  0  0  0
  144.7472  132.7058  150.7967 C   0  0  0  0  0  0  0  0  0  0  0  0
  145.8188  131.9390  150.0038 C   0  0  0  0  0  0  0  0  0  0  0  0
  147.0961  132.5204  150.1713 O   0  0  0  0  0  0  0  0  0  0  0  0
  143.3878  131.9976  150.6266 C   0  0  0  0  0  0  0  0  0  0  0  0
  142.9055  132.1171  149.3038 O   0  0  0  0  0  0  0  0  0  0  0  0
  144.7242  134.2329  150.5668 C   0  0  0  0  0  0  0  0  0  0  0  0
  147.0541  139.4537  155.2156 C   0  0  0  0  0  0  0  0  0  0  0  0
  147.5243  140.7555  155.8652 C   0  0  1  0  0  0  0  0  0  0  0  0
  148.0793  142.5409  154.7922 H   0  0  0  0  0  0  0  0  0  0  0  0
  146.6739  141.3517  156.1982 H   0  0  0  0  0  0  0  0  0  0  0  0
  150.1543  142.3600  156.7786 H   0  0  0  0  0  0  0  0  0  0  0  0
  151.0469  140.8286  156.7116 H   0  0  0  0  0  0  0  0  0  0  0  0
  150.3933  141.9736  154.3733 H   0  0  0  0  0  0  0  0  0  0  0  0
  150.0776  140.2621  154.5824 H   0  0  0  0  0  0  0  0  0  0  0  0
  147.1923  141.6301  152.8785 H   0  0  0  0  0  0  0  0  0  0  0  0
  148.5459  140.5006  152.7980 H   0  0  0  0  0  0  0  0  0  0  0  0
  146.6773  138.4014  149.6619 H   0  0  0  0  0  0  0  0  0  0  0  0
  144.5013  135.1851  154.7965 H   0  0  0  0  0  0  0  0  0  0  0  0
  143.4242  134.4147  152.2966 H   0  0  0  0  0  0  0  0  0  0  0  0
  146.2053  133.1231  152.4076 H   0  0  0  0  0  0  0  0  0  0  0  0
  144.6540  132.4550  153.0198 H   0  0  0  0  0  0  0  0  0  0  0  0
  145.8801  130.9030  150.3381 H   0  0  0  0  0  0  0  0  0  0  0  0
  145.5824  131.9025  148.9402 H   0  0  0  0  0  0  0  0  0  0  0  0
  147.7361  131.8271  150.2280 H   0  0  0  0  0  0  0  0  0  0  0  0
  143.4648  130.9348  150.8563 H   0  0  0  0  0  0  0  0  0  0  0  0
  142.6398  132.3989  151.3107 H   0  0  0  0  0  0  0  0  0  0  0  0
  142.4241  132.9272  149.2326 H   0  0  0  0  0  0  0  0  0  0  0  0
  143.9155  134.5887  149.9275 H   0  0  0  0  0  0  0  0  0  0  0  0
  145.6861  134.6294  150.2351 H   0  0  0  0  0  0  0  0  0  0  0  0
  146.1483  139.0748  155.6900 H   0  0  0  0  0  0  0  0  0  0  0  0
  147.8215  138.6807  155.2655 H   0  0  0  0  0  0  0  0  0  0  0  0
  1  2  2  0  0  0  0
  2 27  1  0  0  0  0
  2  3  2  0  0  0  0
  2  4  1  0  0  0  0
  4  5  1  0  0  0  0
  4 30  1  0  0  0  0
  4 31  1  0  0  0  0
  5  6  1  0  0  0  0
  5 32  1  0  0  0  0
  5 33  1  0  0  0  0
  6 28  1  0  0  0  0
  6 27  1  0  0  0  0
  6  7  1  0  0  0  0
  7  8  1  0  0  0  0
  7 34  1  0  0  0  0
  7 35  1  0  0  0  0
  8  9  1  0  0  0  0
  8 26  1  0  0  0  0
  9 14  1  0  0  0  0
  9 10  2  0  0  0  0
 10 11  1  0  0  0  0
 11 12  2  0  0  0  0
 11 36  1  0  0  0  0
 12 13  1  0  0  0  0
 13 17  1  0  0  0  0
 13 14  2  0  0  0  0
 14 15  1  0  0  0  0
 15 16  2  0  0  0  0
 16 17  1  0  0  0  0
 16 37  1  0  0  0  0
 17 18  1  0  0  0  0
 18 25  1  0  0  0  0
 18 19  1  0  0  0  0
 18 38  1  0  0  0  0
 19 20  1  0  0  0  0
 19 39  1  0  0  0  0
 19 40  1  0  0  0  0
 20 21  1  0  0  0  0
 20 23  1  0  0  0  0
 20 25  1  0  0  0  0
 21 22  1  0  0  0  0
 21 41  1  0  0  0  0
 21 42  1  0  0  0  0
 22 43  1  0  0  0  0
 23 24  1  0  0  0  0
 23 44  1  0  0  0  0
 23 45  1  0  0  0  0
 24 46  1  0  0  0  0
 25 47  1  0  0  0  0
 25 48  1  0  0  0  0
 26 27  1  0  0  0  0
 26 49  1  0  0  0  0
 26 50  1  0  0  0  0
 27 29  1  0  0  0  0
M  END
> <s_m_source_file>
AV-unprocessed.smi

> <i_m_source_file_index>
279

> <i_lp_mmshare_version>
43012

> <i_f3d_flags>
0

> <s_epik_input>
W0NIMl0xW0NIMl1TKD1PKSg9TylbQ0BASF0oW0NAQEhdMTIpW0NIMl1OKFtDSDJdMiljKG5bY0hdbjMpYyhjMzQpbltjSF1uNFtDSF0oW0NIMl01KVtDSDJdQzUoW0NIMl1bT0hdKVtDSDJdW09IXQ==

> <s_epik_cmdline>
J2VwaWtfcHl0aG9uJywgJy1waCcsICc3LjAnLCAnLXRuJywgJzgnLCAnLW1hJywgJzIwMCcsICctbWV0YWxfYmluZGluZycsICctaW1hZScsICc8aW5maWxlLm1hZT4nLCAnLW9tYWUnLCAnPG91dGZpbGUubWFlPic=

> <r_lp_tautomer_probability>
1

> <r_epik_Ionization_Penalty>
0.000990948

> <r_epik_Ionization_Penalty_Charging>
0

> <r_epik_Ionization_Penalty_Neutral>
0.000990948

> <r_epik_State_Penalty>
0.000515994

> <r_epik_Charging_Adjusted_Penalty>
0.000515994

> <i_epik_Tot_Q>
0

> <i_epik_Tot_abs_Q>
0

> <r_epik_Metal_State_Penalty>
-0

> <b_epik_Metal_Only>
0

> <s_lp_Force_Field>
OPLS_2005

> <r_lp_Energy>
54.435

> <b_lp_Chiralities_Consistent>
1

> <s_lp_Variant>
AV-unprocessed.smi:279-1

> <Gold.Version>
5.8.1

> <Gold.Id.Protein>
6NUR|6NUR_protein|mol2

> <Gold.PLP.Fitness>
44.0522

> <Gold.PLP.PLP>
-36.0954

> <Gold.PLP.part.hbond>
-5.1008

> <Gold.PLP.part.metal>
0.0000

> <Gold.PLP.part.buried>
-1.7218

> <Gold.PLP.part.nonpolar>
-34.7949

> <Gold.PLP.part.repulsive>
3.7655

> <Gold.PLP.ligand.clash>
0.0000

> <Gold.PLP.ligand.torsion>
0.4628

> <Gold.PLP.Chemscore.Hbond>
2.6933

> <Gold.PLP.Chemscore.CHOScore>
0.0000

> <Gold.PLP.Chemscore.Metal>
0.0000

> <Gold.Chemscore.Hbonds>
donor molecule, donor type, donor heavy atom, donor atom, acceptor molecule, acceptor atom, score
      L1  H    22    43       P1 10747  1.00
      L1  H    24    46       P1 10186  0.89
      P1  H 10785 10796       L1    24  0.80

> <Gold.PLP.Chemscore.Internal.Correction>
0.8027

> <Gold.Rescore>
     Score         DG    S(hbond)    S(metal)    S(lipo)     H(rot)  DE(clash)    DE(int)     intcor
      9.55     -14.63       2.33        0.00      75.82       2.94       2.54       2.54       ----

> <Gold.Chemscore.Fitness>
9.5538

> <Gold.Chemscore.DG>
-14.6275

> <Gold.Chemscore.ZeroCoef>
-5.4800

> <Gold.Chemscore.Hbond>
2.3331

> <Gold.Chemscore.Metal>
0.0000

> <Gold.Chemscore.Lipo>
75.8215

> <Gold.Chemscore.Internal_Hbond>
0.0000

> <Gold.Chemscore.DEClash>
2.5387

> <Gold.Chemscore.DEInternal>
2.5350

> <Gold.Chemscore.Rot>
2.9360

> <Gold.Chemscore.Internal.Correction>
   9.000000E+99

> <Gold.Chemscore.Hbonds>
donor molecule, donor type, donor heavy atom, donor atom, acceptor molecule, acceptor atom, score
      L1  H    22    43       P1 10747  0.97
      L1  H    24    46       P1 10186  0.85
      P1  H 10785 10796       L1    24  0.16

> <Gold.Chemscore.Hbond.Weighted>
-7.7925

> <Gold.Chemscore.Metal.Weighted>
-0.0000

> <Gold.Chemscore.Lipo.Weighted>
-8.8711

> <Gold.Chemscore.Internal_Hbond.Weighted>
0.0000

> <Gold.Chemscore.DEClash.Weighted>
2.5387

> <Gold.Chemscore.DEInternal.Weighted>
2.5350

> <Gold.Chemscore.Rot.Weighted>
7.5161

> <Gold.Chemscore.Internal.Correction.Weighted>
   9.000000E+99

> <Gold.Protein.RotatedTorsions>
[ 6907 6896 6895 6894 ] final  131.42 input  -60.11 | X-H torsion
[ 7974 7965 7964 7962 ] final -153.07 input  175.53 | X-H torsion
[ 8008 7997 7996 7995 ] final  -80.26 input   59.86 | X-H torsion
[ 10167 10162 10161 10158 ] final  -68.56 input  -65.29 | X-H torsion
[ 10718 10713 10712 10709 ] final    3.27 input   66.30 | X-H torsion
[ 10763 10752 10751 10750 ] final   74.17 input  -60.55 | X-H torsion
[ 11005 11000 10999 10996 ] final   25.25 input  -57.11 | X-H torsion

> <Gold.Protein.ActiveResidues>
 VAL166  LYS551  ARG553  GLY616  TRP617  ASP618  TYR619  PRO620  LYS621  CYS622 
 ASP623  PHE694  ASN695  SER759  ASP760  ASP761  ALA762  ILE779  LEU786  VAL792 
 PHE793  MET794  SER795  GLU796  ALA797  LYS798  CYS799  TRP800  GLU811  SER814 

> <Gold.Protein.RotatedAtoms>
  152.3428  133.6087  159.5888 H   0  0  0  0  0  0  0  0  0  0  0  0  # atno 6907 bound_to 6896
  150.7489  133.9696  159.3550 H   0  0  0  0  0  0  0  0  0  0  0  0  # atno 6908 bound_to 6896
  151.7557  135.0823  160.0389 H   0  0  0  0  0  0  0  0  0  0  0  0  # atno 6909 bound_to 6896
  144.7760  140.4575  143.5873 H   0  0  0  0  0  0  0  0  0  0  0  0  # atno 7974 bound_to 7965
  154.5866  140.0665  156.9180 H   0  0  0  0  0  0  0  0  0  0  0  0  # atno 8008 bound_to 7997
  155.2369  140.3341  155.4278 H   0  0  0  0  0  0  0  0  0  0  0  0  # atno 8009 bound_to 7997
  156.2227  140.1805  156.7423 H   0  0  0  0  0  0  0  0  0  0  0  0  # atno 8010 bound_to 7997
  140.5498  143.2312  151.6933 H   0  0  0  0  0  0  0  0  0  0  0  0  # atno 10167 bound_to 10162
  156.8753  130.5634  149.5655 H   0  0  0  0  0  0  0  0  0  0  0  0  # atno 10718 bound_to 10713
  153.0569  135.5036  154.8002 H   0  0  0  0  0  0  0  0  0  0  0  0  # atno 10763 bound_to 10752
  154.6821  135.2970  154.9601 H   0  0  0  0  0  0  0  0  0  0  0  0  # atno 10764 bound_to 10752
  154.0383  135.6720  153.4840 H   0  0  0  0  0  0  0  0  0  0  0  0  # atno 10765 bound_to 10752
  140.3499  134.2240  155.7681 H   0  0  0  0  0  0  0  0  0  0  0  0  # atno 11005 bound_to 11000
  145.6185  139.1521  143.3036 LP  0  0  0  0  0  0  0  0  0  0  0  0  # atno 17320 bound_to 7965
  146.1939  140.6297  142.9133 LP  0  0  0  0  0  0  0  0  0  0  0  0  # atno 17321 bound_to 7965
  139.5022  144.3836  152.0351 LP  0  0  0  0  0  0  0  0  0  0  0  0  # atno 17342 bound_to 10162
  140.2952  144.3708  150.6076 LP  0  0  0  0  0  0  0  0  0  0  0  0  # atno 17343 bound_to 10162
  156.0705  130.5739  150.9374 LP  0  0  0  0  0  0  0  0  0  0  0  0  # atno 17370 bound_to 10713
  157.6172  131.0932  150.8689 LP  0  0  0  0  0  0  0  0  0  0  0  0  # atno 17371 bound_to 10713
  141.2015  133.7961  157.0438 LP  0  0  0  0  0  0  0  0  0  0  0  0  # atno 17394 bound_to 11000
  140.0711  134.9701  157.1469 LP  0  0  0  0  0  0  0  0  0  0  0  0  # atno 17395 bound_to 11000

$$$$
