AV-unprocessed.smi:1047|AV-procd|sdf|4576|dock2
  -GOLD-   22720 3 33D 1   1.00000     0.00000
 Structure written by MMmdl.
 56 58  0  0  0  0  0  0  0  0  2 V2000
  141.6299  134.9226  152.8570 C   0  0  0  0  0  0  0  0  0  0  0  0
  142.4094  136.2284  153.0670 C   0  0  0  0  0  0  0  0  0  0  0  0
  143.8224  136.1250  152.6248 N   0  3  1  0  0  0  0  0  0  0  0  0
  144.0103  135.2574  151.4359 C   0  0  0  0  0  0  0  0  0  0  0  0
  145.5012  135.1606  151.0713 C   0  0  0  0  0  0  0  0  0  0  0  0
  146.0290  136.4613  150.8425 O   0  0  0  0  0  0  0  0  0  0  0  0
  145.9210  137.2971  151.9904 C   0  0  1  0  0  0  0  0  0  0  0  0
  146.6325  138.6312  151.7083 C   0  0  0  0  0  0  0  0  0  0  0  0
  147.9468  138.6977  152.3421 N   0  0  0  0  0  0  0  0  0  0  0  0
  147.9188  139.3180  153.6632 C   0  0  0  0  0  0  0  0  0  0  0  0
  149.2212  139.0402  154.4389 C   0  0  1  0  0  0  0  0  0  0  0  0
  150.1387  138.4222  153.5611 O   0  0  0  0  0  0  0  0  0  0  0  0
  149.8972  140.3127  154.9864 C   0  0  0  0  0  0  0  0  0  0  0  0
  150.5460  140.0941  156.2667 N   0  0  0  0  0  0  0  0  0  0  0  0
  150.8019  138.9080  156.8507 C   0  0  0  0  0  0  0  0  0  0  0  0
  151.4041  138.9301  158.0360 N   0  0  0  0  0  0  0  0  0  0  0  0
  151.5624  140.2895  158.2433 C   0  0  0  0  0  0  0  0  0  0  0  0
  152.1365  140.9908  159.3261 C   0  0  0  0  0  0  0  0  0  0  0  0
  152.1903  142.4029  159.3283 C   0  0  0  0  0  0  0  0  0  0  0  0
  152.8167  143.1159  160.5135 C   0  0  0  0  0  0  0  0  0  0  0  0
  151.6641  143.1358  158.2342 C   0  0  0  0  0  0  0  0  0  0  0  0
  151.7122  144.6535  158.2135 C   0  0  0  0  0  0  0  0  0  0  0  0
  151.0857  142.4509  157.1451 C   0  0  0  0  0  0  0  0  0  0  0  0
  151.0385  141.0455  157.1541 C   0  0  0  0  0  0  0  0  0  0  0  0
  144.4398  137.4527  152.3951 C   0  0  0  0  0  0  0  0  0  0  0  0
  140.6265  135.0042  153.2753 H   0  0  0  0  0  0  0  0  0  0  0  0
  142.1244  134.0848  153.3493 H   0  0  0  0  0  0  0  0  0  0  0  0
  141.5191  134.6769  151.8014 H   0  0  0  0  0  0  0  0  0  0  0  0
  141.9163  137.0574  152.5576 H   0  0  0  0  0  0  0  0  0  0  0  0
  142.3865  136.4621  154.1322 H   0  0  0  0  0  0  0  0  0  0  0  0
  143.6241  134.2571  151.6279 H   0  0  0  0  0  0  0  0  0  0  0  0
  143.4469  135.6621  150.5935 H   0  0  0  0  0  0  0  0  0  0  0  0
  146.0631  134.6606  151.8617 H   0  0  0  0  0  0  0  0  0  0  0  0
  145.6280  134.5656  150.1667 H   0  0  0  0  0  0  0  0  0  0  0  0
  146.4560  136.8148  152.8108 H   0  0  0  0  0  0  0  0  0  0  0  0
  146.7354  138.7653  150.6308 H   0  0  0  0  0  0  0  0  0  0  0  0
  146.0073  139.4516  152.0629 H   0  0  0  0  0  0  0  0  0  0  0  0
  148.3364  137.7629  152.4144 H   0  0  0  0  0  0  0  0  0  0  0  0
  147.7401  140.3914  153.5864 H   0  0  0  0  0  0  0  0  0  0  0  0
  147.0730  138.9072  154.2140 H   0  0  0  0  0  0  0  0  0  0  0  0
  149.0241  138.3615  155.2701 H   0  0  0  0  0  0  0  0  0  0  0  0
  150.0284  138.7985  152.7012 H   0  0  0  0  0  0  0  0  0  0  0  0
  150.6503  140.6719  154.2834 H   0  0  0  0  0  0  0  0  0  0  0  0
  149.1676  141.1160  155.0963 H   0  0  0  0  0  0  0  0  0  0  0  0
  150.5256  137.9754  156.3803 H   0  0  0  0  0  0  0  0  0  0  0  0
  152.5367  140.4322  160.1594 H   0  0  0  0  0  0  0  0  0  0  0  0
  153.6719  143.7110  160.1928 H   0  0  0  0  0  0  0  0  0  0  0  0
  153.1656  142.4075  161.2655 H   0  0  0  0  0  0  0  0  0  0  0  0
  152.0920  143.7776  160.9882 H   0  0  0  0  0  0  0  0  0  0  0  0
  151.2806  145.0526  157.2953 H   0  0  0  0  0  0  0  0  0  0  0  0
  152.7424  145.0046  158.2778 H   0  0  0  0  0  0  0  0  0  0  0  0
  151.1520  145.0651  159.0533 H   0  0  0  0  0  0  0  0  0  0  0  0
  150.6786  142.9975  156.3073 H   0  0  0  0  0  0  0  0  0  0  0  0
  143.8794  137.9757  151.6186 H   0  0  0  0  0  0  0  0  0  0  0  0
  144.3696  138.0547  153.3020 H   0  0  0  0  0  0  0  0  0  0  0  0
  144.3340  135.7017  153.3859 H   0  0  0  0  0  0  0  0  0  0  0  0
  1  2  1  0  0  0  0
  1 26  1  0  0  0  0
  1 27  1  0  0  0  0
  1 28  1  0  0  0  0
  2  3  1  0  0  0  0
  2 29  1  0  0  0  0
  2 30  1  0  0  0  0
  3 25  1  0  0  0  0
  3  4  1  0  0  0  0
  3 56  1  0  0  0  0
  4  5  1  0  0  0  0
  4 31  1  0  0  0  0
  4 32  1  0  0  0  0
  5  6  1  0  0  0  0
  5 33  1  0  0  0  0
  5 34  1  0  0  0  0
  6  7  1  0  0  0  0
  7  8  1  0  0  0  0
  7 25  1  0  0  0  0
  7 35  1  0  0  0  0
  8  9  1  0  0  0  0
  8 36  1  0  0  0  0
  8 37  1  0  0  0  0
  9 10  1  0  0  0  0
  9 38  1  0  0  0  0
 10 11  1  0  0  0  0
 10 39  1  0  0  0  0
 10 40  1  0  0  0  0
 11 12  1  0  0  0  0
 11 13  1  0  0  0  0
 11 41  1  0  0  0  0
 12 42  1  0  0  0  0
 13 14  1  0  0  0  0
 13 43  1  0  0  0  0
 13 44  1  0  0  0  0
 14 24  1  0  0  0  0
 14 15  1  0  0  0  0
 15 16  2  0  0  0  0
 15 45  1  0  0  0  0
 16 17  1  0  0  0  0
 17 24  2  0  0  0  0
 17 18  1  0  0  0  0
 18 19  2  0  0  0  0
 18 46  1  0  0  0  0
 19 20  1  0  0  0  0
 19 21  1  0  0  0  0
 20 47  1  0  0  0  0
 20 48  1  0  0  0  0
 20 49  1  0  0  0  0
 21 22  1  0  0  0  0
 21 23  2  0  0  0  0
 22 50  1  0  0  0  0
 22 51  1  0  0  0  0
 22 52  1  0  0  0  0
 23 24  1  0  0  0  0
 23 53  1  0  0  0  0
 25 54  1  0  0  0  0
 25 55  1  0  0  0  0
M  CHG  1   3   1
M  END
> <s_m_source_file>
AV-unprocessed.smi

> <i_m_source_file_index>
1047

> <i_lp_mmshare_version>
43012

> <i_f3d_flags>
0

> <s_epik_input>
W0NIM11bQ0gyXU4xW0NIMl1bQ0gyXU9bQ0BIXShbQ0gyXTEpW0NIMl1bTkhdW0NIMl1bQ0BIXShbT0hdKVtDSDJdbihbY0hdbjIpYyhjMjMpW2NIXWMoW0NIM10pYyhbY0hdMylbQ0gzXQ==

> <s_epik_cmdline>
J2VwaWtfcHl0aG9uJywgJy1waCcsICc3LjAnLCAnLXRuJywgJzgnLCAnLW1hJywgJzIwMCcsICctbWV0YWxfYmluZGluZycsICctaW1hZScsICc8aW5maWxlLm1hZT4nLCAnLW9tYWUnLCAnPG91dGZpbGUubWFlPic=

> <r_epik_Ionization_Penalty>
1.19246

> <r_epik_Ionization_Penalty_Charging>
0.210041

> <r_epik_Ionization_Penalty_Neutral>
0.982415

> <r_epik_State_Penalty>
1.57595

> <r_epik_Charging_Adjusted_Penalty>
1.78599

> <i_epik_Tot_Q>
1

> <i_epik_Tot_abs_Q>
1

> <r_epik_Metal_State_Penalty>
1.46172

> <b_epik_Metal_Only>
0

> <s_lp_Force_Field>
OPLS_2005

> <r_lp_Energy>
33.3203

> <b_lp_Chiralities_Consistent>
1

> <s_lp_Variant>
AV-unprocessed.smi:1047-17

> <Gold.Version>
5.8.1

> <Gold.Id.Protein>
6NUR|6NUR_protein|mol2

> <Gold.PLP.Fitness>
53.9038

> <Gold.PLP.PLP>
-52.6909

> <Gold.PLP.part.hbond>
-4.0132

> <Gold.PLP.part.metal>
0.0000

> <Gold.PLP.part.buried>
-4.9774

> <Gold.PLP.part.nonpolar>
-44.1642

> <Gold.PLP.part.repulsive>
0.2713

> <Gold.PLP.ligand.clash>
0.0000

> <Gold.PLP.ligand.torsion>
2.4512

> <Gold.PLP.Chemscore.Hbond>
2.0000

> <Gold.PLP.Chemscore.CHOScore>
0.0000

> <Gold.PLP.Chemscore.Metal>
0.0000

> <Gold.Chemscore.Hbonds>
donor molecule, donor type, donor heavy atom, donor atom, acceptor molecule, acceptor atom, score
      L1  H     9    38       P1  7948  1.00
      L1  H    12    42       P1  7957  1.00

> <Gold.PLP.Chemscore.Internal.Correction>
0.1153

> <Gold.Rescore>
     Score         DG    S(hbond)    S(metal)    S(lipo)     H(rot)  DE(clash)    DE(int)     intcor
     17.80     -20.18       1.85        0.00     130.24       2.62       0.24       2.14       ----

> <Gold.Chemscore.Fitness>
17.7997

> <Gold.Chemscore.DG>
-20.1769

> <Gold.Chemscore.ZeroCoef>
-5.4800

> <Gold.Chemscore.Hbond>
1.8468

> <Gold.Chemscore.Metal>
0.0000

> <Gold.Chemscore.Lipo>
130.2401

> <Gold.Chemscore.Internal_Hbond>
0.0000

> <Gold.Chemscore.DEClash>
0.2385

> <Gold.Chemscore.DEInternal>
2.1388

> <Gold.Chemscore.Rot>
2.6209

> <Gold.Chemscore.Internal.Correction>
   9.000000E+99

> <Gold.Chemscore.Hbonds>
donor molecule, donor type, donor heavy atom, donor atom, acceptor molecule, acceptor atom, score
      L1  H     9    38       P1  7948  0.99
      L1  H    12    42       P1  7957  0.53

> <Gold.Chemscore.Hbond.Weighted>
-6.1685

> <Gold.Chemscore.Metal.Weighted>
-0.0000

> <Gold.Chemscore.Lipo.Weighted>
-15.2381

> <Gold.Chemscore.Internal_Hbond.Weighted>
0.0000

> <Gold.Chemscore.DEClash.Weighted>
0.2385

> <Gold.Chemscore.DEInternal.Weighted>
2.1388

> <Gold.Chemscore.Rot.Weighted>
6.7096

> <Gold.Chemscore.Internal.Correction.Weighted>
   9.000000E+99

> <Gold.Protein.RotatedTorsions>
[ 6907 6896 6895 6894 ] final   -9.40 input  -60.11 | X-H torsion
[ 7974 7965 7964 7962 ] final  -99.40 input  175.53 | X-H torsion
[ 8008 7997 7996 7995 ] final -137.62 input   59.86 | X-H torsion
[ 10167 10162 10161 10158 ] final  116.75 input  -65.29 | X-H torsion
[ 10718 10713 10712 10709 ] final -111.75 input   66.30 | X-H torsion
[ 10763 10752 10751 10750 ] final   51.57 input  -60.55 | X-H torsion
[ 11005 11000 10999 10996 ] final   -7.08 input  -57.11 | X-H torsion

> <Gold.Protein.ActiveResidues>
 VAL166  LYS551  ARG553  GLY616  TRP617  ASP618  TYR619  PRO620  LYS621  CYS622 
 ASP623  PHE694  ASN695  SER759  ASP760  ASP761  ALA762  ILE779  LEU786  VAL792 
 PHE793  MET794  SER795  GLU796  ALA797  LYS798  CYS799  TRP800  GLU811  SER814 

> <Gold.Protein.RotatedAtoms>
  151.4184  135.0994  159.9606 H   0  0  0  0  0  0  0  0  0  0  0  0  # atno 6907 bound_to 6896
  152.4997  133.8731  159.7319 H   0  0  0  0  0  0  0  0  0  0  0  0  # atno 6908 bound_to 6896
  150.9241  133.6787  159.2853 H   0  0  0  0  0  0  0  0  0  0  0  0  # atno 6909 bound_to 6896
  145.3081  140.9393  143.2785 H   0  0  0  0  0  0  0  0  0  0  0  0  # atno 7974 bound_to 7965
  155.4148  140.0514  157.3029 H   0  0  0  0  0  0  0  0  0  0  0  0  # atno 8008 bound_to 7997
  154.4929  140.2127  155.9468 H   0  0  0  0  0  0  0  0  0  0  0  0  # atno 8009 bound_to 7997
  156.1367  140.3162  155.8436 H   0  0  0  0  0  0  0  0  0  0  0  0  # atno 8010 bound_to 7997
  139.6225  144.7103  151.2603 H   0  0  0  0  0  0  0  0  0  0  0  0  # atno 10167 bound_to 10162
  156.0665  130.5883  150.8415 H   0  0  0  0  0  0  0  0  0  0  0  0  # atno 10718 bound_to 10713
  152.9785  135.5841  154.4437 H   0  0  0  0  0  0  0  0  0  0  0  0  # atno 10763 bound_to 10752
  154.4035  135.2769  155.2084 H   0  0  0  0  0  0  0  0  0  0  0  0  # atno 10764 bound_to 10752
  154.3904  135.6126  153.5894 H   0  0  0  0  0  0  0  0  0  0  0  0  # atno 10765 bound_to 10752
  140.7089  133.8926  155.8736 H   0  0  0  0  0  0  0  0  0  0  0  0  # atno 11005 bound_to 11000
  144.9038  139.4615  143.6619 LP  0  0  0  0  0  0  0  0  0  0  0  0  # atno 17320 bound_to 7965
  146.3128  139.7808  142.9007 LP  0  0  0  0  0  0  0  0  0  0  0  0  # atno 17321 bound_to 7965
  140.7391  143.6629  150.8149 LP  0  0  0  0  0  0  0  0  0  0  0  0  # atno 17342 bound_to 10162
  140.0241  143.5511  152.2788 LP  0  0  0  0  0  0  0  0  0  0  0  0  # atno 17343 bound_to 10162
  157.5710  131.0946  150.9418 LP  0  0  0  0  0  0  0  0  0  0  0  0  # atno 17370 bound_to 10713
  156.9634  130.5464  149.5287 LP  0  0  0  0  0  0  0  0  0  0  0  0  # atno 17371 bound_to 10713
  141.0101  134.1032  157.4230 LP  0  0  0  0  0  0  0  0  0  0  0  0  # atno 17394 bound_to 11000
  139.8877  135.0092  156.6575 LP  0  0  0  0  0  0  0  0  0  0  0  0  # atno 17395 bound_to 11000

$$$$
