AV-unprocessed.smi:2166|AV-procd|sdf|8814|dock3
  -GOLD-   2272012 03D 1   1.00000     0.00000
 Structure written by MMmdl.
 38 39  0  0  0  0  0  0  0  0  1 V2000
  145.5860  136.5601  152.0934 C   0  0  0  0  0  0  0  0  0  0  0  0
  146.4105  137.3752  153.4888 S   0  0  0  0  0  0  0  0  0  0  0  0
  146.4368  139.1016  152.9187 C   0  0  2  0  0  0  0  0  0  0  0  0
  147.0883  139.1935  151.5294 C   0  0  0  0  0  0  0  0  0  0  0  0
  147.1364  140.0264  153.9234 C   0  0  0  0  0  0  0  0  0  0  0  0
  146.5340  140.9962  154.3852 O   0  0  0  0  0  0  0  0  0  0  0  0
  148.4069  139.7006  154.2287 N   0  0  0  0  0  0  0  0  0  0  0  0
  149.3049  140.3705  155.1006 C   0  0  0  0  0  0  0  0  0  0  0  0
  148.6898  141.1593  156.0977 C   0  0  0  0  0  0  0  0  0  0  0  0
  149.4907  141.8609  157.0188 C   0  0  0  0  0  0  0  0  0  0  0  0
  150.8916  141.7589  156.9236 C   0  0  0  0  0  0  0  0  0  0  0  0
  151.7038  142.4483  157.8351 N   0  0  0  0  0  0  0  0  0  0  0  0
  151.5752  143.8977  157.7486 C   0  0  0  0  0  0  0  0  0  0  0  0
  152.5830  144.5733  158.6953 C   0  0  0  0  0  0  0  0  0  0  0  0
  152.3904  144.0904  160.0221 O   0  0  0  0  0  0  0  0  0  0  0  0
  152.5901  142.6823  160.1125 C   0  0  0  0  0  0  0  0  0  0  0  0
  151.5825  141.9580  159.2023 C   0  0  0  0  0  0  0  0  0  0  0  0
  151.4218  140.9510  155.8932 C   0  0  0  0  0  0  0  0  0  0  0  0
  150.6546  140.2783  155.0097 N   0  0  0  0  0  0  0  0  0  0  0  0
  145.5357  135.4850  152.2660 H   0  0  0  0  0  0  0  0  0  0  0  0
  146.1357  136.7354  151.1687 H   0  0  0  0  0  0  0  0  0  0  0  0
  144.5693  136.9335  151.9726 H   0  0  0  0  0  0  0  0  0  0  0  0
  145.3986  139.4203  152.8136 H   0  0  0  0  0  0  0  0  0  0  0  0
  147.1204  140.2239  151.1732 H   0  0  0  0  0  0  0  0  0  0  0  0
  146.5257  138.6128  150.7980 H   0  0  0  0  0  0  0  0  0  0  0  0
  148.1098  138.8108  151.5370 H   0  0  0  0  0  0  0  0  0  0  0  0
  148.7761  138.8792  153.7727 H   0  0  0  0  0  0  0  0  0  0  0  0
  147.6135  141.2277  156.1623 H   0  0  0  0  0  0  0  0  0  0  0  0
  149.0330  142.4661  157.7877 H   0  0  0  0  0  0  0  0  0  0  0  0
  151.7498  144.2234  156.7224 H   0  0  0  0  0  0  0  0  0  0  0  0
  150.5612  144.1980  158.0161 H   0  0  0  0  0  0  0  0  0  0  0  0
  153.6080  144.3828  158.3732 H   0  0  0  0  0  0  0  0  0  0  0  0
  152.4417  145.6541  158.6859 H   0  0  0  0  0  0  0  0  0  0  0  0
  153.6153  142.4316  159.8350 H   0  0  0  0  0  0  0  0  0  0  0  0
  152.4548  142.3692  161.1478 H   0  0  0  0  0  0  0  0  0  0  0  0
  150.5685  142.1256  159.5680 H   0  0  0  0  0  0  0  0  0  0  0  0
  151.7622  140.8825  159.2270 H   0  0  0  0  0  0  0  0  0  0  0  0
  152.4889  140.8381  155.7707 H   0  0  0  0  0  0  0  0  0  0  0  0
  1  2  1  0  0  0  0
  1 20  1  0  0  0  0
  1 21  1  0  0  0  0
  1 22  1  0  0  0  0
  2  3  1  0  0  0  0
  3  4  1  0  0  0  0
  3  5  1  0  0  0  0
  3 23  1  0  0  0  0
  4 24  1  0  0  0  0
  4 25  1  0  0  0  0
  4 26  1  0  0  0  0
  5  6  2  0  0  0  0
  5  7  1  0  0  0  0
  7  8  1  0  0  0  0
  7 27  1  0  0  0  0
  8 19  1  0  0  0  0
  8  9  2  0  0  0  0
  9 10  1  0  0  0  0
  9 28  1  0  0  0  0
 10 11  2  0  0  0  0
 10 29  1  0  0  0  0
 11 12  1  0  0  0  0
 11 18  1  0  0  0  0
 12 17  1  0  0  0  0
 12 13  1  0  0  0  0
 13 14  1  0  0  0  0
 13 30  1  0  0  0  0
 13 31  1  0  0  0  0
 14 15  1  0  0  0  0
 14 32  1  0  0  0  0
 14 33  1  0  0  0  0
 15 16  1  0  0  0  0
 16 17  1  0  0  0  0
 16 34  1  0  0  0  0
 16 35  1  0  0  0  0
 17 36  1  0  0  0  0
 17 37  1  0  0  0  0
 18 19  2  0  0  0  0
 18 38  1  0  0  0  0
M  END
> <s_m_source_file>
AV-unprocessed.smi

> <i_m_source_file_index>
2166

> <i_lp_mmshare_version>
43012

> <i_f3d_flags>
0

> <s_epik_input>
W0NIM11TW0NASF0oW0NIM10pQyg9TylbTkhdYzFbY0hdW2NIXWMoW2NIXW4xKU4yW0NIMl1bQ0gyXU9bQ0gyXVtDSDJdMg==

> <s_epik_cmdline>
J2VwaWtfcHl0aG9uJywgJy1waCcsICc3LjAnLCAnLXRuJywgJzgnLCAnLW1hJywgJzIwMCcsICctbWV0YWxfYmluZGluZycsICctaW1hZScsICc8aW5maWxlLm1hZT4nLCAnLW9tYWUnLCAnPG91dGZpbGUubWFlPic=

> <r_lp_tautomer_probability>
1

> <r_epik_Ionization_Penalty>
0.0038652

> <r_epik_Ionization_Penalty_Charging>
0

> <r_epik_Ionization_Penalty_Neutral>
0.0038652

> <r_epik_State_Penalty>
0.00681294

> <r_epik_Charging_Adjusted_Penalty>
0.00681294

> <i_epik_Tot_Q>
0

> <i_epik_Tot_abs_Q>
0

> <r_epik_Metal_State_Penalty>
-0

> <b_epik_Metal_Only>
0

> <s_lp_Force_Field>
OPLS_2005

> <r_lp_Energy>
27.7309

> <b_lp_Chiralities_Consistent>
1

> <s_lp_Variant>
AV-unprocessed.smi:2166-1

> <Gold.Version>
5.8.1

> <Gold.Id.Protein>
6NUR|6NUR_protein|mol2

> <Gold.PLP.Fitness>
33.8468

> <Gold.PLP.PLP>
-32.0824

> <Gold.PLP.part.hbond>
-1.0000

> <Gold.PLP.part.metal>
0.0000

> <Gold.PLP.part.buried>
0.6336

> <Gold.PLP.part.nonpolar>
-31.4021

> <Gold.PLP.part.repulsive>
0.3059

> <Gold.PLP.ligand.clash>
0.0000

> <Gold.PLP.ligand.torsion>
0.2375

> <Gold.PLP.Chemscore.Hbond>
0.7000

> <Gold.PLP.Chemscore.CHOScore>
0.0000

> <Gold.PLP.Chemscore.Metal>
0.0000

> <Gold.Chemscore.Hbonds>
donor molecule, donor type, donor heavy atom, donor atom, acceptor molecule, acceptor atom, score
      P1  H  7989  7998       L1    19  0.70

> <Gold.PLP.Chemscore.Internal.Correction>
0.1395

> <Gold.Rescore>
     Score         DG    S(hbond)    S(metal)    S(lipo)     H(rot)  DE(clash)    DE(int)     intcor
     10.68     -13.87       0.14        0.00      96.35       1.31       1.47       1.71       ----

> <Gold.Chemscore.Fitness>
10.6826

> <Gold.Chemscore.DG>
-13.8671

> <Gold.Chemscore.ZeroCoef>
-5.4800

> <Gold.Chemscore.Hbond>
0.1405

> <Gold.Chemscore.Metal>
0.0000

> <Gold.Chemscore.Lipo>
96.3494

> <Gold.Chemscore.Internal_Hbond>
0.0000

> <Gold.Chemscore.DEClash>
1.4727

> <Gold.Chemscore.DEInternal>
1.7118

> <Gold.Chemscore.Rot>
1.3105

> <Gold.Chemscore.Internal.Correction>
   9.000000E+99

> <Gold.Chemscore.Hbonds>
donor molecule, donor type, donor heavy atom, donor atom, acceptor molecule, acceptor atom, score
      P1  H  7989  7998       L1    19  0.07

> <Gold.Chemscore.Hbond.Weighted>
-0.4692

> <Gold.Chemscore.Metal.Weighted>
-0.0000

> <Gold.Chemscore.Lipo.Weighted>
-11.2729

> <Gold.Chemscore.Internal_Hbond.Weighted>
0.0000

> <Gold.Chemscore.DEClash.Weighted>
1.4727

> <Gold.Chemscore.DEInternal.Weighted>
1.7118

> <Gold.Chemscore.Rot.Weighted>
3.3549

> <Gold.Chemscore.Internal.Correction.Weighted>
   9.000000E+99

> <Gold.Protein.RotatedTorsions>
[ 6907 6896 6895 6894 ] final  143.30 input  -60.11 | X-H torsion
[ 7974 7965 7964 7962 ] final  -29.34 input  175.53 | X-H torsion
[ 8008 7997 7996 7995 ] final  -50.86 input   59.86 | X-H torsion
[ 10167 10162 10161 10158 ] final  106.91 input  -65.29 | X-H torsion
[ 10718 10713 10712 10709 ] final  -68.50 input   66.30 | X-H torsion
[ 10763 10752 10751 10750 ] final  -40.54 input  -60.55 | X-H torsion
[ 11005 11000 10999 10996 ] final   92.37 input  -57.11 | X-H torsion

> <Gold.Protein.ActiveResidues>
 VAL166  LYS551  ARG553  GLY616  TRP617  ASP618  TYR619  PRO620  LYS621  CYS622 
 ASP623  PHE694  ASN695  SER759  ASP760  ASP761  ALA762  ILE779  LEU786  VAL792 
 PHE793  MET794  SER795  GLU796  ALA797  LYS798  CYS799  TRP800  GLU811  SER814 

> <Gold.Protein.RotatedAtoms>
  152.2080  133.4890  159.5094 H   0  0  0  0  0  0  0  0  0  0  0  0  # atno 6907 bound_to 6896
  150.6984  134.1504  159.4147 H   0  0  0  0  0  0  0  0  0  0  0  0  # atno 6908 bound_to 6896
  151.9423  135.0207  160.0587 H   0  0  0  0  0  0  0  0  0  0  0  0  # atno 6909 bound_to 6896
  146.1223  140.5400  142.8730 H   0  0  0  0  0  0  0  0  0  0  0  0  # atno 7974 bound_to 7965
  154.4070  140.1262  156.4735 H   0  0  0  0  0  0  0  0  0  0  0  0  # atno 8008 bound_to 7997
  155.7156  140.3493  155.4973 H   0  0  0  0  0  0  0  0  0  0  0  0  # atno 8009 bound_to 7997
  155.9261  140.1061  157.1159 H   0  0  0  0  0  0  0  0  0  0  0  0  # atno 8010 bound_to 7997
  139.6971  144.7100  151.1249 H   0  0  0  0  0  0  0  0  0  0  0  0  # atno 10167 bound_to 10162
  156.0502  130.4296  150.2010 H   0  0  0  0  0  0  0  0  0  0  0  0  # atno 10718 bound_to 10713
  153.9477  135.6754  153.4744 H   0  0  0  0  0  0  0  0  0  0  0  0  # atno 10763 bound_to 10752
  153.0900  135.4879  154.8668 H   0  0  0  0  0  0  0  0  0  0  0  0  # atno 10764 bound_to 10752
  154.7342  135.3145  154.8798 H   0  0  0  0  0  0  0  0  0  0  0  0  # atno 10765 bound_to 10752
  139.8824  134.8729  156.3563 H   0  0  0  0  0  0  0  0  0  0  0  0  # atno 11005 bound_to 11000
  144.7609  140.5419  143.6736 LP  0  0  0  0  0  0  0  0  0  0  0  0  # atno 17320 bound_to 7965
  145.5439  139.1475  143.3431 LP  0  0  0  0  0  0  0  0  0  0  0  0  # atno 17321 bound_to 7965
  140.7699  143.5477  150.9240 LP  0  0  0  0  0  0  0  0  0  0  0  0  # atno 17342 bound_to 10162
  139.9157  143.6666  152.3107 LP  0  0  0  0  0  0  0  0  0  0  0  0  # atno 17343 bound_to 10162
  157.0094  130.9946  151.3370 LP  0  0  0  0  0  0  0  0  0  0  0  0  # atno 17370 bound_to 10713
  157.5420  130.8126  149.8041 LP  0  0  0  0  0  0  0  0  0  0  0  0  # atno 17371 bound_to 10713
  140.9560  133.7420  156.0336 LP  0  0  0  0  0  0  0  0  0  0  0  0  # atno 17394 bound_to 11000
  140.8048  134.3467  157.5429 LP  0  0  0  0  0  0  0  0  0  0  0  0  # atno 17395 bound_to 11000

$$$$
