#       Name:                AV-unprocessed.smi:160
#       Creating user name   scv26
#       Creation time:       Thu Mar 26 19:09:17 2020


#       File generated by GOLD software.
#

@<TRIPOS>MOLECULE
AV-unprocessed.smi:160
    41    42     1
SMALL
NO_CHARGES


@<TRIPOS>ATOM
      1 ****        -4.5030   2.3417  -0.9184 N.pl3          1 S1                -1.0000
      2 ****        -4.5398   1.2371  -0.1414 C.2            1 S1                 0.0000
      3 ****        -5.5511   0.6431   0.2313 O.2            1 S1                 0.0000
      4 ****        -3.1835   0.7239   0.2818 C.2            1 S1                 0.0000
      5 ****        -3.0729  -0.3946   1.0614 N.2            1 S1                 0.0000
      6 ****        -1.7521  -0.4485   1.1704 C.2            1 S1                 0.0000
      7 ****        -1.1086   0.5246   0.5159 N.pl3          1 S1                 0.0000
      8 ****         0.3484   0.8483   0.4038 C.3            1 S1                 0.0000
      9 ****         1.0628  -0.1192   1.1132 O.3            1 S1                 0.0000
     10 ****         1.4719  -1.1511   0.2224 C.3            1 S1                 0.0000
     11 ****         2.5814  -2.0197   0.8423 C.3            1 S1                 0.0000
     12 ****         2.0156  -3.0172   1.6658 O.3            1 S1                 0.0000
     13 ****         1.8738  -0.3453  -1.0195 C.3            1 S1                 0.0000
     14 ****         3.1839   0.1787  -0.8702 O.3            1 S1                 0.0000
     15 ****         0.8036   0.7468  -1.0659 C.3            1 S1                 0.0000
     16 ****         1.2875   1.9702  -1.5887 O.3            1 S1                 0.0000
     17 ****        -2.0384   1.3196  -0.0664 N.2            1 S1                 0.0000
     18 ****         0.4507   1.8365   0.8543 H              1 S1                 0.0000
     19 ****         0.6099  -1.7708  -0.0332 H              1 S1                 0.0000
     20 ****         1.8567  -0.9589  -1.9209 H              1 S1                 0.0000
     21 ****        -0.0279   0.4062  -1.6853 H              1 S1                 0.0000
     22 ****        -3.5872   2.7407  -1.1563 H              1 S1                 0.0000
     23 ****        -1.2458  -1.2139   1.7400 H              1 S1                 0.0000
     24 ****         3.1445  -2.5259   0.0574 H              1 S1                 0.0000
     25 ****         3.2878  -1.4163   1.4134 H              1 S1                 0.0000
     26 ****         2.7158  -3.5324   2.0368 H              1 S1                 0.0000
     27 ****         3.3362   0.7967  -1.5691 H              1 S1                 0.0000
     28 ****         0.5809   2.5984  -1.5759 H              1 S1                 0.0000
     29 ****        -5.3470   2.7606  -1.2536 LP             1 S1                 0.0000
     30 ****        -6.4545   0.9733  -0.0425 LP             1 S1                 0.0000
     31 ****        -5.4696  -0.1697   0.8081 LP             1 S1                 0.0000
     32 ****        -3.7791  -0.9943   1.4379 LP             1 S1                 0.0000
     33 ****         0.4806  -0.5066   1.8281 LP             1 S1                 0.0000
     34 ****         1.8688   0.3004   1.5308 LP             1 S1                 0.0000
     35 ****         1.4166  -3.6044   1.1214 LP             1 S1                 0.0000
     36 ****         1.4865  -2.5895   2.3988 LP             1 S1                 0.0000
     37 ****         3.8529  -0.5626  -0.9220 LP             1 S1                 0.0000
     38 ****         3.2653   0.6400   0.0133 LP             1 S1                 0.0000
     39 ****         1.6031   1.8354  -2.5279 LP             1 S1                 0.0000
     40 ****         2.0452   2.3020  -1.0267 LP             1 S1                 0.0000
     41 ****        -1.9026   2.1432  -0.6170 LP             1 S1                 0.0000
@<TRIPOS>BOND
    1    1    2 1     
    2    1   22 1     
    3    2    3 2     
    4    2    4 1     
    5    4   17 2     
    6    4    5 1     
    7    5    6 2     
    8    6    7 1     
    9    6   23 1     
   10    7    8 1     
   11    7   17 1     
   12    8   18 1     
   13    8   15 1     
   14    8    9 1     
   15    9   10 1     
   16   10   19 1     
   17   10   11 1     
   18   10   13 1     
   19   11   12 1     
   20   11   24 1     
   21   11   25 1     
   22   12   26 1     
   23   13   20 1     
   24   13   14 1     
   25   13   15 1     
   26   14   27 1     
   27   15   21 1     
   28   15   16 1     
   29   16   28 1     
   30    1   29 1     
   31    3   30 1     
   32    3   31 1     
   33    5   32 1     
   34    9   33 1     
   35    9   34 1     
   36   12   35 1     
   37   12   36 1     
   38   14   37 1     
   39   14   38 1     
   40   16   39 1     
   41   16   40 1     
   42   17   41 1     
@<TRIPOS>SUBSTRUCTURE
      1 S1             1
@<TRIPOS>SET
LONE_PAIRS      STATIC     ATOMS    <user>   **** ""
13 29 30 31 32 33 34 35 36 37 38 39 40 41
DONOR_HYDROGENS      STATIC     ATOMS    <user>   **** ""
4 22 26 27 28
ATOM$BLUE        STATIC     ATOMS    COLORGROUP SYSTEM
13 29 30 31 32 33 34 35 36 37 38 39 40 41
ATOM$RED        STATIC     ATOMS    COLORGROUP SYSTEM
4 22 26 27 28
