AV-unprocessed.smi:2524|AV-procd|sdf|9922|dock5
  -GOLD-   2272013563D 1   1.00000     0.00000
 Structure written by MMmdl.
 36 37  0  0  0  0  0  0  0  0  1 V2000
  152.2501  143.2533  159.7647 C   0  0  0  0  0  0  0  0  0  0  0  0
  152.7632  142.4746  160.7290 C   0  0  0  0  0  0  0  0  0  0  0  0
  152.9941  140.9840  160.5959 C   0  0  0  0  0  0  0  0  0  0  0  0
  152.3551  140.4203  159.3216 C   0  0  0  0  0  0  0  0  0  0  0  0
  153.0576  138.7713  158.9050 S   0  0  0  0  0  0  0  0  0  0  0  0
  154.5019  138.9265  158.6730 O   0  0  0  0  0  0  0  0  0  0  0  0
  152.5721  137.7800  159.8769 O   0  0  0  0  0  0  0  0  0  0  0  0
  152.3123  138.4276  157.3910 N   0  0  0  0  0  0  0  0  0  0  0  0
  151.7798  139.5379  156.5997 C   0  0  0  0  0  0  0  0  0  0  0  0
  151.2054  139.0444  155.2795 C   0  0  0  0  0  0  0  0  0  0  0  0
  149.9770  139.8207  154.8898 C   0  0  0  0  0  0  0  0  0  0  0  0
  148.9502  139.2319  154.1203 C   0  0  0  0  0  0  0  0  0  0  0  0
  147.8153  140.0018  153.7971 C   0  0  0  0  0  0  0  0  0  0  0  0
  147.6542  141.2842  154.1862 N   0  0  0  0  0  0  0  0  0  0  0  0
  148.6364  141.8454  154.9225 C   0  0  0  0  0  0  0  0  0  0  0  0
  149.8096  141.1611  155.2977 C   0  0  0  0  0  0  0  0  0  0  0  0
  152.1581  138.6136  154.1837 C   0  0  0  0  0  0  0  0  0  0  0  0
  151.3253  137.5823  154.9009 C   0  0  0  0  0  0  0  0  0  0  0  0
  151.9632  142.8458  158.8062 H   0  0  0  0  0  0  0  0  0  0  0  0
  152.1101  144.3123  159.9233 H   0  0  0  0  0  0  0  0  0  0  0  0
  153.0385  142.9192  161.6745 H   0  0  0  0  0  0  0  0  0  0  0  0
  154.0650  140.7772  160.5984 H   0  0  0  0  0  0  0  0  0  0  0  0
  152.5755  140.4901  161.4732 H   0  0  0  0  0  0  0  0  0  0  0  0
  151.2767  140.3121  159.4384 H   0  0  0  0  0  0  0  0  0  0  0  0
  152.5340  141.0851  158.4759 H   0  0  0  0  0  0  0  0  0  0  0  0
  152.8947  137.8142  156.8212 H   0  0  0  0  0  0  0  0  0  0  0  0
  150.9950  140.0513  157.1560 H   0  0  0  0  0  0  0  0  0  0  0  0
  152.5757  140.2616  156.4212 H   0  0  0  0  0  0  0  0  0  0  0  0
  149.0261  138.2072  153.7882 H   0  0  0  0  0  0  0  0  0  0  0  0
  147.0147  139.5742  153.2119 H   0  0  0  0  0  0  0  0  0  0  0  0
  148.4830  142.8711  155.2235 H   0  0  0  0  0  0  0  0  0  0  0  0
  150.5640  141.6557  155.8918 H   0  0  0  0  0  0  0  0  0  0  0  0
  151.8897  138.8409  153.1538 H   0  0  0  0  0  0  0  0  0  0  0  0
  153.2248  138.6157  154.3986 H   0  0  0  0  0  0  0  0  0  0  0  0
  151.8520  136.9176  155.5826 H   0  0  0  0  0  0  0  0  0  0  0  0
  150.5074  137.1275  154.3457 H   0  0  0  0  0  0  0  0  0  0  0  0
  1  2  2  0  0  0  0
  1 19  1  0  0  0  0
  1 20  1  0  0  0  0
  2  3  1  0  0  0  0
  2 21  1  0  0  0  0
  3  4  1  0  0  0  0
  3 22  1  0  0  0  0
  3 23  1  0  0  0  0
  4  5  1  0  0  0  0
  4 24  1  0  0  0  0
  4 25  1  0  0  0  0
  5  6  2  0  0  0  0
  5  7  2  0  0  0  0
  5  8  1  0  0  0  0
  8  9  1  0  0  0  0
  8 26  1  0  0  0  0
  9 10  1  0  0  0  0
  9 27  1  0  0  0  0
  9 28  1  0  0  0  0
 10 18  1  0  0  0  0
 10 11  1  0  0  0  0
 10 17  1  0  0  0  0
 11 16  1  0  0  0  0
 11 12  2  0  0  0  0
 12 13  1  0  0  0  0
 12 29  1  0  0  0  0
 13 14  2  0  0  0  0
 13 30  1  0  0  0  0
 14 15  1  0  0  0  0
 15 16  2  0  0  0  0
 15 31  1  0  0  0  0
 16 32  1  0  0  0  0
 17 18  1  0  0  0  0
 17 33  1  0  0  0  0
 17 34  1  0  0  0  0
 18 35  1  0  0  0  0
 18 36  1  0  0  0  0
M  END
> <s_m_source_file>
AV-unprocessed.smi

> <i_m_source_file_index>
2524

> <i_lp_mmshare_version>
43012

> <i_f3d_flags>
0

> <s_epik_input>
W0NIMl09W0NIXVtDSDJdW0NIMl1TKD1PKSg9TylbTkhdW0NIMl1DMShbQ0gyXVtDSDJdMSljMltjSF1bY0hdbltjSF1bY0hdMg==

> <s_epik_cmdline>
J2VwaWtfcHl0aG9uJywgJy1waCcsICc3LjAnLCAnLXRuJywgJzgnLCAnLW1hJywgJzIwMCcsICctbWV0YWxfYmluZGluZycsICctaW1hZScsICc8aW5maWxlLm1hZT4nLCAnLW9tYWUnLCAnPG91dGZpbGUubWFlPic=

> <r_epik_Ionization_Penalty>
0.0344299

> <r_epik_Ionization_Penalty_Charging>
0

> <r_epik_Ionization_Penalty_Neutral>
0.0344299

> <r_epik_State_Penalty>
0.0286381

> <r_epik_Charging_Adjusted_Penalty>
0.0286381

> <i_epik_Tot_Q>
0

> <i_epik_Tot_abs_Q>
0

> <r_epik_Metal_State_Penalty>
0.0327794

> <b_epik_Metal_Only>
0

> <s_lp_Force_Field>
OPLS_2005

> <r_lp_Energy>
10.3721

> <b_lp_Chiralities_Consistent>
1

> <s_lp_Variant>
AV-unprocessed.smi:2524-1

> <Gold.Version>
5.8.1

> <Gold.Id.Protein>
6NUR|6NUR_protein|mol2

> <Gold.PLP.Fitness>
41.0991

> <Gold.PLP.PLP>
-36.9481

> <Gold.PLP.part.hbond>
-0.7853

> <Gold.PLP.part.metal>
0.0000

> <Gold.PLP.part.buried>
-2.5770

> <Gold.PLP.part.nonpolar>
-32.8043

> <Gold.PLP.part.repulsive>
0.1544

> <Gold.PLP.ligand.clash>
0.0000

> <Gold.PLP.ligand.torsion>
1.7196

> <Gold.PLP.Chemscore.Hbond>
1.0000

> <Gold.PLP.Chemscore.CHOScore>
1.0000

> <Gold.PLP.Chemscore.Metal>
0.0000

> <Gold.Chemscore.Hbonds>
donor molecule, donor type, donor heavy atom, donor atom, acceptor molecule, acceptor atom, score
      P1  H  7997  8009       L1     6  1.00
      L1  C    15    31       P1  8028  0.74

> <Gold.PLP.Chemscore.Internal.Correction>
1.5902

> <Gold.Rescore>
     Score         DG    S(hbond)    S(metal)    S(lipo)     H(rot)  DE(clash)    DE(int)     intcor
     14.14     -16.02       0.98        0.00     102.57       1.85       0.10       1.79       ----

> <Gold.Chemscore.Fitness>
14.1358

> <Gold.Chemscore.DG>
-16.0205

> <Gold.Chemscore.ZeroCoef>
-5.4800

> <Gold.Chemscore.Hbond>
0.9779

> <Gold.Chemscore.Metal>
0.0000

> <Gold.Chemscore.Lipo>
102.5749

> <Gold.Chemscore.Internal_Hbond>
0.0000

> <Gold.Chemscore.DEClash>
0.0989

> <Gold.Chemscore.DEInternal>
1.7858

> <Gold.Chemscore.Rot>
1.8465

> <Gold.Chemscore.Internal.Correction>
   9.000000E+99

> <Gold.Chemscore.Hbonds>
donor molecule, donor type, donor heavy atom, donor atom, acceptor molecule, acceptor atom, score
      P1  H  7997  8009       L1     6  0.63

> <Gold.Chemscore.Hbond.Weighted>
-3.2663

> <Gold.Chemscore.Metal.Weighted>
-0.0000

> <Gold.Chemscore.Lipo.Weighted>
-12.0013

> <Gold.Chemscore.Internal_Hbond.Weighted>
0.0000

> <Gold.Chemscore.DEClash.Weighted>
0.0989

> <Gold.Chemscore.DEInternal.Weighted>
1.7858

> <Gold.Chemscore.Rot.Weighted>
4.7272

> <Gold.Chemscore.Internal.Correction.Weighted>
   9.000000E+99

> <Gold.Protein.RotatedTorsions>
[ 6907 6896 6895 6894 ] final -126.49 input  -60.11 | X-H torsion
[ 7974 7965 7964 7962 ] final  -28.99 input  175.53 | X-H torsion
[ 8008 7997 7996 7995 ] final  145.59 input   59.86 | X-H torsion
[ 10167 10162 10161 10158 ] final  -59.13 input  -65.29 | X-H torsion
[ 10718 10713 10712 10709 ] final -138.70 input   66.30 | X-H torsion
[ 10763 10752 10751 10750 ] final -166.86 input  -60.55 | X-H torsion
[ 11005 11000 10999 10996 ] final   72.80 input  -57.11 | X-H torsion

> <Gold.Protein.ActiveResidues>
 VAL166  LYS551  ARG553  GLY616  TRP617  ASP618  TYR619  PRO620  LYS621  CYS622 
 ASP623  PHE694  ASN695  SER759  ASP760  ASP761  ALA762  ILE779  LEU786  VAL792 
 PHE793  MET794  SER795  GLU796  ALA797  LYS798  CYS799  TRP800  GLU811  SER814 

> <Gold.Protein.RotatedAtoms>
  150.8974  133.7163  159.2887 H   0  0  0  0  0  0  0  0  0  0  0  0  # atno 6907 bound_to 6896
  151.4693  135.1043  159.9756 H   0  0  0  0  0  0  0  0  0  0  0  0  # atno 6908 bound_to 6896
  152.4857  133.8318  159.7162 H   0  0  0  0  0  0  0  0  0  0  0  0  # atno 6909 bound_to 6896
  146.1249  140.5354  142.8719 H   0  0  0  0  0  0  0  0  0  0  0  0  # atno 7974 bound_to 7965
  156.2879  140.2205  156.5240 H   0  0  0  0  0  0  0  0  0  0  0  0  # atno 8008 bound_to 7997
  154.7504  140.0481  157.0911 H   0  0  0  0  0  0  0  0  0  0  0  0  # atno 8009 bound_to 7997
  155.0117  140.3113  155.4830 H   0  0  0  0  0  0  0  0  0  0  0  0  # atno 8010 bound_to 7997
  140.6154  143.2401  151.5609 H   0  0  0  0  0  0  0  0  0  0  0  0  # atno 10167 bound_to 10162
  156.3023  130.7435  151.1490 H   0  0  0  0  0  0  0  0  0  0  0  0  # atno 10718 bound_to 10713
  154.6790  135.2951  154.9638 H   0  0  0  0  0  0  0  0  0  0  0  0  # atno 10763 bound_to 10752
  154.0639  135.6627  153.4819 H   0  0  0  0  0  0  0  0  0  0  0  0  # atno 10764 bound_to 10752
  153.0535  135.5159  154.7824 H   0  0  0  0  0  0  0  0  0  0  0  0  # atno 10765 bound_to 10752
  139.9472  134.7291  156.0950 H   0  0  0  0  0  0  0  0  0  0  0  0  # atno 11005 bound_to 11000
  144.7632  140.5471  143.6721 LP  0  0  0  0  0  0  0  0  0  0  0  0  # atno 17320 bound_to 7965
  145.5387  139.1475  143.3459 LP  0  0  0  0  0  0  0  0  0  0  0  0  # atno 17321 bound_to 7965
  139.5394  144.2689  152.1320 LP  0  0  0  0  0  0  0  0  0  0  0  0  # atno 17342 bound_to 10162
  140.1897  144.4764  150.6485 LP  0  0  0  0  0  0  0  0  0  0  0  0  # atno 17343 bound_to 10162
  157.7371  131.0555  150.5376 LP  0  0  0  0  0  0  0  0  0  0  0  0  # atno 17370 bound_to 10713
  156.5505  130.4230  149.6110 LP  0  0  0  0  0  0  0  0  0  0  0  0  # atno 17371 bound_to 10713
  141.1126  133.6638  156.3015 LP  0  0  0  0  0  0  0  0  0  0  0  0  # atno 17394 bound_to 11000
  140.5805  134.5750  157.5478 LP  0  0  0  0  0  0  0  0  0  0  0  0  # atno 17395 bound_to 11000

$$$$
