AV-unprocessed.smi:261|AV-procd|sdf|1991|dock9
  -GOLD-   2262021173D 1   1.00000     0.00000
 Structure written by MMmdl.
 51 54  0  0  0  0  0  0  0  0  1 V2000
  154.0595  142.4517  162.4660 C   0  0  0  0  0  0  0  0  0  0  0  0
  154.3113  141.9372  161.1688 O   0  0  0  0  0  0  0  0  0  0  0  0
  153.1554  141.4124  160.5315 C   0  0  1  0  0  0  0  0  0  0  0  0
  152.1860  142.4893  160.0471 C   0  0  0  0  0  0  0  0  0  0  0  0
  151.4137  141.8019  158.9103 C   0  0  1  0  0  0  0  0  0  0  0  0
  150.8567  142.8433  157.9195 C   0  0  0  0  0  0  0  0  0  0  0  0
  150.0236  142.4364  156.9562 N   0  0  0  0  0  0  0  0  0  0  0  0
  151.1805  144.0233  158.0332 O   0  0  0  0  0  0  0  0  0  0  0  0
  152.3906  140.8611  158.3441 N   0  0  0  0  0  0  0  0  0  0  0  0
  152.0283  139.8330  157.5282 C   0  0  0  0  0  0  0  0  0  0  0  0
  152.6388  139.6934  156.3211 N   0  0  0  0  0  0  0  0  0  0  0  0
  152.3106  138.6889  155.5040 C   0  0  0  0  0  0  0  0  0  0  0  0
  151.4148  137.7194  155.6929 N   0  0  0  0  0  0  0  0  0  0  0  0
  150.8015  137.8456  156.9037 C   0  0  0  0  0  0  0  0  0  0  0  0
  151.0441  138.8602  157.8737 C   0  0  0  0  0  0  0  0  0  0  0  0
  150.2371  138.6437  158.9862 N   0  0  0  0  0  0  0  0  0  0  0  0
  149.5513  137.5749  158.6856 C   0  0  0  0  0  0  0  0  0  0  0  0
  149.8301  137.0293  157.4539 N   0  0  0  0  0  0  0  0  0  0  0  0
  149.2350  135.8406  156.8683 C   0  0  0  0  0  0  0  0  0  0  0  0
  150.2826  134.7658  156.5167 C   0  0  2  0  0  0  0  0  0  0  0  0
  151.0716  135.2246  155.4351 O   0  0  0  0  0  0  0  0  0  0  0  0
  149.6346  133.4240  156.1278 C   0  0  1  0  0  0  0  0  0  0  0  0
  149.1836  133.3372  154.6694 C   0  0  0  0  0  0  0  0  0  0  0  0
  149.1428  131.8420  154.4514 C   0  0  0  0  0  0  0  0  0  0  0  0
  150.3510  131.3702  155.2560 C   0  0  0  0  0  0  0  0  0  0  0  0
  150.5734  132.3594  156.2589 O   0  0  0  0  0  0  0  0  0  0  0  0
  153.5321  140.6931  159.2366 C   0  0  0  0  0  0  0  0  0  0  0  0
  152.6336  140.7113  161.1859 H   0  0  0  0  0  0  0  0  0  0  0  0
  150.5831  141.2412  159.3424 H   0  0  0  0  0  0  0  0  0  0  0  0
  154.9915  142.8131  162.9007 H   0  0  0  0  0  0  0  0  0  0  0  0
  153.6593  141.6807  163.1254 H   0  0  0  0  0  0  0  0  0  0  0  0
  153.3591  143.2867  162.4377 H   0  0  0  0  0  0  0  0  0  0  0  0
  151.5279  142.8474  160.8394 H   0  0  0  0  0  0  0  0  0  0  0  0
  152.7511  143.3442  159.6703 H   0  0  0  0  0  0  0  0  0  0  0  0
  149.6529  143.1058  156.2974 H   0  0  0  0  0  0  0  0  0  0  0  0
  149.7716  141.4611  156.8896 H   0  0  0  0  0  0  0  0  0  0  0  0
  152.8440  138.6571  154.5653 H   0  0  0  0  0  0  0  0  0  0  0  0
  148.8213  137.1511  159.3600 H   0  0  0  0  0  0  0  0  0  0  0  0
  148.5107  135.4450  157.5811 H   0  0  0  0  0  0  0  0  0  0  0  0
  148.6704  136.1307  155.9811 H   0  0  0  0  0  0  0  0  0  0  0  0
  150.9417  134.6103  157.3720 H   0  0  0  0  0  0  0  0  0  0  0  0
  150.5404  135.2202  154.6535 H   0  0  0  0  0  0  0  0  0  0  0  0
  148.7880  133.2057  156.7813 H   0  0  0  0  0  0  0  0  0  0  0  0
  148.2226  133.8200  154.4901 H   0  0  0  0  0  0  0  0  0  0  0  0
  149.9240  133.7909  154.0089 H   0  0  0  0  0  0  0  0  0  0  0  0
  148.2259  131.4289  154.8740 H   0  0  0  0  0  0  0  0  0  0  0  0
  149.1930  131.5582  153.3999 H   0  0  0  0  0  0  0  0  0  0  0  0
  150.1893  130.3870  155.6987 H   0  0  0  0  0  0  0  0  0  0  0  0
  151.2373  131.3145  154.6234 H   0  0  0  0  0  0  0  0  0  0  0  0
  154.4016  141.1593  158.7714 H   0  0  0  0  0  0  0  0  0  0  0  0
  153.7733  139.6480  159.4361 H   0  0  0  0  0  0  0  0  0  0  0  0
  1  2  1  0  0  0  0
  1 30  1  0  0  0  0
  1 31  1  0  0  0  0
  1 32  1  0  0  0  0
  2  3  1  0  0  0  0
  3 28  1  0  0  0  0
  3 27  1  0  0  0  0
  3  4  1  0  0  0  0
  4  5  1  0  0  0  0
  4 33  1  0  0  0  0
  4 34  1  0  0  0  0
  5 29  1  0  0  0  0
  5  6  1  0  0  0  0
  5  9  1  0  0  0  0
  6  7  1  0  0  0  0
  6  8  2  0  0  0  0
  7 35  1  0  0  0  0
  7 36  1  0  0  0  0
  9 10  1  0  0  0  0
  9 27  1  0  0  0  0
 10 15  1  0  0  0  0
 10 11  2  0  0  0  0
 11 12  1  0  0  0  0
 12 13  2  0  0  0  0
 12 37  1  0  0  0  0
 13 14  1  0  0  0  0
 14 18  1  0  0  0  0
 14 15  2  0  0  0  0
 15 16  1  0  0  0  0
 16 17  2  0  0  0  0
 17 18  1  0  0  0  0
 17 38  1  0  0  0  0
 18 19  1  0  0  0  0
 19 20  1  0  0  0  0
 19 39  1  0  0  0  0
 19 40  1  0  0  0  0
 20 21  1  0  0  0  0
 20 22  1  0  0  0  0
 20 41  1  0  0  0  0
 21 42  1  0  0  0  0
 22 26  1  0  0  0  0
 22 23  1  0  0  0  0
 22 43  1  0  0  0  0
 23 24  1  0  0  0  0
 23 44  1  0  0  0  0
 23 45  1  0  0  0  0
 24 25  1  0  0  0  0
 24 46  1  0  0  0  0
 24 47  1  0  0  0  0
 25 26  1  0  0  0  0
 25 48  1  0  0  0  0
 25 49  1  0  0  0  0
 27 50  1  0  0  0  0
 27 51  1  0  0  0  0
M  END
> <s_m_source_file>
AV-unprocessed.smi

> <i_m_source_file_index>
261

> <i_lp_mmshare_version>
43012

> <i_f3d_flags>
0

> <s_epik_input>
W0NIM11PW0NASF0xW0NIMl1bQ0BASF0oQyg9TylbTkgyXSlOKFtDSDJdMSljKG5bY0hdbjIpYyhjMjMpbltjSF1uM1tDSDJdW0NASF0oW09IXSlbQ0BASF00W0NIMl1bQ0gyXVtDSDJdTzQ=

> <s_epik_cmdline>
J2VwaWtfcHl0aG9uJywgJy1waCcsICc3LjAnLCAnLXRuJywgJzgnLCAnLW1hJywgJzIwMCcsICctbWV0YWxfYmluZGluZycsICctaW1hZScsICc8aW5maWxlLm1hZT4nLCAnLW9tYWUnLCAnPG91dGZpbGUubWFlPic=

> <r_lp_tautomer_probability>
1

> <r_epik_Ionization_Penalty>
0.000713824

> <r_epik_Ionization_Penalty_Charging>
0

> <r_epik_Ionization_Penalty_Neutral>
0.000713824

> <r_epik_State_Penalty>
0.000402132

> <r_epik_Charging_Adjusted_Penalty>
0.000402132

> <i_epik_Tot_Q>
0

> <i_epik_Tot_abs_Q>
0

> <r_epik_Metal_State_Penalty>
-0

> <b_epik_Metal_Only>
0

> <s_lp_Force_Field>
OPLS_2005

> <r_lp_Energy>
46.441

> <b_lp_Chiralities_Consistent>
1

> <s_lp_Variant>
AV-unprocessed.smi:261-9

> <Gold.Version>
5.8.1

> <Gold.Id.Protein>
6NUR|6NUR_protein|mol2

> <Gold.PLP.Fitness>
46.8567

> <Gold.PLP.PLP>
-41.9127

> <Gold.PLP.part.hbond>
-3.6057

> <Gold.PLP.part.metal>
0.0000

> <Gold.PLP.part.buried>
-5.6653

> <Gold.PLP.part.nonpolar>
-31.4573

> <Gold.PLP.part.repulsive>
0.2526

> <Gold.PLP.ligand.clash>
0.0000

> <Gold.PLP.ligand.torsion>
1.9171

> <Gold.PLP.Chemscore.Hbond>
2.7840

> <Gold.PLP.Chemscore.CHOScore>
0.0000

> <Gold.PLP.Chemscore.Metal>
0.0000

> <Gold.Chemscore.Hbonds>
donor molecule, donor type, donor heavy atom, donor atom, acceptor molecule, acceptor atom, score
      L1  H     7    35       P1  8028  1.00
      P1  H  7997  8009       L1    11  1.00
      P1  H 10752 10765       L1    21  0.64

> <Gold.PLP.Chemscore.Internal.Correction>
0.4262

> <Gold.Rescore>
     Score         DG    S(hbond)    S(metal)    S(lipo)     H(rot)  DE(clash)    DE(int)     intcor
     12.95     -15.08       2.64        0.00      76.35       3.18       0.12       2.01       ----

> <Gold.Chemscore.Fitness>
12.9526

> <Gold.Chemscore.DG>
-15.0814

> <Gold.Chemscore.ZeroCoef>
-5.4800

> <Gold.Chemscore.Hbond>
2.6398

> <Gold.Chemscore.Metal>
0.0000

> <Gold.Chemscore.Lipo>
76.3519

> <Gold.Chemscore.Internal_Hbond>
0.0000

> <Gold.Chemscore.DEClash>
0.1158

> <Gold.Chemscore.DEInternal>
2.0130

> <Gold.Chemscore.Rot>
3.1831

> <Gold.Chemscore.Internal.Correction>
   9.000000E+99

> <Gold.Chemscore.Hbonds>
donor molecule, donor type, donor heavy atom, donor atom, acceptor molecule, acceptor atom, score
      L1  H     7    35       P1  8028  0.99
      P1  H  7997  8009       L1    11  0.67
      P1  H 10752 10765       L1    21  0.13

> <Gold.Chemscore.Hbond.Weighted>
-8.8168

> <Gold.Chemscore.Metal.Weighted>
-0.0000

> <Gold.Chemscore.Lipo.Weighted>
-8.9332

> <Gold.Chemscore.Internal_Hbond.Weighted>
0.0000

> <Gold.Chemscore.DEClash.Weighted>
0.1158

> <Gold.Chemscore.DEInternal.Weighted>
2.0130

> <Gold.Chemscore.Rot.Weighted>
8.1486

> <Gold.Chemscore.Internal.Correction.Weighted>
   9.000000E+99

> <Gold.Protein.RotatedTorsions>
[ 6907 6896 6895 6894 ] final   29.30 input  -60.11 | X-H torsion
[ 7974 7965 7964 7962 ] final  131.33 input  175.53 | X-H torsion
[ 8008 7997 7996 7995 ] final -171.12 input   59.86 | X-H torsion
[ 10167 10162 10161 10158 ] final  -37.48 input  -65.29 | X-H torsion
[ 10718 10713 10712 10709 ] final   29.44 input   66.30 | X-H torsion
[ 10763 10752 10751 10750 ] final  175.21 input  -60.55 | X-H torsion
[ 11005 11000 10999 10996 ] final -142.18 input  -57.11 | X-H torsion

> <Gold.Protein.ActiveResidues>
 VAL166  LYS551  ARG553  GLY616  TRP617  ASP618  TYR619  PRO620  LYS621  CYS622 
 ASP623  PHE694  ASN695  SER759  ASP760  ASP761  ALA762  ILE779  LEU786  VAL792 
 PHE793  MET794  SER795  GLU796  ALA797  LYS798  CYS799  TRP800  GLU811  SER814 

> <Gold.Protein.RotatedAtoms>
  152.0296  134.9776  160.0572 H   0  0  0  0  0  0  0  0  0  0  0  0  # atno 6907 bound_to 6896
  152.1257  133.4374  159.4705 H   0  0  0  0  0  0  0  0  0  0  0  0  # atno 6908 bound_to 6896
  150.6852  134.2399  159.4511 H   0  0  0  0  0  0  0  0  0  0  0  0  # atno 6909 bound_to 6896
  145.0084  139.4244  143.5257 H   0  0  0  0  0  0  0  0  0  0  0  0  # atno 7974 bound_to 7965
  155.9273  140.1085  157.1160 H   0  0  0  0  0  0  0  0  0  0  0  0  # atno 8008 bound_to 7997
  154.4064  140.1244  156.4823 H   0  0  0  0  0  0  0  0  0  0  0  0  # atno 8009 bound_to 7997
  155.7122  140.3471  155.4981 H   0  0  0  0  0  0  0  0  0  0  0  0  # atno 8010 bound_to 7997
  140.7117  143.3339  151.2506 H   0  0  0  0  0  0  0  0  0  0  0  0  # atno 10167 bound_to 10162
  157.2466  130.7095  149.6384 H   0  0  0  0  0  0  0  0  0  0  0  0  # atno 10718 bound_to 10713
  154.4645  135.2769  155.1689 H   0  0  0  0  0  0  0  0  0  0  0  0  # atno 10763 bound_to 10752
  154.3463  135.6159  153.5624 H   0  0  0  0  0  0  0  0  0  0  0  0  # atno 10764 bound_to 10752
  152.9858  135.5800  154.5013 H   0  0  0  0  0  0  0  0  0  0  0  0  # atno 10765 bound_to 10752
  140.8250  134.2585  157.4883 H   0  0  0  0  0  0  0  0  0  0  0  0  # atno 11005 bound_to 11000
  146.3465  139.9514  142.8728 LP  0  0  0  0  0  0  0  0  0  0  0  0  # atno 17320 bound_to 7965
  145.2056  140.9873  143.4130 LP  0  0  0  0  0  0  0  0  0  0  0  0  # atno 17321 bound_to 7965
  139.6829  143.9824  152.2818 LP  0  0  0  0  0  0  0  0  0  0  0  0  # atno 17342 bound_to 10162
  139.9460  144.6651  150.8219 LP  0  0  0  0  0  0  0  0  0  0  0  0  # atno 17343 bound_to 10162
  155.9668  130.4441  150.5448 LP  0  0  0  0  0  0  0  0  0  0  0  0  # atno 17370 bound_to 10713
  157.3322  131.0701  151.1852 LP  0  0  0  0  0  0  0  0  0  0  0  0  # atno 17371 bound_to 10713
  139.8707  134.9556  156.4211 LP  0  0  0  0  0  0  0  0  0  0  0  0  # atno 17394 bound_to 11000
  140.9058  133.7746  155.9734 LP  0  0  0  0  0  0  0  0  0  0  0  0  # atno 17395 bound_to 11000

$$$$
