AV-unprocessed.smi:2146|AV-procd|sdf|8740|dock1
  -GOLD-   2272011513D 1   1.00000     0.00000
 Structure written by MMmdl.
 45 46  0  0  0  0  0  0  0  0  2 V2000
  146.3961  143.2990  153.9710 C   0  0  0  0  0  0  0  0  0  0  0  0
  145.8853  142.1383  154.8609 C   0  0  2  0  0  0  0  0  0  0  0  0
  146.6518  142.1203  156.2080 C   0  0  0  0  0  0  0  0  0  0  0  0
  148.0948  142.2293  156.0247 N   0  0  0  0  0  0  0  0  0  0  0  0
  148.9818  141.3015  156.4116 C   0  0  0  0  0  0  0  0  0  0  0  0
  148.6553  140.2580  156.9792 O   0  0  0  0  0  0  0  0  0  0  0  0
  150.4542  141.6185  156.1095 C   0  0  0  0  0  0  0  0  0  0  0  0
  151.2760  141.8282  157.3139 N   0  0  0  0  0  0  0  0  0  0  0  0
  151.0342  143.0003  158.0570 C   0  0  0  0  0  0  0  0  0  0  0  0
  151.7076  143.3072  159.1826 C   0  0  0  0  0  0  0  0  0  0  0  0
  151.4636  144.6075  159.9329 C   0  0  0  0  0  0  0  0  0  0  0  0
  150.1666  144.7754  160.1919 F   0  0  0  0  0  0  0  0  0  0  0  0
  152.1275  144.6290  161.0894 F   0  0  0  0  0  0  0  0  0  0  0  0
  151.8769  145.6392  159.1981 F   0  0  0  0  0  0  0  0  0  0  0  0
  152.7391  142.3742  159.5913 C   0  0  0  0  0  0  0  0  0  0  0  0
  152.9870  141.2513  158.8892 C   0  0  0  0  0  0  0  0  0  0  0  0
  152.2300  140.9202  157.6799 C   0  0  0  0  0  0  0  0  0  0  0  0
  152.4400  139.8921  157.0359 O   0  0  0  0  0  0  0  0  0  0  0  0
  145.9669  140.7982  154.1896 N   0  3  0  0  0  0  0  0  0  0  0  0
  147.3049  140.5349  153.5907 C   0  0  0  0  0  0  0  0  0  0  0  0
  147.3276  139.1895  152.8473 C   0  0  0  0  0  0  0  0  0  0  0  0
  146.9783  138.1474  153.7453 O   0  0  0  0  0  0  0  0  0  0  0  0
  145.6622  138.3168  154.2487 C   0  0  0  0  0  0  0  0  0  0  0  0
  145.5659  139.6371  155.0329 C   0  0  0  0  0  0  0  0  0  0  0  0
  146.3620  144.2567  154.4896 H   0  0  0  0  0  0  0  0  0  0  0  0
  145.7834  143.4311  153.0792 H   0  0  0  0  0  0  0  0  0  0  0  0
  147.4278  143.1358  153.6572 H   0  0  0  0  0  0  0  0  0  0  0  0
  144.8327  142.3393  155.0668 H   0  0  0  0  0  0  0  0  0  0  0  0
  146.3432  142.9417  156.8527 H   0  0  0  0  0  0  0  0  0  0  0  0
  146.4335  141.1974  156.7480 H   0  0  0  0  0  0  0  0  0  0  0  0
  148.4410  143.0607  155.5671 H   0  0  0  0  0  0  0  0  0  0  0  0
  150.8709  140.8117  155.5035 H   0  0  0  0  0  0  0  0  0  0  0  0
  150.4906  142.5007  155.4687 H   0  0  0  0  0  0  0  0  0  0  0  0
  150.2606  143.6369  157.6527 H   0  0  0  0  0  0  0  0  0  0  0  0
  153.3199  142.5758  160.4794 H   0  0  0  0  0  0  0  0  0  0  0  0
  153.7607  140.5769  159.2255 H   0  0  0  0  0  0  0  0  0  0  0  0
  147.5853  141.3147  152.8859 H   0  0  0  0  0  0  0  0  0  0  0  0
  148.0620  140.5326  154.3764 H   0  0  0  0  0  0  0  0  0  0  0  0
  146.6469  139.2015  151.9942 H   0  0  0  0  0  0  0  0  0  0  0  0
  148.3259  138.9948  152.4550 H   0  0  0  0  0  0  0  0  0  0  0  0
  144.9405  138.2958  153.4305 H   0  0  0  0  0  0  0  0  0  0  0  0
  145.4252  137.4762  154.9013 H   0  0  0  0  0  0  0  0  0  0  0  0
  146.1994  139.5927  155.9203 H   0  0  0  0  0  0  0  0  0  0  0  0
  144.5349  139.7375  155.3700 H   0  0  0  0  0  0  0  0  0  0  0  0
  145.3047  140.8240  153.4271 H   0  0  0  0  0  0  0  0  0  0  0  0
  1  2  1  0  0  0  0
  1 25  1  0  0  0  0
  1 26  1  0  0  0  0
  1 27  1  0  0  0  0
  2  3  1  0  0  0  0
  2 19  1  0  0  0  0
  2 28  1  0  0  0  0
  3  4  1  0  0  0  0
  3 29  1  0  0  0  0
  3 30  1  0  0  0  0
  4  5  1  0  0  0  0
  4 31  1  0  0  0  0
  5  6  2  0  0  0  0
  5  7  1  0  0  0  0
  7  8  1  0  0  0  0
  7 32  1  0  0  0  0
  7 33  1  0  0  0  0
  8 17  1  0  0  0  0
  8  9  1  0  0  0  0
  9 10  2  0  0  0  0
  9 34  1  0  0  0  0
 10 11  1  0  0  0  0
 10 15  1  0  0  0  0
 11 12  1  0  0  0  0
 11 13  1  0  0  0  0
 11 14  1  0  0  0  0
 15 16  2  0  0  0  0
 15 35  1  0  0  0  0
 16 17  1  0  0  0  0
 16 36  1  0  0  0  0
 17 18  2  0  0  0  0
 19 24  1  0  0  0  0
 19 20  1  0  0  0  0
 19 45  1  0  0  0  0
 20 21  1  0  0  0  0
 20 37  1  0  0  0  0
 20 38  1  0  0  0  0
 21 22  1  0  0  0  0
 21 39  1  0  0  0  0
 21 40  1  0  0  0  0
 22 23  1  0  0  0  0
 23 24  1  0  0  0  0
 23 41  1  0  0  0  0
 23 42  1  0  0  0  0
 24 43  1  0  0  0  0
 24 44  1  0  0  0  0
M  CHG  1  19   1
M  END
> <s_m_source_file>
AV-unprocessed.smi

> <i_m_source_file_index>
2146

> <i_lp_mmshare_version>
43012

> <i_f3d_flags>
0

> <s_epik_input>
W0NIMl0xW0NIMl1PW0NIMl1bQ0gyXU4xW0NASF0oW0NIM10pW0NIMl1bTkhdQyg9TylbQ0gyXW4yW2NIXWMoQyhGKShGKUYpW2NIXVtjSF1jMj1P

> <s_epik_cmdline>
J2VwaWtfcHl0aG9uJywgJy1waCcsICc3LjAnLCAnLXRuJywgJzgnLCAnLW1hJywgJzIwMCcsICctbWV0YWxfYmluZGluZycsICctaW1hZScsICc8aW5maWxlLm1hZT4nLCAnLW9tYWUnLCAnPG91dGZpbGUubWFlPic=

> <r_lp_tautomer_probability>
1

> <r_epik_Ionization_Penalty>
0.656654

> <r_epik_Ionization_Penalty_Charging>
0.656653

> <r_epik_Ionization_Penalty_Neutral>
9.12373e-08

> <r_epik_State_Penalty>
0.675641

> <r_epik_Charging_Adjusted_Penalty>
1.33229

> <i_epik_Tot_Q>
1

> <i_epik_Tot_abs_Q>
1

> <r_epik_Metal_State_Penalty>
0.675692

> <b_epik_Metal_Only>
0

> <s_lp_Force_Field>
OPLS_2005

> <r_lp_Energy>
33.6044

> <b_lp_Chiralities_Consistent>
1

> <s_lp_Variant>
AV-unprocessed.smi:2146-3

> <Gold.Version>
5.8.1

> <Gold.Id.Protein>
6NUR|6NUR_protein|mol2

> <Gold.PLP.Fitness>
58.5155

> <Gold.PLP.PLP>
-45.3464

> <Gold.PLP.part.hbond>
-3.0000

> <Gold.PLP.part.metal>
0.0000

> <Gold.PLP.part.buried>
-5.5876

> <Gold.PLP.part.nonpolar>
-36.8484

> <Gold.PLP.part.repulsive>
0.2018

> <Gold.PLP.ligand.clash>
0.0000

> <Gold.PLP.ligand.torsion>
0.6060

> <Gold.PLP.Chemscore.Hbond>
4.0000

> <Gold.PLP.Chemscore.CHOScore>
0.7200

> <Gold.PLP.Chemscore.Metal>
0.0000

> <Gold.Chemscore.Hbonds>
donor molecule, donor type, donor heavy atom, donor atom, acceptor molecule, acceptor atom, score
      L1  H     4    31       P1  8028  0.99
      L1  H    19    45       P1 10175  2.00
      P1  H  7997  8009       L1    18  1.00
      L1  C     9    34       P1  8028  0.74

> <Gold.PLP.Chemscore.Internal.Correction>
0.2210

> <Gold.Rescore>
     Score         DG    S(hbond)    S(metal)    S(lipo)     H(rot)  DE(clash)    DE(int)     intcor
     18.44     -19.34       2.85        0.00      84.95       2.18       0.30       0.60       ----

> <Gold.Chemscore.Fitness>
18.4447

> <Gold.Chemscore.DG>
-19.3407

> <Gold.Chemscore.ZeroCoef>
-5.4800

> <Gold.Chemscore.Hbond>
2.8454

> <Gold.Chemscore.Metal>
0.0000

> <Gold.Chemscore.Lipo>
84.9513

> <Gold.Chemscore.Internal_Hbond>
0.0000

> <Gold.Chemscore.DEClash>
0.2950

> <Gold.Chemscore.DEInternal>
0.6010

> <Gold.Chemscore.Rot>
2.1805

> <Gold.Chemscore.Internal.Correction>
   9.000000E+99

> <Gold.Chemscore.Hbonds>
donor molecule, donor type, donor heavy atom, donor atom, acceptor molecule, acceptor atom, score
      L1  H     4    31       P1  8028  0.93
      L1  H    19    45       P1 10175  0.78
      P1  H  7997  8009       L1    18  0.29

> <Gold.Chemscore.Hbond.Weighted>
-9.5036

> <Gold.Chemscore.Metal.Weighted>
-0.0000

> <Gold.Chemscore.Lipo.Weighted>
-9.9393

> <Gold.Chemscore.Internal_Hbond.Weighted>
0.0000

> <Gold.Chemscore.DEClash.Weighted>
0.2950

> <Gold.Chemscore.DEInternal.Weighted>
0.6010

> <Gold.Chemscore.Rot.Weighted>
5.5822

> <Gold.Chemscore.Internal.Correction.Weighted>
   9.000000E+99

> <Gold.Protein.RotatedTorsions>
[ 6907 6896 6895 6894 ] final -149.90 input  -60.11 | X-H torsion
[ 7974 7965 7964 7962 ] final  -48.19 input  175.53 | X-H torsion
[ 8008 7997 7996 7995 ] final -176.82 input   59.86 | X-H torsion
[ 10167 10162 10161 10158 ] final  -41.22 input  -65.29 | X-H torsion
[ 10718 10713 10712 10709 ] final  -24.81 input   66.30 | X-H torsion
[ 10763 10752 10751 10750 ] final  -66.31 input  -60.55 | X-H torsion
[ 11005 11000 10999 10996 ] final  -84.31 input  -57.11 | X-H torsion

> <Gold.Protein.ActiveResidues>
 VAL166  LYS551  ARG553  GLY616  TRP617  ASP618  TYR619  PRO620  LYS621  CYS622 
 ASP623  PHE694  ASN695  SER759  ASP760  ASP761  ALA762  ILE779  LEU786  VAL792 
 PHE793  MET794  SER795  GLU796  ALA797  LYS798  CYS799  TRP800  GLU811  SER814 

> <Gold.Protein.RotatedAtoms>
  151.1907  133.4669  159.2594 H   0  0  0  0  0  0  0  0  0  0  0  0  # atno 6907 bound_to 6896
  151.1166  135.0056  159.8529 H   0  0  0  0  0  0  0  0  0  0  0  0  # atno 6908 bound_to 6896
  152.5453  134.1822  159.8693 H   0  0  0  0  0  0  0  0  0  0  0  0  # atno 6909 bound_to 6896
  145.9537  140.7547  142.9492 H   0  0  0  0  0  0  0  0  0  0  0  0  # atno 7974 bound_to 7965
  155.9994  140.1217  157.0562 H   0  0  0  0  0  0  0  0  0  0  0  0  # atno 8008 bound_to 7997
  154.4237  140.1109  156.5745 H   0  0  0  0  0  0  0  0  0  0  0  0  # atno 8009 bound_to 7997
  155.6233  140.3472  155.4661 H   0  0  0  0  0  0  0  0  0  0  0  0  # atno 8010 bound_to 7997
  140.7009  143.3107  151.3035 H   0  0  0  0  0  0  0  0  0  0  0  0  # atno 10167 bound_to 10162
  156.4728  130.4528  149.6859 H   0  0  0  0  0  0  0  0  0  0  0  0  # atno 10718 bound_to 10713
  154.3579  135.6122  153.5676 H   0  0  0  0  0  0  0  0  0  0  0  0  # atno 10763 bound_to 10752
  152.9795  135.5808  154.4667 H   0  0  0  0  0  0  0  0  0  0  0  0  # atno 10764 bound_to 10752
  154.4400  135.2850  155.1832 H   0  0  0  0  0  0  0  0  0  0  0  0  # atno 10765 bound_to 10752
  141.1651  133.7339  156.8849 H   0  0  0  0  0  0  0  0  0  0  0  0  # atno 11005 bound_to 11000
  144.6801  140.2477  143.7335 LP  0  0  0  0  0  0  0  0  0  0  0  0  # atno 17320 bound_to 7965
  145.8136  139.2013  143.1979 LP  0  0  0  0  0  0  0  0  0  0  0  0  # atno 17321 bound_to 7965
  139.6529  144.0329  152.2639 LP  0  0  0  0  0  0  0  0  0  0  0  0  # atno 17342 bound_to 10162
  139.9871  144.6387  150.7847 LP  0  0  0  0  0  0  0  0  0  0  0  0  # atno 17343 bound_to 10162
  156.3601  130.7477  151.2448 LP  0  0  0  0  0  0  0  0  0  0  0  0  # atno 17370 bound_to 10713
  157.7490  131.0352  150.4355 LP  0  0  0  0  0  0  0  0  0  0  0  0  # atno 17371 bound_to 10713
  140.1689  134.9114  157.2808 LP  0  0  0  0  0  0  0  0  0  0  0  0  # atno 17394 bound_to 11000
  140.2525  134.3666  155.7437 LP  0  0  0  0  0  0  0  0  0  0  0  0  # atno 17395 bound_to 11000

$$$$
