AV-unprocessed.smi:442|AV-procd|sdf|2583|dock9
  -GOLD-   2262022573D 1   1.00000     0.00000
 Structure written by MMmdl.
 37 37  0  0  0  0  0  0  0  0  3 V2000
  151.7172  145.8165  160.1372 C   0  0  0  0  0  0  0  0  0  0  0  0
  151.1111  145.1472  158.8951 C   0  0  0  0  0  0  0  0  0  0  0  0
  152.0656  144.1697  158.1811 C   0  0  2  0  0  0  0  0  0  0  0  0
  151.2963  143.1364  157.3463 C   0  0  0  0  0  0  0  0  0  0  0  0
  152.9077  143.4693  159.1498 N   0  0  0  0  0  0  0  0  0  0  0  0
  152.4869  142.8735  160.2768 C   0  0  0  0  0  0  0  0  0  0  0  0
  151.3055  142.8322  160.6231 O   0  0  0  0  0  0  0  0  0  0  0  0
  153.5769  142.2024  161.1246 C   0  0  0  0  0  0  0  0  0  0  0  0
  153.7989  140.7878  160.7729 N   0  0  0  0  0  0  0  0  0  0  0  0
  153.3248  140.3723  159.5158 C   0  0  0  0  0  0  0  0  0  0  0  0
  153.4570  139.1067  159.0819 C   0  0  0  0  0  0  0  0  0  0  0  0
  152.9542  138.7023  157.7865 N   0  3  0  0  0  0  0  0  0  0  0  0
  152.6700  139.5698  156.9670 O   0  0  0  0  0  0  0  0  0  0  0  0
  152.8252  137.5058  157.5446 O   0  5  0  0  0  0  0  0  0  0  0  0
  154.1157  138.1573  159.9550 C   0  0  0  0  0  0  0  0  0  0  0  0
  154.5770  138.5345  161.1750 C   0  0  0  0  0  0  0  0  0  0  0  0
  155.2569  137.5989  162.0989 C   0  0  0  0  0  0  0  0  0  0  0  0
  155.3958  136.3557  161.6214 N   0  0  0  0  0  0  0  0  0  0  0  0
  155.6883  137.8527  163.2233 O   0  0  0  0  0  0  0  0  0  0  0  0
  154.4205  139.9369  161.6482 C   0  0  0  0  0  0  0  0  0  0  0  0
  154.8036  140.3579  162.7431 O   0  0  0  0  0  0  0  0  0  0  0  0
  151.0215  146.5386  160.5648 H   0  0  0  0  0  0  0  0  0  0  0  0
  152.6364  146.3477  159.8888 H   0  0  0  0  0  0  0  0  0  0  0  0
  151.9505  145.0870  160.9130 H   0  0  0  0  0  0  0  0  0  0  0  0
  150.1943  144.6283  159.1782 H   0  0  0  0  0  0  0  0  0  0  0  0
  150.8122  145.9276  158.1943 H   0  0  0  0  0  0  0  0  0  0  0  0
  152.6847  144.7451  157.4904 H   0  0  0  0  0  0  0  0  0  0  0  0
  150.6762  143.6236  156.5933 H   0  0  0  0  0  0  0  0  0  0  0  0
  150.6428  142.5259  157.9706 H   0  0  0  0  0  0  0  0  0  0  0  0
  151.9798  142.4662  156.8238 H   0  0  0  0  0  0  0  0  0  0  0  0
  153.8965  143.4427  158.9481 H   0  0  0  0  0  0  0  0  0  0  0  0
  154.4967  142.7769  161.0070 H   0  0  0  0  0  0  0  0  0  0  0  0
  153.3232  142.2948  162.1825 H   0  0  0  0  0  0  0  0  0  0  0  0
  152.8408  141.1482  158.9404 H   0  0  0  0  0  0  0  0  0  0  0  0
  154.2294  137.1426  159.6041 H   0  0  0  0  0  0  0  0  0  0  0  0
  155.8488  135.6459  162.1780 H   0  0  0  0  0  0  0  0  0  0  0  0
  155.0461  136.1335  160.7005 H   0  0  0  0  0  0  0  0  0  0  0  0
  1  2  1  0  0  0  0
  1 22  1  0  0  0  0
  1 23  1  0  0  0  0
  1 24  1  0  0  0  0
  2  3  1  0  0  0  0
  2 25  1  0  0  0  0
  2 26  1  0  0  0  0
  3  4  1  0  0  0  0
  3  5  1  0  0  0  0
  3 27  1  0  0  0  0
  4 28  1  0  0  0  0
  4 29  1  0  0  0  0
  4 30  1  0  0  0  0
  5  6  1  0  0  0  0
  5 31  1  0  0  0  0
  6  7  2  0  0  0  0
  6  8  1  0  0  0  0
  8  9  1  0  0  0  0
  8 32  1  0  0  0  0
  8 33  1  0  0  0  0
  9 20  1  0  0  0  0
  9 10  1  0  0  0  0
 10 11  2  0  0  0  0
 10 34  1  0  0  0  0
 11 12  1  0  0  0  0
 11 15  1  0  0  0  0
 12 13  2  0  0  0  0
 12 14  1  0  0  0  0
 15 16  2  0  0  0  0
 15 35  1  0  0  0  0
 16 17  1  0  0  0  0
 16 20  1  0  0  0  0
 17 18  1  0  0  0  0
 17 19  2  0  0  0  0
 18 36  1  0  0  0  0
 18 37  1  0  0  0  0
 20 21  2  0  0  0  0
M  CHG  1  12   1
M  CHG  1  14  -1
M  END
> <s_m_source_file>
AV-unprocessed.smi

> <i_m_source_file_index>
442

> <i_lp_mmshare_version>
43012

> <i_f3d_flags>
0

> <s_epik_input>
W0NIM11bQ0gyXVtDQEhdKFtDSDNdKVtOSF1DKD1PKVtDSDJdbjFbY0hdYyhbTitdKD1PKVtPLV0pW2NIXWMoYzE9TylDKD1PKVtOSDJd

> <s_epik_cmdline>
J2VwaWtfcHl0aG9uJywgJy1waCcsICc3LjAnLCAnLXRuJywgJzgnLCAnLW1hJywgJzIwMCcsICctbWV0YWxfYmluZGluZycsICctaW1hZScsICc8aW5maWxlLm1hZT4nLCAnLW9tYWUnLCAnPG91dGZpbGUubWFlPic=

> <r_lp_tautomer_probability>
1

> <r_epik_Ionization_Penalty>
2.86914e-06

> <r_epik_Ionization_Penalty_Charging>
2.2828e-12

> <r_epik_Ionization_Penalty_Neutral>
2.86914e-06

> <r_epik_State_Penalty>
-0

> <r_epik_Charging_Adjusted_Penalty>
2.2828e-12

> <i_epik_Tot_Q>
0

> <i_epik_Tot_abs_Q>
2

> <r_epik_Metal_State_Penalty>
-0

> <b_epik_Metal_Only>
0

> <s_lp_Force_Field>
OPLS_2005

> <r_lp_Energy>
21.8648

> <b_lp_Chiralities_Consistent>
1

> <s_lp_Variant>
AV-unprocessed.smi:442-1

> <Gold.Version>
5.8.1

> <Gold.Id.Protein>
6NUR|6NUR_protein|mol2

> <Gold.PLP.Fitness>
40.6459

> <Gold.PLP.PLP>
-40.0257

> <Gold.PLP.part.hbond>
-2.0712

> <Gold.PLP.part.metal>
0.0000

> <Gold.PLP.part.buried>
-5.1148

> <Gold.PLP.part.nonpolar>
-31.8860

> <Gold.PLP.part.repulsive>
0.1124

> <Gold.PLP.ligand.clash>
0.1681

> <Gold.PLP.ligand.torsion>
1.1714

> <Gold.PLP.Chemscore.Hbond>
1.0156

> <Gold.PLP.Chemscore.CHOScore>
0.0000

> <Gold.PLP.Chemscore.Metal>
0.0000

> <Gold.Chemscore.Hbonds>
donor molecule, donor type, donor heavy atom, donor atom, acceptor molecule, acceptor atom, score
      P1  H  6933  6945       L1     7  0.04
      P1  H  7997  8009       L1    13  1.00

> <Gold.PLP.Chemscore.Internal.Correction>
0.0842

> <Gold.Rescore>
     Score         DG    S(hbond)    S(metal)    S(lipo)     H(rot)  DE(clash)    DE(int)     intcor
      9.43     -13.41       1.07        0.00      81.75       2.03       0.05       3.92       ----

> <Gold.Chemscore.Fitness>
9.4325

> <Gold.Chemscore.DG>
-13.4067

> <Gold.Chemscore.ZeroCoef>
-5.4800

> <Gold.Chemscore.Hbond>
1.0684

> <Gold.Chemscore.Metal>
0.0000

> <Gold.Chemscore.Lipo>
81.7540

> <Gold.Chemscore.Internal_Hbond>
0.0000

> <Gold.Chemscore.DEClash>
0.0531

> <Gold.Chemscore.DEInternal>
3.9210

> <Gold.Chemscore.Rot>
2.0340

> <Gold.Chemscore.Internal.Correction>
   9.000000E+99

> <Gold.Chemscore.Hbonds>
donor molecule, donor type, donor heavy atom, donor atom, acceptor molecule, acceptor atom, score
      P1  H  6933  6945       L1     7  0.04
      P1  H  7997  8009       L1    13  0.39

> <Gold.Chemscore.Hbond.Weighted>
-3.5686

> <Gold.Chemscore.Metal.Weighted>
-0.0000

> <Gold.Chemscore.Lipo.Weighted>
-9.5652

> <Gold.Chemscore.Internal_Hbond.Weighted>
0.0000

> <Gold.Chemscore.DEClash.Weighted>
0.0531

> <Gold.Chemscore.DEInternal.Weighted>
3.9210

> <Gold.Chemscore.Rot.Weighted>
5.2071

> <Gold.Chemscore.Internal.Correction.Weighted>
   9.000000E+99

> <Gold.Protein.RotatedTorsions>
[ 6907 6896 6895 6894 ] final  150.50 input  -60.11 | X-H torsion
[ 7974 7965 7964 7962 ] final -172.10 input  175.53 | X-H torsion
[ 8008 7997 7996 7995 ] final -162.84 input   59.86 | X-H torsion
[ 10167 10162 10161 10158 ] final   61.84 input  -65.29 | X-H torsion
[ 10718 10713 10712 10709 ] final   25.29 input   66.30 | X-H torsion
[ 10763 10752 10751 10750 ] final   -7.71 input  -60.55 | X-H torsion
[ 11005 11000 10999 10996 ] final  -33.34 input  -57.11 | X-H torsion

> <Gold.Protein.ActiveResidues>
 VAL166  LYS551  ARG553  GLY616  TRP617  ASP618  TYR619  PRO620  LYS621  CYS622 
 ASP623  PHE694  ASN695  SER759  ASP760  ASP761  ALA762  ILE779  LEU786  VAL792 
 PHE793  MET794  SER795  GLU796  ALA797  LYS798  CYS799  TRP800  GLU811  SER814 

> <Gold.Protein.RotatedAtoms>
  152.1135  133.4314  159.4641 H   0  0  0  0  0  0  0  0  0  0  0  0  # atno 6907 bound_to 6896
  150.6868  134.2620  159.4562 H   0  0  0  0  0  0  0  0  0  0  0  0  # atno 6908 bound_to 6896
  152.0490  134.9664  160.0625 H   0  0  0  0  0  0  0  0  0  0  0  0  # atno 6909 bound_to 6896
  144.7150  140.1822  143.6357 H   0  0  0  0  0  0  0  0  0  0  0  0  # atno 7974 bound_to 7965
  155.8126  140.0908  157.1895 H   0  0  0  0  0  0  0  0  0  0  0  0  # atno 8008 bound_to 7997
  154.3979  140.1451  156.3465 H   0  0  0  0  0  0  0  0  0  0  0  0  # atno 8009 bound_to 7997
  155.8349  140.3441  155.5598 H   0  0  0  0  0  0  0  0  0  0  0  0  # atno 8010 bound_to 7997
  140.1504  144.4468  150.6762 H   0  0  0  0  0  0  0  0  0  0  0  0  # atno 10167 bound_to 10162
  157.1914  130.6848  149.6151 H   0  0  0  0  0  0  0  0  0  0  0  0  # atno 10718 bound_to 10713
  153.4302  135.7012  153.6235 H   0  0  0  0  0  0  0  0  0  0  0  0  # atno 10763 bound_to 10752
  153.4653  135.3727  155.2361 H   0  0  0  0  0  0  0  0  0  0  0  0  # atno 10764 bound_to 10752
  154.8725  135.4030  154.3685 H   0  0  0  0  0  0  0  0  0  0  0  0  # atno 10765 bound_to 10752
  140.9626  133.7155  156.1394 H   0  0  0  0  0  0  0  0  0  0  0  0  # atno 11005 bound_to 11000
  145.8846  139.2341  143.1585 LP  0  0  0  0  0  0  0  0  0  0  0  0  # atno 17320 bound_to 7965
  145.9962  140.8560  143.0041 LP  0  0  0  0  0  0  0  0  0  0  0  0  # atno 17321 bound_to 7965
  140.6706  143.2284  151.5634 LP  0  0  0  0  0  0  0  0  0  0  0  0  # atno 17342 bound_to 10162
  139.5429  144.2600  152.1385 LP  0  0  0  0  0  0  0  0  0  0  0  0  # atno 17343 bound_to 10162
  155.9711  130.4613  150.6105 LP  0  0  0  0  0  0  0  0  0  0  0  0  # atno 17370 bound_to 10713
  157.3857  131.0788  151.1438 LP  0  0  0  0  0  0  0  0  0  0  0  0  # atno 17371 bound_to 10713
  140.7445  134.4113  157.5550 LP  0  0  0  0  0  0  0  0  0  0  0  0  # atno 17394 bound_to 11000
  139.8883  134.8859  156.2479 LP  0  0  0  0  0  0  0  0  0  0  0  0  # atno 17395 bound_to 11000

$$$$
