AV-unprocessed.smi:179|AV-procd|sdf|1449|dock2
  -GOLD-   2262019243D 1   1.00000     0.00000
 Structure written by MMmdl.
 44 47  0  0  0  0  0  0  0  0  1 V2000
  146.8118  132.4661  149.2950 O   0  0  0  0  0  0  0  0  0  0  0  0
  145.6283  131.9449  149.8663 C   0  0  0  0  0  0  0  0  0  0  0  0
  144.7683  133.0310  150.5428 C   0  0  0  0  0  0  0  0  0  0  0  0
  143.3493  132.4538  150.7039 C   0  0  0  0  0  0  0  0  0  0  0  0
  142.8056  132.0552  149.4614 O   0  0  0  0  0  0  0  0  0  0  0  0
  145.3519  133.7127  151.8034 C   0  0  0  0  0  0  0  0  0  0  0  0
  144.8302  135.0614  151.3012 C   0  0  0  0  0  0  0  0  0  0  0  0
  145.5387  136.2823  151.5691 N   0  0  0  0  0  0  0  0  0  0  0  0
  145.9473  137.2112  150.6375 C   0  0  0  0  0  0  0  0  0  0  0  0
  146.5720  138.2503  151.1203 N   0  0  0  0  0  0  0  0  0  0  0  0
  146.5957  138.0243  152.4901 C   0  0  0  0  0  0  0  0  0  0  0  0
  147.1140  138.7586  153.5909 C   0  0  0  0  0  0  0  0  0  0  0  0
  147.7786  140.0044  153.4167 N   0  0  0  0  0  0  0  0  0  0  0  0
  147.2799  141.1070  154.2331 C   0  0  0  0  0  0  0  0  0  0  0  0
  148.6608  141.2061  154.8875 C   0  0  0  0  0  0  0  0  0  0  0  0
  149.3491  142.4194  154.6598 O   0  0  0  0  0  0  0  0  0  0  0  0
  148.7611  141.0206  156.4068 C   0  0  0  0  0  0  0  0  0  0  0  0
  150.0370  141.0327  156.7953 F   0  0  0  0  0  0  0  0  0  0  0  0
  148.1108  141.9798  157.0635 F   0  0  0  0  0  0  0  0  0  0  0  0
  149.1189  140.0515  153.9902 C   0  0  0  0  0  0  0  0  0  0  0  0
  146.9483  138.2068  154.8232 N   0  0  0  0  0  0  0  0  0  0  0  0
  146.3243  137.0347  154.9711 C   0  0  0  0  0  0  0  0  0  0  0  0
  145.7927  136.2508  154.0330 N   0  0  0  0  0  0  0  0  0  0  0  0
  145.9524  136.7900  152.7911 C   0  0  0  0  0  0  0  0  0  0  0  0
  144.8065  134.4389  149.9021 C   0  0  0  0  0  0  0  0  0  0  0  0
  147.5483  132.1747  149.8103 H   0  0  0  0  0  0  0  0  0  0  0  0
  145.0687  131.4441  149.0755 H   0  0  0  0  0  0  0  0  0  0  0  0
  145.9219  131.1749  150.5803 H   0  0  0  0  0  0  0  0  0  0  0  0
  143.3483  131.5841  151.3614 H   0  0  0  0  0  0  0  0  0  0  0  0
  142.6792  133.1822  151.1617 H   0  0  0  0  0  0  0  0  0  0  0  0
  142.0857  132.6298  149.2494 H   0  0  0  0  0  0  0  0  0  0  0  0
  144.9124  133.3896  152.7475 H   0  0  0  0  0  0  0  0  0  0  0  0
  146.4404  133.6727  151.8553 H   0  0  0  0  0  0  0  0  0  0  0  0
  143.8086  135.2141  151.6536 H   0  0  0  0  0  0  0  0  0  0  0  0
  145.7653  137.0963  149.5789 H   0  0  0  0  0  0  0  0  0  0  0  0
  147.0195  141.9773  153.6301 H   0  0  0  0  0  0  0  0  0  0  0  0
  146.4786  140.8455  154.9253 H   0  0  0  0  0  0  0  0  0  0  0  0
  148.8346  143.1057  155.0568 H   0  0  0  0  0  0  0  0  0  0  0  0
  148.3290  140.0740  156.7343 H   0  0  0  0  0  0  0  0  0  0  0  0
  149.4096  139.1514  154.5337 H   0  0  0  0  0  0  0  0  0  0  0  0
  149.8704  140.3375  153.2534 H   0  0  0  0  0  0  0  0  0  0  0  0
  146.2397  136.6735  155.9855 H   0  0  0  0  0  0  0  0  0  0  0  0
  145.7155  134.6398  149.3346 H   0  0  0  0  0  0  0  0  0  0  0  0
  143.9254  134.6964  149.3136 H   0  0  0  0  0  0  0  0  0  0  0  0
  1  2  1  0  0  0  0
  1 26  1  0  0  0  0
  2  3  1  0  0  0  0
  2 27  1  0  0  0  0
  2 28  1  0  0  0  0
  3 25  1  0  0  0  0
  3  4  1  0  0  0  0
  3  6  1  0  0  0  0
  4  5  1  0  0  0  0
  4 29  1  0  0  0  0
  4 30  1  0  0  0  0
  5 31  1  0  0  0  0
  6  7  1  0  0  0  0
  6 32  1  0  0  0  0
  6 33  1  0  0  0  0
  7  8  1  0  0  0  0
  7 25  1  0  0  0  0
  7 34  1  0  0  0  0
  8 24  1  0  0  0  0
  8  9  1  0  0  0  0
  9 10  2  0  0  0  0
  9 35  1  0  0  0  0
 10 11  1  0  0  0  0
 11 24  2  0  0  0  0
 11 12  1  0  0  0  0
 12 13  1  0  0  0  0
 12 21  2  0  0  0  0
 13 20  1  0  0  0  0
 13 14  1  0  0  0  0
 14 15  1  0  0  0  0
 14 36  1  0  0  0  0
 14 37  1  0  0  0  0
 15 16  1  0  0  0  0
 15 17  1  0  0  0  0
 15 20  1  0  0  0  0
 16 38  1  0  0  0  0
 17 18  1  0  0  0  0
 17 19  1  0  0  0  0
 17 39  1  0  0  0  0
 20 40  1  0  0  0  0
 20 41  1  0  0  0  0
 21 22  1  0  0  0  0
 22 23  2  0  0  0  0
 22 42  1  0  0  0  0
 23 24  1  0  0  0  0
 25 43  1  0  0  0  0
 25 44  1  0  0  0  0
M  END
> <s_m_source_file>
AV-unprocessed.smi

> <i_m_source_file_index>
179

> <i_lp_mmshare_version>
43012

> <i_f3d_flags>
0

> <s_epik_input>
W09IXVtDSDJdQzEoW0NIMl1bT0hdKVtDSDJdW0NIXShbQ0gyXTEpbihbY0hdbjIpYyhjMjMpbltjSF1uYzNOKFtDSDJdNClbQ0gyXUM0KFtPSF0pW0NIXShGKUY=

> <s_epik_cmdline>
J2VwaWtfcHl0aG9uJywgJy1waCcsICc3LjAnLCAnLXRuJywgJzgnLCAnLW1hJywgJzIwMCcsICctbWV0YWxfYmluZGluZycsICctaW1hZScsICc8aW5maWxlLm1hZT4nLCAnLW9tYWUnLCAnPG91dGZpbGUubWFlPic=

> <r_lp_tautomer_probability>
1

> <r_epik_Ionization_Penalty>
0.00851647

> <r_epik_Ionization_Penalty_Charging>
0

> <r_epik_Ionization_Penalty_Neutral>
0.00851647

> <r_epik_State_Penalty>
0.00617896

> <r_epik_Charging_Adjusted_Penalty>
0.00617896

> <i_epik_Tot_Q>
0

> <i_epik_Tot_abs_Q>
0

> <r_epik_Metal_State_Penalty>
0.00609441

> <b_epik_Metal_Only>
0

> <s_lp_Force_Field>
OPLS_2005

> <r_lp_Energy>
53.402

> <b_lp_Chiralities_Consistent>
1

> <s_lp_Variant>
AV-unprocessed.smi:179-1

> <Gold.Version>
5.8.1

> <Gold.Id.Protein>
6NUR|6NUR_protein|mol2

> <Gold.PLP.Fitness>
47.7783

> <Gold.PLP.PLP>
-36.3519

> <Gold.PLP.part.hbond>
-8.6274

> <Gold.PLP.part.metal>
0.0000

> <Gold.PLP.part.buried>
6.1772

> <Gold.PLP.part.nonpolar>
-36.3991

> <Gold.PLP.part.repulsive>
2.6182

> <Gold.PLP.ligand.clash>
0.0000

> <Gold.PLP.ligand.torsion>
0.7757

> <Gold.PLP.Chemscore.Hbond>
3.9164

> <Gold.PLP.Chemscore.CHOScore>
0.1816

> <Gold.PLP.Chemscore.Metal>
0.0000

> <Gold.Chemscore.Hbonds>
donor molecule, donor type, donor heavy atom, donor atom, acceptor molecule, acceptor atom, score
      L1  H     1    26       P1 10747  1.00
      L1  H     5    31       P1 10186  0.83
      L1  H    16    38       P1  8028  0.90
      P1  H  7954  7966       L1    10  0.48
      P1  H  8011  8017       L1    16  0.02
      P1  H 10785 10796       L1     5  0.88
      L1  C     9    35       P1 10171  0.19

> <Gold.PLP.Chemscore.Internal.Correction>
0.6840

> <Gold.Rescore>
     Score         DG    S(hbond)    S(metal)    S(lipo)     H(rot)  DE(clash)    DE(int)     intcor
     11.02     -14.49       3.47        0.00      70.32       4.22       2.70       0.78       ----

> <Gold.Chemscore.Fitness>
11.0204

> <Gold.Chemscore.DG>
-14.4950

> <Gold.Chemscore.ZeroCoef>
-5.4800

> <Gold.Chemscore.Hbond>
3.4726

> <Gold.Chemscore.Metal>
0.0000

> <Gold.Chemscore.Lipo>
70.3189

> <Gold.Chemscore.Internal_Hbond>
0.0000

> <Gold.Chemscore.DEClash>
2.6950

> <Gold.Chemscore.DEInternal>
0.7795

> <Gold.Chemscore.Rot>
4.2230

> <Gold.Chemscore.Internal.Correction>
   9.000000E+99

> <Gold.Chemscore.Hbonds>
donor molecule, donor type, donor heavy atom, donor atom, acceptor molecule, acceptor atom, score
      L1  H     1    26       P1 10747  0.94
      L1  H     5    31       P1 10186  0.79
      L1  H    16    38       P1  8028  0.88
      P1  H  7954  7966       L1    10  0.02
      P1  H  8011  8017       L1    16  0.02
      P1  H 10785 10796       L1     5  0.84

> <Gold.Chemscore.Hbond.Weighted>
-11.5986

> <Gold.Chemscore.Metal.Weighted>
-0.0000

> <Gold.Chemscore.Lipo.Weighted>
-8.2273

> <Gold.Chemscore.Internal_Hbond.Weighted>
0.0000

> <Gold.Chemscore.DEClash.Weighted>
2.6950

> <Gold.Chemscore.DEInternal.Weighted>
0.7795

> <Gold.Chemscore.Rot.Weighted>
10.8110

> <Gold.Chemscore.Internal.Correction.Weighted>
   9.000000E+99

> <Gold.Protein.RotatedTorsions>
[ 6907 6896 6895 6894 ] final  -58.97 input  -60.11 | X-H torsion
[ 7974 7965 7964 7962 ] final  -58.34 input  175.53 | X-H torsion
[ 8008 7997 7996 7995 ] final  -94.27 input   59.86 | X-H torsion
[ 10167 10162 10161 10158 ] final  121.48 input  -65.29 | X-H torsion
[ 10718 10713 10712 10709 ] final  -50.41 input   66.30 | X-H torsion
[ 10763 10752 10751 10750 ] final  -55.49 input  -60.55 | X-H torsion
[ 11005 11000 10999 10996 ] final  162.47 input  -57.11 | X-H torsion

> <Gold.Protein.ActiveResidues>
 VAL166  LYS551  ARG553  GLY616  TRP617  ASP618  TYR619  PRO620  LYS621  CYS622 
 ASP623  PHE694  ASN695  SER759  ASP760  ASP761  ALA762  ILE779  LEU786  VAL792 
 PHE793  MET794  SER795  GLU796  ALA797  LYS798  CYS799  TRP800  GLU811  SER814 

> <Gold.Protein.RotatedAtoms>
  150.7966  134.7029  159.6559 H   0  0  0  0  0  0  0  0  0  0  0  0  # atno 6907 bound_to 6896
  152.4078  134.6173  160.0051 H   0  0  0  0  0  0  0  0  0  0  0  0  # atno 6908 bound_to 6896
  151.6425  133.3288  159.3169 H   0  0  0  0  0  0  0  0  0  0  0  0  # atno 6909 bound_to 6896
  145.8404  140.8421  143.0037 H   0  0  0  0  0  0  0  0  0  0  0  0  # atno 7974 bound_to 7965
  154.7463  140.0491  157.0855 H   0  0  0  0  0  0  0  0  0  0  0  0  # atno 8008 bound_to 7997
  155.0114  140.3136  155.4809 H   0  0  0  0  0  0  0  0  0  0  0  0  # atno 8009 bound_to 7997
  156.2875  140.2183  156.5228 H   0  0  0  0  0  0  0  0  0  0  0  0  # atno 8010 bound_to 7997
  139.5917  144.7027  151.3275 H   0  0  0  0  0  0  0  0  0  0  0  0  # atno 10167 bound_to 10162
  156.1803  130.4150  149.9516 H   0  0  0  0  0  0  0  0  0  0  0  0  # atno 10718 bound_to 10713
  154.1916  135.6426  153.5061 H   0  0  0  0  0  0  0  0  0  0  0  0  # atno 10763 bound_to 10752
  153.0033  135.5430  154.6409 H   0  0  0  0  0  0  0  0  0  0  0  0  # atno 10764 bound_to 10752
  154.5799  135.2924  155.0716 H   0  0  0  0  0  0  0  0  0  0  0  0  # atno 10765 bound_to 10752
  140.2260  134.8160  157.3269 H   0  0  0  0  0  0  0  0  0  0  0  0  # atno 11005 bound_to 11000
  144.6734  140.0804  143.7469 LP  0  0  0  0  0  0  0  0  0  0  0  0  # atno 17320 bound_to 7965
  145.9471  139.2708  143.1234 LP  0  0  0  0  0  0  0  0  0  0  0  0  # atno 17321 bound_to 7965
  140.7178  143.7218  150.7690 LP  0  0  0  0  0  0  0  0  0  0  0  0  # atno 17342 bound_to 10162
  140.0776  143.5000  152.2547 LP  0  0  0  0  0  0  0  0  0  0  0  0  # atno 17343 bound_to 10162
  156.7289  130.9035  151.3624 LP  0  0  0  0  0  0  0  0  0  0  0  0  # atno 17370 bound_to 10713
  157.6864  130.9189  150.0397 LP  0  0  0  0  0  0  0  0  0  0  0  0  # atno 17371 bound_to 10713
  140.1800  134.4502  155.7778 LP  0  0  0  0  0  0  0  0  0  0  0  0  # atno 17394 bound_to 11000
  141.2220  133.6979  156.7851 LP  0  0  0  0  0  0  0  0  0  0  0  0  # atno 17395 bound_to 11000

$$$$
