AV-unprocessed.smi:185|AV-procd|sdf|1465|dock7
  -GOLD-   2262019273D 1   1.00000     0.00000
 Structure written by MMmdl.
 53 56  0  0  0  0  0  0  0  0  1 V2000
  151.4315  137.8532  159.4546 C   0  0  0  0  0  0  0  0  0  0  0  0
  151.6490  138.6646  158.2593 N   0  0  0  0  0  0  0  0  0  0  0  0
  151.5609  140.1146  158.4258 C   0  0  0  0  0  0  0  0  0  0  0  0
  152.8200  140.7157  159.0807 C   0  0  0  0  0  0  0  0  0  0  0  0
  152.6749  142.1530  159.2864 N   0  0  0  0  0  0  0  0  0  0  0  0
  152.3185  143.0321  158.1856 C   0  0  0  0  0  0  0  0  0  0  0  0
  152.4845  144.4546  158.7403 C   0  0  0  0  0  0  0  0  0  0  0  0
  152.6243  144.2987  160.2588 C   0  0  0  0  0  0  0  0  0  0  0  0
  152.8569  142.8084  160.4394 C   0  0  0  0  0  0  0  0  0  0  0  0
  153.1716  142.3077  161.5187 O   0  0  0  0  0  0  0  0  0  0  0  0
  151.2811  138.1440  157.0533 C   0  0  0  0  0  0  0  0  0  0  0  0
  151.3332  138.9374  155.9484 N   0  0  0  0  0  0  0  0  0  0  0  0
  151.0239  138.4532  154.7428 C   0  0  0  0  0  0  0  0  0  0  0  0
  150.6446  137.2189  154.4133 N   0  0  0  0  0  0  0  0  0  0  0  0
  150.5740  136.4156  155.5122 C   0  0  0  0  0  0  0  0  0  0  0  0
  150.8579  136.7939  156.8570 C   0  0  0  0  0  0  0  0  0  0  0  0
  150.6388  135.7071  157.6973 N   0  0  0  0  0  0  0  0  0  0  0  0
  150.2797  134.7418  156.8982 C   0  0  0  0  0  0  0  0  0  0  0  0
  150.2301  135.0760  155.5653 N   0  0  0  0  0  0  0  0  0  0  0  0
  149.8810  134.1956  154.4611 C   0  0  0  0  0  0  0  0  0  0  0  0
  148.3633  133.9014  154.3509 C   0  0  0  0  0  0  0  0  0  0  0  0
  147.6881  135.1423  154.2400 O   0  0  0  0  0  0  0  0  0  0  0  0
  148.0093  133.0451  153.1143 C   0  0  0  0  0  0  0  0  0  0  0  0
  146.5414  132.5829  153.1295 C   0  0  0  0  0  0  0  0  0  0  0  0
  146.2566  131.8943  154.3410 O   0  0  0  0  0  0  0  0  0  0  0  0
  146.4008  132.7212  155.4894 C   0  0  0  0  0  0  0  0  0  0  0  0
  147.8615  133.1880  155.6225 C   0  0  0  0  0  0  0  0  0  0  0  0
  151.8625  136.8586  159.3336 H   0  0  0  0  0  0  0  0  0  0  0  0
  150.3663  137.7493  159.6654 H   0  0  0  0  0  0  0  0  0  0  0  0
  151.9039  138.3124  160.3234 H   0  0  0  0  0  0  0  0  0  0  0  0
  151.4210  140.5709  157.4454 H   0  0  0  0  0  0  0  0  0  0  0  0
  150.6665  140.3820  158.9828 H   0  0  0  0  0  0  0  0  0  0  0  0
  153.0119  140.2498  160.0485 H   0  0  0  0  0  0  0  0  0  0  0  0
  153.6973  140.5124  158.4654 H   0  0  0  0  0  0  0  0  0  0  0  0
  152.9555  142.8625  157.3167 H   0  0  0  0  0  0  0  0  0  0  0  0
  151.2845  142.8424  157.8944 H   0  0  0  0  0  0  0  0  0  0  0  0
  153.3858  144.9133  158.3312 H   0  0  0  0  0  0  0  0  0  0  0  0
  151.6419  145.0926  158.4717 H   0  0  0  0  0  0  0  0  0  0  0  0
  153.4525  144.8838  160.6599 H   0  0  0  0  0  0  0  0  0  0  0  0
  151.7080  144.5871  160.7747 H   0  0  0  0  0  0  0  0  0  0  0  0
  151.0986  139.1535  153.9242 H   0  0  0  0  0  0  0  0  0  0  0  0
  150.0514  133.7503  157.2611 H   0  0  0  0  0  0  0  0  0  0  0  0
  150.2380  134.6592  153.5405 H   0  0  0  0  0  0  0  0  0  0  0  0
  150.4429  133.2666  154.5693 H   0  0  0  0  0  0  0  0  0  0  0  0
  148.1374  135.6734  153.6007 H   0  0  0  0  0  0  0  0  0  0  0  0
  148.2073  133.5913  152.1909 H   0  0  0  0  0  0  0  0  0  0  0  0
  148.6507  132.1630  153.0929 H   0  0  0  0  0  0  0  0  0  0  0  0
  145.8622  133.4284  153.0098 H   0  0  0  0  0  0  0  0  0  0  0  0
  146.3554  131.9101  152.2924 H   0  0  0  0  0  0  0  0  0  0  0  0
  145.7189  133.5707  155.4294 H   0  0  0  0  0  0  0  0  0  0  0  0
  146.1120  132.1483  156.3708 H   0  0  0  0  0  0  0  0  0  0  0  0
  148.4850  132.3138  155.8155 H   0  0  0  0  0  0  0  0  0  0  0  0
  147.9686  133.8368  156.4929 H   0  0  0  0  0  0  0  0  0  0  0  0
  1  2  1  0  0  0  0
  1 28  1  0  0  0  0
  1 29  1  0  0  0  0
  1 30  1  0  0  0  0
  2  3  1  0  0  0  0
  2 11  1  0  0  0  0
  3  4  1  0  0  0  0
  3 31  1  0  0  0  0
  3 32  1  0  0  0  0
  4  5  1  0  0  0  0
  4 33  1  0  0  0  0
  4 34  1  0  0  0  0
  5  9  1  0  0  0  0
  5  6  1  0  0  0  0
  6  7  1  0  0  0  0
  6 35  1  0  0  0  0
  6 36  1  0  0  0  0
  7  8  1  0  0  0  0
  7 37  1  0  0  0  0
  7 38  1  0  0  0  0
  8  9  1  0  0  0  0
  8 39  1  0  0  0  0
  8 40  1  0  0  0  0
  9 10  2  0  0  0  0
 11 16  1  0  0  0  0
 11 12  2  0  0  0  0
 12 13  1  0  0  0  0
 13 14  2  0  0  0  0
 13 41  1  0  0  0  0
 14 15  1  0  0  0  0
 15 19  1  0  0  0  0
 15 16  2  0  0  0  0
 16 17  1  0  0  0  0
 17 18  2  0  0  0  0
 18 19  1  0  0  0  0
 18 42  1  0  0  0  0
 19 20  1  0  0  0  0
 20 21  1  0  0  0  0
 20 43  1  0  0  0  0
 20 44  1  0  0  0  0
 21 27  1  0  0  0  0
 21 22  1  0  0  0  0
 21 23  1  0  0  0  0
 22 45  1  0  0  0  0
 23 24  1  0  0  0  0
 23 46  1  0  0  0  0
 23 47  1  0  0  0  0
 24 25  1  0  0  0  0
 24 48  1  0  0  0  0
 24 49  1  0  0  0  0
 25 26  1  0  0  0  0
 26 27  1  0  0  0  0
 26 50  1  0  0  0  0
 26 51  1  0  0  0  0
 27 52  1  0  0  0  0
 27 53  1  0  0  0  0
M  END
> <s_m_source_file>
AV-unprocessed.smi

> <i_m_source_file_index>
185

> <i_lp_mmshare_version>
43012

> <i_f3d_flags>
0

> <s_epik_input>
Tz1DMVtDSDJdW0NIMl1bQ0gyXU4xW0NIMl1bQ0gyXU4oW0NIM10pYyhuW2NIXW4yKWMoYzIzKW5bY0hdbjNbQ0gyXUM0KFtPSF0pW0NIMl1bQ0gyXU9bQ0gyXVtDSDJdNA==

> <s_epik_cmdline>
J2VwaWtfcHl0aG9uJywgJy1waCcsICc3LjAnLCAnLXRuJywgJzgnLCAnLW1hJywgJzIwMCcsICctbWV0YWxfYmluZGluZycsICctaW1hZScsICc8aW5maWxlLm1hZT4nLCAnLW9tYWUnLCAnPG91dGZpbGUubWFlPic=

> <r_lp_tautomer_probability>
1

> <r_epik_Ionization_Penalty>
0.00150291

> <r_epik_Ionization_Penalty_Charging>
0

> <r_epik_Ionization_Penalty_Neutral>
0.00150291

> <r_epik_State_Penalty>
0.000836254

> <r_epik_Charging_Adjusted_Penalty>
0.000836254

> <i_epik_Tot_Q>
0

> <i_epik_Tot_abs_Q>
0

> <r_epik_Metal_State_Penalty>
-0

> <b_epik_Metal_Only>
0

> <s_lp_Force_Field>
OPLS_2005

> <r_lp_Energy>
31.6945

> <b_lp_Chiralities_Consistent>
1

> <s_lp_Variant>
AV-unprocessed.smi:185-1

> <Gold.Version>
5.8.1

> <Gold.Id.Protein>
6NUR|6NUR_protein|mol2

> <Gold.PLP.Fitness>
48.1109

> <Gold.PLP.PLP>
-44.6981

> <Gold.PLP.part.hbond>
-2.0000

> <Gold.PLP.part.metal>
0.0000

> <Gold.PLP.part.buried>
-8.4960

> <Gold.PLP.part.nonpolar>
-36.3738

> <Gold.PLP.part.repulsive>
0.3975

> <Gold.PLP.ligand.clash>
0.0000

> <Gold.PLP.ligand.torsion>
0.5850

> <Gold.PLP.Chemscore.Hbond>
1.3198

> <Gold.PLP.Chemscore.CHOScore>
0.0000

> <Gold.PLP.Chemscore.Metal>
0.0000

> <Gold.Chemscore.Hbonds>
donor molecule, donor type, donor heavy atom, donor atom, acceptor molecule, acceptor atom, score
      L1  H    22    45       P1  7948  1.00
      P1  H  6896  6909       L1    17  0.34

> <Gold.PLP.Chemscore.Internal.Correction>
0.6234

> <Gold.Rescore>
     Score         DG    S(hbond)    S(metal)    S(lipo)     H(rot)  DE(clash)    DE(int)     intcor
     11.71     -13.49       1.56        0.00      83.75       2.73       0.02       1.76       ----

> <Gold.Chemscore.Fitness>
11.7076

> <Gold.Chemscore.DG>
-13.4905

> <Gold.Chemscore.ZeroCoef>
-5.4800

> <Gold.Chemscore.Hbond>
1.5583

> <Gold.Chemscore.Metal>
0.0000

> <Gold.Chemscore.Lipo>
83.7522

> <Gold.Chemscore.Internal_Hbond>
0.0000

> <Gold.Chemscore.DEClash>
0.0234

> <Gold.Chemscore.DEInternal>
1.7596

> <Gold.Chemscore.Rot>
2.7318

> <Gold.Chemscore.Internal.Correction>
   9.000000E+99

> <Gold.Chemscore.Hbonds>
donor molecule, donor type, donor heavy atom, donor atom, acceptor molecule, acceptor atom, score
      L1  H    22    45       P1  7948  0.96
      P1  H  6896  6909       L1    17  0.07

> <Gold.Chemscore.Hbond.Weighted>
-5.2048

> <Gold.Chemscore.Metal.Weighted>
-0.0000

> <Gold.Chemscore.Lipo.Weighted>
-9.7990

> <Gold.Chemscore.Internal_Hbond.Weighted>
0.0000

> <Gold.Chemscore.DEClash.Weighted>
0.0234

> <Gold.Chemscore.DEInternal.Weighted>
1.7596

> <Gold.Chemscore.Rot.Weighted>
6.9933

> <Gold.Chemscore.Internal.Correction.Weighted>
   9.000000E+99

> <Gold.Protein.RotatedTorsions>
[ 6907 6896 6895 6894 ] final   49.80 input  -60.11 | X-H torsion
[ 7974 7965 7964 7962 ] final  159.87 input  175.53 | X-H torsion
[ 8008 7997 7996 7995 ] final  -67.39 input   59.86 | X-H torsion
[ 10167 10162 10161 10158 ] final  -18.23 input  -65.29 | X-H torsion
[ 10718 10713 10712 10709 ] final  -65.10 input   66.30 | X-H torsion
[ 10763 10752 10751 10750 ] final -149.16 input  -60.55 | X-H torsion
[ 11005 11000 10999 10996 ] final  -89.75 input  -57.11 | X-H torsion

> <Gold.Protein.ActiveResidues>
 VAL166  LYS551  ARG553  GLY616  TRP617  ASP618  TYR619  PRO620  LYS621  CYS622 
 ASP623  PHE694  ASN695  SER759  ASP760  ASP761  ALA762  ILE779  LEU786  VAL792 
 PHE793  MET794  SER795  GLU796  ALA797  LYS798  CYS799  TRP800  GLU811  SER814 

> <Gold.Protein.RotatedAtoms>
  152.2947  134.7680  160.0370 H   0  0  0  0  0  0  0  0  0  0  0  0  # atno 6907 bound_to 6896
  151.8214  133.3390  159.3593 H   0  0  0  0  0  0  0  0  0  0  0  0  # atno 6908 bound_to 6896
  150.7246  134.5499  159.5834 H   0  0  0  0  0  0  0  0  0  0  0  0  # atno 6909 bound_to 6896
  144.7767  139.7678  143.6276 H   0  0  0  0  0  0  0  0  0  0  0  0  # atno 7974 bound_to 7965
  154.4797  140.0893  156.7347 H   0  0  0  0  0  0  0  0  0  0  0  0  # atno 8008 bound_to 7997
  155.4503  140.3457  155.4282 H   0  0  0  0  0  0  0  0  0  0  0  0  # atno 8009 bound_to 7997
  156.1172  140.1464  156.9244 H   0  0  0  0  0  0  0  0  0  0  0  0  # atno 8010 bound_to 7997
  140.7256  143.4937  150.9959 H   0  0  0  0  0  0  0  0  0  0  0  0  # atno 10167 bound_to 10162
  156.0689  130.4242  150.1516 H   0  0  0  0  0  0  0  0  0  0  0  0  # atno 10718 bound_to 10713
  154.8193  135.3316  154.7085 H   0  0  0  0  0  0  0  0  0  0  0  0  # atno 10763 bound_to 10752
  153.7721  135.6925  153.4909 H   0  0  0  0  0  0  0  0  0  0  0  0  # atno 10764 bound_to 10752
  153.2038  135.4506  155.0246 H   0  0  0  0  0  0  0  0  0  0  0  0  # atno 10765 bound_to 10752
  141.1579  133.7649  156.9640 H   0  0  0  0  0  0  0  0  0  0  0  0  # atno 11005 bound_to 11000
  146.1950  139.5212  142.9780 LP  0  0  0  0  0  0  0  0  0  0  0  0  # atno 17320 bound_to 7965
  145.6166  141.0330  143.1937 LP  0  0  0  0  0  0  0  0  0  0  0  0  # atno 17321 bound_to 7965
  139.8642  143.7275  152.3171 LP  0  0  0  0  0  0  0  0  0  0  0  0  # atno 17342 bound_to 10162
  139.7501  144.7536  151.0520 LP  0  0  0  0  0  0  0  0  0  0  0  0  # atno 17343 bound_to 10162
  156.9570  130.9793  151.3487 LP  0  0  0  0  0  0  0  0  0  0  0  0  # atno 17370 bound_to 10713
  157.5748  130.8335  149.8441 LP  0  0  0  0  0  0  0  0  0  0  0  0  # atno 17371 bound_to 10713
  140.1174  134.9439  157.2154 LP  0  0  0  0  0  0  0  0  0  0  0  0  # atno 17394 bound_to 11000
  140.3116  134.3018  155.7265 LP  0  0  0  0  0  0  0  0  0  0  0  0  # atno 17395 bound_to 11000

$$$$
