AV-unprocessed.smi:1005|AV-procd|sdf|4380|dock5
  -GOLD-   22720 2303D 1   1.00000     0.00000
 Structure written by MMmdl.
 58 60  0  0  0  0  0  0  0  0  4 V2000
  152.8057  143.5395  161.3930 C   0  0  0  0  0  0  0  0  0  0  0  0
  152.2926  143.0617  160.0451 C   0  0  0  0  0  0  0  0  0  0  0  0
  152.4262  141.6936  159.7182 C   0  0  0  0  0  0  0  0  0  0  0  0
  151.9505  141.2882  158.4768 C   0  0  0  0  0  0  0  0  0  0  0  0
  151.9367  140.0307  157.8699 N   0  3  0  0  0  0  0  0  0  0  0  0
  151.3671  140.1271  156.6370 C   0  0  0  0  0  0  0  0  0  0  0  0
  151.0088  141.4267  156.4499 N   0  0  0  0  0  0  0  0  0  0  0  0
  150.3789  142.0623  155.2835 C   0  0  0  0  0  0  0  0  0  0  0  0
  149.2387  141.2220  154.6738 C   0  0  2  0  0  0  0  0  0  0  0  0
  149.7502  140.6177  153.5033 O   0  0  0  0  0  0  0  0  0  0  0  0
  147.9892  142.0524  154.3065 C   0  0  0  0  0  0  0  0  0  0  0  0
  147.2868  142.5980  155.4996 N   0  3  2  0  0  0  0  0  0  0  0  0
  147.3502  141.7089  156.6847 C   0  0  0  0  0  0  0  0  0  0  0  0
  146.3448  140.5513  156.5640 C   0  0  0  0  0  0  0  0  0  0  0  0
  145.0367  141.0832  156.3937 O   0  0  0  0  0  0  0  0  0  0  0  0
  144.9051  141.8475  155.1993 C   0  0  1  0  0  0  0  0  0  0  0  0
  143.4434  142.3254  155.1038 C   0  0  0  0  0  0  0  0  0  0  0  0
  142.5181  141.2694  154.6166 N   0  3  0  0  0  0  0  0  0  0  0  0
  141.1375  141.7542  154.3843 C   0  0  0  0  0  0  0  0  0  0  0  0
  142.5312  140.0742  155.4892 C   0  0  0  0  0  0  0  0  0  0  0  0
  145.8891  143.0397  155.2551 C   0  0  0  0  0  0  0  0  0  0  0  0
  151.3597  142.1904  157.5705 C   0  0  0  0  0  0  0  0  0  0  0  0
  151.2215  143.5425  157.8773 C   0  0  0  0  0  0  0  0  0  0  0  0
  151.6966  143.9740  159.1363 C   0  0  0  0  0  0  0  0  0  0  0  0
  151.5580  145.4430  159.4981 C   0  0  0  0  0  0  0  0  0  0  0  0
  153.2228  142.7182  161.9764 H   0  0  0  0  0  0  0  0  0  0  0  0
  151.9988  143.9845  161.9756 H   0  0  0  0  0  0  0  0  0  0  0  0
  153.5900  144.2853  161.2611 H   0  0  0  0  0  0  0  0  0  0  0  0
  152.8831  140.9944  160.4035 H   0  0  0  0  0  0  0  0  0  0  0  0
  151.2319  139.3194  155.9316 H   0  0  0  0  0  0  0  0  0  0  0  0
  150.0352  143.0607  155.5546 H   0  0  0  0  0  0  0  0  0  0  0  0
  151.1675  142.2068  154.5434 H   0  0  0  0  0  0  0  0  0  0  0  0
  148.9821  140.4299  155.3768 H   0  0  0  0  0  0  0  0  0  0  0  0
  149.3342  139.7786  153.3789 H   0  0  0  0  0  0  0  0  0  0  0  0
  148.2525  142.8698  153.6374 H   0  0  0  0  0  0  0  0  0  0  0  0
  147.3103  141.4110  153.7421 H   0  0  0  0  0  0  0  0  0  0  0  0
  148.3630  141.3323  156.8333 H   0  0  0  0  0  0  0  0  0  0  0  0
  147.1123  142.3000  157.5701 H   0  0  0  0  0  0  0  0  0  0  0  0
  146.5979  139.8883  155.7352 H   0  0  0  0  0  0  0  0  0  0  0  0
  146.3621  139.9459  157.4705 H   0  0  0  0  0  0  0  0  0  0  0  0
  145.1434  141.2221  154.3397 H   0  0  0  0  0  0  0  0  0  0  0  0
  143.1262  142.6527  156.0954 H   0  0  0  0  0  0  0  0  0  0  0  0
  143.3667  143.1994  154.4552 H   0  0  0  0  0  0  0  0  0  0  0  0
  140.6972  142.1367  155.3060 H   0  0  0  0  0  0  0  0  0  0  0  0
  140.5043  140.9449  154.0187 H   0  0  0  0  0  0  0  0  0  0  0  0
  141.1080  142.5454  153.6364 H   0  0  0  0  0  0  0  0  0  0  0  0
  142.1728  140.3165  156.4904 H   0  0  0  0  0  0  0  0  0  0  0  0
  143.5391  139.6666  155.5750 H   0  0  0  0  0  0  0  0  0  0  0  0
  141.8947  139.2892  155.0789 H   0  0  0  0  0  0  0  0  0  0  0  0
  145.6042  143.7044  156.0722 H   0  0  0  0  0  0  0  0  0  0  0  0
  145.8224  143.6349  154.3452 H   0  0  0  0  0  0  0  0  0  0  0  0
  150.7724  144.2415  157.1877 H   0  0  0  0  0  0  0  0  0  0  0  0
  151.0725  146.0073  158.7012 H   0  0  0  0  0  0  0  0  0  0  0  0
  152.5380  145.8882  159.6718 H   0  0  0  0  0  0  0  0  0  0  0  0
  150.9588  145.5609  160.4015 H   0  0  0  0  0  0  0  0  0  0  0  0
  142.8762  140.9605  153.7235 H   0  0  0  0  0  0  0  0  0  0  0  0
  147.8118  143.4229  155.7540 H   0  0  0  0  0  0  0  0  0  0  0  0
  152.3015  139.1709  158.2606 H   0  0  0  0  0  0  0  0  0  0  0  0
  1  2  1  0  0  0  0
  1 26  1  0  0  0  0
  1 27  1  0  0  0  0
  1 28  1  0  0  0  0
  2 24  1  0  0  0  0
  2  3  2  0  0  0  0
  3  4  1  0  0  0  0
  3 29  1  0  0  0  0
  4 22  2  0  0  0  0
  4  5  1  0  0  0  0
  5  6  2  0  0  0  0
  5 58  1  0  0  0  0
  6  7  1  0  0  0  0
  6 30  1  0  0  0  0
  7  8  1  0  0  0  0
  7 22  1  0  0  0  0
  8  9  1  0  0  0  0
  8 31  1  0  0  0  0
  8 32  1  0  0  0  0
  9 10  1  0  0  0  0
  9 11  1  0  0  0  0
  9 33  1  0  0  0  0
 10 34  1  0  0  0  0
 11 12  1  0  0  0  0
 11 35  1  0  0  0  0
 11 36  1  0  0  0  0
 12 21  1  0  0  0  0
 12 13  1  0  0  0  0
 12 57  1  0  0  0  0
 13 14  1  0  0  0  0
 13 37  1  0  0  0  0
 13 38  1  0  0  0  0
 14 15  1  0  0  0  0
 14 39  1  0  0  0  0
 14 40  1  0  0  0  0
 15 16  1  0  0  0  0
 16 17  1  0  0  0  0
 16 21  1  0  0  0  0
 16 41  1  0  0  0  0
 17 18  1  0  0  0  0
 17 42  1  0  0  0  0
 17 43  1  0  0  0  0
 18 19  1  0  0  0  0
 18 20  1  0  0  0  0
 18 56  1  0  0  0  0
 19 44  1  0  0  0  0
 19 45  1  0  0  0  0
 19 46  1  0  0  0  0
 20 47  1  0  0  0  0
 20 48  1  0  0  0  0
 20 49  1  0  0  0  0
 21 50  1  0  0  0  0
 21 51  1  0  0  0  0
 22 23  1  0  0  0  0
 23 24  2  0  0  0  0
 23 52  1  0  0  0  0
 24 25  1  0  0  0  0
 25 53  1  0  0  0  0
 25 54  1  0  0  0  0
 25 55  1  0  0  0  0
M  CHG  1   5   1
M  CHG  1  12   1
M  CHG  1  18   1
M  END
> <s_m_source_file>
AV-unprocessed.smi

> <i_m_source_file_index>
1005

> <i_lp_mmshare_version>
43012

> <i_f3d_flags>
0

> <s_epik_input>
W0NIM11jKFtjSF0xKWMoW0NIM10pW2NIXWMoYzEyKW4oW2NIXW4yKVtDSDJdW0NASF0oW09IXSlbQ0gyXU4zW0NIMl1bQ0gyXU9bQ0BIXShbQ0gyXTMpW0NIMl1OKFtDSDNdKVtDSDNd

> <s_epik_cmdline>
J2VwaWtfcHl0aG9uJywgJy1waCcsICc3LjAnLCAnLXRuJywgJzgnLCAnLW1hJywgJzIwMCcsICctbWV0YWxfYmluZGluZycsICctaW1hZScsICc8aW5maWxlLm1hZT4nLCAnLW9tYWUnLCAnPG91dGZpbGUubWFlPic=

> <r_epik_Ionization_Penalty>
2.30802

> <r_epik_Ionization_Penalty_Charging>
2.30798

> <r_epik_Ionization_Penalty_Neutral>
3.4851e-05

> <r_epik_State_Penalty>
2.52618

> <r_epik_Charging_Adjusted_Penalty>
4.83416

> <i_epik_Tot_Q>
3

> <i_epik_Tot_abs_Q>
3

> <r_epik_Metal_State_Penalty>
6.53149

> <b_epik_Metal_Only>
0

> <s_lp_Force_Field>
OPLS_2005

> <r_lp_Energy>
52.3538

> <b_lp_Chiralities_Consistent>
1

> <s_lp_Variant>
AV-unprocessed.smi:1005-19

> <Gold.Version>
5.8.1

> <Gold.Id.Protein>
6NUR|6NUR_protein|mol2

> <Gold.PLP.Fitness>
57.6118

> <Gold.PLP.PLP>
-44.2601

> <Gold.PLP.part.hbond>
-4.8697

> <Gold.PLP.part.metal>
0.0000

> <Gold.PLP.part.buried>
-3.0763

> <Gold.PLP.part.nonpolar>
-35.5401

> <Gold.PLP.part.repulsive>
0.1606

> <Gold.PLP.ligand.clash>
0.0000

> <Gold.PLP.ligand.torsion>
1.2919

> <Gold.PLP.Chemscore.Hbond>
5.2618

> <Gold.PLP.Chemscore.CHOScore>
0.0000

> <Gold.PLP.Chemscore.Metal>
0.0000

> <Gold.Chemscore.Hbonds>
donor molecule, donor type, donor heavy atom, donor atom, acceptor molecule, acceptor atom, score
      L1  H    12    57       P1  8028  1.80
      L1  H    18    56       P1 10175  1.58
      P1  H  7989  7998       L1    10  0.43
      P1  H  8011  8017       L1    10  0.59

> <Gold.PLP.Chemscore.Internal.Correction>
0.1503

> <Gold.Rescore>
     Score         DG    S(hbond)    S(metal)    S(lipo)     H(rot)  DE(clash)    DE(int)     intcor
     13.85     -18.62       1.69        0.00     119.98       2.56       2.00       2.78       ----

> <Gold.Chemscore.Fitness>
13.8492

> <Gold.Chemscore.DG>
-18.6247

> <Gold.Chemscore.ZeroCoef>
-5.4800

> <Gold.Chemscore.Hbond>
1.6922

> <Gold.Chemscore.Metal>
0.0000

> <Gold.Chemscore.Lipo>
119.9816

> <Gold.Chemscore.Internal_Hbond>
0.0000

> <Gold.Chemscore.DEClash>
1.9999

> <Gold.Chemscore.DEInternal>
2.7756

> <Gold.Chemscore.Rot>
2.5566

> <Gold.Chemscore.Internal.Correction>
   9.000000E+99

> <Gold.Chemscore.Hbonds>
donor molecule, donor type, donor heavy atom, donor atom, acceptor molecule, acceptor atom, score
      L1  H    12    57       P1  8028  0.18
      L1  H    18    56       P1 10175  0.15
      P1  H  7989  7998       L1    10  0.29
      P1  H  8011  8017       L1    10  0.09

> <Gold.Chemscore.Hbond.Weighted>
-5.6518

> <Gold.Chemscore.Metal.Weighted>
-0.0000

> <Gold.Chemscore.Lipo.Weighted>
-14.0379

> <Gold.Chemscore.Internal_Hbond.Weighted>
0.0000

> <Gold.Chemscore.DEClash.Weighted>
1.9999

> <Gold.Chemscore.DEInternal.Weighted>
2.7756

> <Gold.Chemscore.Rot.Weighted>
6.5450

> <Gold.Chemscore.Internal.Correction.Weighted>
   9.000000E+99

> <Gold.Protein.RotatedTorsions>
[ 6907 6896 6895 6894 ] final   32.72 input  -60.11 | X-H torsion
[ 7974 7965 7964 7962 ] final  -42.26 input  175.53 | X-H torsion
[ 8008 7997 7996 7995 ] final  -87.20 input   59.86 | X-H torsion
[ 10167 10162 10161 10158 ] final  -69.50 input  -65.29 | X-H torsion
[ 10718 10713 10712 10709 ] final   16.76 input   66.30 | X-H torsion
[ 10763 10752 10751 10750 ] final  -22.11 input  -60.55 | X-H torsion
[ 11005 11000 10999 10996 ] final  -90.37 input  -57.11 | X-H torsion

> <Gold.Protein.ActiveResidues>
 VAL166  LYS551  ARG553  GLY616  TRP617  ASP618  TYR619  PRO620  LYS621  CYS622 
 ASP623  PHE694  ASN695  SER759  ASP760  ASP761  ALA762  ILE779  LEU786  VAL792 
 PHE793  MET794  SER795  GLU796  ALA797  LYS798  CYS799  TRP800  GLU811  SER814 

> <Gold.Protein.RotatedAtoms>
  152.0784  134.9487  160.0573 H   0  0  0  0  0  0  0  0  0  0  0  0  # atno 6907 bound_to 6896
  152.0786  133.4137  159.4499 H   0  0  0  0  0  0  0  0  0  0  0  0  # atno 6908 bound_to 6896
  150.6836  134.2928  159.4717 H   0  0  0  0  0  0  0  0  0  0  0  0  # atno 6909 bound_to 6896
  146.0133  140.6938  142.9214 H   0  0  0  0  0  0  0  0  0  0  0  0  # atno 7974 bound_to 7965
  154.6605  140.0569  157.0056 H   0  0  0  0  0  0  0  0  0  0  0  0  # atno 8008 bound_to 7997
  155.1236  140.3250  155.4472 H   0  0  0  0  0  0  0  0  0  0  0  0  # atno 8009 bound_to 7997
  156.2616  140.1993  156.6357 H   0  0  0  0  0  0  0  0  0  0  0  0  # atno 8010 bound_to 7997
  140.5426  143.2314  151.7062 H   0  0  0  0  0  0  0  0  0  0  0  0  # atno 10167 bound_to 10162
  157.0724  130.6354  149.5808 H   0  0  0  0  0  0  0  0  0  0  0  0  # atno 10718 bound_to 10713
  153.6467  135.6982  153.5223 H   0  0  0  0  0  0  0  0  0  0  0  0  # atno 10763 bound_to 10752
  153.2739  135.4206  155.1014 H   0  0  0  0  0  0  0  0  0  0  0  0  # atno 10764 bound_to 10752
  154.8486  135.3585  154.6011 H   0  0  0  0  0  0  0  0  0  0  0  0  # atno 10765 bound_to 10752
  141.1567  133.7688  156.9727 H   0  0  0  0  0  0  0  0  0  0  0  0  # atno 11005 bound_to 11000
  144.6961  140.3437  143.7194 LP  0  0  0  0  0  0  0  0  0  0  0  0  # atno 17320 bound_to 7965
  145.7308  139.1735  143.2431 LP  0  0  0  0  0  0  0  0  0  0  0  0  # atno 17321 bound_to 7965
  139.4994  144.3945  152.0245 LP  0  0  0  0  0  0  0  0  0  0  0  0  # atno 17342 bound_to 10162
  140.3055  144.3597  150.6048 LP  0  0  0  0  0  0  0  0  0  0  0  0  # atno 17343 bound_to 10162
  155.9946  130.5011  150.7428 LP  0  0  0  0  0  0  0  0  0  0  0  0  # atno 17370 bound_to 10713
  157.4867  131.0907  151.0474 LP  0  0  0  0  0  0  0  0  0  0  0  0  # atno 17371 bound_to 10713
  140.1118  134.9472  157.2077 LP  0  0  0  0  0  0  0  0  0  0  0  0  # atno 17394 bound_to 11000
  140.3184  134.2944  155.7251 LP  0  0  0  0  0  0  0  0  0  0  0  0  # atno 17395 bound_to 11000

$$$$
