AV-unprocessed.smi:2032|AV-procd|sdf|8240|dock2
  -GOLD-   2272010513D 1   1.00000     0.00000
 Structure written by MMmdl.
 43 44  0  0  0  0  0  0  0  0  2 V2000
  149.1666  141.4882  154.9514 C   0  0  0  0  0  0  0  0  0  0  0  0
  149.5784  140.0317  155.1899 C   0  0  1  0  0  0  0  0  0  0  0  0
  148.8899  139.0647  154.2058 C   0  0  0  0  0  0  0  0  0  0  0  0
  149.3320  137.6621  154.4339 N   0  3  2  0  0  0  0  0  0  0  0  0
  148.7762  136.9593  155.6393 C   0  0  1  0  0  0  0  0  0  0  0  0
  147.4461  137.5680  156.1453 C   0  0  0  0  0  0  0  0  0  0  0  0
  148.5825  135.4485  155.3384 C   0  0  0  0  0  0  0  0  0  0  0  0
  148.1325  135.1890  153.9737 N   0  0  0  0  0  0  0  0  0  0  0  0
  147.0906  134.4087  153.6514 C   0  0  0  0  0  0  0  0  0  0  0  0
  146.3979  133.8286  154.4886 O   0  0  0  0  0  0  0  0  0  0  0  0
  146.9128  134.3540  152.3198 N   0  0  0  0  0  0  0  0  0  0  0  0
  145.9113  133.6538  151.5972 C   0  0  0  0  0  0  0  0  0  0  0  0
  144.6040  133.7026  151.8785 N   0  0  0  0  0  0  0  0  0  0  0  0
  143.8497  132.9183  151.0019 C   0  0  0  0  0  0  0  0  0  0  0  0
  144.6043  132.2764  150.0517 C   0  0  0  0  0  0  0  0  0  0  0  0
  146.3026  132.6311  150.2225 S   0  0  0  0  0  0  0  0  0  0  0  0
  150.8167  137.6114  154.3286 C   0  0  0  0  0  0  0  0  0  0  0  0
  151.4940  138.6316  155.2723 C   0  0  1  0  0  0  0  0  0  0  0  0
  153.0142  138.6679  155.0808 C   0  0  0  0  0  0  0  0  0  0  0  0
  150.9864  139.9346  155.0046 O   0  0  0  0  0  0  0  0  0  0  0  0
  148.0930  141.6199  155.0882 H   0  0  0  0  0  0  0  0  0  0  0  0
  149.4176  141.8105  153.9404 H   0  0  0  0  0  0  0  0  0  0  0  0
  149.6737  142.1553  155.6490 H   0  0  0  0  0  0  0  0  0  0  0  0
  149.3293  139.7676  156.2188 H   0  0  0  0  0  0  0  0  0  0  0  0
  147.8061  139.1674  154.2286 H   0  0  0  0  0  0  0  0  0  0  0  0
  149.1704  139.3401  153.1879 H   0  0  0  0  0  0  0  0  0  0  0  0
  149.4928  137.0641  156.4530 H   0  0  0  0  0  0  0  0  0  0  0  0
  147.0406  137.0089  156.9883 H   0  0  0  0  0  0  0  0  0  0  0  0
  146.6870  137.5733  155.3625 H   0  0  0  0  0  0  0  0  0  0  0  0
  147.5731  138.5882  156.5065 H   0  0  0  0  0  0  0  0  0  0  0  0
  149.5253  134.9209  155.4864 H   0  0  0  0  0  0  0  0  0  0  0  0
  147.8702  134.9801  156.0159 H   0  0  0  0  0  0  0  0  0  0  0  0
  148.6517  135.6288  153.2277 H   0  0  0  0  0  0  0  0  0  0  0  0
  147.5664  134.8771  151.7559 H   0  0  0  0  0  0  0  0  0  0  0  0
  142.7776  132.8746  151.1260 H   0  0  0  0  0  0  0  0  0  0  0  0
  144.2654  131.6191  149.2649 H   0  0  0  0  0  0  0  0  0  0  0  0
  151.2062  136.6126  154.5140 H   0  0  0  0  0  0  0  0  0  0  0  0
  151.0869  137.8437  153.2974 H   0  0  0  0  0  0  0  0  0  0  0  0
  151.2929  138.3793  156.3140 H   0  0  0  0  0  0  0  0  0  0  0  0
  153.4597  137.6952  155.2909 H   0  0  0  0  0  0  0  0  0  0  0  0
  153.4738  139.3944  155.7512 H   0  0  0  0  0  0  0  0  0  0  0  0
  153.2783  138.9435  154.0594 H   0  0  0  0  0  0  0  0  0  0  0  0
  148.9729  137.1400  153.6473 H   0  0  0  0  0  0  0  0  0  0  0  0
  1  2  1  0  0  0  0
  1 21  1  0  0  0  0
  1 22  1  0  0  0  0
  1 23  1  0  0  0  0
  2 20  1  0  0  0  0
  2  3  1  0  0  0  0
  2 24  1  0  0  0  0
  3  4  1  0  0  0  0
  3 25  1  0  0  0  0
  3 26  1  0  0  0  0
  4  5  1  0  0  0  0
  4 17  1  0  0  0  0
  4 43  1  0  0  0  0
  5  6  1  0  0  0  0
  5  7  1  0  0  0  0
  5 27  1  0  0  0  0
  6 28  1  0  0  0  0
  6 29  1  0  0  0  0
  6 30  1  0  0  0  0
  7  8  1  0  0  0  0
  7 31  1  0  0  0  0
  7 32  1  0  0  0  0
  8  9  1  0  0  0  0
  8 33  1  0  0  0  0
  9 10  2  0  0  0  0
  9 11  1  0  0  0  0
 11 12  1  0  0  0  0
 11 34  1  0  0  0  0
 12 16  1  0  0  0  0
 12 13  2  0  0  0  0
 13 14  1  0  0  0  0
 14 15  2  0  0  0  0
 14 35  1  0  0  0  0
 15 16  1  0  0  0  0
 15 36  1  0  0  0  0
 17 18  1  0  0  0  0
 17 37  1  0  0  0  0
 17 38  1  0  0  0  0
 18 19  1  0  0  0  0
 18 20  1  0  0  0  0
 18 39  1  0  0  0  0
 19 40  1  0  0  0  0
 19 41  1  0  0  0  0
 19 42  1  0  0  0  0
M  CHG  1   4   1
M  END
> <s_m_source_file>
AV-unprocessed.smi

> <i_m_source_file_index>
2032

> <i_lp_mmshare_version>
43012

> <i_f3d_flags>
0

> <s_epik_input>
W0NIM11bQ0BASF0xW0NIMl1OKFtDSDJdW0NASF0oTzEpW0NIM10pW0NASF0oW0NIM10pW0NIMl1bTkhdQyg9TylbTkhdYzJuW2NIXVtjSF1zMg==

> <s_epik_cmdline>
J2VwaWtfcHl0aG9uJywgJy1waCcsICc3LjAnLCAnLXRuJywgJzgnLCAnLW1hJywgJzIwMCcsICctbWV0YWxfYmluZGluZycsICctaW1hZScsICc8aW5maWxlLm1hZT4nLCAnLW9tYWUnLCAnPG91dGZpbGUubWFlPic=

> <r_lp_tautomer_probability>
0.999

> <r_epik_Ionization_Penalty>
0.695838

> <r_epik_Ionization_Penalty_Charging>
0.695697

> <r_epik_Ionization_Penalty_Neutral>
0.000141198

> <r_epik_State_Penalty>
0.717972

> <r_epik_Charging_Adjusted_Penalty>
1.41367

> <i_epik_Tot_Q>
1

> <i_epik_Tot_abs_Q>
1

> <r_epik_Metal_State_Penalty>
0.756405

> <b_epik_Metal_Only>
0

> <s_lp_Force_Field>
OPLS_2005

> <r_lp_Energy>
19.2871

> <b_lp_Chiralities_Consistent>
1

> <s_lp_Variant>
AV-unprocessed.smi:2032-10

> <Gold.Version>
5.8.1

> <Gold.Id.Protein>
6NUR|6NUR_protein|mol2

> <Gold.PLP.Fitness>
47.3309

> <Gold.PLP.PLP>
-32.6972

> <Gold.PLP.part.hbond>
-3.9697

> <Gold.PLP.part.metal>
0.0000

> <Gold.PLP.part.buried>
-2.7245

> <Gold.PLP.part.nonpolar>
-26.4001

> <Gold.PLP.part.repulsive>
0.2506

> <Gold.PLP.ligand.clash>
0.0000

> <Gold.PLP.ligand.torsion>
1.5696

> <Gold.PLP.Chemscore.Hbond>
4.9120

> <Gold.PLP.Chemscore.CHOScore>
0.9942

> <Gold.PLP.Chemscore.Metal>
0.0000

> <Gold.Chemscore.Hbonds>
donor molecule, donor type, donor heavy atom, donor atom, acceptor molecule, acceptor atom, score
      L1  H     4    43       P1  7948  2.00
      L1  H     8    33       P1  7948  0.93
      L1  H    11    34       P1  7948  0.88
      P1  H  7989  7998       L1    20  1.00
      L1  C    14    35       P1 10186  0.23

> <Gold.PLP.Chemscore.Internal.Correction>
0.0544

> <Gold.Rescore>
     Score         DG    S(hbond)    S(metal)    S(lipo)     H(rot)  DE(clash)    DE(int)     intcor
     20.03     -21.69       3.45        0.00      75.13       1.61       0.09       1.56       ----

> <Gold.Chemscore.Fitness>
20.0328

> <Gold.Chemscore.DG>
-21.6851

> <Gold.Chemscore.ZeroCoef>
-5.4800

> <Gold.Chemscore.Hbond>
3.4549

> <Gold.Chemscore.Metal>
0.0000

> <Gold.Chemscore.Lipo>
75.1264

> <Gold.Chemscore.Internal_Hbond>
0.0000

> <Gold.Chemscore.DEClash>
0.0921

> <Gold.Chemscore.DEInternal>
1.5602

> <Gold.Chemscore.Rot>
1.6110

> <Gold.Chemscore.Internal.Correction>
   9.000000E+99

> <Gold.Chemscore.Hbonds>
donor molecule, donor type, donor heavy atom, donor atom, acceptor molecule, acceptor atom, score
      L1  H     4    43       P1  7948  0.96
      L1  H     8    33       P1  7948  0.86
      L1  H    11    34       P1  7948  0.56
      P1  H  7989  7998       L1    20  0.85

> <Gold.Chemscore.Hbond.Weighted>
-11.5394

> <Gold.Chemscore.Metal.Weighted>
-0.0000

> <Gold.Chemscore.Lipo.Weighted>
-8.7898

> <Gold.Chemscore.Internal_Hbond.Weighted>
0.0000

> <Gold.Chemscore.DEClash.Weighted>
0.0921

> <Gold.Chemscore.DEInternal.Weighted>
1.5602

> <Gold.Chemscore.Rot.Weighted>
4.1242

> <Gold.Chemscore.Internal.Correction.Weighted>
   9.000000E+99

> <Gold.Protein.RotatedTorsions>
[ 6907 6896 6895 6894 ] final -131.72 input  -60.11 | X-H torsion
[ 7974 7965 7964 7962 ] final   20.10 input  175.53 | X-H torsion
[ 8008 7997 7996 7995 ] final  -74.44 input   59.86 | X-H torsion
[ 10167 10162 10161 10158 ] final  124.78 input  -65.29 | X-H torsion
[ 10718 10713 10712 10709 ] final -164.88 input   66.30 | X-H torsion
[ 10763 10752 10751 10750 ] final   84.34 input  -60.55 | X-H torsion
[ 11005 11000 10999 10996 ] final   71.29 input  -57.11 | X-H torsion

> <Gold.Protein.ActiveResidues>
 VAL166  LYS551  ARG553  GLY616  TRP617  ASP618  TYR619  PRO620  LYS621  CYS622 
 ASP623  PHE694  ASN695  SER759  ASP760  ASP761  ALA762  ILE779  LEU786  VAL792 
 PHE793  MET794  SER795  GLU796  ALA797  LYS798  CYS799  TRP800  GLU811  SER814 

> <Gold.Protein.RotatedAtoms>
  150.9542  133.6516  159.2766 H   0  0  0  0  0  0  0  0  0  0  0  0  # atno 6907 bound_to 6896
  151.3861  135.0947  159.9521 H   0  0  0  0  0  0  0  0  0  0  0  0  # atno 6908 bound_to 6896
  152.5122  133.9066  159.7522 H   0  0  0  0  0  0  0  0  0  0  0  0  # atno 6909 bound_to 6896
  146.2124  139.8218  142.8678 H   0  0  0  0  0  0  0  0  0  0  0  0  # atno 7974 bound_to 7965
  154.5331  140.0761  156.8380 H   0  0  0  0  0  0  0  0  0  0  0  0  # atno 8008 bound_to 7997
  155.3334  140.3403  155.4221 H   0  0  0  0  0  0  0  0  0  0  0  0  # atno 8009 bound_to 7997
  156.1801  140.1649  156.8276 H   0  0  0  0  0  0  0  0  0  0  0  0  # atno 8010 bound_to 7997
  139.5722  144.6945  151.3748 H   0  0  0  0  0  0  0  0  0  0  0  0  # atno 10167 bound_to 10162
  156.6454  130.8986  151.3004 H   0  0  0  0  0  0  0  0  0  0  0  0  # atno 10718 bound_to 10713
  153.1373  135.4658  154.9441 H   0  0  0  0  0  0  0  0  0  0  0  0  # atno 10763 bound_to 10752
  154.7717  135.3161  154.8179 H   0  0  0  0  0  0  0  0  0  0  0  0  # atno 10764 bound_to 10752
  153.8709  135.6903  153.4828 H   0  0  0  0  0  0  0  0  0  0  0  0  # atno 10765 bound_to 10752
  139.9551  134.7158  156.0771 H   0  0  0  0  0  0  0  0  0  0  0  0  # atno 11005 bound_to 11000
  145.3088  141.0214  143.3566 LP  0  0  0  0  0  0  0  0  0  0  0  0  # atno 17320 bound_to 7965
  144.8951  139.4723  143.6659 LP  0  0  0  0  0  0  0  0  0  0  0  0  # atno 17321 bound_to 7965
  140.7006  143.7641  150.7397 LP  0  0  0  0  0  0  0  0  0  0  0  0  # atno 17342 bound_to 10162
  140.1150  143.4664  152.2347 LP  0  0  0  0  0  0  0  0  0  0  0  0  # atno 17343 bound_to 10162
  157.7158  130.9495  150.1249 LP  0  0  0  0  0  0  0  0  0  0  0  0  # atno 17370 bound_to 10713
  156.2126  130.3668  149.8652 LP  0  0  0  0  0  0  0  0  0  0  0  0  # atno 17371 bound_to 10713
  141.1221  133.6610  156.3242 LP  0  0  0  0  0  0  0  0  0  0  0  0  # atno 17394 bound_to 11000
  140.5628  134.5918  157.5438 LP  0  0  0  0  0  0  0  0  0  0  0  0  # atno 17395 bound_to 11000

$$$$
