AV-unprocessed.smi:48|AV-procd|sdf|459|dock3
  -GOLD-   2262016323D 1   1.00000     0.00000
 Structure written by MMmdl.
 30 32  0  0  0  0  0  0  0  0  1 V2000
  148.1860  138.4160  153.2233 O   0  0  0  0  0  0  0  0  0  0  0  0
  148.7000  138.2560  154.5279 C   0  0  0  0  0  0  0  0  0  0  0  0
  148.3758  139.4973  155.3783 C   0  0  1  0  0  0  0  0  0  0  0  0
  148.6845  139.2696  156.7531 O   0  0  0  0  0  0  0  0  0  0  0  0
  149.0915  140.4504  157.3787 C   0  0  1  0  0  0  0  0  0  0  0  0
  150.4643  140.2158  157.9301 N   0  0  0  0  0  0  0  0  0  0  0  0
  151.3683  139.2722  157.5898 C   0  0  0  0  0  0  0  0  0  0  0  0
  152.5329  139.2765  158.2377 N   0  0  0  0  0  0  0  0  0  0  0  0
  152.3619  140.3427  159.1053 C   0  0  0  0  0  0  0  0  0  0  0  0
  153.1954  140.9228  160.0919 C   0  0  0  0  0  0  0  0  0  0  0  0
  154.7733  140.2969  160.4023 Cl  0  0  0  0  0  0  0  0  0  0  0  0
  152.7258  141.9852  160.7888 N   0  0  0  0  0  0  0  0  0  0  0  0
  151.4980  142.4513  160.5274 C   0  0  0  0  0  0  0  0  0  0  0  0
  150.6037  142.0109  159.6345 N   0  0  0  0  0  0  0  0  0  0  0  0
  151.0813  140.9401  158.9341 C   0  0  0  0  0  0  0  0  0  0  0  0
  149.0809  141.5604  156.3113 C   0  0  1  0  0  0  0  0  0  0  0  0
  150.1048  142.5333  156.4268 O   0  0  0  0  0  0  0  0  0  0  0  0
  149.1436  140.7748  155.0085 C   0  0  1  0  0  0  0  0  0  0  0  0
  150.4733  140.4872  154.6078 O   0  0  0  0  0  0  0  0  0  0  0  0
  147.3101  139.7247  155.3132 H   0  0  0  0  0  0  0  0  0  0  0  0
  148.4760  140.6734  158.2511 H   0  0  0  0  0  0  0  0  0  0  0  0
  148.1135  142.0605  156.3766 H   0  0  0  0  0  0  0  0  0  0  0  0
  148.6572  141.3106  154.1929 H   0  0  0  0  0  0  0  0  0  0  0  0
  148.7796  138.0040  152.6144 H   0  0  0  0  0  0  0  0  0  0  0  0
  148.3032  137.3473  154.9816 H   0  0  0  0  0  0  0  0  0  0  0  0
  149.7796  138.1321  154.4387 H   0  0  0  0  0  0  0  0  0  0  0  0
  151.1624  138.5401  156.8228 H   0  0  0  0  0  0  0  0  0  0  0  0
  151.1870  143.3005  161.1178 H   0  0  0  0  0  0  0  0  0  0  0  0
  149.7095  143.3494  156.6931 H   0  0  0  0  0  0  0  0  0  0  0  0
  150.7863  139.7563  155.1191 H   0  0  0  0  0  0  0  0  0  0  0  0
  1  2  1  0  0  0  0
  1 24  1  0  0  0  0
  2  3  1  0  0  0  0
  2 25  1  0  0  0  0
  2 26  1  0  0  0  0
  3 20  1  0  0  0  0
  3 18  1  0  0  0  0
  3  4  1  0  0  0  0
  4  5  1  0  0  0  0
  5 21  1  0  0  0  0
  5  6  1  0  0  0  0
  5 16  1  0  0  0  0
  6 15  1  0  0  0  0
  6  7  1  0  0  0  0
  7  8  2  0  0  0  0
  7 27  1  0  0  0  0
  8  9  1  0  0  0  0
  9 15  2  0  0  0  0
  9 10  1  0  0  0  0
 10 11  1  0  0  0  0
 10 12  2  0  0  0  0
 12 13  1  0  0  0  0
 13 14  2  0  0  0  0
 13 28  1  0  0  0  0
 14 15  1  0  0  0  0
 16 22  1  0  0  0  0
 16 17  1  0  0  0  0
 16 18  1  0  0  0  0
 17 29  1  0  0  0  0
 18 23  1  0  0  0  0
 18 19  1  0  0  0  0
 19 30  1  0  0  0  0
M  END
> <s_m_source_file>
AV-unprocessed.smi

> <i_m_source_file_index>
48

> <i_lp_mmshare_version>
43012

> <i_f3d_flags>
0

> <s_epik_input>
W09IXVtDSDJdW0NASF0xT1tDQEhdKFtDQEhdKFtPSF0pW0NAQEhdMVtPSF0pbihbY0hdbjIpYyhjMjMpbltjSF1uYzNDbA==

> <s_epik_cmdline>
J2VwaWtfcHl0aG9uJywgJy1waCcsICc3LjAnLCAnLXRuJywgJzgnLCAnLW1hJywgJzIwMCcsICctbWV0YWxfYmluZGluZycsICctaW1hZScsICc8aW5maWxlLm1hZT4nLCAnLW9tYWUnLCAnPG91dGZpbGUubWFlPic=

> <r_lp_tautomer_probability>
1

> <r_epik_Ionization_Penalty>
3.45505e-06

> <r_epik_Ionization_Penalty_Charging>
0

> <r_epik_Ionization_Penalty_Neutral>
3.45505e-06

> <r_epik_State_Penalty>
-0

> <r_epik_Charging_Adjusted_Penalty>
0

> <i_epik_Tot_Q>
0

> <i_epik_Tot_abs_Q>
0

> <r_epik_Metal_State_Penalty>
-0

> <b_epik_Metal_Only>
0

> <s_epik_Chemistry_Notes>
This compound contains an acetal/aminal-like group ( X-CH(R)-Y where X, Y are N, S, or O) that may be acid/base labile, releasing an aldehyde.

> <s_lp_Force_Field>
OPLS_2005

> <r_lp_Energy>
40.6027

> <b_lp_Chiralities_Consistent>
1

> <s_lp_Variant>
AV-unprocessed.smi:48-13

> <Gold.Version>
5.8.1

> <Gold.Id.Protein>
6NUR|6NUR_protein|mol2

> <Gold.PLP.Fitness>
38.1085

> <Gold.PLP.PLP>
-27.2675

> <Gold.PLP.part.hbond>
-3.8232

> <Gold.PLP.part.metal>
0.0000

> <Gold.PLP.part.buried>
-4.8752

> <Gold.PLP.part.nonpolar>
-17.4075

> <Gold.PLP.part.repulsive>
0.0191

> <Gold.PLP.ligand.clash>
0.0000

> <Gold.PLP.ligand.torsion>
0.6510

> <Gold.PLP.Chemscore.Hbond>
3.9920

> <Gold.PLP.Chemscore.CHOScore>
0.0000

> <Gold.PLP.Chemscore.Metal>
0.0000

> <Gold.Chemscore.Hbonds>
donor molecule, donor type, donor heavy atom, donor atom, acceptor molecule, acceptor atom, score
      L1  H     1    24       P1  7948  0.74
      L1  H    17    29       P1  8028  0.62
      P1  H  7989  7998       L1    19  1.00

> <Gold.PLP.Chemscore.Internal.Correction>
0.1670

> <Gold.Rescore>
     Score         DG    S(hbond)    S(metal)    S(lipo)     H(rot)  DE(clash)    DE(int)     intcor
     12.40     -13.70       3.83        0.00      43.96       3.80       0.69       0.61       ----

> <Gold.Chemscore.Fitness>
12.3965

> <Gold.Chemscore.DG>
-13.6961

> <Gold.Chemscore.ZeroCoef>
-5.4800

> <Gold.Chemscore.Hbond>
3.8338

> <Gold.Chemscore.Metal>
0.0000

> <Gold.Chemscore.Lipo>
43.9619

> <Gold.Chemscore.Internal_Hbond>
0.0000

> <Gold.Chemscore.DEClash>
0.6921

> <Gold.Chemscore.DEInternal>
0.6075

> <Gold.Chemscore.Rot>
3.8017

> <Gold.Chemscore.Internal.Correction>
   9.000000E+99

> <Gold.Chemscore.Hbonds>
donor molecule, donor type, donor heavy atom, donor atom, acceptor molecule, acceptor atom, score
      L1  H     1    24       P1  7948  0.74
      L1  H    17    29       P1  8028  0.62
      P1  H  7989  7998       L1    19  0.67

> <Gold.Chemscore.Hbond.Weighted>
-12.8050

> <Gold.Chemscore.Metal.Weighted>
-0.0000

> <Gold.Chemscore.Lipo.Weighted>
-5.1435

> <Gold.Chemscore.Internal_Hbond.Weighted>
0.0000

> <Gold.Chemscore.DEClash.Weighted>
0.6921

> <Gold.Chemscore.DEInternal.Weighted>
0.6075

> <Gold.Chemscore.Rot.Weighted>
9.7324

> <Gold.Chemscore.Internal.Correction.Weighted>
   9.000000E+99

> <Gold.Protein.RotatedTorsions>
[ 6907 6896 6895 6894 ] final    9.13 input  -60.11 | X-H torsion
[ 7974 7965 7964 7962 ] final -162.88 input  175.53 | X-H torsion
[ 8008 7997 7996 7995 ] final   43.99 input   59.86 | X-H torsion
[ 10167 10162 10161 10158 ] final -166.30 input  -65.29 | X-H torsion
[ 10718 10713 10712 10709 ] final   47.64 input   66.30 | X-H torsion
[ 10763 10752 10751 10750 ] final   49.24 input  -60.55 | X-H torsion
[ 11005 11000 10999 10996 ] final -123.97 input  -57.11 | X-H torsion

> <Gold.Protein.ActiveResidues>
 VAL166  LYS551  ARG553  GLY616  TRP617  ASP618  TYR619  PRO620  LYS621  CYS622 
 ASP623  PHE694  ASN695  SER759  ASP760  ASP761  ALA762  ILE779  LEU786  VAL792 
 PHE793  MET794  SER795  GLU796  ALA797  LYS798  CYS799  TRP800  GLU811  SER814 

> <Gold.Protein.RotatedAtoms>
  151.7173  135.0901  160.0277 H   0  0  0  0  0  0  0  0  0  0  0  0  # atno 6907 bound_to 6896
  152.3624  133.6309  159.6033 H   0  0  0  0  0  0  0  0  0  0  0  0  # atno 6908 bound_to 6896
  150.7614  133.9318  159.3471 H   0  0  0  0  0  0  0  0  0  0  0  0  # atno 6909 bound_to 6896
  144.7343  140.3189  143.6174 H   0  0  0  0  0  0  0  0  0  0  0  0  # atno 7974 bound_to 7965
  155.3118  140.3391  155.4243 H   0  0  0  0  0  0  0  0  0  0  0  0  # atno 8008 bound_to 7997
  156.1952  140.1712  156.8051 H   0  0  0  0  0  0  0  0  0  0  0  0  # atno 8009 bound_to 7997
  154.5490  140.0709  156.8619 H   0  0  0  0  0  0  0  0  0  0  0  0  # atno 8010 bound_to 7997
  139.6124  144.0788  152.1855 H   0  0  0  0  0  0  0  0  0  0  0  0  # atno 10167 bound_to 10162
  157.4605  130.8193  149.7882 H   0  0  0  0  0  0  0  0  0  0  0  0  # atno 10718 bound_to 10713
  152.9788  135.5918  154.4057 H   0  0  0  0  0  0  0  0  0  0  0  0  # atno 10763 bound_to 10752
  154.3697  135.2767  155.2275 H   0  0  0  0  0  0  0  0  0  0  0  0  # atno 10764 bound_to 10752
  154.4236  135.6053  153.6079 H   0  0  0  0  0  0  0  0  0  0  0  0  # atno 10765 bound_to 10752
  140.9878  134.0582  157.3690 H   0  0  0  0  0  0  0  0  0  0  0  0  # atno 11005 bound_to 11000
  145.7589  139.1818  143.2278 LP  0  0  0  0  0  0  0  0  0  0  0  0  # atno 17320 bound_to 7965
  146.1002  140.7553  142.9553 LP  0  0  0  0  0  0  0  0  0  0  0  0  # atno 17321 bound_to 7965
  140.0410  144.6008  150.7411 LP  0  0  0  0  0  0  0  0  0  0  0  0  # atno 17342 bound_to 10162
  140.7328  143.2710  151.3889 LP  0  0  0  0  0  0  0  0  0  0  0  0  # atno 17343 bound_to 10162
  156.0026  130.3872  150.2547 LP  0  0  0  0  0  0  0  0  0  0  0  0  # atno 17370 bound_to 10713
  157.0724  131.0120  151.3185 LP  0  0  0  0  0  0  0  0  0  0  0  0  # atno 17371 bound_to 10713
  139.8978  135.0152  156.7119 LP  0  0  0  0  0  0  0  0  0  0  0  0  # atno 17394 bound_to 11000
  140.7087  133.9242  155.8071 LP  0  0  0  0  0  0  0  0  0  0  0  0  # atno 17395 bound_to 11000

$$$$
