AV-unprocessed.smi:116|AV-procd|sdf|1128|dock9
  -GOLD-   2262018253D 1   1.00000     0.00000
 Structure written by MMmdl.
 38 41  0  0  0  0  0  0  0  0  1 V2000
  150.5043  138.4063  159.2170 O   0  0  0  0  0  0  0  0  0  0  0  0
  150.1738  138.6422  158.0538 C   0  0  0  0  0  0  0  0  0  0  0  0
  148.8371  138.3760  157.5336 C   0  0  0  0  0  0  0  0  0  0  0  0
  147.9102  137.8242  158.3351 F   0  0  0  0  0  0  0  0  0  0  0  0
  148.5131  138.6723  156.2568 C   0  0  0  0  0  0  0  0  0  0  0  0
  149.4050  139.2424  155.3643 N   0  0  0  0  0  0  0  0  0  0  0  0
  148.9979  139.5605  153.9428 C   0  0  1  0  0  0  0  0  0  0  0  0
  147.5992  139.0037  153.6550 C   0  0  0  0  0  0  0  0  0  0  0  0
  146.7223  140.2064  153.9276 C   0  0  0  0  0  0  0  0  0  0  0  0
  147.6137  141.3481  153.4530 C   0  0  0  0  0  0  0  0  0  0  0  0
  148.9412  140.9494  153.7842 O   0  0  0  0  0  0  0  0  0  0  0  0
  150.7287  139.5144  155.7737 C   0  0  0  0  0  0  0  0  0  0  0  0
  151.5439  140.0028  154.9880 O   0  0  0  0  0  0  0  0  0  0  0  0
  151.0718  139.2034  157.1116 N   0  0  0  0  0  0  0  0  0  0  0  0
  152.4188  139.5230  157.5589 C   0  0  0  0  0  0  0  0  0  0  0  0
  152.4188  140.7646  158.3986 C   0  0  0  0  0  0  0  0  0  0  0  0
  151.9542  141.9336  157.9383 N   0  0  0  0  0  0  0  0  0  0  0  0
  152.0613  142.9138  158.9204 C   0  0  0  0  0  0  0  0  0  0  0  0
  151.6687  144.2687  158.8156 C   0  0  0  0  0  0  0  0  0  0  0  0
  151.8329  145.1604  159.8944 C   0  0  0  0  0  0  0  0  0  0  0  0
  152.3961  144.7129  161.1045 C   0  0  0  0  0  0  0  0  0  0  0  0
  152.7963  143.3707  161.2367 C   0  0  0  0  0  0  0  0  0  0  0  0
  152.6294  142.4848  160.1561 C   0  0  0  0  0  0  0  0  0  0  0  0
  153.0409  140.7763  160.0551 S   0  0  0  0  0  0  0  0  0  0  0  0
  147.5093  138.4460  155.9298 H   0  0  0  0  0  0  0  0  0  0  0  0
  149.7792  139.1519  153.3001 H   0  0  0  0  0  0  0  0  0  0  0  0
  147.5468  138.7237  152.6022 H   0  0  0  0  0  0  0  0  0  0  0  0
  147.3631  138.1315  154.2658 H   0  0  0  0  0  0  0  0  0  0  0  0
  145.7657  140.1669  153.4061 H   0  0  0  0  0  0  0  0  0  0  0  0
  146.5259  140.2974  154.9964 H   0  0  0  0  0  0  0  0  0  0  0  0
  147.5420  141.4600  152.3702 H   0  0  0  0  0  0  0  0  0  0  0  0
  147.3559  142.3028  153.9117 H   0  0  0  0  0  0  0  0  0  0  0  0
  152.8181  138.6742  158.1154 H   0  0  0  0  0  0  0  0  0  0  0  0
  153.0582  139.6367  156.6819 H   0  0  0  0  0  0  0  0  0  0  0  0
  151.2352  144.6253  157.8931 H   0  0  0  0  0  0  0  0  0  0  0  0
  151.5257  146.1908  159.7922 H   0  0  0  0  0  0  0  0  0  0  0  0
  152.5210  145.3987  161.9296 H   0  0  0  0  0  0  0  0  0  0  0  0
  153.2291  143.0211  162.1623 H   0  0  0  0  0  0  0  0  0  0  0  0
  1  2  2  0  0  0  0
  2 14  1  0  0  0  0
  2  3  1  0  0  0  0
  3  4  1  0  0  0  0
  3  5  2  0  0  0  0
  5  6  1  0  0  0  0
  5 25  1  0  0  0  0
  6  7  1  0  0  0  0
  6 12  1  0  0  0  0
  7 11  1  0  0  0  0
  7  8  1  0  0  0  0
  7 26  1  0  0  0  0
  8  9  1  0  0  0  0
  8 27  1  0  0  0  0
  8 28  1  0  0  0  0
  9 10  1  0  0  0  0
  9 29  1  0  0  0  0
  9 30  1  0  0  0  0
 10 11  1  0  0  0  0
 10 31  1  0  0  0  0
 10 32  1  0  0  0  0
 12 13  2  0  0  0  0
 12 14  1  0  0  0  0
 14 15  1  0  0  0  0
 15 16  1  0  0  0  0
 15 33  1  0  0  0  0
 15 34  1  0  0  0  0
 16 24  1  0  0  0  0
 16 17  2  0  0  0  0
 17 18  1  0  0  0  0
 18 23  2  0  0  0  0
 18 19  1  0  0  0  0
 19 20  2  0  0  0  0
 19 35  1  0  0  0  0
 20 21  1  0  0  0  0
 20 36  1  0  0  0  0
 21 22  2  0  0  0  0
 21 37  1  0  0  0  0
 22 23  1  0  0  0  0
 22 38  1  0  0  0  0
 23 24  1  0  0  0  0
M  END
> <s_m_source_file>
AV-unprocessed.smi

> <i_m_source_file_index>
116

> <i_lp_mmshare_version>
43012

> <i_f3d_flags>
0

> <s_epik_input>
TzFbQ0gyXVtDSDJdW0NIMl1bQ0BIXTFuKFtjSF1jKEYpYzI9TyljKD1PKW4yW0NIMl1jKG4zKXNjKGMzNClbY0hdW2NIXVtjSF1bY0hdNA==

> <s_epik_cmdline>
J2VwaWtfcHl0aG9uJywgJy1waCcsICc3LjAnLCAnLXRuJywgJzgnLCAnLW1hJywgJzIwMCcsICctbWV0YWxfYmluZGluZycsICctaW1hZScsICc8aW5maWxlLm1hZT4nLCAnLW9tYWUnLCAnPG91dGZpbGUubWFlPic=

> <r_lp_tautomer_probability>
1

> <r_epik_Ionization_Penalty>
4.2492e-05

> <r_epik_Ionization_Penalty_Charging>
2.84664e-09

> <r_epik_Ionization_Penalty_Neutral>
4.24891e-05

> <r_epik_State_Penalty>
-0

> <r_epik_Charging_Adjusted_Penalty>
2.84664e-09

> <i_epik_Tot_Q>
0

> <i_epik_Tot_abs_Q>
0

> <r_epik_Metal_State_Penalty>
-0

> <b_epik_Metal_Only>
0

> <s_epik_Chemistry_Notes>
This compound contains an acetal/aminal-like group ( X-CH(R)-Y where X, Y are N, S, or O) that may be acid/base labile, releasing an aldehyde.

> <s_lp_Force_Field>
OPLS_2005

> <r_lp_Energy>
30.7685

> <b_lp_Chiralities_Consistent>
1

> <s_lp_Variant>
AV-unprocessed.smi:116-2

> <Gold.Version>
5.8.1

> <Gold.Id.Protein>
6NUR|6NUR_protein|mol2

> <Gold.PLP.Fitness>
46.0851

> <Gold.PLP.PLP>
-43.0433

> <Gold.PLP.part.hbond>
-3.0219

> <Gold.PLP.part.metal>
0.0000

> <Gold.PLP.part.buried>
-2.4638

> <Gold.PLP.part.nonpolar>
-36.0662

> <Gold.PLP.part.repulsive>
0.2136

> <Gold.PLP.ligand.clash>
0.0000

> <Gold.PLP.ligand.torsion>
0.3692

> <Gold.PLP.Chemscore.Hbond>
1.2564

> <Gold.PLP.Chemscore.CHOScore>
0.0000

> <Gold.PLP.Chemscore.Metal>
0.0000

> <Gold.Chemscore.Hbonds>
donor molecule, donor type, donor heavy atom, donor atom, acceptor molecule, acceptor atom, score
      P1  H  7989  7998       L1    13  1.00
      P1  H  8011  8017       L1    11  0.27

> <Gold.PLP.Chemscore.Internal.Correction>
0.0108

> <Gold.Rescore>
     Score         DG    S(hbond)    S(metal)    S(lipo)     H(rot)  DE(clash)    DE(int)     intcor
     16.33     -18.19       1.05        0.00     111.89       1.52       0.97       0.88       ----

> <Gold.Chemscore.Fitness>
16.3327

> <Gold.Chemscore.DG>
-18.1892

> <Gold.Chemscore.ZeroCoef>
-5.4800

> <Gold.Chemscore.Hbond>
1.0486

> <Gold.Chemscore.Metal>
0.0000

> <Gold.Chemscore.Lipo>
111.8886

> <Gold.Chemscore.Internal_Hbond>
0.0000

> <Gold.Chemscore.DEClash>
0.9721

> <Gold.Chemscore.DEInternal>
0.8843

> <Gold.Chemscore.Rot>
1.5172

> <Gold.Chemscore.Internal.Correction>
   9.000000E+99

> <Gold.Chemscore.Hbonds>
donor molecule, donor type, donor heavy atom, donor atom, acceptor molecule, acceptor atom, score
      P1  H  7989  7998       L1    13  0.98
      P1  H  8011  8017       L1    11  0.01

> <Gold.Chemscore.Hbond.Weighted>
-3.5023

> <Gold.Chemscore.Metal.Weighted>
-0.0000

> <Gold.Chemscore.Lipo.Weighted>
-13.0910

> <Gold.Chemscore.Internal_Hbond.Weighted>
0.0000

> <Gold.Chemscore.DEClash.Weighted>
0.9721

> <Gold.Chemscore.DEInternal.Weighted>
0.8843

> <Gold.Chemscore.Rot.Weighted>
3.8841

> <Gold.Chemscore.Internal.Correction.Weighted>
   9.000000E+99

> <Gold.Protein.RotatedTorsions>
[ 6907 6896 6895 6894 ] final -153.99 input  -60.11 | X-H torsion
[ 7974 7965 7964 7962 ] final  159.16 input  175.53 | X-H torsion
[ 8008 7997 7996 7995 ] final -132.52 input   59.86 | X-H torsion
[ 10167 10162 10161 10158 ] final -154.73 input  -65.29 | X-H torsion
[ 10718 10713 10712 10709 ] final  170.23 input   66.30 | X-H torsion
[ 10763 10752 10751 10750 ] final  178.44 input  -60.55 | X-H torsion
[ 11005 11000 10999 10996 ] final  -20.18 input  -57.11 | X-H torsion

> <Gold.Protein.ActiveResidues>
 VAL166  LYS551  ARG553  GLY616  TRP617  ASP618  TYR619  PRO620  LYS621  CYS622 
 ASP623  PHE694  ASN695  SER759  ASP760  ASP761  ALA762  ILE779  LEU786  VAL792 
 PHE793  MET794  SER795  GLU796  ALA797  LYS798  CYS799  TRP800  GLU811  SER814 

> <Gold.Protein.RotatedAtoms>
  151.2508  133.4351  159.2611 H   0  0  0  0  0  0  0  0  0  0  0  0  # atno 6907 bound_to 6896
  151.0619  134.9742  159.8275 H   0  0  0  0  0  0  0  0  0  0  0  0  # atno 6908 bound_to 6896
  152.5399  134.2458  159.8932 H   0  0  0  0  0  0  0  0  0  0  0  0  # atno 6909 bound_to 6896
  144.7806  139.7578  143.6261 H   0  0  0  0  0  0  0  0  0  0  0  0  # atno 7974 bound_to 7965
  155.3302  140.0466  157.3042 H   0  0  0  0  0  0  0  0  0  0  0  0  # atno 8008 bound_to 7997
  154.5332  140.2264  155.8733 H   0  0  0  0  0  0  0  0  0  0  0  0  # atno 8009 bound_to 7997
  156.1809  140.3074  155.9154 H   0  0  0  0  0  0  0  0  0  0  0  0  # atno 8010 bound_to 7997
  139.6989  143.9295  152.2420 H   0  0  0  0  0  0  0  0  0  0  0  0  # atno 10167 bound_to 10162
  157.0112  131.0204  151.2802 H   0  0  0  0  0  0  0  0  0  0  0  0  # atno 10718 bound_to 10713
  154.5077  135.2787  155.1369 H   0  0  0  0  0  0  0  0  0  0  0  0  # atno 10763 bound_to 10752
  154.2976  135.6254  153.5415 H   0  0  0  0  0  0  0  0  0  0  0  0  # atno 10764 bound_to 10752
  152.9913  135.5689  154.5535 H   0  0  0  0  0  0  0  0  0  0  0  0  # atno 10765 bound_to 10752
  140.8439  133.7906  155.9891 H   0  0  0  0  0  0  0  0  0  0  0  0  # atno 11005 bound_to 11000
  146.2011  139.5306  142.9742 LP  0  0  0  0  0  0  0  0  0  0  0  0  # atno 17320 bound_to 7965
  145.6062  141.0347  143.1991 LP  0  0  0  0  0  0  0  0  0  0  0  0  # atno 17321 bound_to 7965
  139.9132  144.6844  150.8540 LP  0  0  0  0  0  0  0  0  0  0  0  0  # atno 17342 bound_to 10162
  140.7704  143.3428  151.2173 LP  0  0  0  0  0  0  0  0  0  0  0  0  # atno 17343 bound_to 10162
  157.5319  130.8064  149.7927 LP  0  0  0  0  0  0  0  0  0  0  0  0  # atno 17370 bound_to 10713
  156.0135  130.3823  150.2185 LP  0  0  0  0  0  0  0  0  0  0  0  0  # atno 17371 bound_to 10713
  140.8865  134.2548  157.5117 LP  0  0  0  0  0  0  0  0  0  0  0  0  # atno 17394 bound_to 11000
  139.8703  134.9641  156.4482 LP  0  0  0  0  0  0  0  0  0  0  0  0  # atno 17395 bound_to 11000

$$$$
