AV-unprocessed.smi:2282|AV-procd|sdf|9197|dock10
  -GOLD-   2272012413D 1   1.00000     0.00000
 Structure written by MMmdl.
 32 33  0  0  0  0  0  0  0  0  1 V2000
  147.6637  139.1674  153.6153 C   0  0  0  0  0  0  0  0  0  0  0  0
  148.9652  139.5499  154.2951 C   0  0  0  0  0  0  0  0  0  0  0  0
  149.9329  138.6075  154.2774 N   0  0  0  0  0  0  0  0  0  0  0  0
  151.1077  138.8928  154.8749 C   0  0  0  0  0  0  0  0  0  0  0  0
  151.3767  140.1212  155.5080 C   0  0  0  0  0  0  0  0  0  0  0  0
  150.3713  141.1174  155.5140 C   0  0  0  0  0  0  0  0  0  0  0  0
  150.5303  142.3834  156.1432 N   0  0  0  0  0  0  0  0  0  0  0  0
  151.1963  142.6860  157.2726 C   0  0  0  0  0  0  0  0  0  0  0  0
  151.8035  141.8709  157.9676 O   0  0  0  0  0  0  0  0  0  0  0  0
  151.1734  144.1648  157.6768 C   0  0  2  0  0  0  0  0  0  0  0  0
  152.5273  144.6984  158.1803 C   0  0  0  0  0  0  0  0  0  0  0  0
  152.3086  144.8785  159.6689 C   0  0  0  0  0  0  0  0  0  0  0  0
  150.8191  145.1971  159.7284 C   0  0  2  0  0  0  0  0  0  0  0  0
  150.1834  144.9670  161.1033 C   0  0  0  0  0  0  0  0  0  0  0  0
  150.2660  144.3100  158.7679 O   0  0  0  0  0  0  0  0  0  0  0  0
  149.1309  140.8165  154.9035 C   0  0  0  0  0  0  0  0  0  0  0  0
  147.8438  141.9758  154.8943 Cl  0  0  0  0  0  0  0  0  0  0  0  0
  147.4433  139.8593  152.8023 H   0  0  0  0  0  0  0  0  0  0  0  0
  146.8401  139.1988  154.3288 H   0  0  0  0  0  0  0  0  0  0  0  0
  147.7092  138.1608  153.1978 H   0  0  0  0  0  0  0  0  0  0  0  0
  151.8557  138.1143  154.8545 H   0  0  0  0  0  0  0  0  0  0  0  0
  152.3339  140.2670  155.9837 H   0  0  0  0  0  0  0  0  0  0  0  0
  150.1499  143.1676  155.6333 H   0  0  0  0  0  0  0  0  0  0  0  0
  150.8271  144.7779  156.8428 H   0  0  0  0  0  0  0  0  0  0  0  0
  153.3736  144.0441  157.9661 H   0  0  0  0  0  0  0  0  0  0  0  0
  152.7372  145.6626  157.7155 H   0  0  0  0  0  0  0  0  0  0  0  0
  152.5208  143.9446  160.1916 H   0  0  0  0  0  0  0  0  0  0  0  0
  152.9313  145.6625  160.1004 H   0  0  0  0  0  0  0  0  0  0  0  0
  150.6449  146.2227  159.3985 H   0  0  0  0  0  0  0  0  0  0  0  0
  150.6258  145.6232  161.8529 H   0  0  0  0  0  0  0  0  0  0  0  0
  150.3206  143.9374  161.4351 H   0  0  0  0  0  0  0  0  0  0  0  0
  149.1122  145.1672  161.0751 H   0  0  0  0  0  0  0  0  0  0  0  0
  1  2  1  0  0  0  0
  1 18  1  0  0  0  0
  1 19  1  0  0  0  0
  1 20  1  0  0  0  0
  2 16  1  0  0  0  0
  2  3  2  0  0  0  0
  3  4  1  0  0  0  0
  4  5  2  0  0  0  0
  4 21  1  0  0  0  0
  5  6  1  0  0  0  0
  5 22  1  0  0  0  0
  6  7  1  0  0  0  0
  6 16  2  0  0  0  0
  7  8  1  0  0  0  0
  7 23  1  0  0  0  0
  8  9  2  0  0  0  0
  8 10  1  0  0  0  0
 10 15  1  0  0  0  0
 10 11  1  0  0  0  0
 10 24  1  0  0  0  0
 11 12  1  0  0  0  0
 11 25  1  0  0  0  0
 11 26  1  0  0  0  0
 12 13  1  0  0  0  0
 12 27  1  0  0  0  0
 12 28  1  0  0  0  0
 13 14  1  0  0  0  0
 13 15  1  0  0  0  0
 13 29  1  0  0  0  0
 14 30  1  0  0  0  0
 14 31  1  0  0  0  0
 14 32  1  0  0  0  0
 16 17  1  0  0  0  0
M  END
> <s_m_source_file>
AV-unprocessed.smi

> <i_m_source_file_index>
2282

> <i_lp_mmshare_version>
43012

> <i_f3d_flags>
0

> <s_epik_input>
W0NIM11jMW5bY0hdW2NIXWMoYzFDbClbTkhdQyg9TylbQ0BASF0yW0NIMl1bQ0gyXVtDQEhdKE8yKVtDSDNd

> <s_epik_cmdline>
J2VwaWtfcHl0aG9uJywgJy1waCcsICc3LjAnLCAnLXRuJywgJzgnLCAnLW1hJywgJzIwMCcsICctbWV0YWxfYmluZGluZycsICctaW1hZScsICc8aW5maWxlLm1hZT4nLCAnLW9tYWUnLCAnPG91dGZpbGUubWFlPic=

> <r_epik_Ionization_Penalty>
0.00037231

> <r_epik_Ionization_Penalty_Charging>
0

> <r_epik_Ionization_Penalty_Neutral>
0.00037231

> <r_epik_State_Penalty>
0.000225113

> <r_epik_Charging_Adjusted_Penalty>
0.000225113

> <i_epik_Tot_Q>
0

> <i_epik_Tot_abs_Q>
0

> <r_epik_Metal_State_Penalty>
-0

> <b_epik_Metal_Only>
0

> <s_lp_Force_Field>
OPLS_2005

> <r_lp_Energy>
23.9667

> <b_lp_Chiralities_Consistent>
1

> <s_lp_Variant>
AV-unprocessed.smi:2282-3

> <Gold.Version>
5.8.1

> <Gold.Id.Protein>
6NUR|6NUR_protein|mol2

> <Gold.PLP.Fitness>
36.6257

> <Gold.PLP.PLP>
-35.4145

> <Gold.PLP.part.hbond>
-1.0000

> <Gold.PLP.part.metal>
0.0000

> <Gold.PLP.part.buried>
2.5710

> <Gold.PLP.part.nonpolar>
-37.2050

> <Gold.PLP.part.repulsive>
0.5225

> <Gold.PLP.ligand.clash>
0.0000

> <Gold.PLP.ligand.torsion>
0.7067

> <Gold.PLP.Chemscore.Hbond>
0.8723

> <Gold.PLP.Chemscore.CHOScore>
0.0000

> <Gold.PLP.Chemscore.Metal>
0.0000

> <Gold.Chemscore.Hbonds>
donor molecule, donor type, donor heavy atom, donor atom, acceptor molecule, acceptor atom, score
      L1  H     7    23       P1  8028  0.94

> <Gold.PLP.Chemscore.Internal.Correction>
0.0077

> <Gold.Rescore>
     Score         DG    S(hbond)    S(metal)    S(lipo)     H(rot)  DE(clash)    DE(int)     intcor
     16.17     -18.49       0.92        0.00     106.83       1.00       1.05       1.27       ----

> <Gold.Chemscore.Fitness>
16.1677

> <Gold.Chemscore.DG>
-18.4894

> <Gold.Chemscore.ZeroCoef>
-5.4800

> <Gold.Chemscore.Hbond>
0.9192

> <Gold.Chemscore.Metal>
0.0000

> <Gold.Chemscore.Lipo>
106.8319

> <Gold.Chemscore.Internal_Hbond>
0.0000

> <Gold.Chemscore.DEClash>
1.0508

> <Gold.Chemscore.DEInternal>
1.2708

> <Gold.Chemscore.Rot>
1.0000

> <Gold.Chemscore.Internal.Correction>
   9.000000E+99

> <Gold.Chemscore.Hbonds>
donor molecule, donor type, donor heavy atom, donor atom, acceptor molecule, acceptor atom, score
      L1  H     7    23       P1  8028  0.88

> <Gold.Chemscore.Hbond.Weighted>
-3.0700

> <Gold.Chemscore.Metal.Weighted>
-0.0000

> <Gold.Chemscore.Lipo.Weighted>
-12.4993

> <Gold.Chemscore.Internal_Hbond.Weighted>
0.0000

> <Gold.Chemscore.DEClash.Weighted>
1.0508

> <Gold.Chemscore.DEInternal.Weighted>
1.2708

> <Gold.Chemscore.Rot.Weighted>
2.5600

> <Gold.Chemscore.Internal.Correction.Weighted>
   9.000000E+99

> <Gold.Protein.RotatedTorsions>
[ 6907 6896 6895 6894 ] final  -37.29 input  -60.11 | X-H torsion
[ 7974 7965 7964 7962 ] final  -97.35 input  175.53 | X-H torsion
[ 8008 7997 7996 7995 ] final  126.95 input   59.86 | X-H torsion
[ 10167 10162 10161 10158 ] final  -51.64 input  -65.29 | X-H torsion
[ 10718 10713 10712 10709 ] final  115.30 input   66.30 | X-H torsion
[ 10763 10752 10751 10750 ] final  156.25 input  -60.55 | X-H torsion
[ 11005 11000 10999 10996 ] final  142.14 input  -57.11 | X-H torsion

> <Gold.Protein.ActiveResidues>
 VAL166  LYS551  ARG553  GLY616  TRP617  ASP618  TYR619  PRO620  LYS621  CYS622 
 ASP623  PHE694  ASN695  SER759  ASP760  ASP761  ALA762  ILE779  LEU786  VAL792 
 PHE793  MET794  SER795  GLU796  ALA797  LYS798  CYS799  TRP800  GLU811  SER814 

> <Gold.Protein.RotatedAtoms>
  151.0166  134.9437  159.8036 H   0  0  0  0  0  0  0  0  0  0  0  0  # atno 6907 bound_to 6896
  152.5315  134.2958  159.9070 H   0  0  0  0  0  0  0  0  0  0  0  0  # atno 6908 bound_to 6896
  151.2965  133.4099  159.2671 H   0  0  0  0  0  0  0  0  0  0  0  0  # atno 6909 bound_to 6896
  145.3349  140.9449  143.2641 H   0  0  0  0  0  0  0  0  0  0  0  0  # atno 7974 bound_to 7965
  156.2878  140.2680  156.2194 H   0  0  0  0  0  0  0  0  0  0  0  0  # atno 8008 bound_to 7997
  155.0183  140.0387  157.2445 H   0  0  0  0  0  0  0  0  0  0  0  0  # atno 8009 bound_to 7997
  154.7457  140.2733  155.6340 H   0  0  0  0  0  0  0  0  0  0  0  0  # atno 8010 bound_to 7997
  140.6578  143.2612  151.4533 H   0  0  0  0  0  0  0  0  0  0  0  0  # atno 10167 bound_to 10162
  157.6230  131.1010  150.7310 H   0  0  0  0  0  0  0  0  0  0  0  0  # atno 10718 bound_to 10713
  154.1813  135.2799  155.3051 H   0  0  0  0  0  0  0  0  0  0  0  0  # atno 10763 bound_to 10752
  154.6000  135.5532  153.7368 H   0  0  0  0  0  0  0  0  0  0  0  0  # atno 10764 bound_to 10752
  153.0137  135.6389  154.1952 H   0  0  0  0  0  0  0  0  0  0  0  0  # atno 10765 bound_to 10752
  140.0454  134.9283  157.0921 H   0  0  0  0  0  0  0  0  0  0  0  0  # atno 11005 bound_to 11000
  144.8835  139.4871  143.6711 LP  0  0  0  0  0  0  0  0  0  0  0  0  # atno 17320 bound_to 7965
  146.3031  139.7490  142.9076 LP  0  0  0  0  0  0  0  0  0  0  0  0  # atno 17321 bound_to 7965
  139.5804  144.1722  152.1961 LP  0  0  0  0  0  0  0  0  0  0  0  0  # atno 17342 bound_to 10162
  140.1045  144.5510  150.6966 LP  0  0  0  0  0  0  0  0  0  0  0  0  # atno 17343 bound_to 10162
  156.7664  130.4815  149.5427 LP  0  0  0  0  0  0  0  0  0  0  0  0  # atno 17370 bound_to 10713
  156.1386  130.6228  151.0435 LP  0  0  0  0  0  0  0  0  0  0  0  0  # atno 17371 bound_to 10713
  140.4001  134.2091  155.7163 LP  0  0  0  0  0  0  0  0  0  0  0  0  # atno 17394 bound_to 11000
  141.1904  133.8217  157.0918 LP  0  0  0  0  0  0  0  0  0  0  0  0  # atno 17395 bound_to 11000

$$$$
