AV-unprocessed.smi:3056|AV-procd|sdf|11645|dock6
  -GOLD-   2272017 43D 1   1.00000     0.00000
 Structure written by MMmdl.
 48 49  0  0  0  0  0  0  0  0  2 V2000
  144.3471  133.6548  151.4538 C   0  0  0  0  0  0  0  0  0  0  0  0
  145.3230  133.0331  152.4111 C   0  0  0  0  0  0  0  0  0  0  0  0
  145.1549  131.8545  153.1907 C   0  0  0  0  0  0  0  0  0  0  0  0
  146.2140  131.5747  153.9324 N   0  0  0  0  0  0  0  0  0  0  0  0
  147.0908  132.5689  153.6706 N   0  0  0  0  0  0  0  0  0  0  0  0
  148.4007  132.5512  154.3171 C   0  0  2  0  0  0  0  0  0  0  0  0
  148.7109  131.1722  154.9285 C   0  0  0  0  0  0  0  0  0  0  0  0
  148.5732  133.7051  155.3443 C   0  0  2  0  0  0  0  0  0  0  0  0
  147.7960  133.4896  156.6554 C   0  0  0  0  0  0  0  0  0  0  0  0
  148.1707  135.0072  154.7592 N   0  3  0  0  0  0  0  0  0  0  0  0
  148.5911  136.2144  155.5094 C   0  0  0  0  0  0  0  0  0  0  0  0
  150.1129  136.4446  155.4945 C   0  0  0  0  0  0  0  0  0  0  0  0
  150.8374  135.6633  156.1137 O   0  0  0  0  0  0  0  0  0  0  0  0
  150.6112  137.4994  154.8060 N   0  0  0  0  0  0  0  0  0  0  0  0
  152.0241  137.8785  154.7083 C   0  0  0  0  0  0  0  0  0  0  0  0
  152.2013  139.2585  155.3655 C   0  0  0  0  0  0  0  0  0  0  0  0
  151.3481  140.2059  154.7277 O   0  0  0  0  0  0  0  0  0  0  0  0
  149.9667  139.8542  154.7854 C   0  0  1  0  0  0  0  0  0  0  0  0
  149.1611  140.9596  154.0942 C   0  0  0  0  0  0  0  0  0  0  0  0
  149.7675  138.4794  154.1155 C   0  0  0  0  0  0  0  0  0  0  0  0
  146.5794  133.4550  152.7409 C   0  0  0  0  0  0  0  0  0  0  0  0
  143.3564  133.2070  151.5354 H   0  0  0  0  0  0  0  0  0  0  0  0
  144.6690  133.5378  150.4190 H   0  0  0  0  0  0  0  0  0  0  0  0
  144.2304  134.7234  151.6357 H   0  0  0  0  0  0  0  0  0  0  0  0
  144.3003  131.1953  153.2356 H   0  0  0  0  0  0  0  0  0  0  0  0
  149.1397  132.6826  153.5258 H   0  0  0  0  0  0  0  0  0  0  0  0
  149.7302  131.1376  155.3135 H   0  0  0  0  0  0  0  0  0  0  0  0
  148.6194  130.3835  154.1810 H   0  0  0  0  0  0  0  0  0  0  0  0
  148.0422  130.9252  155.7528 H   0  0  0  0  0  0  0  0  0  0  0  0
  149.6294  133.7719  155.6093 H   0  0  0  0  0  0  0  0  0  0  0  0
  148.0727  132.5515  157.1359 H   0  0  0  0  0  0  0  0  0  0  0  0
  146.7179  133.4774  156.4935 H   0  0  0  0  0  0  0  0  0  0  0  0
  148.0078  134.2895  157.3654 H   0  0  0  0  0  0  0  0  0  0  0  0
  148.5510  135.0528  153.8242 H   0  0  0  0  0  0  0  0  0  0  0  0
  148.0698  137.0927  155.1295 H   0  0  0  0  0  0  0  0  0  0  0  0
  148.2805  136.0757  156.5454 H   0  0  0  0  0  0  0  0  0  0  0  0
  152.7073  137.1646  155.1646 H   0  0  0  0  0  0  0  0  0  0  0  0
  152.3083  137.9282  153.6561 H   0  0  0  0  0  0  0  0  0  0  0  0
  151.9783  139.2136  156.4327 H   0  0  0  0  0  0  0  0  0  0  0  0
  153.2342  139.5933  155.2680 H   0  0  0  0  0  0  0  0  0  0  0  0
  149.6580  139.8009  155.8311 H   0  0  0  0  0  0  0  0  0  0  0  0
  148.0923  140.7473  154.1305 H   0  0  0  0  0  0  0  0  0  0  0  0
  149.4473  141.0617  153.0470 H   0  0  0  0  0  0  0  0  0  0  0  0
  149.3251  141.9221  154.5794 H   0  0  0  0  0  0  0  0  0  0  0  0
  150.0534  138.5233  153.0632 H   0  0  0  0  0  0  0  0  0  0  0  0
  148.7101  138.2120  154.1297 H   0  0  0  0  0  0  0  0  0  0  0  0
  147.1421  134.3072  152.3897 H   0  0  0  0  0  0  0  0  0  0  0  0
  147.1627  135.0308  154.6972 H   0  0  0  0  0  0  0  0  0  0  0  0
  1  2  1  0  0  0  0
  1 22  1  0  0  0  0
  1 23  1  0  0  0  0
  1 24  1  0  0  0  0
  2 21  2  0  0  0  0
  2  3  1  0  0  0  0
  3  4  2  0  0  0  0
  3 25  1  0  0  0  0
  4  5  1  0  0  0  0
  5  6  1  0  0  0  0
  5 21  1  0  0  0  0
  6  7  1  0  0  0  0
  6  8  1  0  0  0  0
  6 26  1  0  0  0  0
  7 27  1  0  0  0  0
  7 28  1  0  0  0  0
  7 29  1  0  0  0  0
  8  9  1  0  0  0  0
  8 10  1  0  0  0  0
  8 30  1  0  0  0  0
  9 31  1  0  0  0  0
  9 32  1  0  0  0  0
  9 33  1  0  0  0  0
 10 11  1  0  0  0  0
 10 34  1  0  0  0  0
 10 48  1  0  0  0  0
 11 12  1  0  0  0  0
 11 35  1  0  0  0  0
 11 36  1  0  0  0  0
 12 13  2  0  0  0  0
 12 14  1  0  0  0  0
 14 20  1  0  0  0  0
 14 15  1  0  0  0  0
 15 16  1  0  0  0  0
 15 37  1  0  0  0  0
 15 38  1  0  0  0  0
 16 17  1  0  0  0  0
 16 39  1  0  0  0  0
 16 40  1  0  0  0  0
 17 18  1  0  0  0  0
 18 19  1  0  0  0  0
 18 20  1  0  0  0  0
 18 41  1  0  0  0  0
 19 42  1  0  0  0  0
 19 43  1  0  0  0  0
 19 44  1  0  0  0  0
 20 45  1  0  0  0  0
 20 46  1  0  0  0  0
 21 47  1  0  0  0  0
M  CHG  1  10   1
M  END
> <s_m_source_file>
AV-unprocessed.smi

> <i_m_source_file_index>
3056

> <i_lp_mmshare_version>
43012

> <i_f3d_flags>
0

> <s_epik_input>
W0NIM11jMVtjSF1ubihbY0hdMSlbQ0BIXShbQ0gzXSlbQ0BIXShbQ0gzXSlbTkhdW0NIMl1DKD1PKU4yW0NIMl1bQ0gyXU9bQ0BASF0oW0NIM10pW0NIMl0y

> <s_epik_cmdline>
J2VwaWtfcHl0aG9uJywgJy1waCcsICc3LjAnLCAnLXRuJywgJzgnLCAnLW1hJywgJzIwMCcsICctbWV0YWxfYmluZGluZycsICctaW1hZScsICc8aW5maWxlLm1hZT4nLCAnLW9tYWUnLCAnPG91dGZpbGUubWFlPic=

> <r_lp_tautomer_probability>
1

> <r_epik_Ionization_Penalty>
0.233715

> <r_epik_Ionization_Penalty_Charging>
0.233698

> <r_epik_Ionization_Penalty_Neutral>
1.68157e-05

> <r_epik_State_Penalty>
0.225221

> <r_epik_Charging_Adjusted_Penalty>
0.458919

> <i_epik_Tot_Q>
1

> <i_epik_Tot_abs_Q>
1

> <r_epik_Metal_State_Penalty>
0.225535

> <b_epik_Metal_Only>
0

> <s_lp_Force_Field>
OPLS_2005

> <r_lp_Energy>
27.9094

> <b_lp_Chiralities_Consistent>
1

> <s_lp_Variant>
AV-unprocessed.smi:3056-1

> <Gold.Version>
5.8.1

> <Gold.Id.Protein>
6NUR|6NUR_protein|mol2

> <Gold.PLP.Fitness>
54.7111

> <Gold.PLP.PLP>
-40.6989

> <Gold.PLP.part.hbond>
-2.8165

> <Gold.PLP.part.metal>
0.0000

> <Gold.PLP.part.buried>
-4.2009

> <Gold.PLP.part.nonpolar>
-34.0145

> <Gold.PLP.part.repulsive>
0.2495

> <Gold.PLP.ligand.clash>
0.0000

> <Gold.PLP.ligand.torsion>
0.5719

> <Gold.PLP.Chemscore.Hbond>
4.0000

> <Gold.PLP.Chemscore.CHOScore>
1.0000

> <Gold.PLP.Chemscore.Metal>
0.0000

> <Gold.Chemscore.Hbonds>
donor molecule, donor type, donor heavy atom, donor atom, acceptor molecule, acceptor atom, score
      L1  H    10    34       P1  7948  0.65
      P1  H  7989  7998       L1    17  0.73
      L1  C    21    47       P1  7948  0.69

> <Gold.PLP.Chemscore.Internal.Correction>
0.1560

> <Gold.Rescore>
     Score         DG    S(hbond)    S(metal)    S(lipo)     H(rot)  DE(clash)    DE(int)     intcor
     13.86     -14.41       1.16        0.00      81.14       1.74       0.05       0.50       ----

> <Gold.Chemscore.Fitness>
13.8596

> <Gold.Chemscore.DG>
-14.4052

> <Gold.Chemscore.ZeroCoef>
-5.4800

> <Gold.Chemscore.Hbond>
1.1598

> <Gold.Chemscore.Metal>
0.0000

> <Gold.Chemscore.Lipo>
81.1449

> <Gold.Chemscore.Internal_Hbond>
0.0000

> <Gold.Chemscore.DEClash>
0.0493

> <Gold.Chemscore.DEInternal>
0.4963

> <Gold.Chemscore.Rot>
1.7354

> <Gold.Chemscore.Internal.Correction>
   9.000000E+99

> <Gold.Chemscore.Hbonds>
donor molecule, donor type, donor heavy atom, donor atom, acceptor molecule, acceptor atom, score
      L1  H    10    34       P1  7948  0.28
      P1  H  7989  7998       L1    17  0.57

> <Gold.Chemscore.Hbond.Weighted>
-3.8738

> <Gold.Chemscore.Metal.Weighted>
-0.0000

> <Gold.Chemscore.Lipo.Weighted>
-9.4940

> <Gold.Chemscore.Internal_Hbond.Weighted>
0.0000

> <Gold.Chemscore.DEClash.Weighted>
0.0493

> <Gold.Chemscore.DEInternal.Weighted>
0.4963

> <Gold.Chemscore.Rot.Weighted>
4.4426

> <Gold.Chemscore.Internal.Correction.Weighted>
   9.000000E+99

> <Gold.Protein.RotatedTorsions>
[ 6907 6896 6895 6894 ] final -162.52 input  -60.11 | X-H torsion
[ 7974 7965 7964 7962 ] final   48.92 input  175.53 | X-H torsion
[ 8008 7997 7996 7995 ] final  103.40 input   59.86 | X-H torsion
[ 10167 10162 10161 10158 ] final   28.71 input  -65.29 | X-H torsion
[ 10718 10713 10712 10709 ] final  105.38 input   66.30 | X-H torsion
[ 10763 10752 10751 10750 ] final  -59.47 input  -60.55 | X-H torsion
[ 11005 11000 10999 10996 ] final  161.79 input  -57.11 | X-H torsion

> <Gold.Protein.ActiveResidues>
 VAL166  LYS551  ARG553  GLY616  TRP617  ASP618  TYR619  PRO620  LYS621  CYS622 
 ASP623  PHE694  ASN695  SER759  ASP760  ASP761  ALA762  ILE779  LEU786  VAL792 
 PHE793  MET794  SER795  GLU796  ALA797  LYS798  CYS799  TRP800  GLU811  SER814 

> <Gold.Protein.RotatedAtoms>
  151.3815  133.3819  159.2710 H   0  0  0  0  0  0  0  0  0  0  0  0  # atno 6907 bound_to 6896
  150.9573  134.8967  159.7720 H   0  0  0  0  0  0  0  0  0  0  0  0  # atno 6908 bound_to 6896
  152.5136  134.3773  159.9391 H   0  0  0  0  0  0  0  0  0  0  0  0  # atno 6909 bound_to 6896
  146.0159  139.4595  142.9927 H   0  0  0  0  0  0  0  0  0  0  0  0  # atno 7974 bound_to 7965
  156.1481  140.3165  155.8602 H   0  0  0  0  0  0  0  0  0  0  0  0  # atno 8008 bound_to 7997
  155.4025  140.0500  157.3053 H   0  0  0  0  0  0  0  0  0  0  0  0  # atno 8009 bound_to 7997
  154.5034  140.2138  155.9313 H   0  0  0  0  0  0  0  0  0  0  0  0  # atno 8010 bound_to 7997
  140.4829  144.0588  150.6271 H   0  0  0  0  0  0  0  0  0  0  0  0  # atno 10167 bound_to 10162
  157.6707  131.0826  150.5848 H   0  0  0  0  0  0  0  0  0  0  0  0  # atno 10718 bound_to 10713
  154.2543  135.6320  153.5251 H   0  0  0  0  0  0  0  0  0  0  0  0  # atno 10763 bound_to 10752
  152.9907  135.5572  154.5774 H   0  0  0  0  0  0  0  0  0  0  0  0  # atno 10764 bound_to 10752
  154.5308  135.2888  155.1156 H   0  0  0  0  0  0  0  0  0  0  0  0  # atno 10765 bound_to 10752
  140.2193  134.8208  157.3203 H   0  0  0  0  0  0  0  0  0  0  0  0  # atno 11005 bound_to 11000
  145.7270  141.0055  143.1372 LP  0  0  0  0  0  0  0  0  0  0  0  0  # atno 17320 bound_to 7965
  144.6970  139.8938  143.7454 LP  0  0  0  0  0  0  0  0  0  0  0  0  # atno 17321 bound_to 7965
  140.3835  143.2790  152.0143 LP  0  0  0  0  0  0  0  0  0  0  0  0  # atno 17342 bound_to 10162
  139.4836  144.6135  151.7389 LP  0  0  0  0  0  0  0  0  0  0  0  0  # atno 17343 bound_to 10162
  156.6148  130.4390  149.5845 LP  0  0  0  0  0  0  0  0  0  0  0  0  # atno 17370 bound_to 10713
  156.2402  130.6846  151.1548 LP  0  0  0  0  0  0  0  0  0  0  0  0  # atno 17371 bound_to 10713
  140.1867  134.4422  155.7740 LP  0  0  0  0  0  0  0  0  0  0  0  0  # atno 17394 bound_to 11000
  141.2223  133.7008  156.7959 LP  0  0  0  0  0  0  0  0  0  0  0  0  # atno 17395 bound_to 11000

$$$$
