AV-unprocessed.smi:1360|AV-procd|sdf|5554|dock2
  -GOLD-   22720 5143D 1   1.00000     0.00000
 Structure written by MMmdl.
 36 37  0  0  0  0  0  0  0  0  1 V2000
  147.0664  142.0026  155.2184 C   0  0  0  0  0  0  0  0  0  0  0  0
  148.3737  141.2475  155.5092 C   0  0  1  0  0  0  0  0  0  0  0  0
  149.1965  140.9382  154.2397 C   0  0  0  0  0  0  0  0  0  0  0  0
  150.2208  139.9349  154.4657 N   0  0  0  0  0  0  0  0  0  0  0  0
  150.3214  138.6779  153.9080 C   0  0  0  0  0  0  0  0  0  0  0  0
  151.4481  138.0972  154.4158 C   0  0  0  0  0  0  0  0  0  0  0  0
  151.9751  139.0892  155.2893 C   0  0  0  0  0  0  0  0  0  0  0  0
  151.2371  140.1872  155.3190 N   0  0  0  0  0  0  0  0  0  0  0  0
  149.1752  142.0273  156.4479 N   0  0  0  0  0  0  0  0  0  0  0  0
  149.9803  141.5200  157.3946 C   0  0  0  0  0  0  0  0  0  0  0  0
  150.1398  140.3116  157.5696 O   0  0  0  0  0  0  0  0  0  0  0  0
  150.7212  142.5343  158.2758 C   0  0  1  0  0  0  0  0  0  0  0  0
  151.6897  141.8245  159.2491 C   0  0  0  0  0  0  0  0  0  0  0  0
  152.6073  142.8049  159.9582 C   0  0  0  0  0  0  0  0  0  0  0  0
  152.7995  144.0689  159.5437 C   0  0  0  0  0  0  0  0  0  0  0  0
  152.1260  144.6582  158.3167 C   0  0  0  0  0  0  0  0  0  0  0  0
  151.4786  143.5775  157.4294 C   0  0  0  0  0  0  0  0  0  0  0  0
  146.3961  141.4153  154.5908 H   0  0  0  0  0  0  0  0  0  0  0  0
  147.2591  142.9468  154.7078 H   0  0  0  0  0  0  0  0  0  0  0  0
  146.5299  142.2257  156.1411 H   0  0  0  0  0  0  0  0  0  0  0  0
  148.1020  140.3030  155.9845 H   0  0  0  0  0  0  0  0  0  0  0  0
  148.5409  140.6000  153.4355 H   0  0  0  0  0  0  0  0  0  0  0  0
  149.6893  141.8413  153.8773 H   0  0  0  0  0  0  0  0  0  0  0  0
  149.5916  138.3074  153.2029 H   0  0  0  0  0  0  0  0  0  0  0  0
  151.8365  137.1136  154.1972 H   0  0  0  0  0  0  0  0  0  0  0  0
  152.8650  139.0442  155.8995 H   0  0  0  0  0  0  0  0  0  0  0  0
  149.1090  143.0322  156.3743 H   0  0  0  0  0  0  0  0  0  0  0  0
  149.9796  143.0719  158.8702 H   0  0  0  0  0  0  0  0  0  0  0  0
  151.1209  141.2753  160.0001 H   0  0  0  0  0  0  0  0  0  0  0  0
  152.3137  141.0964  158.7287 H   0  0  0  0  0  0  0  0  0  0  0  0
  153.1294  142.4403  160.8307 H   0  0  0  0  0  0  0  0  0  0  0  0
  153.4550  144.7223  160.1006 H   0  0  0  0  0  0  0  0  0  0  0  0
  151.3716  145.3694  158.6544 H   0  0  0  0  0  0  0  0  0  0  0  0
  152.8591  145.2223  157.7394 H   0  0  0  0  0  0  0  0  0  0  0  0
  152.2579  143.0799  156.8494 H   0  0  0  0  0  0  0  0  0  0  0  0
  150.8116  144.0488  156.7063 H   0  0  0  0  0  0  0  0  0  0  0  0
  1  2  1  0  0  0  0
  1 18  1  0  0  0  0
  1 19  1  0  0  0  0
  1 20  1  0  0  0  0
  2  3  1  0  0  0  0
  2  9  1  0  0  0  0
  2 21  1  0  0  0  0
  3  4  1  0  0  0  0
  3 22  1  0  0  0  0
  3 23  1  0  0  0  0
  4  8  1  0  0  0  0
  4  5  1  0  0  0  0
  5  6  2  0  0  0  0
  5 24  1  0  0  0  0
  6  7  1  0  0  0  0
  6 25  1  0  0  0  0
  7  8  2  0  0  0  0
  7 26  1  0  0  0  0
  9 10  1  0  0  0  0
  9 27  1  0  0  0  0
 10 11  2  0  0  0  0
 10 12  1  0  0  0  0
 12 17  1  0  0  0  0
 12 13  1  0  0  0  0
 12 28  1  0  0  0  0
 13 14  1  0  0  0  0
 13 29  1  0  0  0  0
 13 30  1  0  0  0  0
 14 15  2  0  0  0  0
 14 31  1  0  0  0  0
 15 16  1  0  0  0  0
 15 32  1  0  0  0  0
 16 17  1  0  0  0  0
 16 33  1  0  0  0  0
 16 34  1  0  0  0  0
 17 35  1  0  0  0  0
 17 36  1  0  0  0  0
M  END
> <s_m_source_file>
AV-unprocessed.smi

> <i_m_source_file_index>
1360

> <i_lp_mmshare_version>
43012

> <i_f3d_flags>
0

> <s_epik_input>
bjFbY0hdW2NIXVtjSF1uMVtDSDJdW0NAQEhdKFtDSDNdKVtOSF1DKD1PKVtDQEBIXTJbQ0gyXVtDSF09W0NIXVtDSDJdW0NIMl0y

> <s_epik_cmdline>
J2VwaWtfcHl0aG9uJywgJy1waCcsICc3LjAnLCAnLXRuJywgJzgnLCAnLW1hJywgJzIwMCcsICctbWV0YWxfYmluZGluZycsICctaW1hZScsICc8aW5maWxlLm1hZT4nLCAnLW9tYWUnLCAnPG91dGZpbGUubWFlPic=

> <r_lp_tautomer_probability>
1

> <r_epik_Ionization_Penalty>
0.000315076

> <r_epik_Ionization_Penalty_Charging>
0

> <r_epik_Ionization_Penalty_Neutral>
0.000315076

> <r_epik_State_Penalty>
-0

> <r_epik_Charging_Adjusted_Penalty>
0

> <i_epik_Tot_Q>
0

> <i_epik_Tot_abs_Q>
0

> <r_epik_Metal_State_Penalty>
-0

> <b_epik_Metal_Only>
0

> <s_lp_Force_Field>
OPLS_2005

> <r_lp_Energy>
7.88056

> <b_lp_Chiralities_Consistent>
1

> <s_lp_Variant>
AV-unprocessed.smi:1360-4

> <Gold.Version>
5.8.1

> <Gold.Id.Protein>
6NUR|6NUR_protein|mol2

> <Gold.PLP.Fitness>
46.6142

> <Gold.PLP.PLP>
-40.5289

> <Gold.PLP.part.hbond>
-2.0000

> <Gold.PLP.part.metal>
0.0000

> <Gold.PLP.part.buried>
-0.6713

> <Gold.PLP.part.nonpolar>
-36.7266

> <Gold.PLP.part.repulsive>
0.0616

> <Gold.PLP.ligand.clash>
0.0000

> <Gold.PLP.ligand.torsion>
0.5634

> <Gold.PLP.Chemscore.Hbond>
1.0000

> <Gold.PLP.Chemscore.CHOScore>
1.3929

> <Gold.PLP.Chemscore.Metal>
0.0000

> <Gold.Chemscore.Hbonds>
donor molecule, donor type, donor heavy atom, donor atom, acceptor molecule, acceptor atom, score
      L1  H     9    27       P1  8028  1.00
      L1  C     5    24       P1  7948  1.00
      L1  C     5    24       P1  7957  0.35

> <Gold.PLP.Chemscore.Internal.Correction>
0.0335

> <Gold.Rescore>
     Score         DG    S(hbond)    S(metal)    S(lipo)     H(rot)  DE(clash)    DE(int)     intcor
     18.52     -19.92       1.81        0.00     104.79       1.51       0.51       0.89       ----

> <Gold.Chemscore.Fitness>
18.5240

> <Gold.Chemscore.DG>
-19.9230

> <Gold.Chemscore.ZeroCoef>
-5.4800

> <Gold.Chemscore.Hbond>
1.8074

> <Gold.Chemscore.Metal>
0.0000

> <Gold.Chemscore.Lipo>
104.7946

> <Gold.Chemscore.Internal_Hbond>
0.0000

> <Gold.Chemscore.DEClash>
0.5107

> <Gold.Chemscore.DEInternal>
0.8883

> <Gold.Chemscore.Rot>
1.5057

> <Gold.Chemscore.Internal.Correction>
   9.000000E+99

> <Gold.Chemscore.Hbonds>
donor molecule, donor type, donor heavy atom, donor atom, acceptor molecule, acceptor atom, score
      L1  H     9    27       P1  8028  1.00

> <Gold.Chemscore.Hbond.Weighted>
-6.0367

> <Gold.Chemscore.Metal.Weighted>
-0.0000

> <Gold.Chemscore.Lipo.Weighted>
-12.2610

> <Gold.Chemscore.Internal_Hbond.Weighted>
0.0000

> <Gold.Chemscore.DEClash.Weighted>
0.5107

> <Gold.Chemscore.DEInternal.Weighted>
0.8883

> <Gold.Chemscore.Rot.Weighted>
3.8546

> <Gold.Chemscore.Internal.Correction.Weighted>
   9.000000E+99

> <Gold.Protein.RotatedTorsions>
[ 6907 6896 6895 6894 ] final  166.94 input  -60.11 | X-H torsion
[ 7974 7965 7964 7962 ] final  126.37 input  175.53 | X-H torsion
[ 8008 7997 7996 7995 ] final   37.33 input   59.86 | X-H torsion
[ 10167 10162 10161 10158 ] final   -8.75 input  -65.29 | X-H torsion
[ 10718 10713 10712 10709 ] final   -6.97 input   66.30 | X-H torsion
[ 10763 10752 10751 10750 ] final  -78.00 input  -60.55 | X-H torsion
[ 11005 11000 10999 10996 ] final   23.19 input  -57.11 | X-H torsion

> <Gold.Protein.ActiveResidues>
 VAL166  LYS551  ARG553  GLY616  TRP617  ASP618  TYR619  PRO620  LYS621  CYS622 
 ASP623  PHE694  ASN695  SER759  ASP760  ASP761  ALA762  ILE779  LEU786  VAL792 
 PHE793  MET794  SER795  GLU796  ALA797  LYS798  CYS799  TRP800  GLU811  SER814 

> <Gold.Protein.RotatedAtoms>
  151.8711  133.3476  159.3735 H   0  0  0  0  0  0  0  0  0  0  0  0  # atno 6907 bound_to 6896
  150.7152  134.5111  159.5617 H   0  0  0  0  0  0  0  0  0  0  0  0  # atno 6908 bound_to 6896
  152.2644  134.8000  160.0476 H   0  0  0  0  0  0  0  0  0  0  0  0  # atno 6909 bound_to 6896
  145.0624  139.3794  143.4999 H   0  0  0  0  0  0  0  0  0  0  0  0  # atno 7974 bound_to 7965
  155.2020  140.3316  155.4342 H   0  0  0  0  0  0  0  0  0  0  0  0  # atno 8008 bound_to 7997
  156.2403  140.1892  156.7056 H   0  0  0  0  0  0  0  0  0  0  0  0  # atno 8009 bound_to 7997
  154.6135  140.0605  156.9510 H   0  0  0  0  0  0  0  0  0  0  0  0  # atno 8010 bound_to 7997
  140.7068  143.5934  150.8870 H   0  0  0  0  0  0  0  0  0  0  0  0  # atno 10167 bound_to 10162
  156.7241  130.5160  149.5861 H   0  0  0  0  0  0  0  0  0  0  0  0  # atno 10718 bound_to 10713
  154.5202  135.5745  153.6675 H   0  0  0  0  0  0  0  0  0  0  0  0  # atno 10763 bound_to 10752
  152.9915  135.6180  154.2764 H   0  0  0  0  0  0  0  0  0  0  0  0  # atno 10764 bound_to 10752
  154.2684  135.2854  155.2728 H   0  0  0  0  0  0  0  0  0  0  0  0  # atno 10765 bound_to 10752
  140.3724  134.2009  155.7666 H   0  0  0  0  0  0  0  0  0  0  0  0  # atno 11005 bound_to 11000
  146.3525  140.0329  142.8649 LP  0  0  0  0  0  0  0  0  0  0  0  0  # atno 17320 bound_to 7965
  145.1392  140.9561  143.4499 LP  0  0  0  0  0  0  0  0  0  0  0  0  # atno 17321 bound_to 7965
  139.9659  143.6111  152.2988 LP  0  0  0  0  0  0  0  0  0  0  0  0  # atno 17342 bound_to 10162
  139.6680  144.7662  151.1836 LP  0  0  0  0  0  0  0  0  0  0  0  0  # atno 17343 bound_to 10162
  156.1574  130.6351  151.0675 LP  0  0  0  0  0  0  0  0  0  0  0  0  # atno 17370 bound_to 10713
  157.6886  131.0817  150.7172 LP  0  0  0  0  0  0  0  0  0  0  0  0  # atno 17371 bound_to 10713
  141.1950  133.8115  157.0732 LP  0  0  0  0  0  0  0  0  0  0  0  0  # atno 17394 bound_to 11000
  140.0542  134.9789  157.1190 LP  0  0  0  0  0  0  0  0  0  0  0  0  # atno 17395 bound_to 11000

$$$$
