AV-unprocessed.smi:766|AV-procd|sdf|3656|dock7
  -GOLD-   22720 1 63D 1   1.00000     0.00000
 Structure written by MMmdl.
 46 48  0  0  0  0  0  0  0  0  1 V2000
  153.1976  142.4803  160.5796 C   0  0  0  0  0  0  0  0  0  0  0  0
  152.3950  142.1890  159.3241 C   0  0  0  0  0  0  0  0  0  0  0  0
  152.1427  140.8455  158.9661 C   0  0  0  0  0  0  0  0  0  0  0  0
  151.4046  140.5319  157.8040 C   0  0  0  0  0  0  0  0  0  0  0  0
  151.0485  139.3058  157.2691 N   0  0  0  0  0  0  0  0  0  0  0  0
  150.3760  139.6746  156.1830 C   0  0  0  0  0  0  0  0  0  0  0  0
  150.2498  140.9959  155.9528 N   0  0  0  0  0  0  0  0  0  0  0  0
  149.5673  141.6315  154.8398 C   0  0  0  0  0  0  0  0  0  0  0  0
  148.0711  141.2570  154.7619 C   0  0  1  0  0  0  0  0  0  0  0  0
  147.2882  142.2668  155.3640 O   0  0  0  0  0  0  0  0  0  0  0  0
  147.5281  140.9585  153.3496 C   0  0  0  0  0  0  0  0  0  0  0  0
  147.8215  139.5925  152.9255 N   0  0  0  0  0  0  0  0  0  0  0  0
  146.7539  138.9818  152.1397 C   0  0  0  0  0  0  0  0  0  0  0  0
  146.1103  137.8034  152.8881 C   0  0  0  0  0  0  0  0  0  0  0  0
  145.3499  136.9380  152.0032 N   0  0  0  0  0  0  0  0  0  0  0  0
  145.7844  136.2622  150.8822 C   0  0  0  0  0  0  0  0  0  0  0  0
  144.7151  135.5764  150.3810 C   0  0  0  0  0  0  0  0  0  0  0  0
  143.6560  135.9024  151.2737 C   0  0  0  0  0  0  0  0  0  0  0  0
  144.0378  136.7213  152.2404 N   0  0  0  0  0  0  0  0  0  0  0  0
  150.9205  141.6084  157.0044 C   0  0  0  0  0  0  0  0  0  0  0  0
  151.1618  142.9491  157.3516 C   0  0  0  0  0  0  0  0  0  0  0  0
  151.9024  143.2446  158.5151 C   0  0  0  0  0  0  0  0  0  0  0  0
  152.1609  144.6959  158.8793 C   0  0  0  0  0  0  0  0  0  0  0  0
  153.5242  141.5609  161.0665 H   0  0  0  0  0  0  0  0  0  0  0  0
  152.5961  143.0424  161.2942 H   0  0  0  0  0  0  0  0  0  0  0  0
  154.0865  143.0639  160.3391 H   0  0  0  0  0  0  0  0  0  0  0  0
  152.5173  140.0408  159.5815 H   0  0  0  0  0  0  0  0  0  0  0  0
  149.9456  138.9429  155.5160 H   0  0  0  0  0  0  0  0  0  0  0  0
  149.6810  142.7116  154.9395 H   0  0  0  0  0  0  0  0  0  0  0  0
  150.0795  141.3522  153.9178 H   0  0  0  0  0  0  0  0  0  0  0  0
  147.9174  140.3601  155.3630 H   0  0  0  0  0  0  0  0  0  0  0  0
  147.8594  142.9735  155.6240 H   0  0  0  0  0  0  0  0  0  0  0  0
  146.4479  141.1112  153.3480 H   0  0  0  0  0  0  0  0  0  0  0  0
  147.9371  141.6741  152.6352 H   0  0  0  0  0  0  0  0  0  0  0  0
  148.6913  139.5751  152.4023 H   0  0  0  0  0  0  0  0  0  0  0  0
  145.9919  139.7236  151.8975 H   0  0  0  0  0  0  0  0  0  0  0  0
  147.1551  138.6286  151.1892 H   0  0  0  0  0  0  0  0  0  0  0  0
  146.8831  137.2027  153.3695 H   0  0  0  0  0  0  0  0  0  0  0  0
  145.4546  138.1634  153.6822 H   0  0  0  0  0  0  0  0  0  0  0  0
  146.8077  136.3205  150.5416 H   0  0  0  0  0  0  0  0  0  0  0  0
  144.6928  134.9368  149.5111 H   0  0  0  0  0  0  0  0  0  0  0  0
  142.6285  135.5707  151.2482 H   0  0  0  0  0  0  0  0  0  0  0  0
  150.7815  143.7421  156.7249 H   0  0  0  0  0  0  0  0  0  0  0  0
  151.6943  145.3741  158.1644 H   0  0  0  0  0  0  0  0  0  0  0  0
  153.2315  144.9023  158.8872 H   0  0  0  0  0  0  0  0  0  0  0  0
  151.7569  144.9208  159.8665 H   0  0  0  0  0  0  0  0  0  0  0  0
  1  2  1  0  0  0  0
  1 24  1  0  0  0  0
  1 25  1  0  0  0  0
  1 26  1  0  0  0  0
  2 22  1  0  0  0  0
  2  3  2  0  0  0  0
  3  4  1  0  0  0  0
  3 27  1  0  0  0  0
  4 20  2  0  0  0  0
  4  5  1  0  0  0  0
  5  6  2  0  0  0  0
  6  7  1  0  0  0  0
  6 28  1  0  0  0  0
  7  8  1  0  0  0  0
  7 20  1  0  0  0  0
  8  9  1  0  0  0  0
  8 29  1  0  0  0  0
  8 30  1  0  0  0  0
  9 10  1  0  0  0  0
  9 11  1  0  0  0  0
  9 31  1  0  0  0  0
 10 32  1  0  0  0  0
 11 12  1  0  0  0  0
 11 33  1  0  0  0  0
 11 34  1  0  0  0  0
 12 13  1  0  0  0  0
 12 35  1  0  0  0  0
 13 14  1  0  0  0  0
 13 36  1  0  0  0  0
 13 37  1  0  0  0  0
 14 15  1  0  0  0  0
 14 38  1  0  0  0  0
 14 39  1  0  0  0  0
 15 19  1  0  0  0  0
 15 16  1  0  0  0  0
 16 17  2  0  0  0  0
 16 40  1  0  0  0  0
 17 18  1  0  0  0  0
 17 41  1  0  0  0  0
 18 19  2  0  0  0  0
 18 42  1  0  0  0  0
 20 21  1  0  0  0  0
 21 22  2  0  0  0  0
 21 43  1  0  0  0  0
 22 23  1  0  0  0  0
 23 44  1  0  0  0  0
 23 45  1  0  0  0  0
 23 46  1  0  0  0  0
M  END
> <s_m_source_file>
AV-unprocessed.smi

> <i_m_source_file_index>
766

> <i_lp_mmshare_version>
43012

> <i_f3d_flags>
0

> <s_epik_input>
W0NIM11jKFtjSF0xKWMoW0NIM10pW2NIXWMoYzEyKW4oW2NIXW4yKVtDSDJdW0NASF0oW09IXSlbQ0gyXVtOSF1bQ0gyXVtDSDJdbjNbY0hdW2NIXVtjSF1uMw==

> <s_epik_cmdline>
J2VwaWtfcHl0aG9uJywgJy1waCcsICc3LjAnLCAnLXRuJywgJzgnLCAnLW1hJywgJzIwMCcsICctbWV0YWxfYmluZGluZycsICctaW1hZScsICc8aW5maWxlLm1hZT4nLCAnLW9tYWUnLCAnPG91dGZpbGUubWFlPic=

> <r_lp_tautomer_probability>
1

> <r_epik_Ionization_Penalty>
1.68727

> <r_epik_Ionization_Penalty_Charging>
0

> <r_epik_Ionization_Penalty_Neutral>
1.68727

> <r_epik_State_Penalty>
1.78741

> <r_epik_Charging_Adjusted_Penalty>
1.78741

> <i_epik_Tot_Q>
0

> <i_epik_Tot_abs_Q>
0

> <r_epik_Metal_State_Penalty>
1.73664

> <b_epik_Metal_Only>
0

> <s_lp_Force_Field>
OPLS_2005

> <r_lp_Energy>
18.4914

> <b_lp_Chiralities_Consistent>
1

> <s_lp_Variant>
AV-unprocessed.smi:766-6

> <Gold.Version>
5.8.1

> <Gold.Id.Protein>
6NUR|6NUR_protein|mol2

> <Gold.PLP.Fitness>
57.8350

> <Gold.PLP.PLP>
-51.6659

> <Gold.PLP.part.hbond>
-2.0000

> <Gold.PLP.part.metal>
0.0000

> <Gold.PLP.part.buried>
-3.8731

> <Gold.PLP.part.nonpolar>
-46.4772

> <Gold.PLP.part.repulsive>
0.1576

> <Gold.PLP.ligand.clash>
0.0000

> <Gold.PLP.ligand.torsion>
1.5251

> <Gold.PLP.Chemscore.Hbond>
2.0000

> <Gold.PLP.Chemscore.CHOScore>
1.0000

> <Gold.PLP.Chemscore.Metal>
0.0000

> <Gold.Chemscore.Hbonds>
donor molecule, donor type, donor heavy atom, donor atom, acceptor molecule, acceptor atom, score
      L1  H    10    32       P1  8028  1.00
      L1  H    12    35       P1  7957  1.00
      L1  C    16    40       P1  7948  1.00

> <Gold.PLP.Chemscore.Internal.Correction>
0.2193

> <Gold.Rescore>
     Score         DG    S(hbond)    S(metal)    S(lipo)     H(rot)  DE(clash)    DE(int)     intcor
     18.42     -20.17       1.71        0.00     138.73       2.83       0.28       1.47       ----

> <Gold.Chemscore.Fitness>
18.4220

> <Gold.Chemscore.DG>
-20.1726

> <Gold.Chemscore.ZeroCoef>
-5.4800

> <Gold.Chemscore.Hbond>
1.7121

> <Gold.Chemscore.Metal>
0.0000

> <Gold.Chemscore.Lipo>
138.7300

> <Gold.Chemscore.Internal_Hbond>
0.0000

> <Gold.Chemscore.DEClash>
0.2839

> <Gold.Chemscore.DEInternal>
1.4667

> <Gold.Chemscore.Rot>
2.8348

> <Gold.Chemscore.Internal.Correction>
   9.000000E+99

> <Gold.Chemscore.Hbonds>
donor molecule, donor type, donor heavy atom, donor atom, acceptor molecule, acceptor atom, score
      L1  H    10    32       P1  8028  0.63
      L1  H    12    35       P1  7957  0.94

> <Gold.Chemscore.Hbond.Weighted>
-5.7183

> <Gold.Chemscore.Metal.Weighted>
-0.0000

> <Gold.Chemscore.Lipo.Weighted>
-16.2314

> <Gold.Chemscore.Internal_Hbond.Weighted>
0.0000

> <Gold.Chemscore.DEClash.Weighted>
0.2839

> <Gold.Chemscore.DEInternal.Weighted>
1.4667

> <Gold.Chemscore.Rot.Weighted>
7.2572

> <Gold.Chemscore.Internal.Correction.Weighted>
   9.000000E+99

> <Gold.Protein.RotatedTorsions>
[ 6907 6896 6895 6894 ] final  174.06 input  -60.11 | X-H torsion
[ 7974 7965 7964 7962 ] final -155.67 input  175.53 | X-H torsion
[ 8008 7997 7996 7995 ] final   57.15 input   59.86 | X-H torsion
[ 10167 10162 10161 10158 ] final   13.18 input  -65.29 | X-H torsion
[ 10718 10713 10712 10709 ] final  -16.29 input   66.30 | X-H torsion
[ 10763 10752 10751 10750 ] final -110.47 input  -60.55 | X-H torsion
[ 11005 11000 10999 10996 ] final -154.79 input  -57.11 | X-H torsion

> <Gold.Protein.ActiveResidues>
 VAL166  LYS551  ARG553  GLY616  TRP617  ASP618  TYR619  PRO620  LYS621  CYS622 
 ASP623  PHE694  ASN695  SER759  ASP760  ASP761  ALA762  ILE779  LEU786  VAL792 
 PHE793  MET794  SER795  GLU796  ALA797  LYS798  CYS799  TRP800  GLU811  SER814 

> <Gold.Protein.RotatedAtoms>
  151.7583  133.3332  159.3410 H   0  0  0  0  0  0  0  0  0  0  0  0  # atno 6907 bound_to 6896
  150.7508  134.6129  159.6105 H   0  0  0  0  0  0  0  0  0  0  0  0  # atno 6908 bound_to 6896
  152.3422  134.7121  160.0312 H   0  0  0  0  0  0  0  0  0  0  0  0  # atno 6909 bound_to 6896
  144.7629  140.4217  143.5963 H   0  0  0  0  0  0  0  0  0  0  0  0  # atno 7974 bound_to 7965
  155.5290  140.3481  155.4422 H   0  0  0  0  0  0  0  0  0  0  0  0  # atno 8008 bound_to 7997
  156.0731  140.1368  156.9831 H   0  0  0  0  0  0  0  0  0  0  0  0  # atno 8009 bound_to 7997
  154.4539  140.0961  156.6675 H   0  0  0  0  0  0  0  0  0  0  0  0  # atno 8010 bound_to 7997
  140.6019  143.8586  150.6974 H   0  0  0  0  0  0  0  0  0  0  0  0  # atno 10167 bound_to 10162
  156.5897  130.4795  149.6285 H   0  0  0  0  0  0  0  0  0  0  0  0  # atno 10718 bound_to 10713
  154.8249  135.4563  154.0890 H   0  0  0  0  0  0  0  0  0  0  0  0  # atno 10763 bound_to 10752
  153.2212  135.6894  153.8004 H   0  0  0  0  0  0  0  0  0  0  0  0  # atno 10764 bound_to 10752
  153.7421  135.3311  155.3282 H   0  0  0  0  0  0  0  0  0  0  0  0  # atno 10765 bound_to 10752
  140.6935  134.4015  157.5217 H   0  0  0  0  0  0  0  0  0  0  0  0  # atno 11005 bound_to 11000
  145.6562  139.1573  143.2834 LP  0  0  0  0  0  0  0  0  0  0  0  0  # atno 17320 bound_to 7965
  146.1709  140.6646  142.9233 LP  0  0  0  0  0  0  0  0  0  0  0  0  # atno 17321 bound_to 7965
  140.2134  143.3865  152.1700 LP  0  0  0  0  0  0  0  0  0  0  0  0  # atno 17342 bound_to 10162
  139.5297  144.7145  151.5099 LP  0  0  0  0  0  0  0  0  0  0  0  0  # atno 17343 bound_to 10162
  156.2560  130.6935  151.1688 LP  0  0  0  0  0  0  0  0  0  0  0  0  # atno 17370 bound_to 10713
  157.7307  131.0614  150.5716 LP  0  0  0  0  0  0  0  0  0  0  0  0  # atno 17371 bound_to 10713
  139.8916  134.8774  156.2309 LP  0  0  0  0  0  0  0  0  0  0  0  0  # atno 17394 bound_to 11000
  141.0222  133.7035  156.1287 LP  0  0  0  0  0  0  0  0  0  0  0  0  # atno 17395 bound_to 11000

$$$$
