AV-unprocessed.smi:1541|AV-procd|sdf|6202|dock1
  -GOLD-   22720 6373D 1   1.00000     0.00000
 Structure written by MMmdl.
 40 41  0  0  0  0  0  0  0  0  1 V2000
  145.6742  143.2415  154.0980 C   0  0  0  0  0  0  0  0  0  0  0  0
  146.9742  142.4501  154.2834 C   0  0  0  0  0  0  0  0  0  0  0  0
  146.7406  141.0197  154.2440 N   0  0  0  0  0  0  0  0  0  0  0  0
  147.2190  140.1023  153.3297 C   0  0  0  0  0  0  0  0  0  0  0  0
  146.7145  138.8940  153.7202 C   0  0  0  0  0  0  0  0  0  0  0  0
  146.8913  137.6141  153.1362 N   0  0  0  0  0  0  0  0  0  0  0  0
  145.9799  136.6329  153.0321 C   0  0  0  0  0  0  0  0  0  0  0  0
  144.8235  136.6948  153.4498 O   0  0  0  0  0  0  0  0  0  0  0  0
  146.4892  135.5595  152.4101 N   0  0  0  0  0  0  0  0  0  0  0  0
  145.7663  134.3230  152.1198 C   0  0  0  0  0  0  0  0  0  0  0  0
  146.7530  133.2736  151.5666 C   0  0  0  0  0  0  0  0  0  0  0  0
  146.1257  131.9251  151.1733 C   0  0  0  0  0  0  0  0  0  0  0  0
  145.3291  131.9988  149.8607 C   0  0  0  0  0  0  0  0  0  0  0  0
  143.8613  132.4389  150.0028 C   0  0  0  0  0  0  0  0  0  0  0  0
  143.5638  133.5085  151.0681 C   0  0  0  0  0  0  0  0  0  0  0  0
  144.5923  134.6473  151.1721 C   0  0  0  0  0  0  0  0  0  0  0  0
  145.9382  139.1550  154.8792 C   0  0  0  0  0  0  0  0  0  0  0  0
  145.9577  140.4427  155.1891 N   0  0  0  0  0  0  0  0  0  0  0  0
  145.8669  144.3141  154.1204 H   0  0  0  0  0  0  0  0  0  0  0  0
  144.9579  143.0157  154.8886 H   0  0  0  0  0  0  0  0  0  0  0  0
  145.2044  143.0071  153.1424 H   0  0  0  0  0  0  0  0  0  0  0  0
  147.6873  142.7087  153.4999 H   0  0  0  0  0  0  0  0  0  0  0  0
  147.4428  142.7056  155.2350 H   0  0  0  0  0  0  0  0  0  0  0  0
  147.8571  140.3916  152.5077 H   0  0  0  0  0  0  0  0  0  0  0  0
  147.8070  137.4276  152.7542 H   0  0  0  0  0  0  0  0  0  0  0  0
  147.4508  135.6013  152.1059 H   0  0  0  0  0  0  0  0  0  0  0  0
  145.3465  133.9468  153.0548 H   0  0  0  0  0  0  0  0  0  0  0  0
  147.2935  133.6855  150.7129 H   0  0  0  0  0  0  0  0  0  0  0  0
  147.5117  133.0803  152.3260 H   0  0  0  0  0  0  0  0  0  0  0  0
  146.9400  131.2141  151.0297 H   0  0  0  0  0  0  0  0  0  0  0  0
  145.5175  131.5203  151.9833 H   0  0  0  0  0  0  0  0  0  0  0  0
  145.8424  132.6617  149.1632 H   0  0  0  0  0  0  0  0  0  0  0  0
  145.3404  131.0185  149.3827 H   0  0  0  0  0  0  0  0  0  0  0  0
  143.5188  132.7970  149.0311 H   0  0  0  0  0  0  0  0  0  0  0  0
  143.2473  131.5649  150.2237 H   0  0  0  0  0  0  0  0  0  0  0  0
  142.5863  133.9366  150.8437 H   0  0  0  0  0  0  0  0  0  0  0  0
  143.4479  133.0326  152.0426 H   0  0  0  0  0  0  0  0  0  0  0  0
  144.0701  135.5201  151.5675 H   0  0  0  0  0  0  0  0  0  0  0  0
  144.9511  134.9384  150.1838 H   0  0  0  0  0  0  0  0  0  0  0  0
  145.3727  138.4692  155.4927 H   0  0  0  0  0  0  0  0  0  0  0  0
  1  2  1  0  0  0  0
  1 19  1  0  0  0  0
  1 20  1  0  0  0  0
  1 21  1  0  0  0  0
  2  3  1  0  0  0  0
  2 22  1  0  0  0  0
  2 23  1  0  0  0  0
  3 18  1  0  0  0  0
  3  4  1  0  0  0  0
  4  5  2  0  0  0  0
  4 24  1  0  0  0  0
  5  6  1  0  0  0  0
  5 17  1  0  0  0  0
  6  7  1  0  0  0  0
  6 25  1  0  0  0  0
  7  8  2  0  0  0  0
  7  9  1  0  0  0  0
  9 10  1  0  0  0  0
  9 26  1  0  0  0  0
 10 16  1  0  0  0  0
 10 11  1  0  0  0  0
 10 27  1  0  0  0  0
 11 12  1  0  0  0  0
 11 28  1  0  0  0  0
 11 29  1  0  0  0  0
 12 13  1  0  0  0  0
 12 30  1  0  0  0  0
 12 31  1  0  0  0  0
 13 14  1  0  0  0  0
 13 32  1  0  0  0  0
 13 33  1  0  0  0  0
 14 15  1  0  0  0  0
 14 34  1  0  0  0  0
 14 35  1  0  0  0  0
 15 16  1  0  0  0  0
 15 36  1  0  0  0  0
 15 37  1  0  0  0  0
 16 38  1  0  0  0  0
 16 39  1  0  0  0  0
 17 18  2  0  0  0  0
 17 40  1  0  0  0  0
M  END
> <s_m_source_file>
AV-unprocessed.smi

> <i_m_source_file_index>
1541

> <i_lp_mmshare_version>
43012

> <i_f3d_flags>
0

> <s_epik_input>
W0NIM11bQ0gyXW4xW2NIXWMoW2NIXW4xKVtOSF1DKD1PKVtOSF1bQ0hdMltDSDJdW0NIMl1bQ0gyXVtDSDJdW0NIMl1bQ0gyXTI=

> <s_epik_cmdline>
J2VwaWtfcHl0aG9uJywgJy1waCcsICc3LjAnLCAnLXRuJywgJzgnLCAnLW1hJywgJzIwMCcsICctbWV0YWxfYmluZGluZycsICctaW1hZScsICc8aW5maWxlLm1hZT4nLCAnLW9tYWUnLCAnPG91dGZpbGUubWFlPic=

> <r_lp_tautomer_probability>
1

> <r_epik_Ionization_Penalty>
0.000192371

> <r_epik_Ionization_Penalty_Charging>
0

> <r_epik_Ionization_Penalty_Neutral>
0.000192371

> <r_epik_State_Penalty>
-0

> <r_epik_Charging_Adjusted_Penalty>
0

> <i_epik_Tot_Q>
0

> <i_epik_Tot_abs_Q>
0

> <r_epik_Metal_State_Penalty>
-0

> <b_epik_Metal_Only>
0

> <s_lp_Force_Field>
OPLS_2005

> <r_lp_Energy>
18.5955

> <b_lp_Chiralities_Consistent>
1

> <s_lp_Variant>
AV-unprocessed.smi:1541-1

> <Gold.Version>
5.8.1

> <Gold.Id.Protein>
6NUR|6NUR_protein|mol2

> <Gold.PLP.Fitness>
41.5371

> <Gold.PLP.PLP>
-33.2114

> <Gold.PLP.part.hbond>
-2.0000

> <Gold.PLP.part.metal>
0.0000

> <Gold.PLP.part.buried>
-2.7930

> <Gold.PLP.part.nonpolar>
-29.6133

> <Gold.PLP.part.repulsive>
0.2700

> <Gold.PLP.ligand.clash>
0.0000

> <Gold.PLP.ligand.torsion>
0.3138

> <Gold.PLP.Chemscore.Hbond>
1.9760

> <Gold.PLP.Chemscore.CHOScore>
1.0000

> <Gold.PLP.Chemscore.Metal>
0.0000

> <Gold.Chemscore.Hbonds>
donor molecule, donor type, donor heavy atom, donor atom, acceptor molecule, acceptor atom, score
      L1  H     6    25       P1  7948  0.98
      L1  H     9    26       P1  7948  1.00
      L1  C     4    24       P1  7957  1.00

> <Gold.PLP.Chemscore.Internal.Correction>
0.0254

> <Gold.Rescore>
     Score         DG    S(hbond)    S(metal)    S(lipo)     H(rot)  DE(clash)    DE(int)     intcor
     17.39     -18.82       1.96        0.00      83.53       1.16       0.14       1.29       ----

> <Gold.Chemscore.Fitness>
17.3937

> <Gold.Chemscore.DG>
-18.8247

> <Gold.Chemscore.ZeroCoef>
-5.4800

> <Gold.Chemscore.Hbond>
1.9590

> <Gold.Chemscore.Metal>
0.0000

> <Gold.Chemscore.Lipo>
83.5280

> <Gold.Chemscore.Internal_Hbond>
0.0000

> <Gold.Chemscore.DEClash>
0.1382

> <Gold.Chemscore.DEInternal>
1.2929

> <Gold.Chemscore.Rot>
1.1606

> <Gold.Chemscore.Internal.Correction>
   9.000000E+99

> <Gold.Chemscore.Hbonds>
donor molecule, donor type, donor heavy atom, donor atom, acceptor molecule, acceptor atom, score
      L1  H     6    25       P1  7948  0.93
      L1  H     9    26       P1  7948  0.99

> <Gold.Chemscore.Hbond.Weighted>
-6.5431

> <Gold.Chemscore.Metal.Weighted>
-0.0000

> <Gold.Chemscore.Lipo.Weighted>
-9.7728

> <Gold.Chemscore.Internal_Hbond.Weighted>
0.0000

> <Gold.Chemscore.DEClash.Weighted>
0.1382

> <Gold.Chemscore.DEInternal.Weighted>
1.2929

> <Gold.Chemscore.Rot.Weighted>
2.9712

> <Gold.Chemscore.Internal.Correction.Weighted>
   9.000000E+99

> <Gold.Protein.RotatedTorsions>
[ 6907 6896 6895 6894 ] final  179.45 input  -60.11 | X-H torsion
[ 7974 7965 7964 7962 ] final   78.91 input  175.53 | X-H torsion
[ 8008 7997 7996 7995 ] final  128.74 input   59.86 | X-H torsion
[ 10167 10162 10161 10158 ] final -172.10 input  -65.29 | X-H torsion
[ 10718 10713 10712 10709 ] final   54.18 input   66.30 | X-H torsion
[ 10763 10752 10751 10750 ] final  177.64 input  -60.55 | X-H torsion
[ 11005 11000 10999 10996 ] final   -1.96 input  -57.11 | X-H torsion

> <Gold.Protein.ActiveResidues>
 VAL166  LYS551  ARG553  GLY616  TRP617  ASP618  TYR619  PRO620  LYS621  CYS622 
 ASP623  PHE694  ASN695  SER759  ASP760  ASP761  ALA762  ILE779  LEU786  VAL792 
 PHE793  MET794  SER795  GLU796  ALA797  LYS798  CYS799  TRP800  GLU811  SER814 

> <Gold.Protein.RotatedAtoms>
  151.6714  133.3314  159.3197 H   0  0  0  0  0  0  0  0  0  0  0  0  # atno 6907 bound_to 6896
  150.7866  134.6859  159.6479 H   0  0  0  0  0  0  0  0  0  0  0  0  # atno 6908 bound_to 6896
  152.3937  134.6404  160.0150 H   0  0  0  0  0  0  0  0  0  0  0  0  # atno 6909 bound_to 6896
  145.6711  139.2497  143.1868 H   0  0  0  0  0  0  0  0  0  0  0  0  # atno 7974 bound_to 7965
  156.2921  140.2637  156.2485 H   0  0  0  0  0  0  0  0  0  0  0  0  # atno 8008 bound_to 7997
  154.9906  140.0388  157.2336 H   0  0  0  0  0  0  0  0  0  0  0  0  # atno 8009 bound_to 7997
  154.7689  140.2774  155.6158 H   0  0  0  0  0  0  0  0  0  0  0  0  # atno 8010 bound_to 7997
  139.5764  144.1522  152.1456 H   0  0  0  0  0  0  0  0  0  0  0  0  # atno 10167 bound_to 10162
  157.5234  130.8580  149.8588 H   0  0  0  0  0  0  0  0  0  0  0  0  # atno 10718 bound_to 10713
  154.4972  135.2782  155.1450 H   0  0  0  0  0  0  0  0  0  0  0  0  # atno 10763 bound_to 10752
  154.3098  135.6231  153.5464 H   0  0  0  0  0  0  0  0  0  0  0  0  # atno 10764 bound_to 10752
  152.9897  135.5717  154.5406 H   0  0  0  0  0  0  0  0  0  0  0  0  # atno 10765 bound_to 10752
  140.6531  133.9386  155.8392 H   0  0  0  0  0  0  0  0  0  0  0  0  # atno 11005 bound_to 11000
  146.1044  140.7504  142.9533 LP  0  0  0  0  0  0  0  0  0  0  0  0  # atno 17320 bound_to 7965
  144.7056  140.3839  143.7120 LP  0  0  0  0  0  0  0  0  0  0  0  0  # atno 17321 bound_to 7965
  140.1066  144.5493  150.6953 LP  0  0  0  0  0  0  0  0  0  0  0  0  # atno 17342 bound_to 10162
  140.7046  143.2459  151.4763 LP  0  0  0  0  0  0  0  0  0  0  0  0  # atno 17343 bound_to 10162
  156.0369  130.3749  150.1536 LP  0  0  0  0  0  0  0  0  0  0  0  0  # atno 17370 bound_to 10713
  156.9723  130.9838  151.3456 LP  0  0  0  0  0  0  0  0  0  0  0  0  # atno 17371 bound_to 10713
  141.0521  134.0469  157.3769 LP  0  0  0  0  0  0  0  0  0  0  0  0  # atno 17394 bound_to 11000
  139.9039  135.0173  156.7395 LP  0  0  0  0  0  0  0  0  0  0  0  0  # atno 17395 bound_to 11000

$$$$
