AV-unprocessed.smi:1875|AV-procd|sdf|7619|dock9
  -GOLD-   22720 9343D 1   1.00000     0.00000
 Structure written by MMmdl.
 48 50  0  0  0  0  0  0  0  0  2 V2000
  146.8128  137.8094  163.4241 C   0  0  0  0  0  0  0  0  0  0  0  0
  147.1911  136.7019  162.4626 C   0  0  0  0  0  0  0  0  0  0  0  0
  146.9714  135.4483  162.8712 N   0  0  0  0  0  0  0  0  0  0  0  0
  147.3150  134.4588  162.0177 C   0  0  0  0  0  0  0  0  0  0  0  0
  147.8802  134.7299  160.7553 C   0  0  0  0  0  0  0  0  0  0  0  0
  148.0642  136.0916  160.4361 C   0  0  0  0  0  0  0  0  0  0  0  0
  148.6749  136.5134  159.1162 C   0  0  0  0  0  0  0  0  0  0  0  0
  149.8765  137.3183  159.3061 N   0  0  0  0  0  0  0  0  0  0  0  0
  150.4192  137.8402  158.0565 C   0  0  0  0  0  0  0  0  0  0  0  0
  151.7214  138.6277  158.2964 C   0  0  1  0  0  0  0  0  0  0  0  0
  152.7659  137.7054  158.5272 O   0  0  0  0  0  0  0  0  0  0  0  0
  152.1475  139.5024  157.1005 C   0  0  0  0  0  0  0  0  0  0  0  0
  151.6134  140.8701  157.1699 N   0  0  0  0  0  0  0  0  0  0  0  0
  150.8542  141.5465  156.2656 C   0  0  0  0  0  0  0  0  0  0  0  0
  150.6011  142.7805  156.7817 N   0  3  0  0  0  0  0  0  0  0  0  0
  151.2066  142.8946  158.0347 C   0  0  0  0  0  0  0  0  0  0  0  0
  151.2331  143.9501  158.9384 C   0  0  0  0  0  0  0  0  0  0  0  0
  151.9510  143.7536  160.1393 C   0  0  0  0  0  0  0  0  0  0  0  0
  152.0032  144.8893  161.1473 C   0  0  0  0  0  0  0  0  0  0  0  0
  152.6129  142.5262  160.4011 C   0  0  0  0  0  0  0  0  0  0  0  0
  153.3896  142.3284  161.6918 C   0  0  0  0  0  0  0  0  0  0  0  0
  152.5687  141.4622  159.4719 C   0  0  0  0  0  0  0  0  0  0  0  0
  151.8577  141.6721  158.2919 C   0  0  0  0  0  0  0  0  0  0  0  0
  147.7204  137.0775  161.2942 N   0  0  0  0  0  0  0  0  0  0  0  0
  146.0187  137.4894  164.0997 H   0  0  0  0  0  0  0  0  0  0  0  0
  146.4611  138.6897  162.8846 H   0  0  0  0  0  0  0  0  0  0  0  0
  147.6773  138.0970  164.0229 H   0  0  0  0  0  0  0  0  0  0  0  0
  147.1399  133.4447  162.3447 H   0  0  0  0  0  0  0  0  0  0  0  0
  148.1567  133.9386  160.0741 H   0  0  0  0  0  0  0  0  0  0  0  0
  148.9088  135.6173  158.5401 H   0  0  0  0  0  0  0  0  0  0  0  0
  147.9345  137.0708  158.5405 H   0  0  0  0  0  0  0  0  0  0  0  0
  150.5830  136.7559  159.7691 H   0  0  0  0  0  0  0  0  0  0  0  0
  150.5911  137.0350  157.3406 H   0  0  0  0  0  0  0  0  0  0  0  0
  149.6714  138.4937  157.6090 H   0  0  0  0  0  0  0  0  0  0  0  0
  151.6180  139.2635  159.1771 H   0  0  0  0  0  0  0  0  0  0  0  0
  152.7884  137.5013  159.4497 H   0  0  0  0  0  0  0  0  0  0  0  0
  153.2347  139.5924  157.0782 H   0  0  0  0  0  0  0  0  0  0  0  0
  151.8631  139.0454  156.1527 H   0  0  0  0  0  0  0  0  0  0  0  0
  150.5132  141.1709  155.3115 H   0  0  0  0  0  0  0  0  0  0  0  0
  150.7289  144.8827  158.7307 H   0  0  0  0  0  0  0  0  0  0  0  0
  151.6180  144.5638  162.1141 H   0  0  0  0  0  0  0  0  0  0  0  0
  151.4044  145.7402  160.8207 H   0  0  0  0  0  0  0  0  0  0  0  0
  153.0287  145.2348  161.2806 H   0  0  0  0  0  0  0  0  0  0  0  0
  153.8782  141.3540  161.7182 H   0  0  0  0  0  0  0  0  0  0  0  0
  152.7238  142.3922  162.5527 H   0  0  0  0  0  0  0  0  0  0  0  0
  154.1632  143.0895  161.7943 H   0  0  0  0  0  0  0  0  0  0  0  0
  153.0756  140.5305  159.6738 H   0  0  0  0  0  0  0  0  0  0  0  0
  150.0553  143.4909  156.3109 H   0  0  0  0  0  0  0  0  0  0  0  0
  1  2  1  0  0  0  0
  1 25  1  0  0  0  0
  1 26  1  0  0  0  0
  1 27  1  0  0  0  0
  2 24  1  0  0  0  0
  2  3  2  0  0  0  0
  3  4  1  0  0  0  0
  4  5  2  0  0  0  0
  4 28  1  0  0  0  0
  5  6  1  0  0  0  0
  5 29  1  0  0  0  0
  6  7  1  0  0  0  0
  6 24  2  0  0  0  0
  7  8  1  0  0  0  0
  7 30  1  0  0  0  0
  7 31  1  0  0  0  0
  8  9  1  0  0  0  0
  8 32  1  0  0  0  0
  9 10  1  0  0  0  0
  9 33  1  0  0  0  0
  9 34  1  0  0  0  0
 10 11  1  0  0  0  0
 10 12  1  0  0  0  0
 10 35  1  0  0  0  0
 11 36  1  0  0  0  0
 12 13  1  0  0  0  0
 12 37  1  0  0  0  0
 12 38  1  0  0  0  0
 13 23  1  0  0  0  0
 13 14  1  0  0  0  0
 14 15  2  0  0  0  0
 14 39  1  0  0  0  0
 15 16  1  0  0  0  0
 15 48  1  0  0  0  0
 16 23  2  0  0  0  0
 16 17  1  0  0  0  0
 17 18  2  0  0  0  0
 17 40  1  0  0  0  0
 18 19  1  0  0  0  0
 18 20  1  0  0  0  0
 19 41  1  0  0  0  0
 19 42  1  0  0  0  0
 19 43  1  0  0  0  0
 20 21  1  0  0  0  0
 20 22  2  0  0  0  0
 21 44  1  0  0  0  0
 21 45  1  0  0  0  0
 21 46  1  0  0  0  0
 22 23  1  0  0  0  0
 22 47  1  0  0  0  0
M  CHG  1  15   1
M  END
> <s_m_source_file>
AV-unprocessed.smi

> <i_m_source_file_index>
1875

> <i_lp_mmshare_version>
43012

> <i_f3d_flags>
0

> <s_epik_input>
W0NIM11jMW5bY0hdW2NIXWMobjEpW0NIMl1bTkhdW0NIMl1bQ0BIXShbT0hdKVtDSDJdbihbY0hdbjIpYyhjMjMpW2NIXWMoW0NIM10pYyhbY0hdMylbQ0gzXQ==

> <s_epik_cmdline>
J2VwaWtfcHl0aG9uJywgJy1waCcsICc3LjAnLCAnLXRuJywgJzgnLCAnLW1hJywgJzIwMCcsICctbWV0YWxfYmluZGluZycsICctaW1hZScsICc8aW5maWxlLm1hZT4nLCAnLW9tYWUnLCAnPG91dGZpbGUubWFlPic=

> <r_epik_Ionization_Penalty>
2.02862

> <r_epik_Ionization_Penalty_Charging>
1.0004

> <r_epik_Ionization_Penalty_Neutral>
1.02823

> <r_epik_State_Penalty>
2.23022

> <r_epik_Charging_Adjusted_Penalty>
3.23062

> <i_epik_Tot_Q>
1

> <i_epik_Tot_abs_Q>
1

> <r_epik_Metal_State_Penalty>
2.31249

> <b_epik_Metal_Only>
0

> <s_epik_Chemistry_Notes>
This compound contains an electron-poor aromatic ring that is susceptible to covalent hydrolysis at low pH, typically resulting in measured values for nitrogen ring protonation that are around two units higher than predicted values.

> <s_lp_Force_Field>
OPLS_2005

> <r_lp_Energy>
17.8623

> <b_lp_Chiralities_Consistent>
1

> <s_lp_Variant>
AV-unprocessed.smi:1875-8

> <Gold.Version>
5.8.1

> <Gold.Id.Protein>
6NUR|6NUR_protein|mol2

> <Gold.PLP.Fitness>
61.2638

> <Gold.PLP.PLP>
-50.7931

> <Gold.PLP.part.hbond>
-3.1328

> <Gold.PLP.part.metal>
0.0000

> <Gold.PLP.part.buried>
-6.3985

> <Gold.PLP.part.nonpolar>
-41.7135

> <Gold.PLP.part.repulsive>
0.0437

> <Gold.PLP.ligand.clash>
0.0000

> <Gold.PLP.ligand.torsion>
0.5441

> <Gold.PLP.Chemscore.Hbond>
3.8268

> <Gold.PLP.Chemscore.CHOScore>
0.0000

> <Gold.PLP.Chemscore.Metal>
0.0000

> <Gold.Chemscore.Hbonds>
donor molecule, donor type, donor heavy atom, donor atom, acceptor molecule, acceptor atom, score
      L1  H    15    48       P1  8028  2.00
      P1  H  6931  6943       L1    24  1.00
      P1  H  6934  6947       L1    24  0.80

> <Gold.PLP.Chemscore.Internal.Correction>
0.0785

> <Gold.Rescore>
     Score         DG    S(hbond)    S(metal)    S(lipo)     H(rot)  DE(clash)    DE(int)     intcor
     19.19     -20.49       1.99        0.00     132.84       2.80       0.74       0.56       ----

> <Gold.Chemscore.Fitness>
19.1887

> <Gold.Chemscore.DG>
-20.4876

> <Gold.Chemscore.ZeroCoef>
-5.4800

> <Gold.Chemscore.Hbond>
1.9884

> <Gold.Chemscore.Metal>
0.0000

> <Gold.Chemscore.Lipo>
132.8410

> <Gold.Chemscore.Internal_Hbond>
0.0000

> <Gold.Chemscore.DEClash>
0.7419

> <Gold.Chemscore.DEInternal>
0.5570

> <Gold.Chemscore.Rot>
2.8032

> <Gold.Chemscore.Internal.Correction>
   9.000000E+99

> <Gold.Chemscore.Hbonds>
donor molecule, donor type, donor heavy atom, donor atom, acceptor molecule, acceptor atom, score
      L1  H    15    48       P1  8028  1.00
      P1  H  6931  6943       L1    24  0.24
      P1  H  6934  6947       L1    24  0.50

> <Gold.Chemscore.Hbond.Weighted>
-6.6413

> <Gold.Chemscore.Metal.Weighted>
-0.0000

> <Gold.Chemscore.Lipo.Weighted>
-15.5424

> <Gold.Chemscore.Internal_Hbond.Weighted>
0.0000

> <Gold.Chemscore.DEClash.Weighted>
0.7419

> <Gold.Chemscore.DEInternal.Weighted>
0.5570

> <Gold.Chemscore.Rot.Weighted>
7.1761

> <Gold.Chemscore.Internal.Correction.Weighted>
   9.000000E+99

> <Gold.Protein.RotatedTorsions>
[ 6907 6896 6895 6894 ] final   67.01 input  -60.11 | X-H torsion
[ 7974 7965 7964 7962 ] final -121.21 input  175.53 | X-H torsion
[ 8008 7997 7996 7995 ] final -110.96 input   59.86 | X-H torsion
[ 10167 10162 10161 10158 ] final   -8.36 input  -65.29 | X-H torsion
[ 10718 10713 10712 10709 ] final   81.14 input   66.30 | X-H torsion
[ 10763 10752 10751 10750 ] final   26.65 input  -60.55 | X-H torsion
[ 11005 11000 10999 10996 ] final   56.11 input  -57.11 | X-H torsion

> <Gold.Protein.ActiveResidues>
 VAL166  LYS551  ARG553  GLY616  TRP617  ASP618  TYR619  PRO620  LYS621  CYS622 
 ASP623  PHE694  ASN695  SER759  ASP760  ASP761  ALA762  ILE779  LEU786  VAL792 
 PHE793  MET794  SER795  GLU796  ALA797  LYS798  CYS799  TRP800  GLU811  SER814 

> <Gold.Protein.RotatedAtoms>
  152.4522  134.5370  159.9827 H   0  0  0  0  0  0  0  0  0  0  0  0  # atno 6907 bound_to 6896
  151.5439  133.3422  159.2948 H   0  0  0  0  0  0  0  0  0  0  0  0  # atno 6908 bound_to 6896
  150.8454  134.7792  159.7029 H   0  0  0  0  0  0  0  0  0  0  0  0  # atno 6909 bound_to 6896
  145.0429  140.8158  143.4255 H   0  0  0  0  0  0  0  0  0  0  0  0  # atno 7974 bound_to 7965
  154.9825  140.0396  157.2284 H   0  0  0  0  0  0  0  0  0  0  0  0  # atno 8008 bound_to 7997
  154.7701  140.2800  155.6122 H   0  0  0  0  0  0  0  0  0  0  0  0  # atno 8009 bound_to 7997
  156.2919  140.2611  156.2502 H   0  0  0  0  0  0  0  0  0  0  0  0  # atno 8010 bound_to 7997
  140.7056  143.5978  150.8829 H   0  0  0  0  0  0  0  0  0  0  0  0  # atno 10167 bound_to 10162
  157.6825  130.9991  150.2183 H   0  0  0  0  0  0  0  0  0  0  0  0  # atno 10718 bound_to 10713
  153.0608  135.6555  154.0467 H   0  0  0  0  0  0  0  0  0  0  0  0  # atno 10763 bound_to 10752
  154.0135  135.2926  155.3391 H   0  0  0  0  0  0  0  0  0  0  0  0  # atno 10764 bound_to 10752
  154.6945  135.5269  153.8507 H   0  0  0  0  0  0  0  0  0  0  0  0  # atno 10765 bound_to 10752
  140.0554  134.5677  155.9214 H   0  0  0  0  0  0  0  0  0  0  0  0  # atno 11005 bound_to 11000
  145.1625  139.2450  143.5384 LP  0  0  0  0  0  0  0  0  0  0  0  0  # atno 17320 bound_to 7965
  146.3511  140.1356  142.8596 LP  0  0  0  0  0  0  0  0  0  0  0  0  # atno 17321 bound_to 7965
  139.9702  143.6065  152.2976 LP  0  0  0  0  0  0  0  0  0  0  0  0  # atno 17342 bound_to 10162
  139.6649  144.7662  151.1892 LP  0  0  0  0  0  0  0  0  0  0  0  0  # atno 17343 bound_to 10162
  156.2839  130.3737  149.7907 LP  0  0  0  0  0  0  0  0  0  0  0  0  # atno 17370 bound_to 10713
  156.5587  130.8374  151.3322 LP  0  0  0  0  0  0  0  0  0  0  0  0  # atno 17371 bound_to 10713
  141.1949  133.6585  156.5620 LP  0  0  0  0  0  0  0  0  0  0  0  0  # atno 17394 bound_to 11000
  140.3852  134.7488  157.4687 LP  0  0  0  0  0  0  0  0  0  0  0  0  # atno 17395 bound_to 11000

$$$$
