AV-unprocessed.smi:2637|AV-procd|sdf|10261|dock7
  -GOLD-   2272014273D 1   1.00000     0.00000
 Structure written by MMmdl.
 40 41  0  0  0  0  0  0  0  0  1 V2000
  145.5366  130.2301  152.0028 C   0  0  0  0  0  0  0  0  0  0  0  0
  146.6052  131.0901  152.6108 C   0  0  0  0  0  0  0  0  0  0  0  0
  146.7472  132.5056  152.5244 C   0  0  0  0  0  0  0  0  0  0  0  0
  147.8795  132.7400  153.2559 C   0  0  0  0  0  0  0  0  0  0  0  0
  148.4971  133.9219  153.5212 N   0  0  0  0  0  0  0  0  0  0  0  0
  149.0320  134.3504  154.6778 C   0  0  0  0  0  0  0  0  0  0  0  0
  149.0638  133.7116  155.7299 O   0  0  0  0  0  0  0  0  0  0  0  0
  149.5323  135.5879  154.5484 N   0  0  0  0  0  0  0  0  0  0  0  0
  150.1705  136.3603  155.6104 C   0  0  0  0  0  0  0  0  0  0  0  0
  151.1118  137.4419  155.0527 C   0  0  0  0  0  0  0  0  0  0  0  0
  151.8994  138.2054  156.1348 C   0  0  0  0  0  0  0  0  0  0  0  0
  151.2753  139.4956  156.4434 N   0  0  0  0  0  0  0  0  0  0  0  0
  151.2520  140.0481  157.6645 C   0  0  0  0  0  0  0  0  0  0  0  0
  151.7336  139.5697  158.6910 O   0  0  0  0  0  0  0  0  0  0  0  0
  150.5401  141.3941  157.6413 C   0  0  0  0  0  0  0  0  0  0  0  0
  150.1510  141.5549  156.1683 C   0  0  0  0  0  0  0  0  0  0  0  0
  150.6834  140.2788  155.5305 C   0  0  0  0  0  0  0  0  0  0  0  0
  150.5700  140.0400  154.3284 O   0  0  0  0  0  0  0  0  0  0  0  0
  148.3595  131.5392  153.7297 N   0  0  0  0  0  0  0  0  0  0  0  0
  149.5246  131.2705  154.5500 C   0  0  0  0  0  0  0  0  0  0  0  0
  147.5667  130.5216  153.3297 N   0  0  0  0  0  0  0  0  0  0  0  0
  144.7912  130.8346  151.4857 H   0  0  0  0  0  0  0  0  0  0  0  0
  145.0196  129.6471  152.7654 H   0  0  0  0  0  0  0  0  0  0  0  0
  145.9593  129.5335  151.2784 H   0  0  0  0  0  0  0  0  0  0  0  0
  146.1132  133.2101  152.0075 H   0  0  0  0  0  0  0  0  0  0  0  0
  148.5506  134.5623  152.7429 H   0  0  0  0  0  0  0  0  0  0  0  0
  149.4594  136.0359  153.6466 H   0  0  0  0  0  0  0  0  0  0  0  0
  149.4312  136.8063  156.2779 H   0  0  0  0  0  0  0  0  0  0  0  0
  150.7459  135.6642  156.2210 H   0  0  0  0  0  0  0  0  0  0  0  0
  151.8170  136.9671  154.3692 H   0  0  0  0  0  0  0  0  0  0  0  0
  150.5357  138.1459  154.4506 H   0  0  0  0  0  0  0  0  0  0  0  0
  151.9674  137.6109  157.0467 H   0  0  0  0  0  0  0  0  0  0  0  0
  152.9295  138.3541  155.8064 H   0  0  0  0  0  0  0  0  0  0  0  0
  149.6658  141.3747  158.2927 H   0  0  0  0  0  0  0  0  0  0  0  0
  151.2106  142.1875  157.9739 H   0  0  0  0  0  0  0  0  0  0  0  0
  149.0706  141.6257  156.0386 H   0  0  0  0  0  0  0  0  0  0  0  0
  150.6185  142.4310  155.7179 H   0  0  0  0  0  0  0  0  0  0  0  0
  150.3820  131.8249  154.1673 H   0  0  0  0  0  0  0  0  0  0  0  0
  149.7629  130.2060  154.5399 H   0  0  0  0  0  0  0  0  0  0  0  0
  149.3274  131.5814  155.5764 H   0  0  0  0  0  0  0  0  0  0  0  0
  1  2  1  0  0  0  0
  1 22  1  0  0  0  0
  1 23  1  0  0  0  0
  1 24  1  0  0  0  0
  2 21  2  0  0  0  0
  2  3  1  0  0  0  0
  3  4  2  0  0  0  0
  3 25  1  0  0  0  0
  4  5  1  0  0  0  0
  4 19  1  0  0  0  0
  5  6  1  0  0  0  0
  5 26  1  0  0  0  0
  6  7  2  0  0  0  0
  6  8  1  0  0  0  0
  8  9  1  0  0  0  0
  8 27  1  0  0  0  0
  9 10  1  0  0  0  0
  9 28  1  0  0  0  0
  9 29  1  0  0  0  0
 10 11  1  0  0  0  0
 10 30  1  0  0  0  0
 10 31  1  0  0  0  0
 11 12  1  0  0  0  0
 11 32  1  0  0  0  0
 11 33  1  0  0  0  0
 12 17  1  0  0  0  0
 12 13  1  0  0  0  0
 13 14  2  0  0  0  0
 13 15  1  0  0  0  0
 15 16  1  0  0  0  0
 15 34  1  0  0  0  0
 15 35  1  0  0  0  0
 16 17  1  0  0  0  0
 16 36  1  0  0  0  0
 16 37  1  0  0  0  0
 17 18  2  0  0  0  0
 19 20  1  0  0  0  0
 19 21  1  0  0  0  0
 20 38  1  0  0  0  0
 20 39  1  0  0  0  0
 20 40  1  0  0  0  0
M  END
> <s_m_source_file>
AV-unprocessed.smi

> <i_m_source_file_index>
2637

> <i_lp_mmshare_version>
43012

> <i_f3d_flags>
0

> <s_epik_input>
W0NIM11jMVtjSF1jKG4objEpW0NIM10pW05IXUMoPU8pW05IXVtDSDJdW0NIMl1bQ0gyXU4yQyg9TylbQ0gyXVtDSDJdQzI9Tw==

> <s_epik_cmdline>
J2VwaWtfcHl0aG9uJywgJy1waCcsICc3LjAnLCAnLXRuJywgJzgnLCAnLW1hJywgJzIwMCcsICctbWV0YWxfYmluZGluZycsICctaW1hZScsICc8aW5maWxlLm1hZT4nLCAnLW9tYWUnLCAnPG91dGZpbGUubWFlPic=

> <r_lp_tautomer_probability>
1

> <r_epik_Ionization_Penalty>
9.41646e-05

> <r_epik_Ionization_Penalty_Charging>
0

> <r_epik_Ionization_Penalty_Neutral>
9.41646e-05

> <r_epik_State_Penalty>
-0

> <r_epik_Charging_Adjusted_Penalty>
0

> <i_epik_Tot_Q>
0

> <i_epik_Tot_abs_Q>
0

> <r_epik_Metal_State_Penalty>
-0

> <b_epik_Metal_Only>
0

> <s_lp_Force_Field>
OPLS_2005

> <r_lp_Energy>
13.5658

> <b_lp_Chiralities_Consistent>
1

> <s_lp_Variant>
AV-unprocessed.smi:2637-1

> <Gold.Version>
5.8.1

> <Gold.Id.Protein>
6NUR|6NUR_protein|mol2

> <Gold.PLP.Fitness>
42.2703

> <Gold.PLP.PLP>
-36.0437

> <Gold.PLP.part.hbond>
-3.0000

> <Gold.PLP.part.metal>
0.0000

> <Gold.PLP.part.buried>
-5.0709

> <Gold.PLP.part.nonpolar>
-29.0263

> <Gold.PLP.part.repulsive>
0.2729

> <Gold.PLP.ligand.clash>
0.0000

> <Gold.PLP.ligand.torsion>
1.1178

> <Gold.PLP.Chemscore.Hbond>
2.8000

> <Gold.PLP.Chemscore.CHOScore>
0.0000

> <Gold.PLP.Chemscore.Metal>
0.0000

> <Gold.Chemscore.Hbonds>
donor molecule, donor type, donor heavy atom, donor atom, acceptor molecule, acceptor atom, score
      L1  H     5    26       P1  7948  0.85
      L1  H     8    27       P1  7948  1.00
      P1  H  7989  7998       L1    18  1.00

> <Gold.PLP.Chemscore.Internal.Correction>
0.0623

> <Gold.Rescore>
     Score         DG    S(hbond)    S(metal)    S(lipo)     H(rot)  DE(clash)    DE(int)     intcor
     10.90     -14.72       2.57        0.00      50.91       2.07       0.02       3.80       ----

> <Gold.Chemscore.Fitness>
10.8973

> <Gold.Chemscore.DG>
-14.7177

> <Gold.Chemscore.ZeroCoef>
-5.4800

> <Gold.Chemscore.Hbond>
2.5692

> <Gold.Chemscore.Metal>
0.0000

> <Gold.Chemscore.Lipo>
50.9071

> <Gold.Chemscore.Internal_Hbond>
0.0000

> <Gold.Chemscore.DEClash>
0.0201

> <Gold.Chemscore.DEInternal>
3.8002

> <Gold.Chemscore.Rot>
2.0701

> <Gold.Chemscore.Internal.Correction>
   9.000000E+99

> <Gold.Chemscore.Hbonds>
donor molecule, donor type, donor heavy atom, donor atom, acceptor molecule, acceptor atom, score
      L1  H     5    26       P1  7948  0.14
      L1  H     8    27       P1  7948  0.55
      P1  H  7989  7998       L1    18  0.76

> <Gold.Chemscore.Hbond.Weighted>
-8.5810

> <Gold.Chemscore.Metal.Weighted>
-0.0000

> <Gold.Chemscore.Lipo.Weighted>
-5.9561

> <Gold.Chemscore.Internal_Hbond.Weighted>
0.0000

> <Gold.Chemscore.DEClash.Weighted>
0.0201

> <Gold.Chemscore.DEInternal.Weighted>
3.8002

> <Gold.Chemscore.Rot.Weighted>
5.2995

> <Gold.Chemscore.Internal.Correction.Weighted>
   9.000000E+99

> <Gold.Protein.RotatedTorsions>
[ 6907 6896 6895 6894 ] final -103.74 input  -60.11 | X-H torsion
[ 7974 7965 7964 7962 ] final  116.79 input  175.53 | X-H torsion
[ 8008 7997 7996 7995 ] final   60.18 input   59.86 | X-H torsion
[ 10167 10162 10161 10158 ] final  -81.41 input  -65.29 | X-H torsion
[ 10718 10713 10712 10709 ] final  151.79 input   66.30 | X-H torsion
[ 10763 10752 10751 10750 ] final  105.50 input  -60.55 | X-H torsion
[ 11005 11000 10999 10996 ] final  157.08 input  -57.11 | X-H torsion

> <Gold.Protein.ActiveResidues>
 VAL166  LYS551  ARG553  GLY616  TRP617  ASP618  TYR619  PRO620  LYS621  CYS622 
 ASP623  PHE694  ASN695  SER759  ASP760  ASP761  ALA762  ILE779  LEU786  VAL792 
 PHE793  MET794  SER795  GLU796  ALA797  LYS798  CYS799  TRP800  GLU811  SER814 

> <Gold.Protein.RotatedAtoms>
  150.7254  134.0383  159.3756 H   0  0  0  0  0  0  0  0  0  0  0  0  # atno 6907 bound_to 6896
  151.8356  135.0605  160.0451 H   0  0  0  0  0  0  0  0  0  0  0  0  # atno 6908 bound_to 6896
  152.2901  133.5517  159.5588 H   0  0  0  0  0  0  0  0  0  0  0  0  # atno 6909 bound_to 6896
  145.1753  139.3079  143.4446 H   0  0  0  0  0  0  0  0  0  0  0  0  # atno 7974 bound_to 7965
  155.5782  140.3491  155.4533 H   0  0  0  0  0  0  0  0  0  0  0  0  # atno 8008 bound_to 7997
  156.0393  140.1292  157.0198 H   0  0  0  0  0  0  0  0  0  0  0  0  # atno 8009 bound_to 7997
  154.4385  140.1027  156.6199 H   0  0  0  0  0  0  0  0  0  0  0  0  # atno 8010 bound_to 7997
  140.4414  143.2513  151.8620 H   0  0  0  0  0  0  0  0  0  0  0  0  # atno 10167 bound_to 10162
  157.2661  131.0808  151.1632 H   0  0  0  0  0  0  0  0  0  0  0  0  # atno 10718 bound_to 10713
  153.3802  135.3908  155.1851 H   0  0  0  0  0  0  0  0  0  0  0  0  # atno 10763 bound_to 10752
  154.8706  135.3723  154.4866 H   0  0  0  0  0  0  0  0  0  0  0  0  # atno 10764 bound_to 10752
  153.5342  135.7085  153.5729 H   0  0  0  0  0  0  0  0  0  0  0  0  # atno 10765 bound_to 10752
  140.1736  134.8526  157.2719 H   0  0  0  0  0  0  0  0  0  0  0  0  # atno 11005 bound_to 11000
  146.3462  140.1913  142.8589 LP  0  0  0  0  0  0  0  0  0  0  0  0  # atno 17320 bound_to 7965
  145.0191  140.8779  143.5177 LP  0  0  0  0  0  0  0  0  0  0  0  0  # atno 17321 bound_to 7965
  139.4790  144.5224  151.8782 LP  0  0  0  0  0  0  0  0  0  0  0  0  # atno 17342 bound_to 10162
  140.4314  144.2111  150.5888 LP  0  0  0  0  0  0  0  0  0  0  0  0  # atno 17343 bound_to 10162
  157.3122  130.6895  149.6222 LP  0  0  0  0  0  0  0  0  0  0  0  0  # atno 17370 bound_to 10713
  155.9663  130.4360  150.5115 LP  0  0  0  0  0  0  0  0  0  0  0  0  # atno 17371 bound_to 10713
  140.2349  134.3865  155.7505 LP  0  0  0  0  0  0  0  0  0  0  0  0  # atno 17394 bound_to 11000
  141.2219  133.7234  156.8698 LP  0  0  0  0  0  0  0  0  0  0  0  0  # atno 17395 bound_to 11000

$$$$
