AV-unprocessed.smi:1295|AV-procd|sdf|5411|dock8
  -GOLD-   22720 4573D 1   1.00000     0.00000
 Structure written by MMmdl.
 42 43  0  0  0  0  0  0  0  0  2 V2000
  151.4463  130.1347  155.2404 C   0  0  0  0  0  0  0  0  0  0  0  0
  150.8954  131.5445  155.2298 C   0  0  0  0  0  0  0  0  0  0  0  0
  150.0373  131.8736  154.3412 N   0  0  0  0  0  0  0  0  0  0  0  0
  149.5240  133.1815  154.3261 C   0  0  0  0  0  0  0  0  0  0  0  0
  148.4939  133.4783  153.2507 C   0  0  0  0  0  0  0  0  0  0  0  0
  149.9313  134.1098  155.2382 C   0  0  0  0  0  0  0  0  0  0  0  0
  149.3877  135.5399  155.2772 C   0  0  0  0  0  0  0  0  0  0  0  0
  150.3762  136.6387  154.8783 C   0  0  0  0  0  0  0  0  0  0  0  0
  151.5640  136.3668  154.7059 O   0  0  0  0  0  0  0  0  0  0  0  0
  149.8682  137.8716  154.7347 N   0  0  0  0  0  0  0  0  0  0  0  0
  150.5837  139.0652  154.2914 C   0  0  2  0  0  0  0  0  0  0  0  0
  151.9423  139.1757  155.0134 C   0  0  0  0  0  0  0  0  0  0  0  0
  151.7785  139.4947  156.5098 C   0  0  0  0  0  0  0  0  0  0  0  0
  150.9331  140.7596  156.7194 C   0  0  0  0  0  0  0  0  0  0  0  0
  149.5679  140.6432  156.0225 C   0  0  0  0  0  0  0  0  0  0  0  0
  149.7219  140.3323  154.5186 C   0  0  2  0  0  0  0  0  0  0  0  0
  148.3539  140.2545  153.8172 C   0  0  0  0  0  0  0  0  0  0  0  0
  150.9166  133.6880  156.2501 C   0  0  0  0  0  0  0  0  0  0  0  0
  151.2967  134.4786  157.1129 O   0  0  0  0  0  0  0  0  0  0  0  0
  151.3660  132.4021  156.1985 N   0  5  0  0  0  0  0  0  0  0  0  0
  150.9092  129.4976  154.5365 H   0  0  0  0  0  0  0  0  0  0  0  0
  151.3533  129.6967  156.2348 H   0  0  0  0  0  0  0  0  0  0  0  0
  152.5004  130.1405  154.9615 H   0  0  0  0  0  0  0  0  0  0  0  0
  148.8612  134.2478  152.5715 H   0  0  0  0  0  0  0  0  0  0  0  0
  147.5620  133.8243  153.6981 H   0  0  0  0  0  0  0  0  0  0  0  0
  148.2707  132.5886  152.6610 H   0  0  0  0  0  0  0  0  0  0  0  0
  148.4991  135.6331  154.6522 H   0  0  0  0  0  0  0  0  0  0  0  0
  149.0374  135.7495  156.2882 H   0  0  0  0  0  0  0  0  0  0  0  0
  148.8804  137.9859  154.9135 H   0  0  0  0  0  0  0  0  0  0  0  0
  150.7761  138.9832  153.2203 H   0  0  0  0  0  0  0  0  0  0  0  0
  152.5129  138.2547  154.8881 H   0  0  0  0  0  0  0  0  0  0  0  0
  152.5333  139.9631  154.5444 H   0  0  0  0  0  0  0  0  0  0  0  0
  151.3084  138.6520  157.0182 H   0  0  0  0  0  0  0  0  0  0  0  0
  152.7583  139.6230  156.9704 H   0  0  0  0  0  0  0  0  0  0  0  0
  150.7913  140.9387  157.7855 H   0  0  0  0  0  0  0  0  0  0  0  0
  151.4692  141.6254  156.3287 H   0  0  0  0  0  0  0  0  0  0  0  0
  148.9763  139.8645  156.5068 H   0  0  0  0  0  0  0  0  0  0  0  0
  149.0137  141.5728  156.1546 H   0  0  0  0  0  0  0  0  0  0  0  0
  150.2587  141.1691  154.0690 H   0  0  0  0  0  0  0  0  0  0  0  0
  147.7214  139.4761  154.2461 H   0  0  0  0  0  0  0  0  0  0  0  0
  148.4701  140.0402  152.7545 H   0  0  0  0  0  0  0  0  0  0  0  0
  147.8157  141.1984  153.9062 H   0  0  0  0  0  0  0  0  0  0  0  0
  1  2  1  0  0  0  0
  1 21  1  0  0  0  0
  1 22  1  0  0  0  0
  1 23  1  0  0  0  0
  2 20  1  0  0  0  0
  2  3  2  0  0  0  0
  3  4  1  0  0  0  0
  4  5  1  0  0  0  0
  4  6  2  0  0  0  0
  5 24  1  0  0  0  0
  5 25  1  0  0  0  0
  5 26  1  0  0  0  0
  6  7  1  0  0  0  0
  6 18  1  0  0  0  0
  7  8  1  0  0  0  0
  7 27  1  0  0  0  0
  7 28  1  0  0  0  0
  8  9  2  0  0  0  0
  8 10  1  0  0  0  0
 10 11  1  0  0  0  0
 10 29  1  0  0  0  0
 11 16  1  0  0  0  0
 11 12  1  0  0  0  0
 11 30  1  0  0  0  0
 12 13  1  0  0  0  0
 12 31  1  0  0  0  0
 12 32  1  0  0  0  0
 13 14  1  0  0  0  0
 13 33  1  0  0  0  0
 13 34  1  0  0  0  0
 14 15  1  0  0  0  0
 14 35  1  0  0  0  0
 14 36  1  0  0  0  0
 15 16  1  0  0  0  0
 15 37  1  0  0  0  0
 15 38  1  0  0  0  0
 16 17  1  0  0  0  0
 16 39  1  0  0  0  0
 17 40  1  0  0  0  0
 17 41  1  0  0  0  0
 17 42  1  0  0  0  0
 18 19  2  0  0  0  0
 18 20  1  0  0  0  0
M  CHG  1  20  -1
M  END
> <s_m_source_file>
AV-unprocessed.smi

> <i_m_source_file_index>
1295

> <i_lp_mmshare_version>
43012

> <i_f3d_flags>
0

> <s_epik_input>
W0NIM11jMW5jKFtDSDNdKWMoYyg9TylbbkhdMSlbQ0gyXUMoPU8pW05IXVtDQEBIXTJbQ0gyXVtDSDJdW0NIMl1bQ0gyXVtDQEhdMltDSDNd

> <s_epik_cmdline>
J2VwaWtfcHl0aG9uJywgJy1waCcsICc3LjAnLCAnLXRuJywgJzgnLCAnLW1hJywgJzIwMCcsICctbWV0YWxfYmluZGluZycsICctaW1hZScsICc8aW5maWxlLm1hZT4nLCAnLW9tYWUnLCAnPG91dGZpbGUubWFlPic=

> <r_lp_tautomer_probability>
0.839158

> <r_epik_Ionization_Penalty>
6.67742

> <r_epik_Ionization_Penalty_Charging>
7.78154e-08

> <r_epik_Ionization_Penalty_Neutral>
6.67742

> <r_epik_State_Penalty>
4.51991

> <r_epik_Charging_Adjusted_Penalty>
4.51991

> <i_epik_Tot_Q>
-1

> <i_epik_Tot_abs_Q>
1

> <r_epik_Metal_State_Penalty>
0.853272

> <b_epik_Metal_Only>
1

> <s_lp_Force_Field>
OPLS_2005

> <r_lp_Energy>
12.2009

> <b_lp_Chiralities_Consistent>
1

> <s_lp_Variant>
AV-unprocessed.smi:1295-11

> <Gold.Version>
5.8.1

> <Gold.Id.Protein>
6NUR|6NUR_protein|mol2

> <Gold.PLP.Fitness>
37.7994

> <Gold.PLP.PLP>
-35.0501

> <Gold.PLP.part.hbond>
-2.0000

> <Gold.PLP.part.metal>
0.0000

> <Gold.PLP.part.buried>
-2.4908

> <Gold.PLP.part.nonpolar>
-30.1086

> <Gold.PLP.part.repulsive>
0.2100

> <Gold.PLP.ligand.clash>
0.0000

> <Gold.PLP.ligand.torsion>
0.3045

> <Gold.PLP.Chemscore.Hbond>
1.1165

> <Gold.PLP.Chemscore.CHOScore>
0.0000

> <Gold.PLP.Chemscore.Metal>
0.0000

> <Gold.Chemscore.Hbonds>
donor molecule, donor type, donor heavy atom, donor atom, acceptor molecule, acceptor atom, score
      P1  H  6896  6908       L1    19  0.10
      P1  H 10752 10764       L1     9  1.00

> <Gold.PLP.Chemscore.Internal.Correction>
0.0089

> <Gold.Rescore>
     Score         DG    S(hbond)    S(metal)    S(lipo)     H(rot)  DE(clash)    DE(int)     intcor
     12.84     -14.32       1.27        0.00      70.81       1.45       0.02       1.46       ----

> <Gold.Chemscore.Fitness>
12.8367

> <Gold.Chemscore.DG>
-14.3205

> <Gold.Chemscore.ZeroCoef>
-5.4800

> <Gold.Chemscore.Hbond>
1.2738

> <Gold.Chemscore.Metal>
0.0000

> <Gold.Chemscore.Lipo>
70.8141

> <Gold.Chemscore.Internal_Hbond>
0.0000

> <Gold.Chemscore.DEClash>
0.0202

> <Gold.Chemscore.DEInternal>
1.4636

> <Gold.Chemscore.Rot>
1.4450

> <Gold.Chemscore.Internal.Correction>
   9.000000E+99

> <Gold.Chemscore.Hbonds>
donor molecule, donor type, donor heavy atom, donor atom, acceptor molecule, acceptor atom, score
      P1  H  6896  6908       L1    19  0.08
      P1  H 10752 10764       L1     9  0.98

> <Gold.Chemscore.Hbond.Weighted>
-4.2545

> <Gold.Chemscore.Metal.Weighted>
-0.0000

> <Gold.Chemscore.Lipo.Weighted>
-8.2852

> <Gold.Chemscore.Internal_Hbond.Weighted>
0.0000

> <Gold.Chemscore.DEClash.Weighted>
0.0202

> <Gold.Chemscore.DEInternal.Weighted>
1.4636

> <Gold.Chemscore.Rot.Weighted>
3.6992

> <Gold.Chemscore.Internal.Correction.Weighted>
   9.000000E+99

> <Gold.Protein.RotatedTorsions>
[ 6907 6896 6895 6894 ] final  105.53 input  -60.11 | X-H torsion
[ 7974 7965 7964 7962 ] final  127.37 input  175.53 | X-H torsion
[ 8008 7997 7996 7995 ] final  145.16 input   59.86 | X-H torsion
[ 10167 10162 10161 10158 ] final  141.01 input  -65.29 | X-H torsion
[ 10718 10713 10712 10709 ] final  145.25 input   66.30 | X-H torsion
[ 10763 10752 10751 10750 ] final  -74.92 input  -60.55 | X-H torsion
[ 11005 11000 10999 10996 ] final   63.23 input  -57.11 | X-H torsion

> <Gold.Protein.ActiveResidues>
 VAL166  LYS551  ARG553  GLY616  TRP617  ASP618  TYR619  PRO620  LYS621  CYS622 
 ASP623  PHE694  ASN695  SER759  ASP760  ASP761  ALA762  ILE779  LEU786  VAL792 
 PHE793  MET794  SER795  GLU796  ALA797  LYS798  CYS799  TRP800  GLU811  SER814 

> <Gold.Protein.RotatedAtoms>
  152.5227  133.9514  159.7673 H   0  0  0  0  0  0  0  0  0  0  0  0  # atno 6907 bound_to 6896
  150.9823  133.6224  159.2727 H   0  0  0  0  0  0  0  0  0  0  0  0  # atno 6908 bound_to 6896
  151.3397  135.0866  159.9420 H   0  0  0  0  0  0  0  0  0  0  0  0  # atno 6909 bound_to 6896
  145.0513  139.3880  143.5052 H   0  0  0  0  0  0  0  0  0  0  0  0  # atno 7974 bound_to 7965
  156.2890  140.2216  156.5171 H   0  0  0  0  0  0  0  0  0  0  0  0  # atno 8008 bound_to 7997
  154.7560  140.0477  157.0955 H   0  0  0  0  0  0  0  0  0  0  0  0  # atno 8009 bound_to 7997
  155.0050  140.3106  155.4855 H   0  0  0  0  0  0  0  0  0  0  0  0  # atno 8010 bound_to 7997
  139.5032  144.6198  151.6078 H   0  0  0  0  0  0  0  0  0  0  0  0  # atno 10167 bound_to 10162
  157.3475  131.0945  151.1029 H   0  0  0  0  0  0  0  0  0  0  0  0  # atno 10718 bound_to 10713
  154.4795  135.5848  153.6379 H   0  0  0  0  0  0  0  0  0  0  0  0  # atno 10763 bound_to 10752
  152.9845  135.6086  154.3264 H   0  0  0  0  0  0  0  0  0  0  0  0  # atno 10764 bound_to 10752
  154.3153  135.2844  155.2525 H   0  0  0  0  0  0  0  0  0  0  0  0  # atno 10765 bound_to 10752
  140.0038  134.6401  155.9887 H   0  0  0  0  0  0  0  0  0  0  0  0  # atno 11005 bound_to 11000
  146.3518  140.0165  142.8662 LP  0  0  0  0  0  0  0  0  0  0  0  0  # atno 17320 bound_to 7965
  145.1523  140.9629  143.4425 LP  0  0  0  0  0  0  0  0  0  0  0  0  # atno 17321 bound_to 7965
  140.5897  143.9802  150.6317 LP  0  0  0  0  0  0  0  0  0  0  0  0  # atno 17342 bound_to 10162
  140.2978  143.3281  152.1001 LP  0  0  0  0  0  0  0  0  0  0  0  0  # atno 17343 bound_to 10162
  157.2218  130.6484  149.5814 LP  0  0  0  0  0  0  0  0  0  0  0  0  # atno 17370 bound_to 10713
  155.9716  130.4627  150.6154 LP  0  0  0  0  0  0  0  0  0  0  0  0  # atno 17371 bound_to 10713
  141.1662  133.6537  156.4487 LP  0  0  0  0  0  0  0  0  0  0  0  0  # atno 17394 bound_to 11000
  140.4678  134.6781  157.5115 LP  0  0  0  0  0  0  0  0  0  0  0  0  # atno 17395 bound_to 11000

$$$$
