AV-unprocessed.smi:1433|AV-procd|sdf|5841|dock4
  -GOLD-   22720 5503D 1   1.00000     0.00000
 Structure written by MMmdl.
 45 46  0  0  0  0  0  0  0  0  2 V2000
  146.0197  131.6706  151.2976 C   0  0  0  0  0  0  0  0  0  0  0  0
  146.3326  133.1119  151.7146 C   0  0  2  0  0  0  0  0  0  0  0  0
  147.1682  133.1683  153.0069 C   0  0  0  0  0  0  0  0  0  0  0  0
  147.3820  134.5745  153.4420 N   0  3  2  0  0  0  0  0  0  0  0  0
  148.2585  134.7705  154.6430 C   0  0  2  0  0  0  0  0  0  0  0  0
  149.5041  133.8639  154.5313 C   0  0  0  0  0  0  0  0  0  0  0  0
  147.5386  134.5374  156.0016 C   0  0  0  0  0  0  0  0  0  0  0  0
  148.0796  135.3499  157.0873 N   0  0  0  0  0  0  0  0  0  0  0  0
  147.5950  135.3875  158.3386 C   0  0  0  0  0  0  0  0  0  0  0  0
  146.6096  134.7466  158.7038 O   0  0  0  0  0  0  0  0  0  0  0  0
  148.3391  136.2799  159.3323 C   0  0  0  0  0  0  0  0  0  0  0  0
  147.8510  136.0704  160.6831 N   0  0  0  0  0  0  0  0  0  0  0  0
  147.8335  134.9018  161.4158 C   0  0  0  0  0  0  0  0  0  0  0  0
  147.2917  135.1942  162.6346 C   0  0  0  0  0  0  0  0  0  0  0  0
  147.0061  136.5858  162.5524 C   0  0  0  0  0  0  0  0  0  0  0  0
  147.3419  137.1081  161.3835 N   0  0  0  0  0  0  0  0  0  0  0  0
  146.0657  135.2517  153.5898 C   0  0  0  0  0  0  0  0  0  0  0  0
  145.2227  135.1524  152.3044 C   0  0  1  0  0  0  0  0  0  0  0  0
  145.7277  136.0538  151.1636 C   0  0  0  0  0  0  0  0  0  0  0  0
  145.0957  133.7888  151.9084 O   0  0  0  0  0  0  0  0  0  0  0  0
  146.9351  131.1047  151.1224 H   0  0  0  0  0  0  0  0  0  0  0  0
  145.4358  131.6494  150.3770 H   0  0  0  0  0  0  0  0  0  0  0  0
  145.4472  131.1516  152.0669 H   0  0  0  0  0  0  0  0  0  0  0  0
  146.8855  133.5827  150.9015 H   0  0  0  0  0  0  0  0  0  0  0  0
  146.6782  132.6082  153.8053 H   0  0  0  0  0  0  0  0  0  0  0  0
  148.1192  132.6799  152.7968 H   0  0  0  0  0  0  0  0  0  0  0  0
  148.5915  135.8094  154.6334 H   0  0  0  0  0  0  0  0  0  0  0  0
  150.2020  134.0330  155.3514 H   0  0  0  0  0  0  0  0  0  0  0  0
  150.0656  134.0376  153.6149 H   0  0  0  0  0  0  0  0  0  0  0  0
  149.2244  132.8101  154.5499 H   0  0  0  0  0  0  0  0  0  0  0  0
  146.4729  134.7607  155.9313 H   0  0  0  0  0  0  0  0  0  0  0  0
  147.6232  133.4910  156.2969 H   0  0  0  0  0  0  0  0  0  0  0  0
  148.8979  135.9050  156.8805 H   0  0  0  0  0  0  0  0  0  0  0  0
  149.4117  136.0818  159.2975 H   0  0  0  0  0  0  0  0  0  0  0  0
  148.1981  137.3283  159.0657 H   0  0  0  0  0  0  0  0  0  0  0  0
  148.2059  133.9710  161.0134 H   0  0  0  0  0  0  0  0  0  0  0  0
  147.1258  134.5177  163.4599 H   0  0  0  0  0  0  0  0  0  0  0  0
  146.5686  137.2277  163.3027 H   0  0  0  0  0  0  0  0  0  0  0  0
  145.5207  134.7855  154.4125 H   0  0  0  0  0  0  0  0  0  0  0  0
  146.1871  136.3004  153.8570 H   0  0  0  0  0  0  0  0  0  0  0  0
  144.2135  135.4883  152.5450 H   0  0  0  0  0  0  0  0  0  0  0  0
  145.6845  137.1039  151.4538 H   0  0  0  0  0  0  0  0  0  0  0  0
  145.1111  135.9344  150.2725 H   0  0  0  0  0  0  0  0  0  0  0  0
  146.7596  135.8379  150.8885 H   0  0  0  0  0  0  0  0  0  0  0  0
  147.8595  135.0248  152.6743 H   0  0  0  0  0  0  0  0  0  0  0  0
  1  2  1  0  0  0  0
  1 21  1  0  0  0  0
  1 22  1  0  0  0  0
  1 23  1  0  0  0  0
  2 20  1  0  0  0  0
  2  3  1  0  0  0  0
  2 24  1  0  0  0  0
  3  4  1  0  0  0  0
  3 25  1  0  0  0  0
  3 26  1  0  0  0  0
  4  5  1  0  0  0  0
  4 17  1  0  0  0  0
  4 45  1  0  0  0  0
  5  6  1  0  0  0  0
  5  7  1  0  0  0  0
  5 27  1  0  0  0  0
  6 28  1  0  0  0  0
  6 29  1  0  0  0  0
  6 30  1  0  0  0  0
  7  8  1  0  0  0  0
  7 31  1  0  0  0  0
  7 32  1  0  0  0  0
  8  9  1  0  0  0  0
  8 33  1  0  0  0  0
  9 10  2  0  0  0  0
  9 11  1  0  0  0  0
 11 12  1  0  0  0  0
 11 34  1  0  0  0  0
 11 35  1  0  0  0  0
 12 16  1  0  0  0  0
 12 13  1  0  0  0  0
 13 14  2  0  0  0  0
 13 36  1  0  0  0  0
 14 15  1  0  0  0  0
 14 37  1  0  0  0  0
 15 16  2  0  0  0  0
 15 38  1  0  0  0  0
 17 18  1  0  0  0  0
 17 39  1  0  0  0  0
 17 40  1  0  0  0  0
 18 19  1  0  0  0  0
 18 20  1  0  0  0  0
 18 41  1  0  0  0  0
 19 42  1  0  0  0  0
 19 43  1  0  0  0  0
 19 44  1  0  0  0  0
M  CHG  1   4   1
M  END
> <s_m_source_file>
AV-unprocessed.smi

> <i_m_source_file_index>
1433

> <i_lp_mmshare_version>
43012

> <i_f3d_flags>
0

> <s_epik_input>
W0NIM11bQ0BASF0xW0NIMl1OKFtDSDJdW0NASF0oTzEpW0NIM10pW0NASF0oW0NIM10pW0NIMl1bTkhdQyg9TylbQ0gyXW4yW2NIXVtjSF1bY0hdbjI=

> <s_epik_cmdline>
J2VwaWtfcHl0aG9uJywgJy1waCcsICc3LjAnLCAnLXRuJywgJzgnLCAnLW1hJywgJzIwMCcsICctbWV0YWxfYmluZGluZycsICctaW1hZScsICc8aW5maWxlLm1hZT4nLCAnLW9tYWUnLCAnPG91dGZpbGUubWFlPic=

> <r_lp_tautomer_probability>
1

> <r_epik_Ionization_Penalty>
0.748405

> <r_epik_Ionization_Penalty_Charging>
0.748396

> <r_epik_Ionization_Penalty_Neutral>
8.54426e-06

> <r_epik_State_Penalty>
0.775162

> <r_epik_Charging_Adjusted_Penalty>
1.52356

> <i_epik_Tot_Q>
1

> <i_epik_Tot_abs_Q>
1

> <r_epik_Metal_State_Penalty>
0.775167

> <b_epik_Metal_Only>
0

> <s_lp_Force_Field>
OPLS_2005

> <r_lp_Energy>
22.7015

> <b_lp_Chiralities_Consistent>
1

> <s_lp_Variant>
AV-unprocessed.smi:1433-7

> <Gold.Version>
5.8.1

> <Gold.Id.Protein>
6NUR|6NUR_protein|mol2

> <Gold.PLP.Fitness>
42.7585

> <Gold.PLP.PLP>
-32.3788

> <Gold.PLP.part.hbond>
-3.0000

> <Gold.PLP.part.metal>
0.0000

> <Gold.PLP.part.buried>
-3.5672

> <Gold.PLP.part.nonpolar>
-25.4365

> <Gold.PLP.part.repulsive>
0.1131

> <Gold.PLP.ligand.clash>
0.0000

> <Gold.PLP.ligand.torsion>
0.6514

> <Gold.PLP.Chemscore.Hbond>
3.8560

> <Gold.PLP.Chemscore.CHOScore>
0.0000

> <Gold.PLP.Chemscore.Metal>
0.0000

> <Gold.Chemscore.Hbonds>
donor molecule, donor type, donor heavy atom, donor atom, acceptor molecule, acceptor atom, score
      L1  H     4    45       P1  7948  2.00
      P1  H  6931  6943       L1    16  0.75
      P1  H  6934  6947       L1    16  0.98

> <Gold.PLP.Chemscore.Internal.Correction>
0.1144

> <Gold.Rescore>
     Score         DG    S(hbond)    S(metal)    S(lipo)     H(rot)  DE(clash)    DE(int)     intcor
     15.91     -17.36       2.59        0.00      68.39       1.87       0.60       0.85       ----

> <Gold.Chemscore.Fitness>
15.9056

> <Gold.Chemscore.DG>
-17.3558

> <Gold.Chemscore.ZeroCoef>
-5.4800

> <Gold.Chemscore.Hbond>
2.5898

> <Gold.Chemscore.Metal>
0.0000

> <Gold.Chemscore.Lipo>
68.3926

> <Gold.Chemscore.Internal_Hbond>
0.0000

> <Gold.Chemscore.DEClash>
0.5994

> <Gold.Chemscore.DEInternal>
0.8508

> <Gold.Chemscore.Rot>
1.8657

> <Gold.Chemscore.Internal.Correction>
   9.000000E+99

> <Gold.Chemscore.Hbonds>
donor molecule, donor type, donor heavy atom, donor atom, acceptor molecule, acceptor atom, score
      L1  H     4    45       P1  7948  0.96
      P1  H  6931  6943       L1    16  0.11
      P1  H  6934  6947       L1    16  0.91

> <Gold.Chemscore.Hbond.Weighted>
-8.6500

> <Gold.Chemscore.Metal.Weighted>
-0.0000

> <Gold.Chemscore.Lipo.Weighted>
-8.0019

> <Gold.Chemscore.Internal_Hbond.Weighted>
0.0000

> <Gold.Chemscore.DEClash.Weighted>
0.5994

> <Gold.Chemscore.DEInternal.Weighted>
0.8508

> <Gold.Chemscore.Rot.Weighted>
4.7761

> <Gold.Chemscore.Internal.Correction.Weighted>
   9.000000E+99

> <Gold.Protein.RotatedTorsions>
[ 6907 6896 6895 6894 ] final  -29.49 input  -60.11 | X-H torsion
[ 7974 7965 7964 7962 ] final  107.41 input  175.53 | X-H torsion
[ 8008 7997 7996 7995 ] final  104.02 input   59.86 | X-H torsion
[ 10167 10162 10161 10158 ] final   70.67 input  -65.29 | X-H torsion
[ 10718 10713 10712 10709 ] final  -48.54 input   66.30 | X-H torsion
[ 10763 10752 10751 10750 ] final  -37.45 input  -60.55 | X-H torsion
[ 11005 11000 10999 10996 ] final  -18.00 input  -57.11 | X-H torsion

> <Gold.Protein.ActiveResidues>
 VAL166  LYS551  ARG553  GLY616  TRP617  ASP618  TYR619  PRO620  LYS621  CYS622 
 ASP623  PHE694  ASN695  SER759  ASP760  ASP761  ALA762  ILE779  LEU786  VAL792 
 PHE793  MET794  SER795  GLU796  ALA797  LYS798  CYS799  TRP800  GLU811  SER814 

> <Gold.Protein.RotatedAtoms>
  151.1185  135.0066  159.8527 H   0  0  0  0  0  0  0  0  0  0  0  0  # atno 6907 bound_to 6896
  152.5447  134.1751  159.8623 H   0  0  0  0  0  0  0  0  0  0  0  0  # atno 6908 bound_to 6896
  151.1807  133.4682  159.2627 H   0  0  0  0  0  0  0  0  0  0  0  0  # atno 6909 bound_to 6896
  145.2940  139.2591  143.3849 H   0  0  0  0  0  0  0  0  0  0  0  0  # atno 7974 bound_to 7965
  156.1536  140.3155  155.8688 H   0  0  0  0  0  0  0  0  0  0  0  0  # atno 8008 bound_to 7997
  155.3923  140.0494  157.3057 H   0  0  0  0  0  0  0  0  0  0  0  0  # atno 8009 bound_to 7997
  154.5080  140.2154  155.9223 H   0  0  0  0  0  0  0  0  0  0  0  0  # atno 8010 bound_to 7997
  140.0545  144.5285  150.7339 H   0  0  0  0  0  0  0  0  0  0  0  0  # atno 10167 bound_to 10162
  156.1978  130.4155  149.9282 H   0  0  0  0  0  0  0  0  0  0  0  0  # atno 10718 bound_to 10713
  153.8964  135.6807  153.4757 H   0  0  0  0  0  0  0  0  0  0  0  0  # atno 10763 bound_to 10752
  153.1153  135.4764  154.9102 H   0  0  0  0  0  0  0  0  0  0  0  0  # atno 10764 bound_to 10752
  154.7597  135.3207  154.8356 H   0  0  0  0  0  0  0  0  0  0  0  0  # atno 10765 bound_to 10752
  140.8224  133.8058  155.9673 H   0  0  0  0  0  0  0  0  0  0  0  0  # atno 11005 bound_to 11000
  146.3175  140.3438  142.8650 LP  0  0  0  0  0  0  0  0  0  0  0  0  # atno 17320 bound_to 7965
  144.9149  140.7800  143.5784 LP  0  0  0  0  0  0  0  0  0  0  0  0  # atno 17321 bound_to 7965
  140.7201  143.2581  151.4306 LP  0  0  0  0  0  0  0  0  0  0  0  0  # atno 17342 bound_to 10162
  139.5932  144.1453  152.2113 LP  0  0  0  0  0  0  0  0  0  0  0  0  # atno 17343 bound_to 10162
  156.7001  130.8930  151.3598 LP  0  0  0  0  0  0  0  0  0  0  0  0  # atno 17370 bound_to 10713
  157.6968  130.9290  150.0668 LP  0  0  0  0  0  0  0  0  0  0  0  0  # atno 17371 bound_to 10713
  140.9085  134.2290  157.5000 LP  0  0  0  0  0  0  0  0  0  0  0  0  # atno 17394 bound_to 11000
  139.8708  134.9739  156.4826 LP  0  0  0  0  0  0  0  0  0  0  0  0  # atno 17395 bound_to 11000

$$$$
