AV-unprocessed.smi:2059|AV-procd|sdf|8353|dock6
  -GOLD-   2272011 23D 1   1.00000     0.00000
 Structure written by MMmdl.
 29 30  0  0  0  0  0  0  0  0  2 V2000
  152.5717  143.2988  161.3100 C   0  0  0  0  0  0  0  0  0  0  0  0
  152.3883  142.4559  160.0949 C   0  0  0  0  0  0  0  0  0  0  0  0
  151.5639  142.5564  159.0099 C   0  0  0  0  0  0  0  0  0  0  0  0
  151.9116  141.4201  158.2304 C   0  0  0  0  0  0  0  0  0  0  0  0
  151.2531  141.1799  156.9900 N   0  0  0  0  0  0  0  0  0  0  0  0
  151.5148  140.3106  155.9902 C   0  0  0  0  0  0  0  0  0  0  0  0
  152.5018  139.5900  156.1705 O   0  0  0  0  0  0  0  0  0  0  0  0
  150.6927  140.3074  154.9008 N   0  5  0  0  0  0  0  0  0  0  0  0
  149.2289  140.3388  154.9439 C   0  0  1  0  0  0  0  0  0  0  0  0
  148.6915  141.6158  154.2681 C   0  0  0  0  0  0  0  0  0  0  0  0
  147.1850  141.4464  154.0220 C   0  0  0  0  0  0  0  0  0  0  0  0
  146.9263  139.6542  153.7241 S   0  0  0  0  0  0  0  0  0  0  0  0
  145.9521  139.1438  154.7018 O   0  0  0  0  0  0  0  0  0  0  0  0
  146.7412  139.4160  152.2841 O   0  0  0  0  0  0  0  0  0  0  0  0
  148.6197  139.1355  154.2076 C   0  0  0  0  0  0  0  0  0  0  0  0
  152.8652  140.6929  158.7957 N   0  0  0  0  0  0  0  0  0  0  0  0
  153.1755  141.3522  159.9905 O   0  0  0  0  0  0  0  0  0  0  0  0
  151.6761  143.8853  161.5151 H   0  0  0  0  0  0  0  0  0  0  0  0
  153.4051  143.9886  161.1779 H   0  0  0  0  0  0  0  0  0  0  0  0
  152.7780  142.6813  162.1845 H   0  0  0  0  0  0  0  0  0  0  0  0
  150.8299  143.3220  158.8072 H   0  0  0  0  0  0  0  0  0  0  0  0
  150.4538  141.7727  156.8237 H   0  0  0  0  0  0  0  0  0  0  0  0
  148.8527  140.3322  155.9682 H   0  0  0  0  0  0  0  0  0  0  0  0
  148.9002  142.5065  154.8616 H   0  0  0  0  0  0  0  0  0  0  0  0
  149.1871  141.7527  153.3054 H   0  0  0  0  0  0  0  0  0  0  0  0
  146.6046  141.7339  154.8999 H   0  0  0  0  0  0  0  0  0  0  0  0
  146.8307  142.0240  153.1685 H   0  0  0  0  0  0  0  0  0  0  0  0
  149.1717  138.9088  153.2946 H   0  0  0  0  0  0  0  0  0  0  0  0
  148.5789  138.2371  154.8231 H   0  0  0  0  0  0  0  0  0  0  0  0
  1  2  1  0  0  0  0
  1 18  1  0  0  0  0
  1 19  1  0  0  0  0
  1 20  1  0  0  0  0
  2 17  1  0  0  0  0
  2  3  2  0  0  0  0
  3  4  1  0  0  0  0
  3 21  1  0  0  0  0
  4  5  1  0  0  0  0
  4 16  2  0  0  0  0
  5  6  1  0  0  0  0
  5 22  1  0  0  0  0
  6  7  2  0  0  0  0
  6  8  1  0  0  0  0
  8  9  1  0  0  0  0
  9 15  1  0  0  0  0
  9 10  1  0  0  0  0
  9 23  1  0  0  0  0
 10 11  1  0  0  0  0
 10 24  1  0  0  0  0
 10 25  1  0  0  0  0
 11 12  1  0  0  0  0
 11 26  1  0  0  0  0
 11 27  1  0  0  0  0
 12 13  2  0  0  0  0
 12 14  2  0  0  0  0
 12 15  1  0  0  0  0
 15 28  1  0  0  0  0
 15 29  1  0  0  0  0
 16 17  1  0  0  0  0
M  CHG  1   8  -1
M  END
> <s_m_source_file>
AV-unprocessed.smi

> <i_m_source_file_index>
2059

> <i_lp_mmshare_version>
43012

> <i_f3d_flags>
0

> <s_epik_input>
W0NIM11jMVtjSF1jKG5vMSlbTkhdQyg9TylbTkhdW0NAQEhdKFtDSDJdMilbQ0gyXVtDSDJdUzIoPU8pPU8=

> <s_epik_cmdline>
J2VwaWtfcHl0aG9uJywgJy1waCcsICc3LjAnLCAnLXRuJywgJzgnLCAnLW1hJywgJzIwMCcsICctbWV0YWxfYmluZGluZycsICctaW1hZScsICc8aW5maWxlLm1hZT4nLCAnLW9tYWUnLCAnPG91dGZpbGUubWFlPic=

> <r_lp_tautomer_probability>
1

> <r_epik_Ionization_Penalty>
6.6071

> <r_epik_Ionization_Penalty_Charging>
6.60709

> <r_epik_Ionization_Penalty_Neutral>
5.42629e-06

> <r_epik_State_Penalty>
6.6352

> <r_epik_Charging_Adjusted_Penalty>
13.2423

> <i_epik_Tot_Q>
-1

> <i_epik_Tot_abs_Q>
1

> <r_epik_Metal_State_Penalty>
2.57602

> <b_epik_Metal_Only>
1

> <s_lp_Force_Field>
OPLS_2005

> <r_lp_Energy>
11.3948

> <b_lp_Chiralities_Consistent>
1

> <s_lp_Variant>
AV-unprocessed.smi:2059-6

> <Gold.Version>
5.8.1

> <Gold.Id.Protein>
6NUR|6NUR_protein|mol2

> <Gold.PLP.Fitness>
36.0388

> <Gold.PLP.PLP>
-30.8591

> <Gold.PLP.part.hbond>
-2.0000

> <Gold.PLP.part.metal>
0.0000

> <Gold.PLP.part.buried>
-4.9051

> <Gold.PLP.part.nonpolar>
-24.8414

> <Gold.PLP.part.repulsive>
1.4138

> <Gold.PLP.ligand.clash>
0.0000

> <Gold.PLP.ligand.torsion>
0.4114

> <Gold.PLP.Chemscore.Hbond>
2.0000

> <Gold.PLP.Chemscore.CHOScore>
0.0000

> <Gold.PLP.Chemscore.Metal>
0.0000

> <Gold.Chemscore.Hbonds>
donor molecule, donor type, donor heavy atom, donor atom, acceptor molecule, acceptor atom, score
      P1  H  7989  7998       L1     8  1.00
      P1  H  7997  8008       L1     7  1.00

> <Gold.PLP.Chemscore.Internal.Correction>
0.0026

> <Gold.Rescore>
     Score         DG    S(hbond)    S(metal)    S(lipo)     H(rot)  DE(clash)    DE(int)     intcor
     14.23     -15.99       1.82        0.00      59.62       1.00       0.00       1.75       ----

> <Gold.Chemscore.Fitness>
14.2302

> <Gold.Chemscore.DG>
-15.9894

> <Gold.Chemscore.ZeroCoef>
-5.4800

> <Gold.Chemscore.Hbond>
1.8246

> <Gold.Chemscore.Metal>
0.0000

> <Gold.Chemscore.Lipo>
59.6164

> <Gold.Chemscore.Internal_Hbond>
0.0000

> <Gold.Chemscore.DEClash>
0.0048

> <Gold.Chemscore.DEInternal>
1.7544

> <Gold.Chemscore.Rot>
1.0000

> <Gold.Chemscore.Internal.Correction>
   9.000000E+99

> <Gold.Chemscore.Hbonds>
donor molecule, donor type, donor heavy atom, donor atom, acceptor molecule, acceptor atom, score
      P1  H  7989  7998       L1     8  0.64
      P1  H  7997  8008       L1     7  0.99

> <Gold.Chemscore.Hbond.Weighted>
-6.0942

> <Gold.Chemscore.Metal.Weighted>
-0.0000

> <Gold.Chemscore.Lipo.Weighted>
-6.9751

> <Gold.Chemscore.Internal_Hbond.Weighted>
0.0000

> <Gold.Chemscore.DEClash.Weighted>
0.0048

> <Gold.Chemscore.DEInternal.Weighted>
1.7544

> <Gold.Chemscore.Rot.Weighted>
2.5600

> <Gold.Chemscore.Internal.Correction.Weighted>
   9.000000E+99

> <Gold.Protein.RotatedTorsions>
[ 6907 6896 6895 6894 ] final  -86.26 input  -60.11 | X-H torsion
[ 7974 7965 7964 7962 ] final   20.09 input  175.53 | X-H torsion
[ 8008 7997 7996 7995 ] final  -30.14 input   59.86 | X-H torsion
[ 10167 10162 10161 10158 ] final  172.87 input  -65.29 | X-H torsion
[ 10718 10713 10712 10709 ] final -133.61 input   66.30 | X-H torsion
[ 10763 10752 10751 10750 ] final  102.34 input  -60.55 | X-H torsion
[ 11005 11000 10999 10996 ] final  137.34 input  -57.11 | X-H torsion

> <Gold.Protein.ActiveResidues>
 VAL166  LYS551  ARG553  GLY616  TRP617  ASP618  TYR619  PRO620  LYS621  CYS622 
 ASP623  PHE694  ASN695  SER759  ASP760  ASP761  ALA762  ILE779  LEU786  VAL792 
 PHE793  MET794  SER795  GLU796  ALA797  LYS798  CYS799  TRP800  GLU811  SER814 

> <Gold.Protein.RotatedAtoms>
  150.6867  134.3078  159.4733 H   0  0  0  0  0  0  0  0  0  0  0  0  # atno 6907 bound_to 6896
  152.0967  134.9367  160.0580 H   0  0  0  0  0  0  0  0  0  0  0  0  # atno 6908 bound_to 6896
  152.0662  133.4050  159.4476 H   0  0  0  0  0  0  0  0  0  0  0  0  # atno 6909 bound_to 6896
  146.2124  139.8219  142.8678 H   0  0  0  0  0  0  0  0  0  0  0  0  # atno 7974 bound_to 7965
  154.4262  140.1799  156.1360 H   0  0  0  0  0  0  0  0  0  0  0  0  # atno 8008 bound_to 7997
  156.0030  140.3358  155.6839 H   0  0  0  0  0  0  0  0  0  0  0  0  # atno 8009 bound_to 7997
  155.6216  140.0660  157.2667 H   0  0  0  0  0  0  0  0  0  0  0  0  # atno 8010 bound_to 7997
  139.5090  144.3325  152.0098 H   0  0  0  0  0  0  0  0  0  0  0  0  # atno 10167 bound_to 10162
  156.2467  130.7128  151.1011 H   0  0  0  0  0  0  0  0  0  0  0  0  # atno 10718 bound_to 10713
  153.3383  135.4014  155.1551 H   0  0  0  0  0  0  0  0  0  0  0  0  # atno 10763 bound_to 10752
  154.8638  135.3627  154.5379 H   0  0  0  0  0  0  0  0  0  0  0  0  # atno 10764 bound_to 10752
  153.5822  135.7076  153.5518 H   0  0  0  0  0  0  0  0  0  0  0  0  # atno 10765 bound_to 10752
  140.0107  134.9440  157.0271 H   0  0  0  0  0  0  0  0  0  0  0  0  # atno 11005 bound_to 11000
  145.3087  141.0214  143.3567 LP  0  0  0  0  0  0  0  0  0  0  0  0  # atno 17320 bound_to 7965
  144.8951  139.4722  143.6659 LP  0  0  0  0  0  0  0  0  0  0  0  0  # atno 17321 bound_to 7965
  140.2764  144.3908  150.6133 LP  0  0  0  0  0  0  0  0  0  0  0  0  # atno 17342 bound_to 10162
  140.6050  143.2167  151.6998 LP  0  0  0  0  0  0  0  0  0  0  0  0  # atno 17343 bound_to 10162
  157.7198  131.0688  150.6183 LP  0  0  0  0  0  0  0  0  0  0  0  0  # atno 17370 bound_to 10713
  156.6260  130.4419  149.5804 LP  0  0  0  0  0  0  0  0  0  0  0  0  # atno 17371 bound_to 10713
  140.4559  134.1534  155.7186 LP  0  0  0  0  0  0  0  0  0  0  0  0  # atno 17394 bound_to 11000
  141.1709  133.8611  157.1574 LP  0  0  0  0  0  0  0  0  0  0  0  0  # atno 17395 bound_to 11000

$$$$
