AV-unprocessed.smi:61|AV-procd|sdf|599|dock2
  -GOLD-   2262016493D 1   1.00000     0.00000
 Structure written by MMmdl.
 29 30  0  0  0  0  0  0  0  0  2 V2000
  149.0663  135.5805  154.6898 N   0  0  0  0  0  0  0  0  0  0  0  0
  148.3227  134.4265  154.6472 C   0  0  0  0  0  0  0  0  0  0  0  0
  148.1236  133.7559  155.7867 N   0  0  0  0  0  0  0  0  0  0  0  0
  147.3948  132.6231  155.7548 C   0  0  0  0  0  0  0  0  0  0  0  0
  146.8462  132.1364  154.5566 C   0  0  0  0  0  0  0  0  0  0  0  0
  147.0964  132.8893  153.3881 C   0  0  0  0  0  0  0  0  0  0  0  0
  146.6156  132.5307  152.1205 N   0  0  0  0  0  0  0  0  0  0  0  0
  145.9498  133.6126  151.4013 C   0  0  0  0  0  0  0  0  0  0  0  0
  144.7337  132.9985  150.6914 C   0  0  0  0  0  0  0  0  0  0  0  0
  144.9773  131.4927  150.7584 C   0  0  0  0  0  0  0  0  0  0  0  0
  145.7467  131.3606  152.0728 C   0  0  1  0  0  0  0  0  0  0  0  0
  146.4928  130.0282  152.2913 C   0  0  0  0  0  0  0  0  0  0  0  0
  147.1542  129.6013  151.1182 O   0  0  0  0  0  0  0  0  0  0  0  0
  147.8323  134.0260  153.4658 N   0  3  0  0  0  0  0  0  0  0  0  0
  149.2359  136.1105  153.8468 H   0  0  0  0  0  0  0  0  0  0  0  0
  149.4503  135.9145  155.5619 H   0  0  0  0  0  0  0  0  0  0  0  0
  147.2489  132.1037  156.6902 H   0  0  0  0  0  0  0  0  0  0  0  0
  146.2595  131.2297  154.5409 H   0  0  0  0  0  0  0  0  0  0  0  0
  145.6517  134.4345  152.0538 H   0  0  0  0  0  0  0  0  0  0  0  0
  146.6503  134.0141  150.6686 H   0  0  0  0  0  0  0  0  0  0  0  0
  143.8258  133.2473  151.2423 H   0  0  0  0  0  0  0  0  0  0  0  0
  144.6137  133.3613  149.6701 H   0  0  0  0  0  0  0  0  0  0  0  0
  144.0555  130.9106  150.7443 H   0  0  0  0  0  0  0  0  0  0  0  0
  145.5886  131.1833  149.9096 H   0  0  0  0  0  0  0  0  0  0  0  0
  145.0185  131.4549  152.8794 H   0  0  0  0  0  0  0  0  0  0  0  0
  147.2148  130.1092  153.1044 H   0  0  0  0  0  0  0  0  0  0  0  0
  145.7818  129.2531  152.5782 H   0  0  0  0  0  0  0  0  0  0  0  0
  147.8904  130.1733  150.9614 H   0  0  0  0  0  0  0  0  0  0  0  0
  148.0087  134.5678  152.6195 H   0  0  0  0  0  0  0  0  0  0  0  0
  1  2  1  0  0  0  0
  1 15  1  0  0  0  0
  1 16  1  0  0  0  0
  2 14  1  0  0  0  0
  2  3  2  0  0  0  0
  3  4  1  0  0  0  0
  4  5  2  0  0  0  0
  4 17  1  0  0  0  0
  5  6  1  0  0  0  0
  5 18  1  0  0  0  0
  6  7  1  0  0  0  0
  6 14  2  0  0  0  0
  7 11  1  0  0  0  0
  7  8  1  0  0  0  0
  8  9  1  0  0  0  0
  8 19  1  0  0  0  0
  8 20  1  0  0  0  0
  9 10  1  0  0  0  0
  9 21  1  0  0  0  0
  9 22  1  0  0  0  0
 10 11  1  0  0  0  0
 10 23  1  0  0  0  0
 10 24  1  0  0  0  0
 11 12  1  0  0  0  0
 11 25  1  0  0  0  0
 12 13  1  0  0  0  0
 12 26  1  0  0  0  0
 12 27  1  0  0  0  0
 13 28  1  0  0  0  0
 14 29  1  0  0  0  0
M  CHG  1  14   1
M  END
> <s_m_source_file>
AV-unprocessed.smi

> <i_m_source_file_index>
61

> <i_lp_mmshare_version>
43012

> <i_f3d_flags>
0

> <s_epik_input>
W05IMl1jMW5bY0hdW2NIXWMobjEpTjJbQ0gyXVtDSDJdW0NIMl1bQ0BIXTJbQ0gyXVtPSF0=

> <s_epik_cmdline>
J2VwaWtfcHl0aG9uJywgJy1waCcsICc3LjAnLCAnLXRuJywgJzgnLCAnLW1hJywgJzIwMCcsICctbWV0YWxfYmluZGluZycsICctaW1hZScsICc8aW5maWxlLm1hZT4nLCAnLW9tYWUnLCAnPG91dGZpbGUubWFlPic=

> <r_lp_tautomer_probability>
0.424989

> <r_epik_Ionization_Penalty>
0.696162

> <r_epik_Ionization_Penalty_Charging>
0.696158

> <r_epik_Ionization_Penalty_Neutral>
4.43138e-06

> <r_epik_State_Penalty>
0.906374

> <r_epik_Charging_Adjusted_Penalty>
1.60253

> <i_epik_Tot_Q>
1

> <i_epik_Tot_abs_Q>
1

> <r_epik_Metal_State_Penalty>
1.16703

> <b_epik_Metal_Only>
0

> <s_lp_Force_Field>
OPLS_2005

> <r_lp_Energy>
33.2177

> <b_lp_Chiralities_Consistent>
1

> <s_lp_Variant>
AV-unprocessed.smi:61-5

> <Gold.Version>
5.8.1

> <Gold.Id.Protein>
6NUR|6NUR_protein|mol2

> <Gold.PLP.Fitness>
33.8087

> <Gold.PLP.PLP>
-20.3937

> <Gold.PLP.part.hbond>
-2.7488

> <Gold.PLP.part.metal>
0.0000

> <Gold.PLP.part.buried>
-5.0343

> <Gold.PLP.part.nonpolar>
-13.3311

> <Gold.PLP.part.repulsive>
0.1640

> <Gold.PLP.ligand.clash>
0.0000

> <Gold.PLP.ligand.torsion>
0.2876

> <Gold.PLP.Chemscore.Hbond>
4.6480

> <Gold.PLP.Chemscore.CHOScore>
0.0000

> <Gold.PLP.Chemscore.Metal>
0.0000

> <Gold.Chemscore.Hbonds>
donor molecule, donor type, donor heavy atom, donor atom, acceptor molecule, acceptor atom, score
      L1  H     1    15       P1  7948  1.86
      L1  H    13    28       P1 10747  0.75
      L1  H    14    29       P1  7948  1.82

> <Gold.PLP.Chemscore.Internal.Correction>
0.0461

> <Gold.Rescore>
     Score         DG    S(hbond)    S(metal)    S(lipo)     H(rot)  DE(clash)    DE(int)     intcor
     12.51     -13.73       2.44        0.00      44.19       1.98       0.00       1.22       ----

> <Gold.Chemscore.Fitness>
12.5092

> <Gold.Chemscore.DG>
-13.7280

> <Gold.Chemscore.ZeroCoef>
-5.4800

> <Gold.Chemscore.Hbond>
2.4420

> <Gold.Chemscore.Metal>
0.0000

> <Gold.Chemscore.Lipo>
44.1902

> <Gold.Chemscore.Internal_Hbond>
0.0000

> <Gold.Chemscore.DEClash>
0.0000

> <Gold.Chemscore.DEInternal>
1.2188

> <Gold.Chemscore.Rot>
1.9838

> <Gold.Chemscore.Internal.Correction>
   9.000000E+99

> <Gold.Chemscore.Hbonds>
donor molecule, donor type, donor heavy atom, donor atom, acceptor molecule, acceptor atom, score
      L1  H     1    15       P1  7948  0.78
      L1  H    13    28       P1 10747  0.74
      L1  H    14    29       P1  7948  0.46

> <Gold.Chemscore.Hbond.Weighted>
-8.1564

> <Gold.Chemscore.Metal.Weighted>
-0.0000

> <Gold.Chemscore.Lipo.Weighted>
-5.1703

> <Gold.Chemscore.Internal_Hbond.Weighted>
0.0000

> <Gold.Chemscore.DEClash.Weighted>
0.0000

> <Gold.Chemscore.DEInternal.Weighted>
1.2188

> <Gold.Chemscore.Rot.Weighted>
5.0786

> <Gold.Chemscore.Internal.Correction.Weighted>
   9.000000E+99

> <Gold.Protein.RotatedTorsions>
[ 6907 6896 6895 6894 ] final  158.10 input  -60.11 | X-H torsion
[ 7974 7965 7964 7962 ] final  -93.90 input  175.53 | X-H torsion
[ 8008 7997 7996 7995 ] final   96.64 input   59.86 | X-H torsion
[ 10167 10162 10161 10158 ] final   62.52 input  -65.29 | X-H torsion
[ 10718 10713 10712 10709 ] final  143.84 input   66.30 | X-H torsion
[ 10763 10752 10751 10750 ] final  128.19 input  -60.55 | X-H torsion
[ 11005 11000 10999 10996 ] final -176.93 input  -57.11 | X-H torsion

> <Gold.Protein.ActiveResidues>
 VAL166  LYS551  ARG553  GLY616  TRP617  ASP618  TYR619  PRO620  LYS621  CYS622 
 ASP623  PHE694  ASN695  SER759  ASP760  ASP761  ALA762  ILE779  LEU786  VAL792 
 PHE793  MET794  SER795  GLU796  ALA797  LYS798  CYS799  TRP800  GLU811  SER814 

> <Gold.Protein.RotatedAtoms>
  152.0054  133.3841  159.4198 H   0  0  0  0  0  0  0  0  0  0  0  0  # atno 6907 bound_to 6896
  150.6905  134.3789  159.5034 H   0  0  0  0  0  0  0  0  0  0  0  0  # atno 6908 bound_to 6896
  152.1542  134.8964  160.0597 H   0  0  0  0  0  0  0  0  0  0  0  0  # atno 6909 bound_to 6896
  145.3805  140.9517  143.2396 H   0  0  0  0  0  0  0  0  0  0  0  0  # atno 7974 bound_to 7965
  156.0818  140.3270  155.7703 H   0  0  0  0  0  0  0  0  0  0  0  0  # atno 8008 bound_to 7997
  155.5141  140.0579  157.2936 H   0  0  0  0  0  0  0  0  0  0  0  0  # atno 8009 bound_to 7997
  154.4586  140.1955  156.0325 H   0  0  0  0  0  0  0  0  0  0  0  0  # atno 8010 bound_to 7997
  140.1431  144.4535  150.6800 H   0  0  0  0  0  0  0  0  0  0  0  0  # atno 10167 bound_to 10162
  157.3642  131.0969  151.0887 H   0  0  0  0  0  0  0  0  0  0  0  0  # atno 10718 bound_to 10713
  153.7215  135.3252  155.3267 H   0  0  0  0  0  0  0  0  0  0  0  0  # atno 10763 bound_to 10752
  154.8354  135.4500  154.1213 H   0  0  0  0  0  0  0  0  0  0  0  0  # atno 10764 bound_to 10752
  153.2334  135.6962  153.7944 H   0  0  0  0  0  0  0  0  0  0  0  0  # atno 10765 bound_to 10752
  140.4466  134.6382  157.4782 H   0  0  0  0  0  0  0  0  0  0  0  0  # atno 11005 bound_to 11000
  144.8511  139.5320  143.6856 LP  0  0  0  0  0  0  0  0  0  0  0  0  # atno 17320 bound_to 7965
  146.2844  139.6965  142.9206 LP  0  0  0  0  0  0  0  0  0  0  0  0  # atno 17321 bound_to 7965
  140.6748  143.2300  151.5534 LP  0  0  0  0  0  0  0  0  0  0  0  0  # atno 17342 bound_to 10162
  139.5462  144.2514  152.1447 LP  0  0  0  0  0  0  0  0  0  0  0  0  # atno 17343 bound_to 10162
  157.2015  130.6397  149.5740 LP  0  0  0  0  0  0  0  0  0  0  0  0  # atno 17370 bound_to 10713
  155.9743  130.4689  150.6377 LP  0  0  0  0  0  0  0  0  0  0  0  0  # atno 17371 bound_to 10713
  140.0034  134.6800  155.9493 LP  0  0  0  0  0  0  0  0  0  0  0  0  # atno 17394 bound_to 11000
  141.1682  133.6537  156.4557 LP  0  0  0  0  0  0  0  0  0  0  0  0  # atno 17395 bound_to 11000

$$$$
