#       Name:                AV-unprocessed.smi:21
#       Creating user name   scv26
#       Creation time:       Thu Mar 26 15:37:48 2020


#       File generated by GOLD software.
#

@<TRIPOS>MOLECULE
AV-unprocessed.smi:21
    71    74     1
SMALL
NO_CHARGES


@<TRIPOS>ATOM
      1 ****        -4.0258  -1.3911   3.4028 C.3            1 S1                 0.0000
      2 ****        -4.4466  -2.0651   2.2274 O.3            1 S1                 0.0000
      3 ****        -4.8123  -1.1858   1.1725 C.3            1 S1                 0.0000
      4 ****        -3.5822  -0.5574   0.4951 C.3            1 S1                 0.0000
      5 ****        -3.8209  -0.7896  -1.0008 C.3            1 S1                 0.0000
      6 ****        -2.5258  -0.7447  -1.8396 C.3            1 S1                 0.0000
      7 ****        -1.8720   0.5639  -1.8102 N.pl3          1 S1                 0.0000
      8 ****        -2.5290   1.6652  -2.5107 C.3            1 S1                 0.0000
      9 ****        -0.5127   0.5466  -1.8138 C.ar           1 S1                 0.0000
     10 ****         0.1648   1.1928  -2.8010 N.ar           1 S1                 0.0000
     11 ****         1.5002   1.1818  -2.8260 C.ar           1 S1                 0.0000
     12 ****         2.3449   0.6016  -1.9727 N.ar           1 S1                 0.0000
     13 ****         1.6776  -0.0383  -0.9712 C.ar           1 S1                 0.0000
     14 ****         0.2630  -0.1195  -0.8213 C.ar           1 S1                 0.0000
     15 ****        -0.0458  -0.8540   0.3165 N.2            1 S1                 0.0000
     16 ****         1.1143  -1.1969   0.8031 C.2            1 S1                 0.0000
     17 ****         2.2061  -0.7328   0.1045 N.pl3          1 S1                 0.0000
     18 ****         3.6060  -0.9619   0.4360 C.3            1 S1                 0.0000
     19 ****         4.2250   0.0997   1.3878 C.3            1 S1                 0.0000
     20 ****         3.4315   0.2449   2.7085 C.3            1 S1                 0.0000
     21 ****         3.3801  -0.9818   3.4072 O.3            1 S1                 0.0000
     22 ****         4.4158   1.4729   0.6922 C.3            1 S1                 0.0000
     23 ****         5.3772   1.4586  -0.4854 C.3            1 S1                 0.0000
     24 ****         5.7021   2.9380  -0.6551 C.3            1 S1                 0.0000
     25 ****         5.6531   3.4920   0.6544 O.3            1 S1                 0.0000
     26 ****         5.0780   2.5523   1.5566 C.3            1 S1                 0.0000
     27 ****        -4.5292  -2.0578  -1.0484 N.3            1 S1                 0.0000
     28 ****        -5.1734  -2.3285  -2.3268 C.3            1 S1                 0.0000
     29 ****        -5.4859  -1.9760   0.0420 C.3            1 S1                 0.0000
     30 ****        -5.5021  -0.4210   1.5339 H              1 S1                 0.0000
     31 ****        -4.5001  -0.0117  -1.3526 H              1 S1                 0.0000
     32 ****        -3.7714  -2.1214   4.1709 H              1 S1                 0.0000
     33 ****        -4.8189  -0.7541   3.7964 H              1 S1                 0.0000
     34 ****        -3.1429  -0.7774   3.2214 H              1 S1                 0.0000
     35 ****        -3.4588   0.4975   0.7417 H              1 S1                 0.0000
     36 ****        -2.6816  -1.0833   0.8109 H              1 S1                 0.0000
     37 ****        -1.8533  -1.5382  -1.5135 H              1 S1                 0.0000
     38 ****        -2.7553  -0.9650  -2.8822 H              1 S1                 0.0000
     39 ****        -2.0362   2.6151  -2.2987 H              1 S1                 0.0000
     40 ****        -3.5677   1.7644  -2.1978 H              1 S1                 0.0000
     41 ****        -2.5132   1.4994  -3.5885 H              1 S1                 0.0000
     42 ****         1.9572   1.7150  -3.6465 H              1 S1                 0.0000
     43 ****         1.2053  -1.7939   1.6988 H              1 S1                 0.0000
     44 ****         3.6799  -1.9496   0.8923 H              1 S1                 0.0000
     45 ****         4.1748  -1.0325  -0.4909 H              1 S1                 0.0000
     46 ****         5.2199  -0.2600   1.6548 H              1 S1                 0.0000
     47 ****         3.9077   0.9669   3.3712 H              1 S1                 0.0000
     48 ****         2.4194   0.6074   2.5289 H              1 S1                 0.0000
     49 ****         2.9182  -0.8454   4.2204 H              1 S1                 0.0000
     50 ****         3.4504   1.8542   0.3568 H              1 S1                 0.0000
     51 ****         6.2829   0.9060  -0.2309 H              1 S1                 0.0000
     52 ****         4.9605   1.0213  -1.3916 H              1 S1                 0.0000
     53 ****         6.6733   3.1014  -1.1222 H              1 S1                 0.0000
     54 ****         4.9430   3.4262  -1.2678 H              1 S1                 0.0000
     55 ****         4.3726   3.0424   2.2279 H              1 S1                 0.0000
     56 ****         5.8797   2.1260   2.1614 H              1 S1                 0.0000
     57 ****        -5.7308  -3.2648  -2.2843 H              1 S1                 0.0000
     58 ****        -4.4371  -2.4219  -3.1247 H              1 S1                 0.0000
     59 ****        -5.8690  -1.5326  -2.5968 H              1 S1                 0.0000
     60 ****        -5.8131  -2.9671   0.3583 H              1 S1                 0.0000
     61 ****        -6.3727  -1.4295  -0.2833 H              1 S1                 0.0000
     62 ****        -5.2370  -2.6342   2.4542 LP             1 S1                 0.0000
     63 ****        -3.6974  -2.6466   1.9101 LP             1 S1                 0.0000
     64 ****        -0.3408   1.6796  -3.5132 LP             1 S1                 0.0000
     65 ****         3.3409   0.6321  -2.0568 LP             1 S1                 0.0000
     66 ****        -0.9519  -1.0706   0.6799 LP             1 S1                 0.0000
     67 ****         4.3087  -1.3013   3.5964 LP             1 S1                 0.0000
     68 ****         2.8988  -1.6637   2.8564 LP             1 S1                 0.0000
     69 ****         5.0972   4.3231   0.6423 LP             1 S1                 0.0000
     70 ****         6.5804   3.7155   0.9549 LP             1 S1                 0.0000
     71 ****        -3.8957  -2.8254  -0.9510 LP             1 S1                 0.0000
@<TRIPOS>BOND
    1    1    2 1     
    2    1   32 1     
    3    1   33 1     
    4    1   34 1     
    5    2    3 1     
    6    3   30 1     
    7    3   29 1     
    8    3    4 1     
    9    4    5 1     
   10    4   35 1     
   11    4   36 1     
   12    5   31 1     
   13    5    6 1     
   14    5   27 1     
   15    6    7 1     
   16    6   37 1     
   17    6   38 1     
   18    7    8 1     
   19    7    9 1     
   20    8   39 1     
   21    8   40 1     
   22    8   41 1     
   23    9   14 ar    
   24    9   10 ar    
   25   10   11 ar    
   26   11   12 ar    
   27   11   42 1     
   28   12   13 ar    
   29   13   17 1     
   30   13   14 ar    
   31   14   15 1     
   32   15   16 2     
   33   16   17 1     
   34   16   43 1     
   35   17   18 1     
   36   18   19 1     
   37   18   44 1     
   38   18   45 1     
   39   19   20 1     
   40   19   22 1     
   41   19   46 1     
   42   20   21 1     
   43   20   47 1     
   44   20   48 1     
   45   21   49 1     
   46   22   26 1     
   47   22   23 1     
   48   22   50 1     
   49   23   24 1     
   50   23   51 1     
   51   23   52 1     
   52   24   25 1     
   53   24   53 1     
   54   24   54 1     
   55   25   26 1     
   56   26   55 1     
   57   26   56 1     
   58   27   28 1     
   59   27   29 1     
   60   28   57 1     
   61   28   58 1     
   62   28   59 1     
   63   29   60 1     
   64   29   61 1     
   65    2   62 1     
   66    2   63 1     
   67   10   64 1     
   68   12   65 1     
   69   15   66 1     
   70   21   67 1     
   71   21   68 1     
   72   25   69 1     
   73   25   70 1     
   74   27   71 1     
@<TRIPOS>SUBSTRUCTURE
      1 S1             1
@<TRIPOS>SET
LONE_PAIRS      STATIC     ATOMS    <user>   **** ""
10 62 63 64 65 66 67 68 69 70 71
DONOR_HYDROGENS      STATIC     ATOMS    <user>   **** ""
1 49
ATOM$BLUE        STATIC     ATOMS    COLORGROUP SYSTEM
10 62 63 64 65 66 67 68 69 70 71
ATOM$RED        STATIC     ATOMS    COLORGROUP SYSTEM
1 49
