AV-unprocessed.smi:3165|AV-procd|sdf|12091|dock1
  -GOLD-   2272017523D 1   1.00000     0.00000
 Structure written by MMmdl.
 37 38  0  0  0  0  0  0  0  0  1 V2000
  152.0628  139.2838  155.4403 C   0  0  0  0  0  0  0  0  0  0  0  0
  150.6565  139.8551  155.6910 C   0  0  2  0  0  0  0  0  0  0  0  0
  149.8202  139.9872  154.3946 C   0  0  0  0  0  0  0  0  0  0  0  0
  148.6252  140.7945  154.5676 N   0  0  0  0  0  0  0  0  0  0  0  0
  147.7124  141.1864  153.6109 C   0  0  0  0  0  0  0  0  0  0  0  0
  146.7541  141.9266  154.2421 C   0  0  0  0  0  0  0  0  0  0  0  0
  147.1706  141.9283  155.6028 C   0  0  0  0  0  0  0  0  0  0  0  0
  148.2894  141.2485  155.7948 N   0  0  0  0  0  0  0  0  0  0  0  0
  150.7809  141.1372  156.3910 N   0  0  0  0  0  0  0  0  0  0  0  0
  151.6465  141.1318  157.5693 C   0  0  0  0  0  0  0  0  0  0  0  0
  151.3941  142.3710  158.4397 C   0  0  1  0  0  0  0  0  0  0  0  0
  152.4523  142.5087  159.5515 C   0  0  0  0  0  0  0  0  0  0  0  0
  152.2323  143.7989  160.3496 C   0  0  0  0  0  0  0  0  0  0  0  0
  152.1719  144.9939  159.3926 C   0  0  0  0  0  0  0  0  0  0  0  0
  151.1433  144.7356  158.2804 C   0  0  0  0  0  0  0  0  0  0  0  0
  151.4581  143.5237  157.6014 O   0  0  0  0  0  0  0  0  0  0  0  0
  152.0219  138.2732  155.0339 H   0  0  0  0  0  0  0  0  0  0  0  0
  152.6351  139.2315  156.3671 H   0  0  0  0  0  0  0  0  0  0  0  0
  152.6221  139.9033  154.7383 H   0  0  0  0  0  0  0  0  0  0  0  0
  150.1436  139.1518  156.3484 H   0  0  0  0  0  0  0  0  0  0  0  0
  150.4069  140.4473  153.5995 H   0  0  0  0  0  0  0  0  0  0  0  0
  149.5282  138.9993  154.0340 H   0  0  0  0  0  0  0  0  0  0  0  0
  147.8216  140.9095  152.5725 H   0  0  0  0  0  0  0  0  0  0  0  0
  145.8867  142.3941  153.8005 H   0  0  0  0  0  0  0  0  0  0  0  0
  146.6955  142.3981  156.4514 H   0  0  0  0  0  0  0  0  0  0  0  0
  151.1037  141.8480  155.7419 H   0  0  0  0  0  0  0  0  0  0  0  0
  151.4527  140.2404  158.1654 H   0  0  0  0  0  0  0  0  0  0  0  0
  152.6961  141.0933  157.2751 H   0  0  0  0  0  0  0  0  0  0  0  0
  150.4033  142.2987  158.8931 H   0  0  0  0  0  0  0  0  0  0  0  0
  152.4143  141.6477  160.2197 H   0  0  0  0  0  0  0  0  0  0  0  0
  153.4500  142.5180  159.1105 H   0  0  0  0  0  0  0  0  0  0  0  0
  151.2992  143.7290  160.9104 H   0  0  0  0  0  0  0  0  0  0  0  0
  153.0291  143.9354  161.0810 H   0  0  0  0  0  0  0  0  0  0  0  0
  151.9192  145.9031  159.9389 H   0  0  0  0  0  0  0  0  0  0  0  0
  153.1545  145.1574  158.9480 H   0  0  0  0  0  0  0  0  0  0  0  0
  150.1325  144.6853  158.6882 H   0  0  0  0  0  0  0  0  0  0  0  0
  151.1553  145.5550  157.5618 H   0  0  0  0  0  0  0  0  0  0  0  0
  1  2  1  0  0  0  0
  1 17  1  0  0  0  0
  1 18  1  0  0  0  0
  1 19  1  0  0  0  0
  2  3  1  0  0  0  0
  2  9  1  0  0  0  0
  2 20  1  0  0  0  0
  3  4  1  0  0  0  0
  3 21  1  0  0  0  0
  3 22  1  0  0  0  0
  4  8  1  0  0  0  0
  4  5  1  0  0  0  0
  5  6  2  0  0  0  0
  5 23  1  0  0  0  0
  6  7  1  0  0  0  0
  6 24  1  0  0  0  0
  7  8  2  0  0  0  0
  7 25  1  0  0  0  0
  9 10  1  0  0  0  0
  9 26  1  0  0  0  0
 10 11  1  0  0  0  0
 10 27  1  0  0  0  0
 10 28  1  0  0  0  0
 11 16  1  0  0  0  0
 11 12  1  0  0  0  0
 11 29  1  0  0  0  0
 12 13  1  0  0  0  0
 12 30  1  0  0  0  0
 12 31  1  0  0  0  0
 13 14  1  0  0  0  0
 13 32  1  0  0  0  0
 13 33  1  0  0  0  0
 14 15  1  0  0  0  0
 14 34  1  0  0  0  0
 14 35  1  0  0  0  0
 15 16  1  0  0  0  0
 15 36  1  0  0  0  0
 15 37  1  0  0  0  0
M  END
> <s_m_source_file>
AV-unprocessed.smi

> <i_m_source_file_index>
3165

> <i_lp_mmshare_version>
43012

> <i_f3d_flags>
0

> <s_epik_input>
bjFbY0hdW2NIXVtjSF1uMVtDSDJdW0NAQEhdKFtDSDNdKVtOSF1bQ0gyXVtDQEBIXTJbQ0gyXVtDSDJdW0NIMl1bQ0gyXU8y

> <s_epik_cmdline>
J2VwaWtfcHl0aG9uJywgJy1waCcsICc3LjAnLCAnLXRuJywgJzgnLCAnLW1hJywgJzIwMCcsICctbWV0YWxfYmluZGluZycsICctaW1hZScsICc8aW5maWxlLm1hZT4nLCAnLW9tYWUnLCAnPG91dGZpbGUubWFlPic=

> <r_lp_tautomer_probability>
1

> <r_epik_Ionization_Penalty>
2.51982

> <r_epik_Ionization_Penalty_Charging>
0

> <r_epik_Ionization_Penalty_Neutral>
2.51982

> <r_epik_State_Penalty>
2.68614

> <r_epik_Charging_Adjusted_Penalty>
2.68614

> <i_epik_Tot_Q>
0

> <i_epik_Tot_abs_Q>
0

> <r_epik_Metal_State_Penalty>
2.6861

> <b_epik_Metal_Only>
0

> <s_lp_Force_Field>
OPLS_2005

> <r_lp_Energy>
13.227

> <b_lp_Chiralities_Consistent>
1

> <s_lp_Variant>
AV-unprocessed.smi:3165-7

> <Gold.Version>
5.8.1

> <Gold.Id.Protein>
6NUR|6NUR_protein|mol2

> <Gold.PLP.Fitness>
40.6892

> <Gold.PLP.PLP>
-38.1228

> <Gold.PLP.part.hbond>
0.0000

> <Gold.PLP.part.metal>
0.0000

> <Gold.PLP.part.buried>
-3.5119

> <Gold.PLP.part.nonpolar>
-34.6924

> <Gold.PLP.part.repulsive>
0.2033

> <Gold.PLP.ligand.clash>
0.0000

> <Gold.PLP.ligand.torsion>
0.2741

> <Gold.PLP.Chemscore.Hbond>
0.0000

> <Gold.PLP.Chemscore.CHOScore>
1.0000

> <Gold.PLP.Chemscore.Metal>
0.0000

> <Gold.Chemscore.Hbonds>
donor molecule, donor type, donor heavy atom, donor atom, acceptor molecule, acceptor atom, score
      L1  C     5    23       P1  7957  1.00

> <Gold.PLP.Chemscore.Internal.Correction>
0.1145

> <Gold.Rescore>
     Score         DG    S(hbond)    S(metal)    S(lipo)     H(rot)  DE(clash)    DE(int)     intcor
     13.57     -13.93       0.00        0.00     106.66       1.57       0.14       0.22       ----

> <Gold.Chemscore.Fitness>
13.5662

> <Gold.Chemscore.DG>
-13.9315

> <Gold.Chemscore.ZeroCoef>
-5.4800

> <Gold.Chemscore.Hbond>
0.0000

> <Gold.Chemscore.Metal>
0.0000

> <Gold.Chemscore.Lipo>
106.6563

> <Gold.Chemscore.Internal_Hbond>
0.0000

> <Gold.Chemscore.DEClash>
0.1429

> <Gold.Chemscore.DEInternal>
0.2225

> <Gold.Chemscore.Rot>
1.5731

> <Gold.Chemscore.Internal.Correction>
   9.000000E+99

> <Gold.Chemscore.Hbond.Weighted>
-0.0000

> <Gold.Chemscore.Metal.Weighted>
-0.0000

> <Gold.Chemscore.Lipo.Weighted>
-12.4788

> <Gold.Chemscore.Internal_Hbond.Weighted>
0.0000

> <Gold.Chemscore.DEClash.Weighted>
0.1429

> <Gold.Chemscore.DEInternal.Weighted>
0.2225

> <Gold.Chemscore.Rot.Weighted>
4.0273

> <Gold.Chemscore.Internal.Correction.Weighted>
   9.000000E+99

> <Gold.Protein.RotatedTorsions>
[ 6907 6896 6895 6894 ] final -163.85 input  -60.11 | X-H torsion
[ 7974 7965 7964 7962 ] final  -42.62 input  175.53 | X-H torsion
[ 8008 7997 7996 7995 ] final   80.31 input   59.86 | X-H torsion
[ 10167 10162 10161 10158 ] final  -27.03 input  -65.29 | X-H torsion
[ 10718 10713 10712 10709 ] final  127.05 input   66.30 | X-H torsion
[ 10763 10752 10751 10750 ] final   98.07 input  -60.55 | X-H torsion
[ 11005 11000 10999 10996 ] final -172.02 input  -57.11 | X-H torsion

> <Gold.Protein.ActiveResidues>
 VAL166  LYS551  ARG553  GLY616  TRP617  ASP618  TYR619  PRO620  LYS621  CYS622 
 ASP623  PHE694  ASN695  SER759  ASP760  ASP761  ALA762  ILE779  LEU786  VAL792 
 PHE793  MET794  SER795  GLU796  ALA797  LYS798  CYS799  TRP800  GLU811  SER814 

> <Gold.Protein.RotatedAtoms>
  151.4025  133.3753  159.2733 H   0  0  0  0  0  0  0  0  0  0  0  0  # atno 6907 bound_to 6896
  150.9423  134.8832  159.7630 H   0  0  0  0  0  0  0  0  0  0  0  0  # atno 6908 bound_to 6896
  152.5076  134.3976  159.9457 H   0  0  0  0  0  0  0  0  0  0  0  0  # atno 6909 bound_to 6896
  146.0099  140.6977  142.9229 H   0  0  0  0  0  0  0  0  0  0  0  0  # atno 7974 bound_to 7965
  155.8817  140.3443  155.5893 H   0  0  0  0  0  0  0  0  0  0  0  0  # atno 8008 bound_to 7997
  155.7712  140.0845  157.2126 H   0  0  0  0  0  0  0  0  0  0  0  0  # atno 8009 bound_to 7997
  154.4025  140.1518  156.2931 H   0  0  0  0  0  0  0  0  0  0  0  0  # atno 8010 bound_to 7997
  140.7279  143.4128  151.1078 H   0  0  0  0  0  0  0  0  0  0  0  0  # atno 10167 bound_to 10162
  157.5366  131.1097  150.8925 H   0  0  0  0  0  0  0  0  0  0  0  0  # atno 10718 bound_to 10713
  153.2845  135.4161  155.1110 H   0  0  0  0  0  0  0  0  0  0  0  0  # atno 10763 bound_to 10752
  154.8500  135.3503  154.6066 H   0  0  0  0  0  0  0  0  0  0  0  0  # atno 10764 bound_to 10752
  153.6487  135.7053  153.5274 H   0  0  0  0  0  0  0  0  0  0  0  0  # atno 10765 bound_to 10752
  140.5016  134.5887  157.4990 H   0  0  0  0  0  0  0  0  0  0  0  0  # atno 11005 bound_to 11000
  144.6949  140.3379  143.7204 LP  0  0  0  0  0  0  0  0  0  0  0  0  # atno 17320 bound_to 7965
  145.7359  139.1749  143.2404 LP  0  0  0  0  0  0  0  0  0  0  0  0  # atno 17321 bound_to 7965
  139.7763  143.8420  152.3130 LP  0  0  0  0  0  0  0  0  0  0  0  0  # atno 17342 bound_to 10162
  139.8356  144.7234  150.9395 LP  0  0  0  0  0  0  0  0  0  0  0  0  # atno 17343 bound_to 10162
  156.9490  130.5413  149.5282 LP  0  0  0  0  0  0  0  0  0  0  0  0  # atno 17370 bound_to 10713
  156.0463  130.5539  150.8889 LP  0  0  0  0  0  0  0  0  0  0  0  0  # atno 17371 bound_to 10713
  139.9710  134.7293  156.0042 LP  0  0  0  0  0  0  0  0  0  0  0  0  # atno 17394 bound_to 11000
  141.1432  133.6560  156.3791 LP  0  0  0  0  0  0  0  0  0  0  0  0  # atno 17395 bound_to 11000

$$$$
