#       Name:                AV-unprocessed.smi:495
#       Creating user name   scv26
#       Creation time:       Thu Mar 26 23:16:02 2020


#       File generated by GOLD software.
#

@<TRIPOS>MOLECULE
AV-unprocessed.smi:495
    37    39     1
SMALL
NO_CHARGES


@<TRIPOS>ATOM
      1 ****         1.2328   5.4680  -0.4483 N.pl3          1 S1                 0.0000
      2 ****         0.7787   4.1508  -0.4217 C.ar           1 S1                 0.0000
      3 ****        -0.1973   3.7575   0.5141 C.ar           1 S1                 0.0000
      4 ****        -0.6544   2.4255   0.5380 C.ar           1 S1                 0.0000
      5 ****        -0.1411   1.4692  -0.3648 C.ar           1 S1                 0.0000
      6 ****        -0.6287   0.0820  -0.3322 C.2            1 S1                 0.0000
      7 ****        -1.9359  -0.2801  -0.4334 N.pl3          1 S1                 1.0000
      8 ****        -2.0279  -1.6710  -0.3482 C.ar           1 S1                 0.0000
      9 ****        -3.1343  -2.5133  -0.4023 C.ar           1 S1                 0.0000
     10 ****        -2.8849  -3.8956  -0.2742 C.ar           1 S1                 0.0000
     11 ****        -1.5775  -4.3930  -0.0977 C.ar           1 S1                 0.0000
     12 ****        -0.4624  -3.5310  -0.0434 C.ar           1 S1                 0.0000
     13 ****        -0.7147  -2.1657  -0.1760 C.ar           1 S1                 0.0000
     14 ****         0.1236  -1.0433  -0.1718 N.pl3          1 S1                 0.0000
     15 ****         1.5686  -1.2275   0.0261 C.3            1 S1                 0.0000
     16 ****         1.9346  -1.2750   1.5155 C.3            1 S1                 0.0000
     17 ****         3.3263  -1.4546   1.6553 O.3            1 S1                 0.0000
     18 ****         0.8323   1.8768  -1.3029 C.ar           1 S1                 0.0000
     19 ****         1.2923   3.2076  -1.3324 C.ar           1 S1                 0.0000
     20 ****         1.9308   5.7723  -1.1118 H              1 S1                 0.0000
     21 ****         0.8181   6.1801   0.1359 H              1 S1                 0.0000
     22 ****        -0.5990   4.4736   1.2163 H              1 S1                 0.0000
     23 ****        -1.4018   2.1360   1.2622 H              1 S1                 0.0000
     24 ****        -4.1375  -2.1354  -0.5347 H              1 S1                 0.0000
     25 ****        -3.7134  -4.5882  -0.3101 H              1 S1                 0.0000
     26 ****        -1.4260  -5.4585  -0.0013 H              1 S1                 0.0000
     27 ****         0.5340  -3.9242   0.0950 H              1 S1                 0.0000
     28 ****         1.8833  -2.1357  -0.4888 H              1 S1                 0.0000
     29 ****         2.0895  -0.4048  -0.4617 H              1 S1                 0.0000
     30 ****         1.6431  -0.3491   2.0127 H              1 S1                 0.0000
     31 ****         1.4191  -2.0938   2.0181 H              1 S1                 0.0000
     32 ****         3.5393  -1.4581   2.5763 H              1 S1                 0.0000
     33 ****         1.2292   1.1653  -2.0121 H              1 S1                 0.0000
     34 ****         2.0382   3.4999  -2.0574 H              1 S1                 0.0000
     35 ****        -2.6997   0.3723  -0.5549 H              1 S1                 0.0000
     36 ****         3.8098  -0.7065   1.2007 LP             1 S1                 0.0000
     37 ****         3.5966  -2.3250   1.2438 LP             1 S1                 0.0000
@<TRIPOS>BOND
    1    1    2 1     
    2    1   20 1     
    3    1   21 1     
    4    2   19 ar    
    5    2    3 ar    
    6    3    4 ar    
    7    3   22 1     
    8    4    5 ar    
    9    4   23 1     
   10    5    6 1     
   11    5   18 ar    
   12    6   14 1     
   13    6    7 2     
   14    7    8 1     
   15    7   35 1     
   16    8   13 ar    
   17    8    9 ar    
   18    9   10 ar    
   19    9   24 1     
   20   10   11 ar    
   21   10   25 1     
   22   11   12 ar    
   23   11   26 1     
   24   12   13 ar    
   25   12   27 1     
   26   13   14 1     
   27   14   15 1     
   28   15   16 1     
   29   15   28 1     
   30   15   29 1     
   31   16   17 1     
   32   16   30 1     
   33   16   31 1     
   34   17   32 1     
   35   18   19 ar    
   36   18   33 1     
   37   19   34 1     
   38   17   36 1     
   39   17   37 1     
@<TRIPOS>SUBSTRUCTURE
      1 S1             1
@<TRIPOS>SET
LONE_PAIRS      STATIC     ATOMS    <user>   **** ""
2 36 37
DONOR_HYDROGENS      STATIC     ATOMS    <user>   **** ""
4 20 21 35 32
ATOM$BLUE        STATIC     ATOMS    COLORGROUP SYSTEM
2 36 37
ATOM$RED        STATIC     ATOMS    COLORGROUP SYSTEM
4 20 21 35 32
