AV-unprocessed.smi:1894|AV-procd|sdf|7679|dock8
  -GOLD-   22720 9423D 1   1.00000     0.00000
 Structure written by MMmdl.
 32 34  0  0  0  0  0  0  0  0  1 V2000
  151.7519  139.7801  158.0608 O   0  0  0  0  0  0  0  0  0  0  0  0
  151.6570  140.8399  157.4425 C   0  0  0  0  0  0  0  0  0  0  0  0
  151.3008  140.8262  155.9562 C   0  0  0  0  0  0  0  0  0  0  0  0
  151.4789  139.5004  155.3939 N   0  0  0  0  0  0  0  0  0  0  0  0
  152.5456  138.6991  155.3833 C   0  0  0  0  0  0  0  0  0  0  0  0
  152.3424  137.5456  154.7621 N   0  0  0  0  0  0  0  0  0  0  0  0
  151.0388  137.7140  154.3889 C   0  0  0  0  0  0  0  0  0  0  0  0
  150.4737  138.8685  154.7425 N   0  0  0  0  0  0  0  0  0  0  0  0
  151.8568  142.0461  157.9961 N   0  0  0  0  0  0  0  0  0  0  0  0
  152.2243  142.2970  159.3855 C   0  0  0  0  0  0  0  0  0  0  0  0
  152.2431  143.7782  159.7277 C   0  0  0  0  0  0  0  0  0  0  0  0
  151.1142  144.6944  159.3162 C   0  0  0  0  0  0  0  0  0  0  0  0
  152.4721  144.8307  158.6678 C   0  0  0  0  0  0  0  0  0  0  0  0
  153.5590  141.6602  159.7281 C   0  0  0  0  0  0  0  0  0  0  0  0
  153.6351  140.2513  160.2657 C   0  0  0  0  0  0  0  0  0  0  0  0
  153.9776  141.4218  161.1597 C   0  0  0  0  0  0  0  0  0  0  0  0
  150.2616  141.1281  155.8197 H   0  0  0  0  0  0  0  0  0  0  0  0
  151.9187  141.5415  155.4108 H   0  0  0  0  0  0  0  0  0  0  0  0
  153.4890  138.9667  155.8366 H   0  0  0  0  0  0  0  0  0  0  0  0
  150.4898  136.9630  153.8400 H   0  0  0  0  0  0  0  0  0  0  0  0
  151.7604  142.8566  157.4014 H   0  0  0  0  0  0  0  0  0  0  0  0
  151.4751  141.8217  160.0225 H   0  0  0  0  0  0  0  0  0  0  0  0
  152.6801  143.9887  160.7022 H   0  0  0  0  0  0  0  0  0  0  0  0
  150.3134  144.2791  158.7081 H   0  0  0  0  0  0  0  0  0  0  0  0
  150.8125  145.4667  160.0205 H   0  0  0  0  0  0  0  0  0  0  0  0
  153.0775  145.6927  158.9400 H   0  0  0  0  0  0  0  0  0  0  0  0
  152.5650  144.5038  157.6343 H   0  0  0  0  0  0  0  0  0  0  0  0
  154.3602  141.9468  159.0489 H   0  0  0  0  0  0  0  0  0  0  0  0
  152.6991  139.7304  160.4583 H   0  0  0  0  0  0  0  0  0  0  0  0
  154.4544  139.6252  159.9184 H   0  0  0  0  0  0  0  0  0  0  0  0
  155.0256  141.5771  161.4077 H   0  0  0  0  0  0  0  0  0  0  0  0
  153.2702  141.6685  161.9487 H   0  0  0  0  0  0  0  0  0  0  0  0
  1  2  2  0  0  0  0
  2  3  1  0  0  0  0
  2  9  1  0  0  0  0
  3  4  1  0  0  0  0
  3 17  1  0  0  0  0
  3 18  1  0  0  0  0
  4  8  1  0  0  0  0
  4  5  1  0  0  0  0
  5  6  2  0  0  0  0
  5 19  1  0  0  0  0
  6  7  1  0  0  0  0
  7  8  2  0  0  0  0
  7 20  1  0  0  0  0
  9 10  1  0  0  0  0
  9 21  1  0  0  0  0
 10 11  1  0  0  0  0
 10 14  1  0  0  0  0
 10 22  1  0  0  0  0
 11 13  1  0  0  0  0
 11 12  1  0  0  0  0
 11 23  1  0  0  0  0
 12 13  1  0  0  0  0
 12 24  1  0  0  0  0
 12 25  1  0  0  0  0
 13 26  1  0  0  0  0
 13 27  1  0  0  0  0
 14 16  1  0  0  0  0
 14 15  1  0  0  0  0
 14 28  1  0  0  0  0
 15 16  1  0  0  0  0
 15 29  1  0  0  0  0
 15 30  1  0  0  0  0
 16 31  1  0  0  0  0
 16 32  1  0  0  0  0
M  END
> <s_m_source_file>
AV-unprocessed.smi

> <i_m_source_file_index>
1894

> <i_lp_mmshare_version>
43012

> <i_f3d_flags>
0

> <s_epik_input>
W0NIMl0xW0NIMl1bQ0hdMVtDSF0oW0NIXTJbQ0gyXVtDSDJdMilbTkhdQyg9TylbQ0gyXW4zW2NIXW5bY0hdbjM=

> <s_epik_cmdline>
J2VwaWtfcHl0aG9uJywgJy1waCcsICc3LjAnLCAnLXRuJywgJzgnLCAnLW1hJywgJzIwMCcsICctbWV0YWxfYmluZGluZycsICctaW1hZScsICc8aW5maWxlLm1hZT4nLCAnLW9tYWUnLCAnPG91dGZpbGUubWFlPic=

> <r_lp_tautomer_probability>
1

> <r_epik_Ionization_Penalty>
9.18136e-06

> <r_epik_Ionization_Penalty_Charging>
0

> <r_epik_Ionization_Penalty_Neutral>
9.18136e-06

> <r_epik_State_Penalty>
-0

> <r_epik_Charging_Adjusted_Penalty>
0

> <i_epik_Tot_Q>
0

> <i_epik_Tot_abs_Q>
0

> <r_epik_Metal_State_Penalty>
-0

> <b_epik_Metal_Only>
0

> <s_lp_Force_Field>
OPLS_2005

> <r_lp_Energy>
25.0863

> <b_lp_Chiralities_Consistent>
1

> <s_lp_Variant>
AV-unprocessed.smi:1894-1

> <Gold.Version>
5.8.1

> <Gold.Id.Protein>
6NUR|6NUR_protein|mol2

> <Gold.PLP.Fitness>
45.6622

> <Gold.PLP.PLP>
-41.0367

> <Gold.PLP.part.hbond>
-1.0000

> <Gold.PLP.part.metal>
0.0000

> <Gold.PLP.part.buried>
-4.8030

> <Gold.PLP.part.nonpolar>
-35.8844

> <Gold.PLP.part.repulsive>
0.2827

> <Gold.PLP.ligand.clash>
0.0000

> <Gold.PLP.ligand.torsion>
1.3729

> <Gold.PLP.Chemscore.Hbond>
0.7200

> <Gold.PLP.Chemscore.CHOScore>
1.0273

> <Gold.PLP.Chemscore.Metal>
0.0000

> <Gold.Chemscore.Hbonds>
donor molecule, donor type, donor heavy atom, donor atom, acceptor molecule, acceptor atom, score
      P1  H 10752 10765       L1     6  0.67
      L1  C     7    20       P1  7948  0.63
      L1  C     7    20       P1  7949  0.36

> <Gold.PLP.Chemscore.Internal.Correction>
2.1293

> <Gold.Rescore>
     Score         DG    S(hbond)    S(metal)    S(lipo)     H(rot)  DE(clash)    DE(int)     intcor
     10.56     -12.05       0.96        0.00      83.47       2.50       0.04       1.45       ----

> <Gold.Chemscore.Fitness>
10.5617

> <Gold.Chemscore.DG>
-12.0548

> <Gold.Chemscore.ZeroCoef>
-5.4800

> <Gold.Chemscore.Hbond>
0.9589

> <Gold.Chemscore.Metal>
0.0000

> <Gold.Chemscore.Lipo>
83.4700

> <Gold.Chemscore.Internal_Hbond>
0.0000

> <Gold.Chemscore.DEClash>
0.0381

> <Gold.Chemscore.DEInternal>
1.4550

> <Gold.Chemscore.Rot>
2.4977

> <Gold.Chemscore.Internal.Correction>
   9.000000E+99

> <Gold.Chemscore.Hbonds>
donor molecule, donor type, donor heavy atom, donor atom, acceptor molecule, acceptor atom, score
      P1  H 10752 10765       L1     6  0.51

> <Gold.Chemscore.Hbond.Weighted>
-3.2029

> <Gold.Chemscore.Metal.Weighted>
-0.0000

> <Gold.Chemscore.Lipo.Weighted>
-9.7660

> <Gold.Chemscore.Internal_Hbond.Weighted>
0.0000

> <Gold.Chemscore.DEClash.Weighted>
0.0381

> <Gold.Chemscore.DEInternal.Weighted>
1.4550

> <Gold.Chemscore.Rot.Weighted>
6.3941

> <Gold.Chemscore.Internal.Correction.Weighted>
   9.000000E+99

> <Gold.Protein.RotatedTorsions>
[ 6907 6896 6895 6894 ] final  114.06 input  -60.11 | X-H torsion
[ 7974 7965 7964 7962 ] final -129.76 input  175.53 | X-H torsion
[ 8008 7997 7996 7995 ] final   -2.25 input   59.86 | X-H torsion
[ 10167 10162 10161 10158 ] final  -30.09 input  -65.29 | X-H torsion
[ 10718 10713 10712 10709 ] final  -27.67 input   66.30 | X-H torsion
[ 10763 10752 10751 10750 ] final  167.45 input  -60.55 | X-H torsion
[ 11005 11000 10999 10996 ] final  141.53 input  -57.11 | X-H torsion

> <Gold.Protein.ActiveResidues>
 VAL166  LYS551  ARG553  GLY616  TRP617  ASP618  TYR619  PRO620  LYS621  CYS622 
 ASP623  PHE694  ASN695  SER759  ASP760  ASP761  ALA762  ILE779  LEU786  VAL792 
 PHE793  MET794  SER795  GLU796  ALA797  LYS798  CYS799  TRP800  GLU811  SER814 

> <Gold.Protein.RotatedAtoms>
  152.4824  133.8288  159.7092 H   0  0  0  0  0  0  0  0  0  0  0  0  # atno 6907 bound_to 6896
  150.8884  133.7266  159.2918 H   0  0  0  0  0  0  0  0  0  0  0  0  # atno 6908 bound_to 6896
  151.4747  135.1052  159.9813 H   0  0  0  0  0  0  0  0  0  0  0  0  # atno 6909 bound_to 6896
  144.9541  140.7376  143.4770 H   0  0  0  0  0  0  0  0  0  0  0  0  # atno 7974 bound_to 7965
  154.6378  140.2539  155.7357 H   0  0  0  0  0  0  0  0  0  0  0  0  # atno 8008 bound_to 7997
  156.2513  140.2893  156.0679 H   0  0  0  0  0  0  0  0  0  0  0  0  # atno 8009 bound_to 7997
  155.1643  140.0385  157.2839 H   0  0  0  0  0  0  0  0  0  0  0  0  # atno 8010 bound_to 7997
  140.7253  143.3876  151.1487 H   0  0  0  0  0  0  0  0  0  0  0  0  # atno 10167 bound_to 10162
  156.4351  130.4453  149.7090 H   0  0  0  0  0  0  0  0  0  0  0  0  # atno 10718 bound_to 10713
  154.3540  135.2753  155.2356 H   0  0  0  0  0  0  0  0  0  0  0  0  # atno 10763 bound_to 10752
  154.4573  135.5916  153.6235 H   0  0  0  0  0  0  0  0  0  0  0  0  # atno 10764 bound_to 10752
  152.9848  135.6056  154.3754 H   0  0  0  0  0  0  0  0  0  0  0  0  # atno 10765 bound_to 10752
  140.0408  134.9306  157.0839 H   0  0  0  0  0  0  0  0  0  0  0  0  # atno 11005 bound_to 11000
  145.2800  139.1922  143.4796 LP  0  0  0  0  0  0  0  0  0  0  0  0  # atno 17320 bound_to 7965
  146.3331  140.2760  142.8608 LP  0  0  0  0  0  0  0  0  0  0  0  0  # atno 17321 bound_to 7965
  139.7476  143.8828  152.3068 LP  0  0  0  0  0  0  0  0  0  0  0  0  # atno 17342 bound_to 10162
  139.8671  144.7087  150.9031 LP  0  0  0  0  0  0  0  0  0  0  0  0  # atno 17343 bound_to 10162
  156.3977  130.7659  151.2665 LP  0  0  0  0  0  0  0  0  0  0  0  0  # atno 17370 bound_to 10713
  157.7507  131.0249  150.3896 LP  0  0  0  0  0  0  0  0  0  0  0  0  # atno 17371 bound_to 10713
  140.4072  134.2019  155.7163 LP  0  0  0  0  0  0  0  0  0  0  0  0  # atno 17394 bound_to 11000
  141.1882  133.8265  157.1004 LP  0  0  0  0  0  0  0  0  0  0  0  0  # atno 17395 bound_to 11000

$$$$
