#       Name:                AV-unprocessed.smi:3349
#       Creating user name   scv26
#       Creation time:       Fri Mar 27 19:37:08 2020


#       File generated by GOLD software.
#

@<TRIPOS>MOLECULE
AV-unprocessed.smi:3349
    47    48     1
SMALL
NO_CHARGES


@<TRIPOS>ATOM
      1 ****        -0.2720   2.0392   0.5474 C.3            1 S1                 0.0000
      2 ****        -0.9132   0.9640  -0.3652 C.3            1 S1                 0.0000
      3 ****        -0.3634  -0.4460  -0.0193 C.3            1 S1                 0.0000
      4 ****         1.0923  -0.5296  -0.1129 N.am           1 S1                 0.0000
      5 ****         1.9398  -0.6219   0.9248 C.2            1 S1                 0.0000
      6 ****         1.5683  -0.6315   2.0988 O.2            1 S1                 0.0000
      7 ****         3.4333  -0.7115   0.5732 C.3            1 S1                 0.0000
      8 ****         4.3450  -0.2219   1.7131 C.3            1 S1                 0.0000
      9 ****         3.7859  -2.0667   0.1730 N.pl3          1 S1                 0.0000
     10 ****         3.6158  -3.2388   0.7921 C.2            1 S1                 0.0000
     11 ****         4.0921  -4.2762   0.1184 N.2            1 S1                 0.0000
     12 ****         4.5873  -3.6283  -0.9774 C.2            1 S1                 0.0000
     13 ****         4.4344  -2.3042  -0.9922 N.2            1 S1                 0.0000
     14 ****        -2.4137   0.9673  -0.3150 N.4            1 S1                 1.0000
     15 ****        -3.0458   2.3108  -0.1888 C.3            1 S1                 0.0000
     16 ****        -4.5794   2.2044  -0.1233 C.3            1 S1                 0.0000
     17 ****        -5.0667   1.5207  -1.2675 O.3            1 S1                 0.0000
     18 ****        -4.5618   0.1960  -1.3323 C.3            1 S1                 0.0000
     19 ****        -3.0302   0.2365  -1.4572 C.3            1 S1                 0.0000
     20 ****         0.8161   2.0123   0.5057 H              1 S1                 0.0000
     21 ****        -0.5625   1.9015   1.5896 H              1 S1                 0.0000
     22 ****        -0.5427   3.0509   0.2456 H              1 S1                 0.0000
     23 ****        -0.6178   1.2064  -1.3875 H              1 S1                 0.0000
     24 ****        -0.7120  -0.7483   0.9697 H              1 S1                 0.0000
     25 ****        -0.7405  -1.1980  -0.7094 H              1 S1                 0.0000
     26 ****         1.4882  -0.5302  -1.0424 H              1 S1                 0.0000
     27 ****         3.6005  -0.0541  -0.2825 H              1 S1                 0.0000
     28 ****         4.0881   0.7934   2.0178 H              1 S1                 0.0000
     29 ****         5.3887  -0.2134   1.3977 H              1 S1                 0.0000
     30 ****         4.2731  -0.8632   2.5926 H              1 S1                 0.0000
     31 ****         3.1341  -3.3345   1.7543 H              1 S1                 0.0000
     32 ****         5.0768  -4.1479  -1.7881 H              1 S1                 0.0000
     33 ****        -2.7197   2.8115   0.7221 H              1 S1                 0.0000
     34 ****        -2.7494   2.9357  -1.0328 H              1 S1                 0.0000
     35 ****        -4.8960   1.6907   0.7860 H              1 S1                 0.0000
     36 ****        -5.0223   3.2002  -0.0944 H              1 S1                 0.0000
     37 ****        -4.8687  -0.3714  -0.4520 H              1 S1                 0.0000
     38 ****        -4.9955  -0.3029  -2.1992 H              1 S1                 0.0000
     39 ****        -2.7503   0.7216  -2.3937 H              1 S1                 0.0000
     40 ****        -2.6704  -0.7886  -1.5132 H              1 S1                 0.0000
     41 ****        -2.6677   0.4661   0.5246 H              1 S1                 0.0000
     42 ****         0.5941  -0.5687   2.3155 LP             1 S1                 0.0000
     43 ****         2.2409  -0.7021   2.8355 LP             1 S1                 0.0000
     44 ****         4.0897  -5.2499   0.3461 LP             1 S1                 0.0000
     45 ****         4.7259  -1.6495  -1.6896 LP             1 S1                 0.0000
     46 ****        -4.7841   2.0172  -2.0883 LP             1 S1                 0.0000
     47 ****        -6.0652   1.4868  -1.2257 LP             1 S1                 0.0000
@<TRIPOS>BOND
    1    1    2 1     
    2    1   20 1     
    3    1   21 1     
    4    1   22 1     
    5    2    3 1     
    6    2   14 1     
    7    2   23 1     
    8    3    4 1     
    9    3   24 1     
   10    3   25 1     
   11    4    5 am    
   12    4   26 1     
   13    5    6 2     
   14    5    7 1     
   15    7    8 1     
   16    7    9 1     
   17    7   27 1     
   18    8   28 1     
   19    8   29 1     
   20    8   30 1     
   21    9   13 1     
   22    9   10 1     
   23   10   11 2     
   24   10   31 1     
   25   11   12 1     
   26   12   13 2     
   27   12   32 1     
   28   14   19 1     
   29   14   15 1     
   30   14   41 1     
   31   15   16 1     
   32   15   33 1     
   33   15   34 1     
   34   16   17 1     
   35   16   35 1     
   36   16   36 1     
   37   17   18 1     
   38   18   19 1     
   39   18   37 1     
   40   18   38 1     
   41   19   39 1     
   42   19   40 1     
   43    6   42 1     
   44    6   43 1     
   45   11   44 1     
   46   13   45 1     
   47   17   46 1     
   48   17   47 1     
@<TRIPOS>SUBSTRUCTURE
      1 S1             1
@<TRIPOS>SET
LONE_PAIRS      STATIC     ATOMS    <user>   **** ""
6 42 43 44 45 46 47
DONOR_HYDROGENS      STATIC     ATOMS    <user>   **** ""
2 26 41
ATOM$BLUE        STATIC     ATOMS    COLORGROUP SYSTEM
6 42 43 44 45 46 47
ATOM$RED        STATIC     ATOMS    COLORGROUP SYSTEM
2 26 41
