AV-unprocessed.smi:2069|AV-procd|sdf|8431|dock3
  -GOLD-   2272011123D 1   1.00000     0.00000
 Structure written by MMmdl.
 38 39  0  0  0  0  0  0  0  0  1 V2000
  150.8946  141.7994  156.3804 C   0  0  0  0  0  0  0  0  0  0  0  0
  150.5015  140.5927  155.5990 C   0  0  0  0  0  0  0  0  0  0  0  0
  151.3665  139.8996  154.8485 N   0  0  0  0  0  0  0  0  0  0  0  0
  150.7660  138.8209  154.2145 N   0  0  0  0  0  0  0  0  0  0  0  0
  149.4614  138.7320  154.5074 C   0  0  0  0  0  0  0  0  0  0  0  0
  148.6031  137.7244  153.9934 N   0  0  0  0  0  0  0  0  0  0  0  0
  147.4083  137.3267  154.4647 C   0  0  0  0  0  0  0  0  0  0  0  0
  146.8441  137.7918  155.4552 O   0  0  0  0  0  0  0  0  0  0  0  0
  146.8928  136.3473  153.7071 N   0  0  0  0  0  0  0  0  0  0  0  0
  145.6117  135.6814  153.9330 C   0  0  0  0  0  0  0  0  0  0  0  0
  144.7986  135.4634  152.6253 C   0  0  2  0  0  0  0  0  0  0  0  0
  143.3596  136.0046  152.8248 C   0  0  0  0  0  0  0  0  0  0  0  0
  144.8221  134.0580  152.1553 N   0  0  0  0  0  0  0  0  0  0  0  0
  146.1835  133.5570  151.9320 C   0  0  0  0  0  0  0  0  0  0  0  0
  146.2118  132.1083  151.4149 C   0  0  0  0  0  0  0  0  0  0  0  0
  145.4534  132.0117  150.2177 O   0  0  0  0  0  0  0  0  0  0  0  0
  144.1034  132.4094  150.4105 C   0  0  0  0  0  0  0  0  0  0  0  0
  144.0583  133.8611  150.9173 C   0  0  0  0  0  0  0  0  0  0  0  0
  148.8558  139.9709  155.5934 S   0  0  0  0  0  0  0  0  0  0  0  0
  151.9393  142.0531  156.1980 H   0  0  0  0  0  0  0  0  0  0  0  0
  150.7613  141.6129  157.4461 H   0  0  0  0  0  0  0  0  0  0  0  0
  150.2741  142.6478  156.0915 H   0  0  0  0  0  0  0  0  0  0  0  0
  148.9383  137.2515  153.1672 H   0  0  0  0  0  0  0  0  0  0  0  0
  147.4286  136.0335  152.9113 H   0  0  0  0  0  0  0  0  0  0  0  0
  145.8779  134.7326  154.3941 H   0  0  0  0  0  0  0  0  0  0  0  0
  145.0043  136.2172  154.6649 H   0  0  0  0  0  0  0  0  0  0  0  0
  145.2641  136.0812  151.8555 H   0  0  0  0  0  0  0  0  0  0  0  0
  143.3484  137.0295  153.1931 H   0  0  0  0  0  0  0  0  0  0  0  0
  142.8046  135.3940  153.5377 H   0  0  0  0  0  0  0  0  0  0  0  0
  142.7943  136.0371  151.8947 H   0  0  0  0  0  0  0  0  0  0  0  0
  146.7043  134.2042  151.2247 H   0  0  0  0  0  0  0  0  0  0  0  0
  146.7566  133.5707  152.8568 H   0  0  0  0  0  0  0  0  0  0  0  0
  147.2374  131.7999  151.2123 H   0  0  0  0  0  0  0  0  0  0  0  0
  145.8136  131.4222  152.1642 H   0  0  0  0  0  0  0  0  0  0  0  0
  143.5684  132.3215  149.4648 H   0  0  0  0  0  0  0  0  0  0  0  0
  143.6147  131.7374  151.1179 H   0  0  0  0  0  0  0  0  0  0  0  0
  143.0097  134.1101  151.0691 H   0  0  0  0  0  0  0  0  0  0  0  0
  144.4346  134.5281  150.1401 H   0  0  0  0  0  0  0  0  0  0  0  0
  1  2  1  0  0  0  0
  1 20  1  0  0  0  0
  1 21  1  0  0  0  0
  1 22  1  0  0  0  0
  2 19  1  0  0  0  0
  2  3  2  0  0  0  0
  3  4  1  0  0  0  0
  4  5  2  0  0  0  0
  5  6  1  0  0  0  0
  5 19  1  0  0  0  0
  6  7  1  0  0  0  0
  6 23  1  0  0  0  0
  7  8  2  0  0  0  0
  7  9  1  0  0  0  0
  9 10  1  0  0  0  0
  9 24  1  0  0  0  0
 10 11  1  0  0  0  0
 10 25  1  0  0  0  0
 10 26  1  0  0  0  0
 11 12  1  0  0  0  0
 11 13  1  0  0  0  0
 11 27  1  0  0  0  0
 12 28  1  0  0  0  0
 12 29  1  0  0  0  0
 12 30  1  0  0  0  0
 13 18  1  0  0  0  0
 13 14  1  0  0  0  0
 14 15  1  0  0  0  0
 14 31  1  0  0  0  0
 14 32  1  0  0  0  0
 15 16  1  0  0  0  0
 15 33  1  0  0  0  0
 15 34  1  0  0  0  0
 16 17  1  0  0  0  0
 17 18  1  0  0  0  0
 17 35  1  0  0  0  0
 17 36  1  0  0  0  0
 18 37  1  0  0  0  0
 18 38  1  0  0  0  0
M  END
> <s_m_source_file>
AV-unprocessed.smi

> <i_m_source_file_index>
2069

> <i_lp_mmshare_version>
43012

> <i_f3d_flags>
0

> <s_epik_input>
W0NIM11jMW5uYyhzMSlbTkhdQyg9TylbTkhdW0NIMl1bQ0BIXShbQ0gzXSlOMltDSDJdW0NIMl1PW0NIMl1bQ0gyXTI=

> <s_epik_cmdline>
J2VwaWtfcHl0aG9uJywgJy1waCcsICc3LjAnLCAnLXRuJywgJzgnLCAnLW1hJywgJzIwMCcsICctbWV0YWxfYmluZGluZycsICctaW1hZScsICc8aW5maWxlLm1hZT4nLCAnLW9tYWUnLCAnPG91dGZpbGUubWFlPic=

> <r_lp_tautomer_probability>
1

> <r_epik_Ionization_Penalty>
0.221104

> <r_epik_Ionization_Penalty_Charging>
0

> <r_epik_Ionization_Penalty_Neutral>
0.221104

> <r_epik_State_Penalty>
0.209349

> <r_epik_Charging_Adjusted_Penalty>
0.209349

> <i_epik_Tot_Q>
0

> <i_epik_Tot_abs_Q>
0

> <r_epik_Metal_State_Penalty>
0.561068

> <b_epik_Metal_Only>
0

> <s_lp_Force_Field>
OPLS_2005

> <r_lp_Energy>
28.2762

> <b_lp_Chiralities_Consistent>
1

> <s_lp_Variant>
AV-unprocessed.smi:2069-1

> <Gold.Version>
5.8.1

> <Gold.Id.Protein>
6NUR|6NUR_protein|mol2

> <Gold.PLP.Fitness>
34.2162

> <Gold.PLP.PLP>
-26.9880

> <Gold.PLP.part.hbond>
-3.3566

> <Gold.PLP.part.metal>
0.0000

> <Gold.PLP.part.buried>
-5.2639

> <Gold.PLP.part.nonpolar>
-18.4521

> <Gold.PLP.part.repulsive>
0.5172

> <Gold.PLP.ligand.clash>
0.0000

> <Gold.PLP.ligand.torsion>
0.8771

> <Gold.PLP.Chemscore.Hbond>
2.9760

> <Gold.PLP.Chemscore.CHOScore>
0.0000

> <Gold.PLP.Chemscore.Metal>
0.0000

> <Gold.Chemscore.Hbonds>
donor molecule, donor type, donor heavy atom, donor atom, acceptor molecule, acceptor atom, score
      L1  H     6    23       P1  7948  1.00
      L1  H     9    24       P1  7948  0.98
      P1  H  7989  7998       L1     3  0.95

> <Gold.PLP.Chemscore.Internal.Correction>
0.0544

> <Gold.Rescore>
     Score         DG    S(hbond)    S(metal)    S(lipo)     H(rot)  DE(clash)    DE(int)     intcor
     13.48     -15.60       2.25        0.00      57.39       1.60       0.12       2.00       ----

> <Gold.Chemscore.Fitness>
13.4842

> <Gold.Chemscore.DG>
-15.6020

> <Gold.Chemscore.ZeroCoef>
-5.4800

> <Gold.Chemscore.Hbond>
2.2477

> <Gold.Chemscore.Metal>
0.0000

> <Gold.Chemscore.Lipo>
57.3913

> <Gold.Chemscore.Internal_Hbond>
0.0000

> <Gold.Chemscore.DEClash>
0.1221

> <Gold.Chemscore.DEInternal>
1.9957

> <Gold.Chemscore.Rot>
1.6016

> <Gold.Chemscore.Internal.Correction>
   9.000000E+99

> <Gold.Chemscore.Hbonds>
donor molecule, donor type, donor heavy atom, donor atom, acceptor molecule, acceptor atom, score
      L1  H     6    23       P1  7948  0.99
      L1  H     9    24       P1  7948  0.93
      P1  H  7989  7998       L1     3  0.11

> <Gold.Chemscore.Hbond.Weighted>
-7.5073

> <Gold.Chemscore.Metal.Weighted>
-0.0000

> <Gold.Chemscore.Lipo.Weighted>
-6.7148

> <Gold.Chemscore.Internal_Hbond.Weighted>
0.0000

> <Gold.Chemscore.DEClash.Weighted>
0.1221

> <Gold.Chemscore.DEInternal.Weighted>
1.9957

> <Gold.Chemscore.Rot.Weighted>
4.1001

> <Gold.Chemscore.Internal.Correction.Weighted>
   9.000000E+99

> <Gold.Protein.RotatedTorsions>
[ 6907 6896 6895 6894 ] final  111.97 input  -60.11 | X-H torsion
[ 7974 7965 7964 7962 ] final  -16.89 input  175.53 | X-H torsion
[ 8008 7997 7996 7995 ] final   -7.96 input   59.86 | X-H torsion
[ 10167 10162 10161 10158 ] final  -95.58 input  -65.29 | X-H torsion
[ 10718 10713 10712 10709 ] final  144.06 input   66.30 | X-H torsion
[ 10763 10752 10751 10750 ] final -142.43 input  -60.55 | X-H torsion
[ 11005 11000 10999 10996 ] final   26.55 input  -57.11 | X-H torsion

> <Gold.Protein.ActiveResidues>
 VAL166  LYS551  ARG553  GLY616  TRP617  ASP618  TYR619  PRO620  LYS621  CYS622 
 ASP623  PHE694  ASN695  SER759  ASP760  ASP761  ALA762  ILE779  LEU786  VAL792 
 PHE793  MET794  SER795  GLU796  ALA797  LYS798  CYS799  TRP800  GLU811  SER814 

> <Gold.Protein.RotatedAtoms>
  152.4941  133.8582  159.7236 H   0  0  0  0  0  0  0  0  0  0  0  0  # atno 6907 bound_to 6896
  150.9101  133.6999  159.2863 H   0  0  0  0  0  0  0  0  0  0  0  0  # atno 6908 bound_to 6896
  151.4412  135.1024  159.9723 H   0  0  0  0  0  0  0  0  0  0  0  0  # atno 6909 bound_to 6896
  146.1966  140.3701  142.8438 H   0  0  0  0  0  0  0  0  0  0  0  0  # atno 7974 bound_to 7965
  154.5788  140.2393  155.8084 H   0  0  0  0  0  0  0  0  0  0  0  0  # atno 8008 bound_to 7997
  156.2163  140.3011  155.9804 H   0  0  0  0  0  0  0  0  0  0  0  0  # atno 8009 bound_to 7997
  155.2579  140.0413  157.2984 H   0  0  0  0  0  0  0  0  0  0  0  0  # atno 8010 bound_to 7997
  140.3027  143.3153  152.0231 H   0  0  0  0  0  0  0  0  0  0  0  0  # atno 10167 bound_to 10162
  157.3616  131.0966  151.0910 H   0  0  0  0  0  0  0  0  0  0  0  0  # atno 10718 bound_to 10713
  154.8509  135.3496  154.6027 H   0  0  0  0  0  0  0  0  0  0  0  0  # atno 10763 bound_to 10752
  153.6635  135.6988  153.5174 H   0  0  0  0  0  0  0  0  0  0  0  0  # atno 10764 bound_to 10752
  153.2798  135.4267  155.1025 H   0  0  0  0  0  0  0  0  0  0  0  0  # atno 10765 bound_to 10752
  140.3358  134.2387  155.7696 H   0  0  0  0  0  0  0  0  0  0  0  0  # atno 11005 bound_to 11000
  144.8594  140.7118  143.6117 LP  0  0  0  0  0  0  0  0  0  0  0  0  # atno 17320 bound_to 7965
  145.3621  139.1679  143.4377 LP  0  0  0  0  0  0  0  0  0  0  0  0  # atno 17321 bound_to 7965
  139.4911  144.6444  151.6810 LP  0  0  0  0  0  0  0  0  0  0  0  0  # atno 17342 bound_to 10162
  140.5637  144.0225  150.6182 LP  0  0  0  0  0  0  0  0  0  0  0  0  # atno 17343 bound_to 10162
  157.2048  130.6411  149.5752 LP  0  0  0  0  0  0  0  0  0  0  0  0  # atno 17370 bound_to 10713
  155.9738  130.4679  150.6342 LP  0  0  0  0  0  0  0  0  0  0  0  0  # atno 17371 bound_to 10713
  141.2051  133.7867  157.0248 LP  0  0  0  0  0  0  0  0  0  0  0  0  # atno 17394 bound_to 11000
  140.0822  134.9641  157.1643 LP  0  0  0  0  0  0  0  0  0  0  0  0  # atno 17395 bound_to 11000

$$$$
