AV-unprocessed.smi:2083|AV-procd|sdf|8509|dock5
  -GOLD-   2272011223D 1   1.00000     0.00000
 Structure written by MMmdl.
 44 45  0  0  0  0  0  0  0  0  3 V2000
  146.2310  135.0208  162.2824 C   0  0  0  0  0  0  0  0  0  0  0  0
  147.0959  135.4018  161.1301 C   0  0  0  0  0  0  0  0  0  0  0  0
  147.5619  136.6030  160.6754 C   0  0  0  0  0  0  0  0  0  0  0  0
  148.3340  136.2391  159.5400 C   0  0  0  0  0  0  0  0  0  0  0  0
  149.0037  137.2288  158.7732 N   0  0  0  0  0  0  0  0  0  0  0  0
  149.7257  137.0773  157.6480 C   0  0  0  0  0  0  0  0  0  0  0  0
  149.8630  135.9585  157.1386 O   0  0  0  0  0  0  0  0  0  0  0  0
  150.2313  138.2585  157.1965 N   0  5  0  0  0  0  0  0  0  0  0  0
  150.4518  139.4443  158.0261 C   0  0  0  0  0  0  0  0  0  0  0  0
  151.3890  140.4595  157.3150 C   0  0  1  0  0  0  0  0  0  0  0  0
  150.7705  141.1264  156.0605 C   0  0  0  0  0  0  0  0  0  0  0  0
  151.9268  141.4532  158.2961 N   0  3  2  0  0  0  0  0  0  0  0  0
  152.4888  140.8933  159.5608 C   0  0  0  0  0  0  0  0  0  0  0  0
  153.2389  141.9767  160.3498 C   0  0  0  0  0  0  0  0  0  0  0  0
  152.3220  143.1728  160.6431 C   0  0  0  0  0  0  0  0  0  0  0  0
  151.6759  143.7135  159.3536 C   0  0  1  0  0  0  0  0  0  0  0  0
  152.6654  144.5033  158.4787 C   0  0  0  0  0  0  0  0  0  0  0  0
  150.9885  142.5762  158.5692 C   0  0  0  0  0  0  0  0  0  0  0  0
  148.3365  134.9323  159.3211 N   0  0  0  0  0  0  0  0  0  0  0  0
  147.5440  134.3894  160.3393 O   0  0  0  0  0  0  0  0  0  0  0  0
  145.6190  135.8637  162.6038 H   0  0  0  0  0  0  0  0  0  0  0  0
  146.8376  134.7003  163.1293 H   0  0  0  0  0  0  0  0  0  0  0  0
  145.5631  134.2020  162.0143 H   0  0  0  0  0  0  0  0  0  0  0  0
  147.3812  137.5833  161.0907 H   0  0  0  0  0  0  0  0  0  0  0  0
  148.9361  138.1721  159.1253 H   0  0  0  0  0  0  0  0  0  0  0  0
  149.5109  139.9393  158.2667 H   0  0  0  0  0  0  0  0  0  0  0  0
  150.8862  139.1801  158.9916 H   0  0  0  0  0  0  0  0  0  0  0  0
  152.2431  139.8778  156.9648 H   0  0  0  0  0  0  0  0  0  0  0  0
  150.5290  140.3924  155.2895 H   0  0  0  0  0  0  0  0  0  0  0  0
  151.4718  141.8282  155.6089 H   0  0  0  0  0  0  0  0  0  0  0  0
  149.8539  141.6760  156.2816 H   0  0  0  0  0  0  0  0  0  0  0  0
  151.6874  140.4844  160.1775 H   0  0  0  0  0  0  0  0  0  0  0  0
  153.1744  140.0727  159.3489 H   0  0  0  0  0  0  0  0  0  0  0  0
  153.6146  141.5609  161.2852 H   0  0  0  0  0  0  0  0  0  0  0  0
  154.1141  142.3033  159.7874 H   0  0  0  0  0  0  0  0  0  0  0  0
  151.5375  142.8577  161.3325 H   0  0  0  0  0  0  0  0  0  0  0  0
  152.8773  143.9607  161.1532 H   0  0  0  0  0  0  0  0  0  0  0  0
  150.8997  144.4196  159.6516 H   0  0  0  0  0  0  0  0  0  0  0  0
  153.4721  143.8731  158.1038 H   0  0  0  0  0  0  0  0  0  0  0  0
  153.1171  145.3221  159.0393 H   0  0  0  0  0  0  0  0  0  0  0  0
  152.1617  144.9383  157.6150 H   0  0  0  0  0  0  0  0  0  0  0  0
  150.5930  142.9780  157.6355 H   0  0  0  0  0  0  0  0  0  0  0  0
  150.1340  142.1975  159.1319 H   0  0  0  0  0  0  0  0  0  0  0  0
  152.7049  141.8794  157.8126 H   0  0  0  0  0  0  0  0  0  0  0  0
  1  2  1  0  0  0  0
  1 21  1  0  0  0  0
  1 22  1  0  0  0  0
  1 23  1  0  0  0  0
  2 20  1  0  0  0  0
  2  3  2  0  0  0  0
  3  4  1  0  0  0  0
  3 24  1  0  0  0  0
  4  5  1  0  0  0  0
  4 19  2  0  0  0  0
  5  6  1  0  0  0  0
  5 25  1  0  0  0  0
  6  7  2  0  0  0  0
  6  8  1  0  0  0  0
  8  9  1  0  0  0  0
  9 10  1  0  0  0  0
  9 26  1  0  0  0  0
  9 27  1  0  0  0  0
 10 11  1  0  0  0  0
 10 12  1  0  0  0  0
 10 28  1  0  0  0  0
 11 29  1  0  0  0  0
 11 30  1  0  0  0  0
 11 31  1  0  0  0  0
 12 18  1  0  0  0  0
 12 13  1  0  0  0  0
 12 44  1  0  0  0  0
 13 14  1  0  0  0  0
 13 32  1  0  0  0  0
 13 33  1  0  0  0  0
 14 15  1  0  0  0  0
 14 34  1  0  0  0  0
 14 35  1  0  0  0  0
 15 16  1  0  0  0  0
 15 36  1  0  0  0  0
 15 37  1  0  0  0  0
 16 17  1  0  0  0  0
 16 18  1  0  0  0  0
 16 38  1  0  0  0  0
 17 39  1  0  0  0  0
 17 40  1  0  0  0  0
 17 41  1  0  0  0  0
 18 42  1  0  0  0  0
 18 43  1  0  0  0  0
 19 20  1  0  0  0  0
M  CHG  1   8  -1
M  CHG  1  12   1
M  END
> <s_m_source_file>
AV-unprocessed.smi

> <i_m_source_file_index>
2083

> <i_lp_mmshare_version>
43012

> <i_f3d_flags>
0

> <s_epik_input>
W0NIM11jMVtjSF1jKG5vMSlbTkhdQyg9TylbTkhdW0NIMl1bQ0BIXShbQ0gzXSlOMltDSDJdW0NIMl1bQ0gyXVtDQEBIXShbQ0gzXSlbQ0gyXTI=

> <s_epik_cmdline>
J2VwaWtfcHl0aG9uJywgJy1waCcsICc3LjAnLCAnLXRuJywgJzgnLCAnLW1hJywgJzIwMCcsICctbWV0YWxfYmluZGluZycsICctaW1hZScsICc8aW5maWxlLm1hZT4nLCAnLW9tYWUnLCAnPG91dGZpbGUubWFlPic=

> <r_epik_Ionization_Penalty>
6.76934

> <r_epik_Ionization_Penalty_Charging>
6.76934

> <r_epik_Ionization_Penalty_Neutral>
5.77849e-06

> <r_epik_State_Penalty>
6.79457

> <r_epik_Charging_Adjusted_Penalty>
13.5639

> <i_epik_Tot_Q>
0

> <i_epik_Tot_abs_Q>
2

> <r_epik_Metal_State_Penalty>
2.72837

> <b_epik_Metal_Only>
1

> <s_lp_Force_Field>
OPLS_2005

> <r_lp_Energy>
19.7061

> <b_lp_Chiralities_Consistent>
1

> <s_lp_Variant>
AV-unprocessed.smi:2083-20

> <Gold.Version>
5.8.1

> <Gold.Id.Protein>
6NUR|6NUR_protein|mol2

> <Gold.PLP.Fitness>
42.0299

> <Gold.PLP.PLP>
-39.8698

> <Gold.PLP.part.hbond>
-1.0000

> <Gold.PLP.part.metal>
0.0000

> <Gold.PLP.part.buried>
-4.5385

> <Gold.PLP.part.nonpolar>
-34.9672

> <Gold.PLP.part.repulsive>
0.2674

> <Gold.PLP.ligand.clash>
0.0000

> <Gold.PLP.ligand.torsion>
0.4971

> <Gold.PLP.Chemscore.Hbond>
1.0000

> <Gold.PLP.Chemscore.CHOScore>
0.0000

> <Gold.PLP.Chemscore.Metal>
0.0000

> <Gold.Chemscore.Hbonds>
donor molecule, donor type, donor heavy atom, donor atom, acceptor molecule, acceptor atom, score
      P1  H  6896  6909       L1    19  0.19

> <Gold.PLP.Chemscore.Internal.Correction>
0.1544

> <Gold.Rescore>
     Score         DG    S(hbond)    S(metal)    S(lipo)     H(rot)  DE(clash)    DE(int)     intcor
     15.22     -17.09       0.91        0.00     106.60       1.52       0.08       1.79       ----

> <Gold.Chemscore.Fitness>
15.2152

> <Gold.Chemscore.DG>
-17.0920

> <Gold.Chemscore.ZeroCoef>
-5.4800

> <Gold.Chemscore.Hbond>
0.9067

> <Gold.Chemscore.Metal>
0.0000

> <Gold.Chemscore.Lipo>
106.6012

> <Gold.Chemscore.Internal_Hbond>
0.0000

> <Gold.Chemscore.DEClash>
0.0823

> <Gold.Chemscore.DEInternal>
1.7944

> <Gold.Chemscore.Rot>
1.5190

> <Gold.Chemscore.Internal.Correction>
   9.000000E+99

> <Gold.Chemscore.Hbonds>
donor molecule, donor type, donor heavy atom, donor atom, acceptor molecule, acceptor atom, score
      P1  H  6896  6909       L1    19  0.04

> <Gold.Chemscore.Hbond.Weighted>
-3.0283

> <Gold.Chemscore.Metal.Weighted>
-0.0000

> <Gold.Chemscore.Lipo.Weighted>
-12.4723

> <Gold.Chemscore.Internal_Hbond.Weighted>
0.0000

> <Gold.Chemscore.DEClash.Weighted>
0.0823

> <Gold.Chemscore.DEInternal.Weighted>
1.7944

> <Gold.Chemscore.Rot.Weighted>
3.8886

> <Gold.Chemscore.Internal.Correction.Weighted>
   9.000000E+99

> <Gold.Protein.RotatedTorsions>
[ 6907 6896 6895 6894 ] final   46.11 input  -60.11 | X-H torsion
[ 7974 7965 7964 7962 ] final -176.47 input  175.53 | X-H torsion
[ 8008 7997 7996 7995 ] final  -88.93 input   59.86 | X-H torsion
[ 10167 10162 10161 10158 ] final   99.90 input  -65.29 | X-H torsion
[ 10718 10713 10712 10709 ] final  -14.50 input   66.30 | X-H torsion
[ 10763 10752 10751 10750 ] final   86.96 input  -60.55 | X-H torsion
[ 11005 11000 10999 10996 ] final -151.84 input  -57.11 | X-H torsion

> <Gold.Protein.ActiveResidues>
 VAL166  LYS551  ARG553  GLY616  TRP617  ASP618  TYR619  PRO620  LYS621  CYS622 
 ASP623  PHE694  ASN695  SER759  ASP760  ASP761  ALA762  ILE779  LEU786  VAL792 
 PHE793  MET794  SER795  GLU796  ALA797  LYS798  CYS799  TRP800  GLU811  SER814 

> <Gold.Protein.RotatedAtoms>
  152.2525  134.8118  160.0443 H   0  0  0  0  0  0  0  0  0  0  0  0  # atno 6907 bound_to 6896
  151.8793  133.3487  159.3769 H   0  0  0  0  0  0  0  0  0  0  0  0  # atno 6908 bound_to 6896
  150.7089  134.4961  159.5583 H   0  0  0  0  0  0  0  0  0  0  0  0  # atno 6909 bound_to 6896
  144.7127  140.1166  143.6408 H   0  0  0  0  0  0  0  0  0  0  0  0  # atno 7974 bound_to 7965
  154.6806  140.0548  157.0262 H   0  0  0  0  0  0  0  0  0  0  0  0  # atno 8008 bound_to 7997
  155.0957  140.3224  155.4542 H   0  0  0  0  0  0  0  0  0  0  0  0  # atno 8009 bound_to 7997
  156.2692  140.2040  156.6084 H   0  0  0  0  0  0  0  0  0  0  0  0  # atno 8010 bound_to 7997
  139.7575  144.6965  151.0340 H   0  0  0  0  0  0  0  0  0  0  0  0  # atno 10167 bound_to 10162
  156.6150  130.4860  149.6186 H   0  0  0  0  0  0  0  0  0  0  0  0  # atno 10718 bound_to 10713
  153.1621  135.4561  154.9786 H   0  0  0  0  0  0  0  0  0  0  0  0  # atno 10763 bound_to 10752
  154.7905  135.3219  154.7791 H   0  0  0  0  0  0  0  0  0  0  0  0  # atno 10764 bound_to 10752
  153.8279  135.6941  153.4873 H   0  0  0  0  0  0  0  0  0  0  0  0  # atno 10765 bound_to 10752
  140.7252  134.3682  157.5176 H   0  0  0  0  0  0  0  0  0  0  0  0  # atno 11005 bound_to 11000
  145.9408  139.2668  143.1270 LP  0  0  0  0  0  0  0  0  0  0  0  0  # atno 17320 bound_to 7965
  145.9426  140.8968  143.0300 LP  0  0  0  0  0  0  0  0  0  0  0  0  # atno 17321 bound_to 7965
  140.7804  143.4735  151.0114 LP  0  0  0  0  0  0  0  0  0  0  0  0  # atno 17342 bound_to 10162
  139.8422  143.7549  152.3180 LP  0  0  0  0  0  0  0  0  0  0  0  0  # atno 17343 bound_to 10162
  156.2358  130.6822  151.1508 LP  0  0  0  0  0  0  0  0  0  0  0  0  # atno 17370 bound_to 10713
  157.7243  131.0660  150.5999 LP  0  0  0  0  0  0  0  0  0  0  0  0  # atno 17371 bound_to 10713
  139.8839  134.8982  156.2739 LP  0  0  0  0  0  0  0  0  0  0  0  0  # atno 17394 bound_to 11000
  140.9968  133.7175  156.0899 LP  0  0  0  0  0  0  0  0  0  0  0  0  # atno 17395 bound_to 11000

$$$$
