AV-unprocessed.smi:561|AV-procd|sdf|2937|dock7
  -GOLD-   2262023433D 1   1.00000     0.00000
 Structure written by MMmdl.
 37 38  0  0  0  0  0  0  0  0  2 V2000
  145.6420  136.4426  150.5839 C   0  0  0  0  0  0  0  0  0  0  0  0
  145.6479  136.1364  152.0875 C   0  0  1  0  0  0  0  0  0  0  0  0
  145.8899  134.6351  152.3516 C   0  0  0  0  0  0  0  0  0  0  0  0
  145.0506  133.7673  151.5189 N   0  0  0  0  0  0  0  0  0  0  0  0
  145.4091  132.5792  150.9357 C   0  0  0  0  0  0  0  0  0  0  0  0
  144.3106  132.1351  150.2462 C   0  0  0  0  0  0  0  0  0  0  0  0
  143.3269  133.0673  150.4418 N   0  3  0  0  0  0  0  0  0  0  0  0
  143.7774  134.0568  151.2199 C   0  0  0  0  0  0  0  0  0  0  0  0
  146.6742  136.9552  152.7311 N   0  0  0  0  0  0  0  0  0  0  0  0
  146.4578  137.9296  153.6345 C   0  0  0  0  0  0  0  0  0  0  0  0
  145.3345  138.2370  154.0343 O   0  0  0  0  0  0  0  0  0  0  0  0
  147.6704  138.6205  154.1481 C   0  0  0  0  0  0  0  0  0  0  0  0
  148.8308  138.0516  154.0488 N   0  0  0  0  0  0  0  0  0  0  0  0
  149.9810  138.6465  154.5253 N   0  0  0  0  0  0  0  0  0  0  0  0
  151.1480  137.7686  154.5812 C   0  0  0  0  0  0  0  0  0  0  0  0
  150.0804  139.9480  154.8938 C   0  0  0  0  0  0  0  0  0  0  0  0
  151.1120  140.4588  155.3296 O   0  0  0  0  0  0  0  0  0  0  0  0
  148.8246  140.8059  154.7138 C   0  0  0  0  0  0  0  0  0  0  0  0
  147.5304  139.9743  154.8155 C   0  0  0  0  0  0  0  0  0  0  0  0
  144.8668  135.8731  150.0706 H   0  0  0  0  0  0  0  0  0  0  0  0
  146.5982  136.1930  150.1229 H   0  0  0  0  0  0  0  0  0  0  0  0
  145.4482  137.4998  150.3990 H   0  0  0  0  0  0  0  0  0  0  0  0
  144.6640  136.4089  152.4740 H   0  0  0  0  0  0  0  0  0  0  0  0
  146.9269  134.3759  152.1342 H   0  0  0  0  0  0  0  0  0  0  0  0
  145.7176  134.3896  153.4009 H   0  0  0  0  0  0  0  0  0  0  0  0
  146.3958  132.1534  151.0462 H   0  0  0  0  0  0  0  0  0  0  0  0
  144.1595  131.2496  149.6463 H   0  0  0  0  0  0  0  0  0  0  0  0
  143.2247  134.9241  151.5343 H   0  0  0  0  0  0  0  0  0  0  0  0
  147.6311  136.7750  152.4616 H   0  0  0  0  0  0  0  0  0  0  0  0
  151.5332  137.7054  155.5999 H   0  0  0  0  0  0  0  0  0  0  0  0
  151.9442  138.1465  153.9379 H   0  0  0  0  0  0  0  0  0  0  0  0
  150.9140  136.7540  154.2546 H   0  0  0  0  0  0  0  0  0  0  0  0
  148.8147  141.6151  155.4447 H   0  0  0  0  0  0  0  0  0  0  0  0
  148.8850  141.2720  153.7295 H   0  0  0  0  0  0  0  0  0  0  0  0
  146.7178  140.5443  154.3635 H   0  0  0  0  0  0  0  0  0  0  0  0
  147.2610  139.8325  155.8627 H   0  0  0  0  0  0  0  0  0  0  0  0
  142.3935  133.0179  150.0535 H   0  0  0  0  0  0  0  0  0  0  0  0
  1  2  1  0  0  0  0
  1 20  1  0  0  0  0
  1 21  1  0  0  0  0
  1 22  1  0  0  0  0
  2  3  1  0  0  0  0
  2  9  1  0  0  0  0
  2 23  1  0  0  0  0
  3  4  1  0  0  0  0
  3 24  1  0  0  0  0
  3 25  1  0  0  0  0
  4  8  1  0  0  0  0
  4  5  1  0  0  0  0
  5  6  2  0  0  0  0
  5 26  1  0  0  0  0
  6  7  1  0  0  0  0
  6 27  1  0  0  0  0
  7  8  2  0  0  0  0
  7 37  1  0  0  0  0
  8 28  1  0  0  0  0
  9 10  1  0  0  0  0
  9 29  1  0  0  0  0
 10 11  2  0  0  0  0
 10 12  1  0  0  0  0
 12 19  1  0  0  0  0
 12 13  2  0  0  0  0
 13 14  1  0  0  0  0
 14 15  1  0  0  0  0
 14 16  1  0  0  0  0
 15 30  1  0  0  0  0
 15 31  1  0  0  0  0
 15 32  1  0  0  0  0
 16 17  2  0  0  0  0
 16 18  1  0  0  0  0
 18 19  1  0  0  0  0
 18 33  1  0  0  0  0
 18 34  1  0  0  0  0
 19 35  1  0  0  0  0
 19 36  1  0  0  0  0
M  CHG  1   7   1
M  END
> <s_m_source_file>
AV-unprocessed.smi

> <i_m_source_file_index>
561

> <i_lp_mmshare_version>
43012

> <i_f3d_flags>
0

> <s_epik_input>
W2NIXTFuW2NIXVtjSF1uMVtDSDJdW0NAQEhdKFtDSDNdKVtOSF1DKD1PKUMyPU5OKFtDSDNdKUMoPU8pW0NIMl1bQ0gyXTI=

> <s_epik_cmdline>
J2VwaWtfcHl0aG9uJywgJy1waCcsICc3LjAnLCAnLXRuJywgJzgnLCAnLW1hJywgJzIwMCcsICctbWV0YWxfYmluZGluZycsICctaW1hZScsICc8aW5maWxlLm1hZT4nLCAnLW9tYWUnLCAnPG91dGZpbGUubWFlPic=

> <r_lp_tautomer_probability>
1

> <r_epik_Ionization_Penalty>
0.358595

> <r_epik_Ionization_Penalty_Charging>
0

> <r_epik_Ionization_Penalty_Neutral>
0.358595

> <r_epik_State_Penalty>
0.355181

> <r_epik_Charging_Adjusted_Penalty>
0.355181

> <i_epik_Tot_Q>
1

> <i_epik_Tot_abs_Q>
1

> <r_epik_Metal_State_Penalty>
0.718565

> <b_epik_Metal_Only>
0

> <s_epik_Chemistry_Notes>
This compound has an imine and may undergo hydrolysis.

> <s_lp_Force_Field>
OPLS_2005

> <r_lp_Energy>
19.4288

> <b_lp_Chiralities_Consistent>
1

> <s_lp_Variant>
AV-unprocessed.smi:561-2

> <Gold.Version>
5.8.1

> <Gold.Id.Protein>
6NUR|6NUR_protein|mol2

> <Gold.PLP.Fitness>
37.1361

> <Gold.PLP.PLP>
-29.6387

> <Gold.PLP.part.hbond>
-3.0000

> <Gold.PLP.part.metal>
0.0000

> <Gold.PLP.part.buried>
-3.5885

> <Gold.PLP.part.nonpolar>
-26.0934

> <Gold.PLP.part.repulsive>
2.4536

> <Gold.PLP.ligand.clash>
0.0000

> <Gold.PLP.ligand.torsion>
0.5675

> <Gold.PLP.Chemscore.Hbond>
2.8720

> <Gold.PLP.Chemscore.CHOScore>
0.0000

> <Gold.PLP.Chemscore.Metal>
0.0000

> <Gold.Chemscore.Hbonds>
donor molecule, donor type, donor heavy atom, donor atom, acceptor molecule, acceptor atom, score
      L1  H     7    37       P1 10186  1.36
      L1  H     9    29       P1  7948  1.00
      P1  H  7989  7998       L1    17  0.43

> <Gold.PLP.Chemscore.Internal.Correction>
0.0163

> <Gold.Rescore>
     Score         DG    S(hbond)    S(metal)    S(lipo)     H(rot)  DE(clash)    DE(int)     intcor
     11.44     -13.74       1.85        0.00      56.18       1.76       1.81       0.50       ----

> <Gold.Chemscore.Fitness>
11.4406

> <Gold.Chemscore.DG>
-13.7449

> <Gold.Chemscore.ZeroCoef>
-5.4800

> <Gold.Chemscore.Hbond>
1.8545

> <Gold.Chemscore.Metal>
0.0000

> <Gold.Chemscore.Lipo>
56.1842

> <Gold.Chemscore.Internal_Hbond>
0.0000

> <Gold.Chemscore.DEClash>
1.8072

> <Gold.Chemscore.DEInternal>
0.4972

> <Gold.Chemscore.Rot>
1.7589

> <Gold.Chemscore.Internal.Correction>
   9.000000E+99

> <Gold.Chemscore.Hbonds>
donor molecule, donor type, donor heavy atom, donor atom, acceptor molecule, acceptor atom, score
      L1  H     7    37       P1 10186  0.63
      L1  H     9    29       P1  7948  0.94
      P1  H  7989  7998       L1    17  0.01

> <Gold.Chemscore.Hbond.Weighted>
-6.1942

> <Gold.Chemscore.Metal.Weighted>
-0.0000

> <Gold.Chemscore.Lipo.Weighted>
-6.5736

> <Gold.Chemscore.Internal_Hbond.Weighted>
0.0000

> <Gold.Chemscore.DEClash.Weighted>
1.8072

> <Gold.Chemscore.DEInternal.Weighted>
0.4972

> <Gold.Chemscore.Rot.Weighted>
4.5028

> <Gold.Chemscore.Internal.Correction.Weighted>
   9.000000E+99

> <Gold.Protein.RotatedTorsions>
[ 6907 6896 6895 6894 ] final  -26.11 input  -60.11 | X-H torsion
[ 7974 7965 7964 7962 ] final   59.25 input  175.53 | X-H torsion
[ 8008 7997 7996 7995 ] final  -36.44 input   59.86 | X-H torsion
[ 10167 10162 10161 10158 ] final    7.33 input  -65.29 | X-H torsion
[ 10718 10713 10712 10709 ] final  110.97 input   66.30 | X-H torsion
[ 10763 10752 10751 10750 ] final -171.08 input  -60.55 | X-H torsion
[ 11005 11000 10999 10996 ] final    2.75 input  -57.11 | X-H torsion

> <Gold.Protein.ActiveResidues>
 VAL166  LYS551  ARG553  GLY616  TRP617  ASP618  TYR619  PRO620  LYS621  CYS622 
 ASP623  PHE694  ASN695  SER759  ASP760  ASP761  ALA762  ILE779  LEU786  VAL792 
 PHE793  MET794  SER795  GLU796  ALA797  LYS798  CYS799  TRP800  GLU811  SER814 

> <Gold.Protein.RotatedAtoms>
  151.1656  135.0294  159.8729 H   0  0  0  0  0  0  0  0  0  0  0  0  # atno 6907 bound_to 6896
  152.5450  134.1229  159.8416 H   0  0  0  0  0  0  0  0  0  0  0  0  # atno 6908 bound_to 6896
  151.1329  133.4978  159.2631 H   0  0  0  0  0  0  0  0  0  0  0  0  # atno 6909 bound_to 6896
  145.9092  139.3641  143.0545 H   0  0  0  0  0  0  0  0  0  0  0  0  # atno 7974 bound_to 7965
  154.4073  140.1631  156.2374 H   0  0  0  0  0  0  0  0  0  0  0  0  # atno 8008 bound_to 7997
  155.9231  140.3420  155.6166 H   0  0  0  0  0  0  0  0  0  0  0  0  # atno 8009 bound_to 7997
  155.7198  140.0767  157.2326 H   0  0  0  0  0  0  0  0  0  0  0  0  # atno 8010 bound_to 7997
  140.6378  143.7845  150.7384 H   0  0  0  0  0  0  0  0  0  0  0  0  # atno 10167 bound_to 10162
  157.6468  131.0942  150.6680 H   0  0  0  0  0  0  0  0  0  0  0  0  # atno 10718 bound_to 10713
  154.6345  135.2890  155.0177 H   0  0  0  0  0  0  0  0  0  0  0  0  # atno 10763 bound_to 10752
  154.1326  135.6531  153.4929 H   0  0  0  0  0  0  0  0  0  0  0  0  # atno 10764 bound_to 10752
  153.0295  135.5314  154.7186 H   0  0  0  0  0  0  0  0  0  0  0  0  # atno 10765 bound_to 10752
  140.6008  133.9837  155.8131 H   0  0  0  0  0  0  0  0  0  0  0  0  # atno 11005 bound_to 11000
  145.8693  140.9429  143.0659 LP  0  0  0  0  0  0  0  0  0  0  0  0  # atno 17320 bound_to 7965
  144.6742  140.0633  143.7475 LP  0  0  0  0  0  0  0  0  0  0  0  0  # atno 17321 bound_to 7965
  140.1470  143.4391  152.2156 LP  0  0  0  0  0  0  0  0  0  0  0  0  # atno 17342 bound_to 10162
  139.5588  144.7391  151.4216 LP  0  0  0  0  0  0  0  0  0  0  0  0  # atno 17343 bound_to 10162
  156.6996  130.4619  149.5576 LP  0  0  0  0  0  0  0  0  0  0  0  0  # atno 17370 bound_to 10713
  156.1804  130.6495  151.0945 LP  0  0  0  0  0  0  0  0  0  0  0  0  # atno 17371 bound_to 10713
  141.0873  133.9971  157.3293 LP  0  0  0  0  0  0  0  0  0  0  0  0  # atno 17394 bound_to 11000
  139.9233  135.0201  156.8144 LP  0  0  0  0  0  0  0  0  0  0  0  0  # atno 17395 bound_to 11000

$$$$
