AV-unprocessed.smi:3250|AV-procd|sdf|12429|dock2
  -GOLD-   2272018313D 1   1.00000     0.00000
 Structure written by MMmdl.
 38 39  0  0  0  0  0  0  0  0  1 V2000
  153.5582  143.2488  163.0847 C   0  0  0  0  0  0  0  0  0  0  0  0
  152.6405  143.4280  161.8672 C   0  0  0  0  0  0  0  0  0  0  0  0
  153.0814  142.7391  160.6557 N   0  0  0  0  0  0  0  0  0  0  0  0
  153.8734  141.5463  160.9456 C   0  0  0  0  0  0  0  0  0  0  0  0
  154.2970  140.8143  159.6611 C   0  0  0  0  0  0  0  0  0  0  0  0
  153.1419  140.4917  158.8945 O   0  0  0  0  0  0  0  0  0  0  0  0
  152.3746  141.6384  158.5351 C   0  0  1  0  0  0  0  0  0  0  0  0
  151.1650  141.1740  157.7134 C   0  0  0  0  0  0  0  0  0  0  0  0
  151.5351  140.8657  156.3404 N   0  0  0  0  0  0  0  0  0  0  0  0
  151.4902  139.5977  155.7931 C   0  0  0  0  0  0  0  0  0  0  0  0
  151.2896  139.5461  154.4743 N   0  0  0  0  0  0  0  0  0  0  0  0
  151.2470  138.3204  153.9082 C   0  0  0  0  0  0  0  0  0  0  0  0
  151.4051  137.1447  154.6687 C   0  0  0  0  0  0  0  0  0  0  0  0
  151.6075  137.3142  156.0532 C   0  0  0  0  0  0  0  0  0  0  0  0
  151.7651  136.2041  156.8569 O   0  0  0  0  0  0  0  0  0  0  0  0
  151.5277  134.9230  156.2842 C   0  0  0  0  0  0  0  0  0  0  0  0
  151.6496  138.5503  156.6105 N   0  0  0  0  0  0  0  0  0  0  0  0
  151.9418  142.3601  159.8268 C   0  0  0  0  0  0  0  0  0  0  0  0
  153.2185  143.8697  163.9137 H   0  0  0  0  0  0  0  0  0  0  0  0
  154.5827  143.5405  162.8513 H   0  0  0  0  0  0  0  0  0  0  0  0
  153.5710  142.2182  163.4380 H   0  0  0  0  0  0  0  0  0  0  0  0
  151.6280  143.1143  162.1252 H   0  0  0  0  0  0  0  0  0  0  0  0
  152.5789  144.4972  161.6601 H   0  0  0  0  0  0  0  0  0  0  0  0
  154.7690  141.8128  161.5055 H   0  0  0  0  0  0  0  0  0  0  0  0
  153.3001  140.8650  161.5762 H   0  0  0  0  0  0  0  0  0  0  0  0
  154.9747  141.4317  159.0694 H   0  0  0  0  0  0  0  0  0  0  0  0
  154.8305  139.8959  159.9059 H   0  0  0  0  0  0  0  0  0  0  0  0
  152.9862  142.3127  157.9323 H   0  0  0  0  0  0  0  0  0  0  0  0
  150.7066  140.2986  158.1748 H   0  0  0  0  0  0  0  0  0  0  0  0
  150.4102  141.9612  157.6970 H   0  0  0  0  0  0  0  0  0  0  0  0
  151.9391  141.6002  155.7776 H   0  0  0  0  0  0  0  0  0  0  0  0
  151.0857  138.2772  152.8413 H   0  0  0  0  0  0  0  0  0  0  0  0
  151.3717  136.1655  154.2143 H   0  0  0  0  0  0  0  0  0  0  0  0
  151.6985  134.1537  157.0369 H   0  0  0  0  0  0  0  0  0  0  0  0
  152.2046  134.7271  155.4515 H   0  0  0  0  0  0  0  0  0  0  0  0
  150.4977  134.8251  155.9384 H   0  0  0  0  0  0  0  0  0  0  0  0
  151.2710  141.7140  160.3958 H   0  0  0  0  0  0  0  0  0  0  0  0
  151.3674  143.2496  159.5647 H   0  0  0  0  0  0  0  0  0  0  0  0
  1  2  1  0  0  0  0
  1 19  1  0  0  0  0
  1 20  1  0  0  0  0
  1 21  1  0  0  0  0
  2  3  1  0  0  0  0
  2 22  1  0  0  0  0
  2 23  1  0  0  0  0
  3 18  1  0  0  0  0
  3  4  1  0  0  0  0
  4  5  1  0  0  0  0
  4 24  1  0  0  0  0
  4 25  1  0  0  0  0
  5  6  1  0  0  0  0
  5 26  1  0  0  0  0
  5 27  1  0  0  0  0
  6  7  1  0  0  0  0
  7  8  1  0  0  0  0
  7 18  1  0  0  0  0
  7 28  1  0  0  0  0
  8  9  1  0  0  0  0
  8 29  1  0  0  0  0
  8 30  1  0  0  0  0
  9 10  1  0  0  0  0
  9 31  1  0  0  0  0
 10 17  1  0  0  0  0
 10 11  2  0  0  0  0
 11 12  1  0  0  0  0
 12 13  2  0  0  0  0
 12 32  1  0  0  0  0
 13 14  1  0  0  0  0
 13 33  1  0  0  0  0
 14 15  1  0  0  0  0
 14 17  2  0  0  0  0
 15 16  1  0  0  0  0
 16 34  1  0  0  0  0
 16 35  1  0  0  0  0
 16 36  1  0  0  0  0
 18 37  1  0  0  0  0
 18 38  1  0  0  0  0
M  END
> <s_m_source_file>
AV-unprocessed.smi

> <i_m_source_file_index>
3250

> <i_lp_mmshare_version>
43012

> <i_f3d_flags>
0

> <s_epik_input>
W0NIM11bQ0gyXU4xW0NIMl1bQ0gyXU9bQ0BIXShbQ0gyXTEpW0NIMl1bTkhdYzJuW2NIXVtjSF1jKG4yKU9bQ0gzXQ==

> <s_epik_cmdline>
J2VwaWtfcHl0aG9uJywgJy1waCcsICc3LjAnLCAnLXRuJywgJzgnLCAnLW1hJywgJzIwMCcsICctbWV0YWxfYmluZGluZycsICctaW1hZScsICc8aW5maWxlLm1hZT4nLCAnLW9tYWUnLCAnPG91dGZpbGUubWFlPic=

> <r_lp_tautomer_probability>
1

> <r_epik_Ionization_Penalty>
0.832605

> <r_epik_Ionization_Penalty_Charging>
0

> <r_epik_Ionization_Penalty_Neutral>
0.832605

> <r_epik_State_Penalty>
0.927194

> <r_epik_Charging_Adjusted_Penalty>
0.927194

> <i_epik_Tot_Q>
0

> <i_epik_Tot_abs_Q>
0

> <r_epik_Metal_State_Penalty>
0.908632

> <b_epik_Metal_Only>
0

> <s_lp_Force_Field>
OPLS_2005

> <r_lp_Energy>
15.3419

> <b_lp_Chiralities_Consistent>
1

> <s_lp_Variant>
AV-unprocessed.smi:3250-5

> <Gold.Version>
5.8.1

> <Gold.Id.Protein>
6NUR|6NUR_protein|mol2

> <Gold.PLP.Fitness>
36.9711

> <Gold.PLP.PLP>
-32.4775

> <Gold.PLP.part.hbond>
-1.0000

> <Gold.PLP.part.metal>
0.0000

> <Gold.PLP.part.buried>
-6.0176

> <Gold.PLP.part.nonpolar>
-25.1906

> <Gold.PLP.part.repulsive>
0.2485

> <Gold.PLP.ligand.clash>
0.0126

> <Gold.PLP.ligand.torsion>
0.7972

> <Gold.PLP.Chemscore.Hbond>
1.0000

> <Gold.PLP.Chemscore.CHOScore>
1.0018

> <Gold.PLP.Chemscore.Metal>
0.0000

> <Gold.Chemscore.Hbonds>
donor molecule, donor type, donor heavy atom, donor atom, acceptor molecule, acceptor atom, score
      P1  H  7989  7998       L1    11  1.00
      L1  C    12    32       P1  7949  0.60
      L1  C    12    32       P1  7957  0.13

> <Gold.PLP.Chemscore.Internal.Correction>
0.0950

> <Gold.Rescore>
     Score         DG    S(hbond)    S(metal)    S(lipo)     H(rot)  DE(clash)    DE(int)     intcor
     13.57     -14.50       0.96        0.00      86.10       1.67       0.05       0.89       ----

> <Gold.Chemscore.Fitness>
13.5651

> <Gold.Chemscore.DG>
-14.5025

> <Gold.Chemscore.ZeroCoef>
-5.4800

> <Gold.Chemscore.Hbond>
0.9618

> <Gold.Chemscore.Metal>
0.0000

> <Gold.Chemscore.Lipo>
86.1043

> <Gold.Chemscore.Internal_Hbond>
0.0000

> <Gold.Chemscore.DEClash>
0.0453

> <Gold.Chemscore.DEInternal>
0.8920

> <Gold.Chemscore.Rot>
1.6657

> <Gold.Chemscore.Internal.Correction>
   9.000000E+99

> <Gold.Chemscore.Hbonds>
donor molecule, donor type, donor heavy atom, donor atom, acceptor molecule, acceptor atom, score
      P1  H  7989  7998       L1    11  0.94

> <Gold.Chemscore.Hbond.Weighted>
-3.2125

> <Gold.Chemscore.Metal.Weighted>
-0.0000

> <Gold.Chemscore.Lipo.Weighted>
-10.0742

> <Gold.Chemscore.Internal_Hbond.Weighted>
0.0000

> <Gold.Chemscore.DEClash.Weighted>
0.0453

> <Gold.Chemscore.DEInternal.Weighted>
0.8920

> <Gold.Chemscore.Rot.Weighted>
4.2642

> <Gold.Chemscore.Internal.Correction.Weighted>
   9.000000E+99

> <Gold.Protein.RotatedTorsions>
[ 6907 6896 6895 6894 ] final   12.94 input  -60.11 | X-H torsion
[ 7974 7965 7964 7962 ] final -132.41 input  175.53 | X-H torsion
[ 8008 7997 7996 7995 ] final -130.79 input   59.86 | X-H torsion
[ 10167 10162 10161 10158 ] final  128.52 input  -65.29 | X-H torsion
[ 10718 10713 10712 10709 ] final -112.91 input   66.30 | X-H torsion
[ 10763 10752 10751 10750 ] final -171.87 input  -60.55 | X-H torsion
[ 11005 11000 10999 10996 ] final  141.01 input  -57.11 | X-H torsion

> <Gold.Protein.ActiveResidues>
 VAL166  LYS551  ARG553  GLY616  TRP617  ASP618  TYR619  PRO620  LYS621  CYS622 
 ASP623  PHE694  ASN695  SER759  ASP760  ASP761  ALA762  ILE779  LEU786  VAL792 
 PHE793  MET794  SER795  GLU796  ALA797  LYS798  CYS799  TRP800  GLU811  SER814 

> <Gold.Protein.RotatedAtoms>
  151.7784  135.0768  160.0369 H   0  0  0  0  0  0  0  0  0  0  0  0  # atno 6907 bound_to 6896
  152.3240  133.5880  159.5772 H   0  0  0  0  0  0  0  0  0  0  0  0  # atno 6908 bound_to 6896
  150.7385  133.9884  159.3641 H   0  0  0  0  0  0  0  0  0  0  0  0  # atno 6909 bound_to 6896
  144.9288  140.7103  143.4919 H   0  0  0  0  0  0  0  0  0  0  0  0  # atno 7974 bound_to 7965
  155.3017  140.0453  157.3030 H   0  0  0  0  0  0  0  0  0  0  0  0  # atno 8008 bound_to 7997
  154.5483  140.2309  155.8494 H   0  0  0  0  0  0  0  0  0  0  0  0  # atno 8009 bound_to 7997
  156.1944  140.3042  155.9404 H   0  0  0  0  0  0  0  0  0  0  0  0  # atno 8010 bound_to 7997
  139.5523  144.6822  151.4286 H   0  0  0  0  0  0  0  0  0  0  0  0  # atno 10167 bound_to 10162
  156.0734  130.5945  150.8572 H   0  0  0  0  0  0  0  0  0  0  0  0  # atno 10718 bound_to 10713
  154.6256  135.2880  155.0276 H   0  0  0  0  0  0  0  0  0  0  0  0  # atno 10763 bound_to 10752
  154.1455  135.6512  153.4955 H   0  0  0  0  0  0  0  0  0  0  0  0  # atno 10764 bound_to 10752
  153.0256  135.5343  154.7063 H   0  0  0  0  0  0  0  0  0  0  0  0  # atno 10765 bound_to 10752
  140.0370  134.9324  157.0771 H   0  0  0  0  0  0  0  0  0  0  0  0  # atno 11005 bound_to 11000
  145.3176  139.1798  143.4605 LP  0  0  0  0  0  0  0  0  0  0  0  0  # atno 17320 bound_to 7965
  146.3238  140.3189  142.8632 LP  0  0  0  0  0  0  0  0  0  0  0  0  # atno 17321 bound_to 7965
  140.6788  143.8128  150.7094 LP  0  0  0  0  0  0  0  0  0  0  0  0  # atno 17342 bound_to 10162
  140.1575  143.4304  152.2089 LP  0  0  0  0  0  0  0  0  0  0  0  0  # atno 17343 bound_to 10162
  157.5818  131.0946  150.9259 LP  0  0  0  0  0  0  0  0  0  0  0  0  # atno 17370 bound_to 10713
  156.9453  130.5400  149.5281 LP  0  0  0  0  0  0  0  0  0  0  0  0  # atno 17371 bound_to 10713
  140.4132  134.1959  155.7163 LP  0  0  0  0  0  0  0  0  0  0  0  0  # atno 17394 bound_to 11000
  141.1862  133.8306  157.1075 LP  0  0  0  0  0  0  0  0  0  0  0  0  # atno 17395 bound_to 11000

$$$$
