AV-unprocessed.smi:49|AV-procd|sdf|479|dock4
  -GOLD-   2262016343D 1   1.00000     0.00000
 Structure written by MMmdl.
 28 29  0  0  0  0  0  0  0  0  2 V2000
  151.8342  144.0737  157.5857 C   0  0  0  0  0  0  0  0  0  0  0  0
  151.3707  142.6445  157.8873 C   0  0  0  0  0  0  0  0  0  0  0  0
  150.8864  141.9285  156.6692 C   0  0  0  0  0  0  0  0  0  0  0  0
  149.8285  142.3574  155.9659 N   0  0  0  0  0  0  0  0  0  0  0  0
  149.7228  141.4438  154.9896 C   0  0  0  0  0  0  0  0  0  0  0  0
  148.6413  141.5318  153.9509 C   0  0  2  0  0  0  0  0  0  0  0  0
  147.2884  142.0120  154.4979 C   0  0  0  0  0  0  0  0  0  0  0  0
  146.5203  140.7200  154.7714 C   0  0  1  0  0  0  0  0  0  0  0  0
  145.1216  140.9055  154.7158 O   0  0  0  0  0  0  0  0  0  0  0  0
  147.0304  139.7806  153.6789 C   0  0  0  0  0  0  0  0  0  0  0  0
  148.4505  140.1342  153.5015 N   0  3  0  0  0  0  0  0  0  0  0  0
  150.6548  140.4854  155.0731 N   0  0  0  0  0  0  0  0  0  0  0  0
  151.4205  140.8059  156.1799 N   0  0  0  0  0  0  0  0  0  0  0  0
  148.9754  142.1553  153.1205 H   0  0  0  0  0  0  0  0  0  0  0  0
  146.7941  140.3288  155.7524 H   0  0  0  0  0  0  0  0  0  0  0  0
  149.2511  143.1683  156.1367 H   0  0  0  0  0  0  0  0  0  0  0  0
  152.1799  144.5694  158.4928 H   0  0  0  0  0  0  0  0  0  0  0  0
  151.0226  144.6708  157.1690 H   0  0  0  0  0  0  0  0  0  0  0  0
  152.6559  144.0779  156.8691 H   0  0  0  0  0  0  0  0  0  0  0  0
  152.1868  142.0759  158.3345 H   0  0  0  0  0  0  0  0  0  0  0  0
  150.5662  142.6642  158.6233 H   0  0  0  0  0  0  0  0  0  0  0  0
  147.3750  142.6622  155.3694 H   0  0  0  0  0  0  0  0  0  0  0  0
  146.7759  142.5772  153.7178 H   0  0  0  0  0  0  0  0  0  0  0  0
  144.7965  140.5513  153.9021 H   0  0  0  0  0  0  0  0  0  0  0  0
  146.9034  138.7274  153.9306 H   0  0  0  0  0  0  0  0  0  0  0  0
  146.5125  139.9703  152.7377 H   0  0  0  0  0  0  0  0  0  0  0  0
  148.7374  140.0125  152.5410 H   0  0  0  0  0  0  0  0  0  0  0  0
  149.0067  139.5405  154.1011 H   0  0  0  0  0  0  0  0  0  0  0  0
  1  2  1  0  0  0  0
  1 17  1  0  0  0  0
  1 18  1  0  0  0  0
  1 19  1  0  0  0  0
  2 20  1  0  0  0  0
  2 21  1  0  0  0  0
  2  3  1  0  0  0  0
  3  4  1  0  0  0  0
  3 13  2  0  0  0  0
  4 16  1  0  0  0  0
  4  5  1  0  0  0  0
  5 12  2  0  0  0  0
  5  6  1  0  0  0  0
  6 14  1  0  0  0  0
  6 11  1  0  0  0  0
  6  7  1  0  0  0  0
  7  8  1  0  0  0  0
  7 22  1  0  0  0  0
  7 23  1  0  0  0  0
  8 15  1  0  0  0  0
  8  9  1  0  0  0  0
  8 10  1  0  0  0  0
  9 24  1  0  0  0  0
 10 11  1  0  0  0  0
 10 25  1  0  0  0  0
 10 26  1  0  0  0  0
 11 27  1  0  0  0  0
 11 28  1  0  0  0  0
 12 13  1  0  0  0  0
M  CHG  1  11   1
M  END
> <s_m_source_file>
AV-unprocessed.smi

> <i_m_source_file_index>
49

> <i_lp_mmshare_version>
43012

> <i_f3d_flags>
0

> <s_epik_input>
W0NIM11bQ0gyXWMxbmMobltuSF0xKVtDQEBIXTJbQ0gyXVtDQEBIXShbT0hdKVtDSDJdW05IXTI=

> <s_epik_cmdline>
J2VwaWtfcHl0aG9uJywgJy1waCcsICc3LjAnLCAnLXRuJywgJzgnLCAnLW1hJywgJzIwMCcsICctbWV0YWxfYmluZGluZycsICctaW1hZScsICc8aW5maWxlLm1hZT4nLCAnLW9tYWUnLCAnPG91dGZpbGUubWFlPic=

> <r_lp_tautomer_probability>
0.0517155

> <r_epik_Ionization_Penalty>
0.939819

> <r_epik_Ionization_Penalty_Charging>
0.0688988

> <r_epik_Ionization_Penalty_Neutral>
0.87092

> <r_epik_State_Penalty>
2.1224

> <r_epik_Charging_Adjusted_Penalty>
2.1913

> <i_epik_Tot_Q>
1

> <i_epik_Tot_abs_Q>
1

> <r_epik_Metal_State_Penalty>
2.39725

> <b_epik_Metal_Only>
0

> <s_lp_Force_Field>
OPLS_2005

> <r_lp_Energy>
21.4308

> <b_lp_Chiralities_Consistent>
1

> <s_lp_Variant>
AV-unprocessed.smi:49-17

> <Gold.Version>
5.8.1

> <Gold.Id.Protein>
6NUR|6NUR_protein|mol2

> <Gold.PLP.Fitness>
36.5925

> <Gold.PLP.PLP>
-26.2097

> <Gold.PLP.part.hbond>
-4.0000

> <Gold.PLP.part.metal>
0.0000

> <Gold.PLP.part.buried>
-2.6367

> <Gold.PLP.part.nonpolar>
-20.3415

> <Gold.PLP.part.repulsive>
0.3276

> <Gold.PLP.ligand.clash>
0.0000

> <Gold.PLP.ligand.torsion>
0.6610

> <Gold.PLP.Chemscore.Hbond>
3.8960

> <Gold.PLP.Chemscore.CHOScore>
0.0000

> <Gold.PLP.Chemscore.Metal>
0.0000

> <Gold.Chemscore.Hbonds>
donor molecule, donor type, donor heavy atom, donor atom, acceptor molecule, acceptor atom, score
      L1  H     4    16       P1  8028  0.91
      L1  H     9    24       P1 10175  1.00
      L1  H    11    27       P1  7957  1.00
      P1  H  7989  7998       L1    12  0.95

> <Gold.PLP.Chemscore.Internal.Correction>
0.0169

> <Gold.Rescore>
     Score         DG    S(hbond)    S(metal)    S(lipo)     H(rot)  DE(clash)    DE(int)     intcor
     15.25     -16.19       3.00        0.00      47.13       1.89       0.23       0.72       ----

> <Gold.Chemscore.Fitness>
15.2452

> <Gold.Chemscore.DG>
-16.1907

> <Gold.Chemscore.ZeroCoef>
-5.4800

> <Gold.Chemscore.Hbond>
3.0033

> <Gold.Chemscore.Metal>
0.0000

> <Gold.Chemscore.Lipo>
47.1252

> <Gold.Chemscore.Internal_Hbond>
0.0000

> <Gold.Chemscore.DEClash>
0.2261

> <Gold.Chemscore.DEInternal>
0.7194

> <Gold.Chemscore.Rot>
1.8883

> <Gold.Chemscore.Internal.Correction>
   9.000000E+99

> <Gold.Chemscore.Hbonds>
donor molecule, donor type, donor heavy atom, donor atom, acceptor molecule, acceptor atom, score
      L1  H     4    16       P1  8028  0.89
      L1  H     9    24       P1 10175  0.97
      L1  H    11    27       P1  7957  0.99
      P1  H  7989  7998       L1    12  0.14

> <Gold.Chemscore.Hbond.Weighted>
-10.0311

> <Gold.Chemscore.Metal.Weighted>
-0.0000

> <Gold.Chemscore.Lipo.Weighted>
-5.5137

> <Gold.Chemscore.Internal_Hbond.Weighted>
0.0000

> <Gold.Chemscore.DEClash.Weighted>
0.2261

> <Gold.Chemscore.DEInternal.Weighted>
0.7194

> <Gold.Chemscore.Rot.Weighted>
4.8340

> <Gold.Chemscore.Internal.Correction.Weighted>
   9.000000E+99

> <Gold.Protein.RotatedTorsions>
[ 6907 6896 6895 6894 ] final  -20.01 input  -60.11 | X-H torsion
[ 7974 7965 7964 7962 ] final -109.21 input  175.53 | X-H torsion
[ 8008 7997 7996 7995 ] final  102.07 input   59.86 | X-H torsion
[ 10167 10162 10161 10158 ] final -174.70 input  -65.29 | X-H torsion
[ 10718 10713 10712 10709 ] final  -99.11 input   66.30 | X-H torsion
[ 10763 10752 10751 10750 ] final -101.55 input  -60.55 | X-H torsion
[ 11005 11000 10999 10996 ] final -161.18 input  -57.11 | X-H torsion

> <Gold.Protein.ActiveResidues>
 VAL166  LYS551  ARG553  GLY616  TRP617  ASP618  TYR619  PRO620  LYS621  CYS622 
 ASP623  PHE694  ASN695  SER759  ASP760  ASP761  ALA762  ILE779  LEU786  VAL792 
 PHE793  MET794  SER795  GLU796  ALA797  LYS798  CYS799  TRP800  GLU811  SER814 

> <Gold.Protein.RotatedAtoms>
  151.2545  135.0633  159.9074 H   0  0  0  0  0  0  0  0  0  0  0  0  # atno 6907 bound_to 6896
  152.5375  134.0296  159.8029 H   0  0  0  0  0  0  0  0  0  0  0  0  # atno 6908 bound_to 6896
  151.0510  133.5575  159.2673 H   0  0  0  0  0  0  0  0  0  0  0  0  # atno 6909 bound_to 6896
  145.1834  140.8981  143.3467 H   0  0  0  0  0  0  0  0  0  0  0  0  # atno 7974 bound_to 7965
  156.1358  140.3187  155.8419 H   0  0  0  0  0  0  0  0  0  0  0  0  # atno 8008 bound_to 7997
  155.4247  140.0514  157.3040 H   0  0  0  0  0  0  0  0  0  0  0  0  # atno 8009 bound_to 7997
  154.4936  140.2102  155.9508 H   0  0  0  0  0  0  0  0  0  0  0  0  # atno 8010 bound_to 7997
  139.5620  144.1847  152.1253 H   0  0  0  0  0  0  0  0  0  0  0  0  # atno 10167 bound_to 10162
  156.0125  130.5268  150.6623 H   0  0  0  0  0  0  0  0  0  0  0  0  # atno 10718 bound_to 10713
  154.7666  135.4893  153.9567 H   0  0  0  0  0  0  0  0  0  0  0  0  # atno 10763 bound_to 10752
  153.1316  135.6754  153.9177 H   0  0  0  0  0  0  0  0  0  0  0  0  # atno 10764 bound_to 10752
  153.8879  135.3124  155.3425 H   0  0  0  0  0  0  0  0  0  0  0  0  # atno 10765 bound_to 10752
  140.6233  134.4728  157.5225 H   0  0  0  0  0  0  0  0  0  0  0  0  # atno 11005 bound_to 11000
  145.0114  139.3507  143.6118 LP  0  0  0  0  0  0  0  0  0  0  0  0  # atno 17320 bound_to 7965
  146.3449  139.9377  142.8745 LP  0  0  0  0  0  0  0  0  0  0  0  0  # atno 17321 bound_to 7965
  140.1362  144.5243  150.6772 LP  0  0  0  0  0  0  0  0  0  0  0  0  # atno 17342 bound_to 10162
  140.6901  143.2371  151.5155 LP  0  0  0  0  0  0  0  0  0  0  0  0  # atno 17343 bound_to 10162
  157.4362  131.0855  151.0989 LP  0  0  0  0  0  0  0  0  0  0  0  0  # atno 17370 bound_to 10713
  157.1547  130.6199  149.5592 LP  0  0  0  0  0  0  0  0  0  0  0  0  # atno 17371 bound_to 10713
  139.9145  134.8275  156.1414 LP  0  0  0  0  0  0  0  0  0  0  0  0  # atno 17394 bound_to 11000
  141.0727  133.6789  156.2174 LP  0  0  0  0  0  0  0  0  0  0  0  0  # atno 17395 bound_to 11000

$$$$
