AV-unprocessed.smi:3348|AV-procd|sdf|12925|dock4
  -GOLD-   2272019353D 1   1.00000     0.00000
 Structure written by MMmdl.
 46 47  0  0  0  0  0  0  0  0  1 V2000
  145.5550  135.3161  153.2313 C   0  0  0  0  0  0  0  0  0  0  0  0
  145.8376  135.7829  151.7966 C   0  0  2  0  0  0  0  0  0  0  0  0
  146.4399  134.6179  150.9736 C   0  0  0  0  0  0  0  0  0  0  0  0
  145.5273  133.5131  150.7435 N   0  0  0  0  0  0  0  0  0  0  0  0
  145.7966  132.1604  150.7759 C   0  0  0  0  0  0  0  0  0  0  0  0
  144.6297  131.5077  150.5001 C   0  0  0  0  0  0  0  0  0  0  0  0
  143.6889  132.5600  150.3198 C   0  0  0  0  0  0  0  0  0  0  0  0
  144.2279  133.7593  150.4699 N   0  0  0  0  0  0  0  0  0  0  0  0
  146.7349  136.9415  151.8429 N   0  0  0  0  0  0  0  0  0  0  0  0
  146.3357  138.0082  152.7616 C   0  0  0  0  0  0  0  0  0  0  0  0
  147.3688  139.1370  152.7694 C   0  0  0  0  0  0  0  0  0  0  0  0
  147.1362  139.9192  153.9309 O   0  0  0  0  0  0  0  0  0  0  0  0
  147.9008  141.1156  154.0216 C   0  0  1  0  0  0  0  0  0  0  0  0
  146.9875  142.3326  154.2840 C   0  0  0  0  0  0  0  0  0  0  0  0
  146.2790  142.2259  155.6441 C   0  0  0  0  0  0  0  0  0  0  0  0
  147.2926  142.0501  156.7847 C   0  0  0  0  0  0  0  0  0  0  0  0
  148.2114  140.8434  156.5348 C   0  0  0  0  0  0  0  0  0  0  0  0
  148.9219  140.9445  155.1694 C   0  0  1  0  0  0  0  0  0  0  0  0
  149.8679  139.7572  154.9299 C   0  0  0  0  0  0  0  0  0  0  0  0
  144.8606  134.4752  153.2409 H   0  0  0  0  0  0  0  0  0  0  0  0
  145.1080  136.1146  153.8247 H   0  0  0  0  0  0  0  0  0  0  0  0
  146.4690  134.9981  153.7346 H   0  0  0  0  0  0  0  0  0  0  0  0
  144.8811  136.0767  151.3614 H   0  0  0  0  0  0  0  0  0  0  0  0
  146.7935  134.9818  150.0077 H   0  0  0  0  0  0  0  0  0  0  0  0
  147.3153  134.2164  151.4856 H   0  0  0  0  0  0  0  0  0  0  0  0
  146.7863  131.7806  150.9811 H   0  0  0  0  0  0  0  0  0  0  0  0
  144.4728  130.4412  150.4367 H   0  0  0  0  0  0  0  0  0  0  0  0
  142.6371  132.4889  150.0856 H   0  0  0  0  0  0  0  0  0  0  0  0
  147.6754  136.6373  152.0734 H   0  0  0  0  0  0  0  0  0  0  0  0
  145.3606  138.4202  152.5145 H   0  0  0  0  0  0  0  0  0  0  0  0
  146.2448  137.5959  153.7669 H   0  0  0  0  0  0  0  0  0  0  0  0
  148.3711  138.7092  152.8167 H   0  0  0  0  0  0  0  0  0  0  0  0
  147.3055  139.7279  151.8556 H   0  0  0  0  0  0  0  0  0  0  0  0
  148.4502  141.2676  153.0908 H   0  0  0  0  0  0  0  0  0  0  0  0
  147.5907  143.2412  154.2669 H   0  0  0  0  0  0  0  0  0  0  0  0
  146.2525  142.4507  153.4885 H   0  0  0  0  0  0  0  0  0  0  0  0
  145.6738  143.1156  155.8190 H   0  0  0  0  0  0  0  0  0  0  0  0
  145.5891  141.3808  155.6329 H   0  0  0  0  0  0  0  0  0  0  0  0
  147.8956  142.9541  156.8791 H   0  0  0  0  0  0  0  0  0  0  0  0
  146.7679  141.9285  157.7328 H   0  0  0  0  0  0  0  0  0  0  0  0
  148.9491  140.7770  157.3352 H   0  0  0  0  0  0  0  0  0  0  0  0
  147.6261  139.9243  156.5812 H   0  0  0  0  0  0  0  0  0  0  0  0
  149.5414  141.8426  155.1902 H   0  0  0  0  0  0  0  0  0  0  0  0
  149.3271  138.8105  154.9197 H   0  0  0  0  0  0  0  0  0  0  0  0
  150.6254  139.6961  155.7116 H   0  0  0  0  0  0  0  0  0  0  0  0
  150.3860  139.8546  153.9757 H   0  0  0  0  0  0  0  0  0  0  0  0
  1  2  1  0  0  0  0
  1 20  1  0  0  0  0
  1 21  1  0  0  0  0
  1 22  1  0  0  0  0
  2  3  1  0  0  0  0
  2  9  1  0  0  0  0
  2 23  1  0  0  0  0
  3  4  1  0  0  0  0
  3 24  1  0  0  0  0
  3 25  1  0  0  0  0
  4  8  1  0  0  0  0
  4  5  1  0  0  0  0
  5  6  2  0  0  0  0
  5 26  1  0  0  0  0
  6  7  1  0  0  0  0
  6 27  1  0  0  0  0
  7  8  2  0  0  0  0
  7 28  1  0  0  0  0
  9 10  1  0  0  0  0
  9 29  1  0  0  0  0
 10 11  1  0  0  0  0
 10 30  1  0  0  0  0
 10 31  1  0  0  0  0
 11 12  1  0  0  0  0
 11 32  1  0  0  0  0
 11 33  1  0  0  0  0
 12 13  1  0  0  0  0
 13 18  1  0  0  0  0
 13 14  1  0  0  0  0
 13 34  1  0  0  0  0
 14 15  1  0  0  0  0
 14 35  1  0  0  0  0
 14 36  1  0  0  0  0
 15 16  1  0  0  0  0
 15 37  1  0  0  0  0
 15 38  1  0  0  0  0
 16 17  1  0  0  0  0
 16 39  1  0  0  0  0
 16 40  1  0  0  0  0
 17 18  1  0  0  0  0
 17 41  1  0  0  0  0
 17 42  1  0  0  0  0
 18 19  1  0  0  0  0
 18 43  1  0  0  0  0
 19 44  1  0  0  0  0
 19 45  1  0  0  0  0
 19 46  1  0  0  0  0
M  END
> <s_m_source_file>
AV-unprocessed.smi

> <i_m_source_file_index>
3348

> <i_lp_mmshare_version>
43012

> <i_f3d_flags>
0

> <s_epik_input>
bjFbY0hdW2NIXVtjSF1uMVtDSDJdW0NAQEhdKFtDSDNdKVtOSF1bQ0gyXVtDSDJdT1tDQEBIXTJbQ0gyXVtDSDJdW0NIMl1bQ0gyXVtDQEhdMltDSDNd

> <s_epik_cmdline>
J2VwaWtfcHl0aG9uJywgJy1waCcsICc3LjAnLCAnLXRuJywgJzgnLCAnLW1hJywgJzIwMCcsICctbWV0YWxfYmluZGluZycsICctaW1hZScsICc8aW5maWxlLm1hZT4nLCAnLW9tYWUnLCAnPG91dGZpbGUubWFlPic=

> <r_lp_tautomer_probability>
1

> <r_epik_Ionization_Penalty>
2.46945

> <r_epik_Ionization_Penalty_Charging>
0

> <r_epik_Ionization_Penalty_Neutral>
2.46945

> <r_epik_State_Penalty>
2.6322

> <r_epik_Charging_Adjusted_Penalty>
2.6322

> <i_epik_Tot_Q>
0

> <i_epik_Tot_abs_Q>
0

> <r_epik_Metal_State_Penalty>
2.63217

> <b_epik_Metal_Only>
0

> <s_lp_Force_Field>
OPLS_2005

> <r_lp_Energy>
18.1509

> <b_lp_Chiralities_Consistent>
1

> <s_lp_Variant>
AV-unprocessed.smi:3348-11

> <Gold.Version>
5.8.1

> <Gold.Id.Protein>
6NUR|6NUR_protein|mol2

> <Gold.PLP.Fitness>
44.2633

> <Gold.PLP.PLP>
-36.3342

> <Gold.PLP.part.hbond>
-1.0000

> <Gold.PLP.part.metal>
0.0000

> <Gold.PLP.part.buried>
-2.9285

> <Gold.PLP.part.nonpolar>
-31.0231

> <Gold.PLP.part.repulsive>
0.3556

> <Gold.PLP.ligand.clash>
0.0000

> <Gold.PLP.ligand.torsion>
1.1539

> <Gold.PLP.Chemscore.Hbond>
1.0000

> <Gold.PLP.Chemscore.CHOScore>
2.2972

> <Gold.PLP.Chemscore.Metal>
0.0000

> <Gold.Chemscore.Hbonds>
donor molecule, donor type, donor heavy atom, donor atom, acceptor molecule, acceptor atom, score
      L1  H     9    29       P1  7948  0.52
      L1  C     5    26       P1 10747  1.00
      L1  C     7    28       P1 10186  0.85
      L1  C     7    28       P1 10952  0.21

> <Gold.PLP.Chemscore.Internal.Correction>
0.3454

> <Gold.Rescore>
     Score         DG    S(hbond)    S(metal)    S(lipo)     H(rot)  DE(clash)    DE(int)     intcor
     14.25     -15.66       0.99        0.00      96.34       1.72       0.29       1.12       ----

> <Gold.Chemscore.Fitness>
14.2465

> <Gold.Chemscore.DG>
-15.6585

> <Gold.Chemscore.ZeroCoef>
-5.4800

> <Gold.Chemscore.Hbond>
0.9939

> <Gold.Chemscore.Metal>
0.0000

> <Gold.Chemscore.Lipo>
96.3372

> <Gold.Chemscore.Internal_Hbond>
0.0000

> <Gold.Chemscore.DEClash>
0.2888

> <Gold.Chemscore.DEInternal>
1.1232

> <Gold.Chemscore.Rot>
1.7237

> <Gold.Chemscore.Internal.Correction>
   9.000000E+99

> <Gold.Chemscore.Hbonds>
donor molecule, donor type, donor heavy atom, donor atom, acceptor molecule, acceptor atom, score
      L1  H     9    29       P1  7948  0.51

> <Gold.Chemscore.Hbond.Weighted>
-3.3196

> <Gold.Chemscore.Metal.Weighted>
-0.0000

> <Gold.Chemscore.Lipo.Weighted>
-11.2715

> <Gold.Chemscore.Internal_Hbond.Weighted>
0.0000

> <Gold.Chemscore.DEClash.Weighted>
0.2888

> <Gold.Chemscore.DEInternal.Weighted>
1.1232

> <Gold.Chemscore.Rot.Weighted>
4.4126

> <Gold.Chemscore.Internal.Correction.Weighted>
   9.000000E+99

> <Gold.Protein.RotatedTorsions>
[ 6907 6896 6895 6894 ] final  -89.39 input  -60.11 | X-H torsion
[ 7974 7965 7964 7962 ] final -122.31 input  175.53 | X-H torsion
[ 8008 7997 7996 7995 ] final  179.68 input   59.86 | X-H torsion
[ 10167 10162 10161 10158 ] final   95.85 input  -65.29 | X-H torsion
[ 10718 10713 10712 10709 ] final  -94.09 input   66.30 | X-H torsion
[ 10763 10752 10751 10750 ] final  -32.62 input  -60.55 | X-H torsion
[ 11005 11000 10999 10996 ] final   33.11 input  -57.11 | X-H torsion

> <Gold.Protein.ActiveResidues>
 VAL166  LYS551  ARG553  GLY616  TRP617  ASP618  TYR619  PRO620  LYS621  CYS622 
 ASP623  PHE694  ASN695  SER759  ASP760  ASP761  ALA762  ILE779  LEU786  VAL792 
 PHE793  MET794  SER795  GLU796  ALA797  LYS798  CYS799  TRP800  GLU811  SER814 

> <Gold.Protein.RotatedAtoms>
  150.6873  134.2594  159.4543 H   0  0  0  0  0  0  0  0  0  0  0  0  # atno 6907 bound_to 6896
  152.0526  134.9642  160.0584 H   0  0  0  0  0  0  0  0  0  0  0  0  # atno 6908 bound_to 6896
  152.1100  133.4261  159.4663 H   0  0  0  0  0  0  0  0  0  0  0  0  # atno 6909 bound_to 6896
  145.0308  140.8066  143.4324 H   0  0  0  0  0  0  0  0  0  0  0  0  # atno 7974 bound_to 7965
  156.0406  140.1302  157.0160 H   0  0  0  0  0  0  0  0  0  0  0  0  # atno 8008 bound_to 7997
  154.4389  140.1031  156.6302 H   0  0  0  0  0  0  0  0  0  0  0  0  # atno 8009 bound_to 7997
  155.5672  140.3466  155.4508 H   0  0  0  0  0  0  0  0  0  0  0  0  # atno 8010 bound_to 7997
  139.7949  144.6837  150.9842 H   0  0  0  0  0  0  0  0  0  0  0  0  # atno 10167 bound_to 10162
  156.0022  130.5053  150.5874 H   0  0  0  0  0  0  0  0  0  0  0  0  # atno 10718 bound_to 10713
  153.8167  135.6878  153.4833 H   0  0  0  0  0  0  0  0  0  0  0  0  # atno 10763 bound_to 10752
  153.1594  135.4586  154.9749 H   0  0  0  0  0  0  0  0  0  0  0  0  # atno 10764 bound_to 10752
  154.7945  135.3314  154.7643 H   0  0  0  0  0  0  0  0  0  0  0  0  # atno 10765 bound_to 10752
  140.2665  134.3132  155.7841 H   0  0  0  0  0  0  0  0  0  0  0  0  # atno 11005 bound_to 11000
  145.1773  139.2371  143.5311 LP  0  0  0  0  0  0  0  0  0  0  0  0  # atno 17320 bound_to 7965
  146.3498  140.1538  142.8592 LP  0  0  0  0  0  0  0  0  0  0  0  0  # atno 17321 bound_to 7965
  140.7820  143.4342  151.0649 LP  0  0  0  0  0  0  0  0  0  0  0  0  # atno 17342 bound_to 10162
  139.8017  143.8075  152.3163 LP  0  0  0  0  0  0  0  0  0  0  0  0  # atno 17343 bound_to 10162
  157.3744  131.0771  151.1530 LP  0  0  0  0  0  0  0  0  0  0  0  0  # atno 17370 bound_to 10713
  157.2273  130.6509  149.5835 LP  0  0  0  0  0  0  0  0  0  0  0  0  # atno 17371 bound_to 10713
  141.2183  133.7441  156.9268 LP  0  0  0  0  0  0  0  0  0  0  0  0  # atno 17394 bound_to 11000
  140.1414  134.9291  157.2472 LP  0  0  0  0  0  0  0  0  0  0  0  0  # atno 17395 bound_to 11000

$$$$
