AV-unprocessed.smi:1251|AV-procd|sdf|5259|dock6
  -GOLD-   22720 4373D 1   1.00000     0.00000
 Structure written by MMmdl.
 39 40  0  0  0  0  0  0  0  0  1 V2000
  151.7498  142.7645  158.3147 C   0  0  0  0  0  0  0  0  0  0  0  0
  151.3454  141.5481  157.4751 C   0  0  0  0  0  0  0  0  0  0  0  0
  150.4965  141.9311  156.2548 C   0  0  0  0  0  0  0  0  0  0  0  0
  150.1021  140.7471  155.4363 C   0  0  0  0  0  0  0  0  0  0  0  0
  150.9968  139.9648  154.8193 N   0  0  0  0  0  0  0  0  0  0  0  0
  150.3996  138.9115  154.1403 N   0  0  0  0  0  0  0  0  0  0  0  0
  149.0708  138.9193  154.2771 C   0  0  0  0  0  0  0  0  0  0  0  0
  148.3289  137.8961  153.6359 N   0  0  0  0  0  0  0  0  0  0  0  0
  147.0272  137.6027  153.7838 C   0  0  0  0  0  0  0  0  0  0  0  0
  146.2450  138.1937  154.5280 O   0  0  0  0  0  0  0  0  0  0  0  0
  146.6771  136.5634  153.0116 N   0  0  0  0  0  0  0  0  0  0  0  0
  145.3420  135.9747  152.9178 C   0  0  1  0  0  0  0  0  0  0  0  0
  144.3088  137.1074  152.8277 C   0  0  0  0  0  0  0  0  0  0  0  0
  145.2559  135.0227  151.7070 C   0  0  1  0  0  0  0  0  0  0  0  0
  146.1851  133.8086  151.7685 C   0  0  0  0  0  0  0  0  0  0  0  0
  145.4951  132.8502  150.8259 C   0  0  0  0  0  0  0  0  0  0  0  0
  144.0233  133.1157  151.1301 C   0  0  0  0  0  0  0  0  0  0  0  0
  143.9506  134.4585  151.6038 O   0  0  0  0  0  0  0  0  0  0  0  0
  148.4285  140.2326  155.2636 S   0  0  0  0  0  0  0  0  0  0  0  0
  152.3500  142.4616  159.1730 H   0  0  0  0  0  0  0  0  0  0  0  0
  150.8733  143.2925  158.6915 H   0  0  0  0  0  0  0  0  0  0  0  0
  152.3398  143.4691  157.7281 H   0  0  0  0  0  0  0  0  0  0  0  0
  152.2444  141.0261  157.1452 H   0  0  0  0  0  0  0  0  0  0  0  0
  150.7922  140.8464  158.1005 H   0  0  0  0  0  0  0  0  0  0  0  0
  149.5916  142.4485  156.5753 H   0  0  0  0  0  0  0  0  0  0  0  0
  151.0459  142.6280  155.6202 H   0  0  0  0  0  0  0  0  0  0  0  0
  148.8503  137.3237  152.9885 H   0  0  0  0  0  0  0  0  0  0  0  0
  147.3935  136.1407  152.4395 H   0  0  0  0  0  0  0  0  0  0  0  0
  145.1239  135.4034  153.8220 H   0  0  0  0  0  0  0  0  0  0  0  0
  143.2931  136.7126  152.7941 H   0  0  0  0  0  0  0  0  0  0  0  0
  144.4597  137.7130  151.9335 H   0  0  0  0  0  0  0  0  0  0  0  0
  144.3728  137.7679  153.6932 H   0  0  0  0  0  0  0  0  0  0  0  0
  145.4529  135.5710  150.7839 H   0  0  0  0  0  0  0  0  0  0  0  0
  147.2087  134.0373  151.4702 H   0  0  0  0  0  0  0  0  0  0  0  0
  146.2065  133.3902  152.7759 H   0  0  0  0  0  0  0  0  0  0  0  0
  145.7204  133.1168  149.7923 H   0  0  0  0  0  0  0  0  0  0  0  0
  145.7831  131.8103  150.9819 H   0  0  0  0  0  0  0  0  0  0  0  0
  143.3894  132.9691  150.2553 H   0  0  0  0  0  0  0  0  0  0  0  0
  143.6694  132.4520  151.9198 H   0  0  0  0  0  0  0  0  0  0  0  0
  1  2  1  0  0  0  0
  1 20  1  0  0  0  0
  1 21  1  0  0  0  0
  1 22  1  0  0  0  0
  2  3  1  0  0  0  0
  2 23  1  0  0  0  0
  2 24  1  0  0  0  0
  3  4  1  0  0  0  0
  3 25  1  0  0  0  0
  3 26  1  0  0  0  0
  4 19  1  0  0  0  0
  4  5  2  0  0  0  0
  5  6  1  0  0  0  0
  6  7  2  0  0  0  0
  7  8  1  0  0  0  0
  7 19  1  0  0  0  0
  8  9  1  0  0  0  0
  8 27  1  0  0  0  0
  9 10  2  0  0  0  0
  9 11  1  0  0  0  0
 11 12  1  0  0  0  0
 11 28  1  0  0  0  0
 12 13  1  0  0  0  0
 12 14  1  0  0  0  0
 12 29  1  0  0  0  0
 13 30  1  0  0  0  0
 13 31  1  0  0  0  0
 13 32  1  0  0  0  0
 14 18  1  0  0  0  0
 14 15  1  0  0  0  0
 14 33  1  0  0  0  0
 15 16  1  0  0  0  0
 15 34  1  0  0  0  0
 15 35  1  0  0  0  0
 16 17  1  0  0  0  0
 16 36  1  0  0  0  0
 16 37  1  0  0  0  0
 17 18  1  0  0  0  0
 17 38  1  0  0  0  0
 17 39  1  0  0  0  0
M  END
> <s_m_source_file>
AV-unprocessed.smi

> <i_m_source_file_index>
1251

> <i_lp_mmshare_version>
43012

> <i_f3d_flags>
0

> <s_epik_input>
W0NIM11bQ0gyXVtDSDJdYzFubmMoczEpW05IXUMoPU8pW05IXVtDQEhdKFtDSDNdKVtDQEBIXTJbQ0gyXVtDSDJdW0NIMl1PMg==

> <s_epik_cmdline>
J2VwaWtfcHl0aG9uJywgJy1waCcsICc3LjAnLCAnLXRuJywgJzgnLCAnLW1hJywgJzIwMCcsICctbWV0YWxfYmluZGluZycsICctaW1hZScsICc8aW5maWxlLm1hZT4nLCAnLW9tYWUnLCAnPG91dGZpbGUubWFlPic=

> <r_lp_tautomer_probability>
1

> <r_epik_Ionization_Penalty>
0.000503621

> <r_epik_Ionization_Penalty_Charging>
0

> <r_epik_Ionization_Penalty_Neutral>
0.000503621

> <r_epik_State_Penalty>
-0

> <r_epik_Charging_Adjusted_Penalty>
0

> <i_epik_Tot_Q>
0

> <i_epik_Tot_abs_Q>
0

> <r_epik_Metal_State_Penalty>
0.219912

> <b_epik_Metal_Only>
0

> <s_lp_Force_Field>
OPLS_2005

> <r_lp_Energy>
11.0911

> <b_lp_Chiralities_Consistent>
1

> <s_lp_Variant>
AV-unprocessed.smi:1251-4

> <Gold.Version>
5.8.1

> <Gold.Id.Protein>
6NUR|6NUR_protein|mol2

> <Gold.PLP.Fitness>
36.3038

> <Gold.PLP.PLP>
-27.8493

> <Gold.PLP.part.hbond>
-2.9209

> <Gold.PLP.part.metal>
0.0000

> <Gold.PLP.part.buried>
-3.7843

> <Gold.PLP.part.nonpolar>
-21.8569

> <Gold.PLP.part.repulsive>
0.5701

> <Gold.PLP.ligand.clash>
0.0000

> <Gold.PLP.ligand.torsion>
0.2246

> <Gold.PLP.Chemscore.Hbond>
2.9600

> <Gold.PLP.Chemscore.CHOScore>
0.0000

> <Gold.PLP.Chemscore.Metal>
0.0000

> <Gold.Chemscore.Hbonds>
donor molecule, donor type, donor heavy atom, donor atom, acceptor molecule, acceptor atom, score
      L1  H     8    27       P1  7948  1.00
      L1  H    11    28       P1  7948  0.96
      P1  H  7989  7998       L1     5  1.00

> <Gold.PLP.Chemscore.Internal.Correction>
0.0236

> <Gold.Rescore>
     Score         DG    S(hbond)    S(metal)    S(lipo)     H(rot)  DE(clash)    DE(int)     intcor
     13.99     -16.43       2.24        0.00      64.25       1.58       0.16       2.28       ----

> <Gold.Chemscore.Fitness>
13.9912

> <Gold.Chemscore.DG>
-16.4284

> <Gold.Chemscore.ZeroCoef>
-5.4800

> <Gold.Chemscore.Hbond>
2.2416

> <Gold.Chemscore.Metal>
0.0000

> <Gold.Chemscore.Lipo>
64.2503

> <Gold.Chemscore.Internal_Hbond>
0.0000

> <Gold.Chemscore.DEClash>
0.1560

> <Gold.Chemscore.DEInternal>
2.2812

> <Gold.Chemscore.Rot>
1.5843

> <Gold.Chemscore.Internal.Correction>
   9.000000E+99

> <Gold.Chemscore.Hbonds>
donor molecule, donor type, donor heavy atom, donor atom, acceptor molecule, acceptor atom, score
      L1  H     8    27       P1  7948  0.93
      L1  H    11    28       P1  7948  0.92
      P1  H  7989  7998       L1     5  0.18

> <Gold.Chemscore.Hbond.Weighted>
-7.4869

> <Gold.Chemscore.Metal.Weighted>
-0.0000

> <Gold.Chemscore.Lipo.Weighted>
-7.5173

> <Gold.Chemscore.Internal_Hbond.Weighted>
0.0000

> <Gold.Chemscore.DEClash.Weighted>
0.1560

> <Gold.Chemscore.DEInternal.Weighted>
2.2812

> <Gold.Chemscore.Rot.Weighted>
4.0558

> <Gold.Chemscore.Internal.Correction.Weighted>
   9.000000E+99

> <Gold.Protein.RotatedTorsions>
[ 6907 6896 6895 6894 ] final -152.10 input  -60.11 | X-H torsion
[ 7974 7965 7964 7962 ] final   88.11 input  175.53 | X-H torsion
[ 8008 7997 7996 7995 ] final -173.88 input   59.86 | X-H torsion
[ 10167 10162 10161 10158 ] final   39.13 input  -65.29 | X-H torsion
[ 10718 10713 10712 10709 ] final  -88.53 input   66.30 | X-H torsion
[ 10763 10752 10751 10750 ] final  -34.54 input  -60.55 | X-H torsion
[ 11005 11000 10999 10996 ] final  -85.89 input  -57.11 | X-H torsion

> <Gold.Protein.ActiveResidues>
 VAL166  LYS551  ARG553  GLY616  TRP617  ASP618  TYR619  PRO620  LYS621  CYS622 
 ASP623  PHE694  ASN695  SER759  ASP760  ASP761  ALA762  ILE779  LEU786  VAL792 
 PHE793  MET794  SER795  GLU796  ALA797  LYS798  CYS799  TRP800  GLU811  SER814 

> <Gold.Protein.RotatedAtoms>
  151.2228  133.4493  159.2600 H   0  0  0  0  0  0  0  0  0  0  0  0  # atno 6907 bound_to 6896
  151.0869  134.9892  159.8393 H   0  0  0  0  0  0  0  0  0  0  0  0  # atno 6908 bound_to 6896
  152.5430  134.2164  159.8823 H   0  0  0  0  0  0  0  0  0  0  0  0  # atno 6909 bound_to 6896
  145.5500  139.2295  143.2518 H   0  0  0  0  0  0  0  0  0  0  0  0  # atno 7974 bound_to 7965
  155.9630  140.1148  157.0879 H   0  0  0  0  0  0  0  0  0  0  0  0  # atno 8008 bound_to 7997
  154.4137  140.1178  156.5272 H   0  0  0  0  0  0  0  0  0  0  0  0  # atno 8009 bound_to 7997
  155.6695  140.3473  155.4815 H   0  0  0  0  0  0  0  0  0  0  0  0  # atno 8010 bound_to 7997
  140.3870  144.1904  150.6130 H   0  0  0  0  0  0  0  0  0  0  0  0  # atno 10167 bound_to 10162
  155.9983  130.4839  150.5033 H   0  0  0  0  0  0  0  0  0  0  0  0  # atno 10718 bound_to 10713
  153.8484  135.6851  153.4795 H   0  0  0  0  0  0  0  0  0  0  0  0  # atno 10763 bound_to 10752
  153.1412  135.4657  154.9496 H   0  0  0  0  0  0  0  0  0  0  0  0  # atno 10764 bound_to 10752
  154.7813  135.3270  154.7931 H   0  0  0  0  0  0  0  0  0  0  0  0  # atno 10765 bound_to 10752
  141.1636  133.7424  156.9080 H   0  0  0  0  0  0  0  0  0  0  0  0  # atno 11005 bound_to 11000
  146.1923  140.6323  142.9140 LP  0  0  0  0  0  0  0  0  0  0  0  0  # atno 17320 bound_to 7965
  144.7534  140.5247  143.6786 LP  0  0  0  0  0  0  0  0  0  0  0  0  # atno 17321 bound_to 7965
  140.4879  143.2357  151.8861 LP  0  0  0  0  0  0  0  0  0  0  0  0  # atno 17342 bound_to 10162
  139.4791  144.5198  151.8817 LP  0  0  0  0  0  0  0  0  0  0  0  0  # atno 17343 bound_to 10162
  157.3015  131.0646  151.2065 LP  0  0  0  0  0  0  0  0  0  0  0  0  # atno 17370 bound_to 10713
  157.3042  130.6858  149.6180 LP  0  0  0  0  0  0  0  0  0  0  0  0  # atno 17371 bound_to 10713
  140.1536  134.9213  157.2625 LP  0  0  0  0  0  0  0  0  0  0  0  0  # atno 17394 bound_to 11000
  140.2693  134.3478  155.7379 LP  0  0  0  0  0  0  0  0  0  0  0  0  # atno 17395 bound_to 11000

$$$$
