AV-unprocessed.smi:971|AV-procd|sdf|4295|dock10
  -GOLD-   22720 2203D 1   1.00000     0.00000
 Structure written by MMmdl.
 34 35  0  0  0  0  0  0  0  0  1 V2000
  152.4876  142.8602  162.2466 C   0  0  0  0  0  0  0  0  0  0  0  0
  153.2294  142.2428  161.0562 C   0  0  0  0  0  0  0  0  0  0  0  0
  152.5418  142.5214  159.7520 C   0  0  0  0  0  0  0  0  0  0  0  0
  152.2717  141.4619  158.8806 N   0  0  0  0  0  0  0  0  0  0  0  0
  151.6446  141.8538  157.7699 C   0  0  0  0  0  0  0  0  0  0  0  0
  151.2708  140.9251  156.6642 C   0  0  0  0  0  0  0  0  0  0  0  0
  149.8901  140.2838  156.8770 C   0  0  0  0  0  0  0  0  0  0  0  0
  148.9650  140.6296  155.8038 N   0  0  0  0  0  0  0  0  0  0  0  0
  149.2638  140.6247  154.4957 C   0  0  0  0  0  0  0  0  0  0  0  0
  150.3769  140.3227  154.0628 O   0  0  0  0  0  0  0  0  0  0  0  0
  148.1244  141.0143  153.6119 C   0  0  0  0  0  0  0  0  0  0  0  0
  147.5143  142.3860  153.8170 C   0  0  0  0  0  0  0  0  0  0  0  0
  146.7563  141.1558  154.2480 C   0  0  0  0  0  0  0  0  0  0  0  0
  151.3632  143.5880  157.7115 S   0  0  0  0  0  0  0  0  0  0  0  0
  152.1137  143.7405  159.2798 C   0  0  0  0  0  0  0  0  0  0  0  0
  152.2314  145.0721  159.9441 C   0  0  0  0  0  0  0  0  0  0  0  0
  153.0057  142.6457  163.1813 H   0  0  0  0  0  0  0  0  0  0  0  0
  151.4749  142.4641  162.3291 H   0  0  0  0  0  0  0  0  0  0  0  0
  152.4168  143.9436  162.1452 H   0  0  0  0  0  0  0  0  0  0  0  0
  154.2514  142.6217  161.0353 H   0  0  0  0  0  0  0  0  0  0  0  0
  153.3171  141.1665  161.2085 H   0  0  0  0  0  0  0  0  0  0  0  0
  151.2937  141.4784  155.7244 H   0  0  0  0  0  0  0  0  0  0  0  0
  152.0355  140.1512  156.5889 H   0  0  0  0  0  0  0  0  0  0  0  0
  149.9862  139.1982  156.9031 H   0  0  0  0  0  0  0  0  0  0  0  0
  149.4734  140.5823  157.8406 H   0  0  0  0  0  0  0  0  0  0  0  0
  148.0280  140.8906  156.0752 H   0  0  0  0  0  0  0  0  0  0  0  0
  148.1520  140.6410  152.5890 H   0  0  0  0  0  0  0  0  0  0  0  0
  147.9194  143.0242  154.6006 H   0  0  0  0  0  0  0  0  0  0  0  0
  147.1722  142.9118  152.9279 H   0  0  0  0  0  0  0  0  0  0  0  0
  145.9002  140.8483  153.6513 H   0  0  0  0  0  0  0  0  0  0  0  0
  146.6577  140.9788  155.3179 H   0  0  0  0  0  0  0  0  0  0  0  0
  151.8605  145.0282  160.9685 H   0  0  0  0  0  0  0  0  0  0  0  0
  151.6575  145.8316  159.4128 H   0  0  0  0  0  0  0  0  0  0  0  0
  153.2714  145.3969  159.9751 H   0  0  0  0  0  0  0  0  0  0  0  0
  1  2  1  0  0  0  0
  1 17  1  0  0  0  0
  1 18  1  0  0  0  0
  1 19  1  0  0  0  0
  2  3  1  0  0  0  0
  2 20  1  0  0  0  0
  2 21  1  0  0  0  0
  3 15  2  0  0  0  0
  3  4  1  0  0  0  0
  4  5  2  0  0  0  0
  5  6  1  0  0  0  0
  5 14  1  0  0  0  0
  6  7  1  0  0  0  0
  6 22  1  0  0  0  0
  6 23  1  0  0  0  0
  7  8  1  0  0  0  0
  7 24  1  0  0  0  0
  7 25  1  0  0  0  0
  8  9  1  0  0  0  0
  8 26  1  0  0  0  0
  9 10  2  0  0  0  0
  9 11  1  0  0  0  0
 11 13  1  0  0  0  0
 11 12  1  0  0  0  0
 11 27  1  0  0  0  0
 12 13  1  0  0  0  0
 12 28  1  0  0  0  0
 12 29  1  0  0  0  0
 13 30  1  0  0  0  0
 13 31  1  0  0  0  0
 14 15  1  0  0  0  0
 15 16  1  0  0  0  0
 16 32  1  0  0  0  0
 16 33  1  0  0  0  0
 16 34  1  0  0  0  0
M  END
> <s_m_source_file>
AV-unprocessed.smi

> <i_m_source_file_index>
971

> <i_lp_mmshare_version>
43012

> <i_f3d_flags>
0

> <s_epik_input>
W0NIM11bQ0gyXWMxbmMoc2MxW0NIM10pW0NIMl1bQ0gyXVtOSF1DKD1PKVtDSF0yW0NIMl1bQ0gyXTI=

> <s_epik_cmdline>
J2VwaWtfcHl0aG9uJywgJy1waCcsICc3LjAnLCAnLXRuJywgJzgnLCAnLW1hJywgJzIwMCcsICctbWV0YWxfYmluZGluZycsICctaW1hZScsICc8aW5maWxlLm1hZT4nLCAnLW9tYWUnLCAnPG91dGZpbGUubWFlPic=

> <r_epik_Ionization_Penalty>
0.00242093

> <r_epik_Ionization_Penalty_Charging>
0

> <r_epik_Ionization_Penalty_Neutral>
0.00242093

> <r_epik_State_Penalty>
0.00167523

> <r_epik_Charging_Adjusted_Penalty>
0.00167523

> <i_epik_Tot_Q>
0

> <i_epik_Tot_abs_Q>
0

> <r_epik_Metal_State_Penalty>
-0

> <b_epik_Metal_Only>
0

> <s_lp_Force_Field>
OPLS_2005

> <r_lp_Energy>
-4.35298

> <b_lp_Chiralities_Consistent>
1

> <s_lp_Variant>
AV-unprocessed.smi:971-1

> <Gold.Version>
5.8.1

> <Gold.Id.Protein>
6NUR|6NUR_protein|mol2

> <Gold.PLP.Fitness>
41.0651

> <Gold.PLP.PLP>
-40.3225

> <Gold.PLP.part.hbond>
-0.8729

> <Gold.PLP.part.metal>
0.0000

> <Gold.PLP.part.buried>
-5.4066

> <Gold.PLP.part.nonpolar>
-34.5387

> <Gold.PLP.part.repulsive>
0.8809

> <Gold.PLP.ligand.clash>
0.0000

> <Gold.PLP.ligand.torsion>
1.0050

> <Gold.PLP.Chemscore.Hbond>
0.8800

> <Gold.PLP.Chemscore.CHOScore>
0.0000

> <Gold.PLP.Chemscore.Metal>
0.0000

> <Gold.Chemscore.Hbonds>
donor molecule, donor type, donor heavy atom, donor atom, acceptor molecule, acceptor atom, score
      P1  H  7989  7998       L1    10  0.80

> <Gold.PLP.Chemscore.Internal.Correction>
0.1125

> <Gold.Rescore>
     Score         DG    S(hbond)    S(metal)    S(lipo)     H(rot)  DE(clash)    DE(int)     intcor
     15.75     -17.88       0.99        0.00     111.63       1.54       0.08       2.06       ----

> <Gold.Chemscore.Fitness>
15.7456

> <Gold.Chemscore.DG>
-17.8833

> <Gold.Chemscore.ZeroCoef>
-5.4800

> <Gold.Chemscore.Hbond>
0.9868

> <Gold.Chemscore.Metal>
0.0000

> <Gold.Chemscore.Lipo>
111.6263

> <Gold.Chemscore.Internal_Hbond>
0.0000

> <Gold.Chemscore.DEClash>
0.0766

> <Gold.Chemscore.DEInternal>
2.0611

> <Gold.Chemscore.Rot>
1.5441

> <Gold.Chemscore.Internal.Correction>
   9.000000E+99

> <Gold.Chemscore.Hbonds>
donor molecule, donor type, donor heavy atom, donor atom, acceptor molecule, acceptor atom, score
      P1  H  7989  7998       L1    10  0.76

> <Gold.Chemscore.Hbond.Weighted>
-3.2960

> <Gold.Chemscore.Metal.Weighted>
-0.0000

> <Gold.Chemscore.Lipo.Weighted>
-13.0603

> <Gold.Chemscore.Internal_Hbond.Weighted>
0.0000

> <Gold.Chemscore.DEClash.Weighted>
0.0766

> <Gold.Chemscore.DEInternal.Weighted>
2.0611

> <Gold.Chemscore.Rot.Weighted>
3.9529

> <Gold.Chemscore.Internal.Correction.Weighted>
   9.000000E+99

> <Gold.Protein.RotatedTorsions>
[ 6907 6896 6895 6894 ] final   -9.00 input  -60.11 | X-H torsion
[ 7974 7965 7964 7962 ] final  168.93 input  175.53 | X-H torsion
[ 8008 7997 7996 7995 ] final -145.59 input   59.86 | X-H torsion
[ 10167 10162 10161 10158 ] final    6.29 input  -65.29 | X-H torsion
[ 10718 10713 10712 10709 ] final   50.94 input   66.30 | X-H torsion
[ 10763 10752 10751 10750 ] final   26.11 input  -60.55 | X-H torsion
[ 11005 11000 10999 10996 ] final  161.06 input  -57.11 | X-H torsion

> <Gold.Protein.ActiveResidues>
 VAL166  LYS551  ARG553  GLY616  TRP617  ASP618  TYR619  PRO620  LYS621  CYS622 
 ASP623  PHE694  ASN695  SER759  ASP760  ASP761  ALA762  ILE779  LEU786  VAL792 
 PHE793  MET794  SER795  GLU796  ALA797  LYS798  CYS799  TRP800  GLU811  SER814 

> <Gold.Protein.RotatedAtoms>
  151.4247  135.1002  159.9624 H   0  0  0  0  0  0  0  0  0  0  0  0  # atno 6907 bound_to 6896
  152.4976  133.8674  159.7291 H   0  0  0  0  0  0  0  0  0  0  0  0  # atno 6908 bound_to 6896
  150.9198  133.6837  159.2863 H   0  0  0  0  0  0  0  0  0  0  0  0  # atno 6909 bound_to 6896
  144.7372  139.8979  143.6407 H   0  0  0  0  0  0  0  0  0  0  0  0  # atno 7974 bound_to 7965
  155.5457  140.0612  157.2860 H   0  0  0  0  0  0  0  0  0  0  0  0  # atno 8008 bound_to 7997
  154.4437  140.1911  156.0680 H   0  0  0  0  0  0  0  0  0  0  0  0  # atno 8009 bound_to 7997
  156.0552  140.3279  155.7401 H   0  0  0  0  0  0  0  0  0  0  0  0  # atno 8010 bound_to 7997
  140.6436  143.7716  150.7465 H   0  0  0  0  0  0  0  0  0  0  0  0  # atno 10167 bound_to 10162
  157.4933  130.8390  149.8229 H   0  0  0  0  0  0  0  0  0  0  0  0  # atno 10718 bound_to 10713
  153.0645  135.6568  154.0386 H   0  0  0  0  0  0  0  0  0  0  0  0  # atno 10763 bound_to 10752
  154.0046  135.2934  155.3400 H   0  0  0  0  0  0  0  0  0  0  0  0  # atno 10764 bound_to 10752
  154.6997  135.5249  153.8577 H   0  0  0  0  0  0  0  0  0  0  0  0  # atno 10765 bound_to 10752
  140.2120  134.8260  157.3131 H   0  0  0  0  0  0  0  0  0  0  0  0  # atno 11005 bound_to 11000
  146.1093  139.4096  143.0298 LP  0  0  0  0  0  0  0  0  0  0  0  0  # atno 17320 bound_to 7965
  145.7466  140.9988  143.1272 LP  0  0  0  0  0  0  0  0  0  0  0  0  # atno 17321 bound_to 7965
  140.1352  143.4490  152.2229 LP  0  0  0  0  0  0  0  0  0  0  0  0  # atno 17342 bound_to 10162
  139.5646  144.7427  151.4060 LP  0  0  0  0  0  0  0  0  0  0  0  0  # atno 17343 bound_to 10162
  156.0186  130.3804  150.2032 LP  0  0  0  0  0  0  0  0  0  0  0  0  # atno 17370 bound_to 10713
  157.0221  130.9982  151.3336 LP  0  0  0  0  0  0  0  0  0  0  0  0  # atno 17371 bound_to 10713
  140.1940  134.4336  155.7699 LP  0  0  0  0  0  0  0  0  0  0  0  0  # atno 17394 bound_to 11000
  141.2226  133.7040  156.8075 LP  0  0  0  0  0  0  0  0  0  0  0  0  # atno 17395 bound_to 11000

$$$$
