AV-unprocessed.smi:2157|AV-procd|sdf|8786|dock7
  -GOLD-   2272011563D 1   1.00000     0.00000
 Structure written by MMmdl.
 41 42  0  0  0  0  0  0  0  0  1 V2000
  147.9317  138.9981  153.5735 C   0  0  0  0  0  0  0  0  0  0  0  0
  147.8806  140.3805  154.2391 C   0  0  1  0  0  0  0  0  0  0  0  0
  146.9267  141.3309  153.4903 C   0  0  0  0  0  0  0  0  0  0  0  0
  146.8716  142.7155  154.1547 C   0  0  0  0  0  0  0  0  0  0  0  0
  146.4792  142.6103  155.6386 C   0  0  0  0  0  0  0  0  0  0  0  0
  147.4020  141.6538  156.4183 C   0  0  2  0  0  0  0  0  0  0  0  0
  148.7281  142.2486  156.5778 N   0  0  0  0  0  0  0  0  0  0  0  0
  149.8187  141.6136  157.0324 C   0  0  0  0  0  0  0  0  0  0  0  0
  149.8208  140.4276  157.3658 O   0  0  0  0  0  0  0  0  0  0  0  0
  151.1039  142.4500  157.0926 C   0  0  0  0  0  0  0  0  0  0  0  0
  151.8343  142.2990  158.3577 N   0  0  0  0  0  0  0  0  0  0  0  0
  151.8122  143.3228  159.2872 C   0  0  0  0  0  0  0  0  0  0  0  0
  152.4682  143.2721  160.4669 C   0  0  0  0  0  0  0  0  0  0  0  0
  153.2534  142.1010  160.8362 C   0  0  0  0  0  0  0  0  0  0  0  0
  153.8856  142.0192  161.8901 O   0  0  0  0  0  0  0  0  0  0  0  0
  153.2460  141.0616  159.8761 N   0  0  0  0  0  0  0  0  0  0  0  0
  154.0220  139.8726  160.1626 C   0  0  0  0  0  0  0  0  0  0  0  0
  152.5744  141.1290  158.6340 C   0  0  0  0  0  0  0  0  0  0  0  0
  152.6283  140.2138  157.8087 O   0  0  0  0  0  0  0  0  0  0  0  0
  147.4796  140.2755  155.7254 C   0  0  0  0  0  0  0  0  0  0  0  0
  146.9545  138.5144  153.5880 H   0  0  0  0  0  0  0  0  0  0  0  0
  148.6360  138.3418  154.0857 H   0  0  0  0  0  0  0  0  0  0  0  0
  148.2501  139.0748  152.5335 H   0  0  0  0  0  0  0  0  0  0  0  0
  148.8854  140.8024  154.1869 H   0  0  0  0  0  0  0  0  0  0  0  0
  147.2443  141.4370  152.4523 H   0  0  0  0  0  0  0  0  0  0  0  0
  145.9241  140.9018  153.4634 H   0  0  0  0  0  0  0  0  0  0  0  0
  147.8419  143.2046  154.0620 H   0  0  0  0  0  0  0  0  0  0  0  0
  146.1581  143.3499  153.6284 H   0  0  0  0  0  0  0  0  0  0  0  0
  146.4832  143.5993  156.0985 H   0  0  0  0  0  0  0  0  0  0  0  0
  145.4522  142.2493  155.7082 H   0  0  0  0  0  0  0  0  0  0  0  0
  146.9733  141.5182  157.4130 H   0  0  0  0  0  0  0  0  0  0  0  0
  148.8212  143.2208  156.3215 H   0  0  0  0  0  0  0  0  0  0  0  0
  151.7406  142.1528  156.2583 H   0  0  0  0  0  0  0  0  0  0  0  0
  150.8674  143.5020  156.9211 H   0  0  0  0  0  0  0  0  0  0  0  0
  151.2472  144.2145  159.0576 H   0  0  0  0  0  0  0  0  0  0  0  0
  152.4140  144.1107  161.1453 H   0  0  0  0  0  0  0  0  0  0  0  0
  153.5605  139.0093  159.6817 H   0  0  0  0  0  0  0  0  0  0  0  0
  154.0287  139.6920  161.2384 H   0  0  0  0  0  0  0  0  0  0  0  0
  155.0281  140.0522  159.7808 H   0  0  0  0  0  0  0  0  0  0  0  0
  146.5050  139.7906  155.7986 H   0  0  0  0  0  0  0  0  0  0  0  0
  148.1759  139.6256  156.2570 H   0  0  0  0  0  0  0  0  0  0  0  0
  1  2  1  0  0  0  0
  1 21  1  0  0  0  0
  1 22  1  0  0  0  0
  1 23  1  0  0  0  0
  2 20  1  0  0  0  0
  2  3  1  0  0  0  0
  2 24  1  0  0  0  0
  3  4  1  0  0  0  0
  3 25  1  0  0  0  0
  3 26  1  0  0  0  0
  4  5  1  0  0  0  0
  4 27  1  0  0  0  0
  4 28  1  0  0  0  0
  5  6  1  0  0  0  0
  5 29  1  0  0  0  0
  5 30  1  0  0  0  0
  6  7  1  0  0  0  0
  6 20  1  0  0  0  0
  6 31  1  0  0  0  0
  7  8  1  0  0  0  0
  7 32  1  0  0  0  0
  8  9  2  0  0  0  0
  8 10  1  0  0  0  0
 10 11  1  0  0  0  0
 10 33  1  0  0  0  0
 10 34  1  0  0  0  0
 11 18  1  0  0  0  0
 11 12  1  0  0  0  0
 12 13  2  0  0  0  0
 12 35  1  0  0  0  0
 13 14  1  0  0  0  0
 13 36  1  0  0  0  0
 14 15  2  0  0  0  0
 14 16  1  0  0  0  0
 16 17  1  0  0  0  0
 16 18  1  0  0  0  0
 17 37  1  0  0  0  0
 17 38  1  0  0  0  0
 17 39  1  0  0  0  0
 18 19  2  0  0  0  0
 20 40  1  0  0  0  0
 20 41  1  0  0  0  0
M  END
> <s_m_source_file>
AV-unprocessed.smi

> <i_m_source_file_index>
2157

> <i_lp_mmshare_version>
43012

> <i_f3d_flags>
0

> <s_epik_input>
W0NIM11bQ0BASF0xW0NIMl1bQ0gyXVtDSDJdW0NASF0oW0NIMl0xKVtOSF1DKD1PKVtDSDJdbjJbY0hdW2NIXWMoPU8pbihbQ0gzXSljMj1P

> <s_epik_cmdline>
J2VwaWtfcHl0aG9uJywgJy1waCcsICc3LjAnLCAnLXRuJywgJzgnLCAnLW1hJywgJzIwMCcsICctbWV0YWxfYmluZGluZycsICctaW1hZScsICc8aW5maWxlLm1hZT4nLCAnLW9tYWUnLCAnPG91dGZpbGUubWFlPic=

> <r_lp_tautomer_probability>
1

> <r_epik_Ionization_Penalty>
3.1838e-08

> <r_epik_Ionization_Penalty_Charging>
1.27911e-08

> <r_epik_Ionization_Penalty_Neutral>
1.90469e-08

> <r_epik_State_Penalty>
-0

> <r_epik_Charging_Adjusted_Penalty>
1.27911e-08

> <i_epik_Tot_Q>
0

> <i_epik_Tot_abs_Q>
0

> <r_epik_Metal_State_Penalty>
-0

> <b_epik_Metal_Only>
0

> <s_lp_Force_Field>
OPLS_2005

> <r_lp_Energy>
16.1054

> <b_lp_Chiralities_Consistent>
1

> <s_lp_Variant>
AV-unprocessed.smi:2157-4

> <Gold.Version>
5.8.1

> <Gold.Id.Protein>
6NUR|6NUR_protein|mol2

> <Gold.PLP.Fitness>
43.0799

> <Gold.PLP.PLP>
-37.9892

> <Gold.PLP.part.hbond>
-2.9556

> <Gold.PLP.part.metal>
0.0000

> <Gold.PLP.part.buried>
-2.1720

> <Gold.PLP.part.nonpolar>
-31.0274

> <Gold.PLP.part.repulsive>
0.0278

> <Gold.PLP.ligand.clash>
0.0000

> <Gold.PLP.ligand.torsion>
0.4592

> <Gold.PLP.Chemscore.Hbond>
2.0000

> <Gold.PLP.Chemscore.CHOScore>
0.0000

> <Gold.PLP.Chemscore.Metal>
0.0000

> <Gold.Chemscore.Hbonds>
donor molecule, donor type, donor heavy atom, donor atom, acceptor molecule, acceptor atom, score
      L1  H     7    32       P1  8028  1.00
      P1  H  7997  8009       L1    19  0.89

> <Gold.PLP.Chemscore.Internal.Correction>
0.0091

> <Gold.Rescore>
     Score         DG    S(hbond)    S(metal)    S(lipo)     H(rot)  DE(clash)    DE(int)     intcor
     13.62     -16.70       1.89        0.00      75.42       1.52       0.17       2.91       ----

> <Gold.Chemscore.Fitness>
13.6211

> <Gold.Chemscore.DG>
-16.7004

> <Gold.Chemscore.ZeroCoef>
-5.4800

> <Gold.Chemscore.Hbond>
1.8857

> <Gold.Chemscore.Metal>
0.0000

> <Gold.Chemscore.Lipo>
75.4204

> <Gold.Chemscore.Internal_Hbond>
0.0000

> <Gold.Chemscore.DEClash>
0.1730

> <Gold.Chemscore.DEInternal>
2.9064

> <Gold.Chemscore.Rot>
1.5242

> <Gold.Chemscore.Internal.Correction>
   9.000000E+99

> <Gold.Chemscore.Hbonds>
donor molecule, donor type, donor heavy atom, donor atom, acceptor molecule, acceptor atom, score
      L1  H     7    32       P1  8028  0.97
      P1  H  7997  8009       L1    19  0.73

> <Gold.Chemscore.Hbond.Weighted>
-6.2981

> <Gold.Chemscore.Metal.Weighted>
-0.0000

> <Gold.Chemscore.Lipo.Weighted>
-8.8242

> <Gold.Chemscore.Internal_Hbond.Weighted>
0.0000

> <Gold.Chemscore.DEClash.Weighted>
0.1730

> <Gold.Chemscore.DEInternal.Weighted>
2.9064

> <Gold.Chemscore.Rot.Weighted>
3.9019

> <Gold.Chemscore.Internal.Correction.Weighted>
   9.000000E+99

> <Gold.Protein.RotatedTorsions>
[ 6907 6896 6895 6894 ] final   51.85 input  -60.11 | X-H torsion
[ 7974 7965 7964 7962 ] final  165.10 input  175.53 | X-H torsion
[ 8008 7997 7996 7995 ] final  171.05 input   59.86 | X-H torsion
[ 10167 10162 10161 10158 ] final  136.70 input  -65.29 | X-H torsion
[ 10718 10713 10712 10709 ] final  -18.79 input   66.30 | X-H torsion
[ 10763 10752 10751 10750 ] final -148.33 input  -60.55 | X-H torsion
[ 11005 11000 10999 10996 ] final  140.27 input  -57.11 | X-H torsion

> <Gold.Protein.ActiveResidues>
 VAL166  LYS551  ARG553  GLY616  TRP617  ASP618  TYR619  PRO620  LYS621  CYS622 
 ASP623  PHE694  ASN695  SER759  ASP760  ASP761  ALA762  ILE779  LEU786  VAL792 
 PHE793  MET794  SER795  GLU796  ALA797  LYS798  CYS799  TRP800  GLU811  SER814 

> <Gold.Protein.RotatedAtoms>
  152.3170  134.7427  160.0322 H   0  0  0  0  0  0  0  0  0  0  0  0  # atno 6907 bound_to 6896
  151.7888  133.3352  159.3501 H   0  0  0  0  0  0  0  0  0  0  0  0  # atno 6908 bound_to 6896
  150.7350  134.5792  159.5974 H   0  0  0  0  0  0  0  0  0  0  0  0  # atno 6909 bound_to 6896
  144.7517  139.8421  143.6364 H   0  0  0  0  0  0  0  0  0  0  0  0  # atno 7974 bound_to 7965
  156.1307  140.1522  156.9069 H   0  0  0  0  0  0  0  0  0  0  0  0  # atno 8008 bound_to 7997
  154.4907  140.0852  156.7628 H   0  0  0  0  0  0  0  0  0  0  0  0  # atno 8009 bound_to 7997
  155.4260  140.3425  155.4278 H   0  0  0  0  0  0  0  0  0  0  0  0  # atno 8010 bound_to 7997
  139.5170  144.6450  151.5464 H   0  0  0  0  0  0  0  0  0  0  0  0  # atno 10167 bound_to 10162
  156.5547  130.4710  149.6435 H   0  0  0  0  0  0  0  0  0  0  0  0  # atno 10718 bound_to 10713
  154.8238  135.3337  154.6957 H   0  0  0  0  0  0  0  0  0  0  0  0  # atno 10763 bound_to 10752
  153.7586  135.6934  153.4935 H   0  0  0  0  0  0  0  0  0  0  0  0  # atno 10764 bound_to 10752
  153.2126  135.4477  155.0347 H   0  0  0  0  0  0  0  0  0  0  0  0  # atno 10765 bound_to 10752
  140.0315  134.9349  157.0671 H   0  0  0  0  0  0  0  0  0  0  0  0  # atno 11005 bound_to 11000
  146.1475  139.4549  143.0070 LP  0  0  0  0  0  0  0  0  0  0  0  0  # atno 17320 bound_to 7965
  145.6922  141.0161  143.1549 LP  0  0  0  0  0  0  0  0  0  0  0  0  # atno 17321 bound_to 7965
  140.6231  143.9219  150.6543 LP  0  0  0  0  0  0  0  0  0  0  0  0  # atno 17342 bound_to 10162
  140.2499  143.3600  152.1414 LP  0  0  0  0  0  0  0  0  0  0  0  0  # atno 17343 bound_to 10162
  156.2853  130.7094  151.1929 LP  0  0  0  0  0  0  0  0  0  0  0  0  # atno 17370 bound_to 10713
  157.7380  131.0545  150.5318 LP  0  0  0  0  0  0  0  0  0  0  0  0  # atno 17371 bound_to 10713
  140.4218  134.1872  155.7165 LP  0  0  0  0  0  0  0  0  0  0  0  0  # atno 17394 bound_to 11000
  141.1833  133.8366  157.1178 LP  0  0  0  0  0  0  0  0  0  0  0  0  # atno 17395 bound_to 11000

$$$$
