AV-unprocessed.smi:888|AV-procd|sdf|4054|dock7
  -GOLD-   22720 1543D 1   1.00000     0.00000
 Structure written by MMmdl.
 45 46  0  0  0  0  0  0  0  0  1 V2000
  148.5849  141.6428  156.3905 C   0  0  0  0  0  0  0  0  0  0  0  0
  149.3396  141.6112  155.0558 C   0  0  0  0  0  0  0  0  0  0  0  0
  149.7247  140.2220  154.6408 C   0  0  0  0  0  0  0  0  0  0  0  0
  150.9996  139.8579  154.4518 N   0  0  0  0  0  0  0  0  0  0  0  0
  150.9624  138.5289  154.0862 N   0  0  0  0  0  0  0  0  0  0  0  0
  149.6687  138.2158  154.1024 C   0  0  0  0  0  0  0  0  0  0  0  0
  148.8414  139.2156  154.4444 N   0  0  0  0  0  0  0  0  0  0  0  0
  147.3928  139.1542  154.5665 C   0  0  0  0  0  0  0  0  0  0  0  0
  146.6955  138.8263  153.2320 C   0  0  0  0  0  0  0  0  0  0  0  0
  146.9136  137.4459  152.7995 N   0  0  0  0  0  0  0  0  0  0  0  0
  146.0171  136.4450  152.7415 C   0  0  0  0  0  0  0  0  0  0  0  0
  144.8466  136.6021  153.0827 O   0  0  0  0  0  0  0  0  0  0  0  0
  146.5113  135.2764  152.3003 N   0  0  0  0  0  0  0  0  0  0  0  0
  145.7594  134.0286  152.1772 C   0  0  2  0  0  0  0  0  0  0  0  0
  146.6381  132.9446  151.5224 C   0  0  0  0  0  0  0  0  0  0  0  0
  145.9592  132.5777  150.2056 C   0  0  0  0  0  0  0  0  0  0  0  0
  144.4836  132.8680  150.4573 C   0  0  0  0  0  0  0  0  0  0  0  0
  144.4632  134.1472  151.3147 C   0  0  0  0  0  0  0  0  0  0  0  0
  143.2054  134.1888  152.2027 C   0  0  0  0  0  0  0  0  0  0  0  0
  144.4496  135.3810  150.3793 C   0  0  0  0  0  0  0  0  0  0  0  0
  148.3458  142.6672  156.6767 H   0  0  0  0  0  0  0  0  0  0  0  0
  149.1759  141.2017  157.1925 H   0  0  0  0  0  0  0  0  0  0  0  0
  147.6480  141.0889  156.3269 H   0  0  0  0  0  0  0  0  0  0  0  0
  148.7143  142.0416  154.2731 H   0  0  0  0  0  0  0  0  0  0  0  0
  150.2177  142.2500  155.1249 H   0  0  0  0  0  0  0  0  0  0  0  0
  149.3134  137.2241  153.8635 H   0  0  0  0  0  0  0  0  0  0  0  0
  147.1585  138.3702  155.2876 H   0  0  0  0  0  0  0  0  0  0  0  0
  147.0144  140.0754  155.0066 H   0  0  0  0  0  0  0  0  0  0  0  0
  145.6211  138.9860  153.3270 H   0  0  0  0  0  0  0  0  0  0  0  0
  147.0308  139.5150  152.4548 H   0  0  0  0  0  0  0  0  0  0  0  0
  147.8611  137.2148  152.5362 H   0  0  0  0  0  0  0  0  0  0  0  0
  147.4858  135.2457  152.0385 H   0  0  0  0  0  0  0  0  0  0  0  0
  145.5090  133.6704  153.1779 H   0  0  0  0  0  0  0  0  0  0  0  0
  147.6710  133.2592  151.3662 H   0  0  0  0  0  0  0  0  0  0  0  0
  146.6684  132.0669  152.1695 H   0  0  0  0  0  0  0  0  0  0  0  0
  146.3329  133.2160  149.4041 H   0  0  0  0  0  0  0  0  0  0  0  0
  146.1392  131.5420  149.9163 H   0  0  0  0  0  0  0  0  0  0  0  0
  143.9147  132.9609  149.5315 H   0  0  0  0  0  0  0  0  0  0  0  0
  144.0537  132.0340  151.0142 H   0  0  0  0  0  0  0  0  0  0  0  0
  142.2966  134.1995  151.6004 H   0  0  0  0  0  0  0  0  0  0  0  0
  143.1956  135.0795  152.8315 H   0  0  0  0  0  0  0  0  0  0  0  0
  143.1511  133.3221  152.8626 H   0  0  0  0  0  0  0  0  0  0  0  0
  143.5796  135.3658  149.7217 H   0  0  0  0  0  0  0  0  0  0  0  0
  145.3354  135.4207  149.7448 H   0  0  0  0  0  0  0  0  0  0  0  0
  144.4033  136.3139  150.9422 H   0  0  0  0  0  0  0  0  0  0  0  0
  1  2  1  0  0  0  0
  1 21  1  0  0  0  0
  1 22  1  0  0  0  0
  1 23  1  0  0  0  0
  2  3  1  0  0  0  0
  2 24  1  0  0  0  0
  2 25  1  0  0  0  0
  3  7  1  0  0  0  0
  3  4  2  0  0  0  0
  4  5  1  0  0  0  0
  5  6  2  0  0  0  0
  6  7  1  0  0  0  0
  6 26  1  0  0  0  0
  7  8  1  0  0  0  0
  8  9  1  0  0  0  0
  8 27  1  0  0  0  0
  8 28  1  0  0  0  0
  9 10  1  0  0  0  0
  9 29  1  0  0  0  0
  9 30  1  0  0  0  0
 10 11  1  0  0  0  0
 10 31  1  0  0  0  0
 11 12  2  0  0  0  0
 11 13  1  0  0  0  0
 13 14  1  0  0  0  0
 13 32  1  0  0  0  0
 14 18  1  0  0  0  0
 14 15  1  0  0  0  0
 14 33  1  0  0  0  0
 15 16  1  0  0  0  0
 15 34  1  0  0  0  0
 15 35  1  0  0  0  0
 16 17  1  0  0  0  0
 16 36  1  0  0  0  0
 16 37  1  0  0  0  0
 17 18  1  0  0  0  0
 17 38  1  0  0  0  0
 17 39  1  0  0  0  0
 18 19  1  0  0  0  0
 18 20  1  0  0  0  0
 19 40  1  0  0  0  0
 19 41  1  0  0  0  0
 19 42  1  0  0  0  0
 20 43  1  0  0  0  0
 20 44  1  0  0  0  0
 20 45  1  0  0  0  0
M  END
> <s_m_source_file>
AV-unprocessed.smi

> <i_m_source_file_index>
888

> <i_lp_mmshare_version>
43012

> <i_f3d_flags>
0

> <s_epik_input>
W0NIM11bQ0gyXWMxbm5bY0hdbjFbQ0gyXVtDSDJdW05IXUMoPU8pW05IXVtDQEBIXShDMihbQ0gzXSlbQ0gzXSlbQ0gyXVtDSDJdW0NIMl0y

> <s_epik_cmdline>
J2VwaWtfcHl0aG9uJywgJy1waCcsICc3LjAnLCAnLXRuJywgJzgnLCAnLW1hJywgJzIwMCcsICctbWV0YWxfYmluZGluZycsICctaW1hZScsICc8aW5maWxlLm1hZT4nLCAnLW9tYWUnLCAnPG91dGZpbGUubWFlPic=

> <r_lp_tautomer_probability>
1

> <r_epik_Ionization_Penalty>
0.000379534

> <r_epik_Ionization_Penalty_Charging>
0

> <r_epik_Ionization_Penalty_Neutral>
0.000379534

> <r_epik_State_Penalty>
-0

> <r_epik_Charging_Adjusted_Penalty>
0

> <i_epik_Tot_Q>
0

> <i_epik_Tot_abs_Q>
0

> <r_epik_Metal_State_Penalty>
-0

> <b_epik_Metal_Only>
0

> <s_lp_Force_Field>
OPLS_2005

> <r_lp_Energy>
31.9266

> <b_lp_Chiralities_Consistent>
1

> <s_lp_Variant>
AV-unprocessed.smi:888-1

> <Gold.Version>
5.8.1

> <Gold.Id.Protein>
6NUR|6NUR_protein|mol2

> <Gold.PLP.Fitness>
43.3987

> <Gold.PLP.PLP>
-31.8185

> <Gold.PLP.part.hbond>
-3.0000

> <Gold.PLP.part.metal>
0.0000

> <Gold.PLP.part.buried>
-1.3015

> <Gold.PLP.part.nonpolar>
-27.5334

> <Gold.PLP.part.repulsive>
0.5066

> <Gold.PLP.ligand.clash>
0.0000

> <Gold.PLP.ligand.torsion>
0.1003

> <Gold.PLP.Chemscore.Hbond>
2.9280

> <Gold.PLP.Chemscore.CHOScore>
0.9967

> <Gold.PLP.Chemscore.Metal>
0.0000

> <Gold.Chemscore.Hbonds>
donor molecule, donor type, donor heavy atom, donor atom, acceptor molecule, acceptor atom, score
      L1  H    10    31       P1  7948  1.00
      L1  H    13    32       P1  7948  0.91
      P1  H  7989  7998       L1     4  0.99
      L1  C     6    26       P1  7948  1.00

> <Gold.PLP.Chemscore.Internal.Correction>
0.0067

> <Gold.Rescore>
     Score         DG    S(hbond)    S(metal)    S(lipo)     H(rot)  DE(clash)    DE(int)     intcor
     16.85     -17.29       2.73        0.00      67.50       2.03       0.33       0.11       ----

> <Gold.Chemscore.Fitness>
16.8465

> <Gold.Chemscore.DG>
-17.2871

> <Gold.Chemscore.ZeroCoef>
-5.4800

> <Gold.Chemscore.Hbond>
2.7259

> <Gold.Chemscore.Metal>
0.0000

> <Gold.Chemscore.Lipo>
67.5020

> <Gold.Chemscore.Internal_Hbond>
0.0000

> <Gold.Chemscore.DEClash>
0.3340

> <Gold.Chemscore.DEInternal>
0.1066

> <Gold.Chemscore.Rot>
2.0293

> <Gold.Chemscore.Internal.Correction>
   9.000000E+99

> <Gold.Chemscore.Hbonds>
donor molecule, donor type, donor heavy atom, donor atom, acceptor molecule, acceptor atom, score
      L1  H    10    31       P1  7948  0.95
      L1  H    13    32       P1  7948  0.87
      P1  H  7989  7998       L1     4  0.58

> <Gold.Chemscore.Hbond.Weighted>
-9.1044

> <Gold.Chemscore.Metal.Weighted>
-0.0000

> <Gold.Chemscore.Lipo.Weighted>
-7.8977

> <Gold.Chemscore.Internal_Hbond.Weighted>
0.0000

> <Gold.Chemscore.DEClash.Weighted>
0.3340

> <Gold.Chemscore.DEInternal.Weighted>
0.1066

> <Gold.Chemscore.Rot.Weighted>
5.1950

> <Gold.Chemscore.Internal.Correction.Weighted>
   9.000000E+99

> <Gold.Protein.RotatedTorsions>
[ 6907 6896 6895 6894 ] final -178.10 input  -60.11 | X-H torsion
[ 7974 7965 7964 7962 ] final -139.38 input  175.53 | X-H torsion
[ 8008 7997 7996 7995 ] final  -91.80 input   59.86 | X-H torsion
[ 10167 10162 10161 10158 ] final   35.36 input  -65.29 | X-H torsion
[ 10718 10713 10712 10709 ] final   54.07 input   66.30 | X-H torsion
[ 10763 10752 10751 10750 ] final    1.20 input  -60.55 | X-H torsion
[ 11005 11000 10999 10996 ] final   63.73 input  -57.11 | X-H torsion

> <Gold.Protein.ActiveResidues>
 VAL166  LYS551  ARG553  GLY616  TRP617  ASP618  TYR619  PRO620  LYS621  CYS622 
 ASP623  PHE694  ASN695  SER759  ASP760  ASP761  ALA762  ILE779  LEU786  VAL792 
 PHE793  MET794  SER795  GLU796  ALA797  LYS798  CYS799  TRP800  GLU811  SER814 

> <Gold.Protein.RotatedAtoms>
  151.6317  133.3331  159.3110 H   0  0  0  0  0  0  0  0  0  0  0  0  # atno 6907 bound_to 6896
  150.8053  134.7177  159.6650 H   0  0  0  0  0  0  0  0  0  0  0  0  # atno 6908 bound_to 6896
  152.4148  134.6066  160.0066 H   0  0  0  0  0  0  0  0  0  0  0  0  # atno 6909 bound_to 6896
  144.8681  140.6325  143.5284 H   0  0  0  0  0  0  0  0  0  0  0  0  # atno 7974 bound_to 7965
  154.7151  140.0515  157.0587 H   0  0  0  0  0  0  0  0  0  0  0  0  # atno 8008 bound_to 7997
  155.0502  140.3178  155.4675 H   0  0  0  0  0  0  0  0  0  0  0  0  # atno 8009 bound_to 7997
  156.2801  140.2117  156.5627 H   0  0  0  0  0  0  0  0  0  0  0  0  # atno 8010 bound_to 7997
  140.4229  144.1434  150.6150 H   0  0  0  0  0  0  0  0  0  0  0  0  # atno 10167 bound_to 10162
  157.5224  130.8574  149.8576 H   0  0  0  0  0  0  0  0  0  0  0  0  # atno 10718 bound_to 10713
  153.3110  135.6963  153.7116 H   0  0  0  0  0  0  0  0  0  0  0  0  # atno 10763 bound_to 10752
  153.5993  135.3465  155.2940 H   0  0  0  0  0  0  0  0  0  0  0  0  # atno 10764 bound_to 10752
  154.8575  135.4336  154.2248 H   0  0  0  0  0  0  0  0  0  0  0  0  # atno 10765 bound_to 10752
  140.0005  134.6450  155.9938 H   0  0  0  0  0  0  0  0  0  0  0  0  # atno 11005 bound_to 11000
  145.4182  139.1568  143.4088 LP  0  0  0  0  0  0  0  0  0  0  0  0  # atno 17320 bound_to 7965
  146.2910  140.4291  142.8739 LP  0  0  0  0  0  0  0  0  0  0  0  0  # atno 17321 bound_to 7965
  140.4513  143.2485  151.9344 LP  0  0  0  0  0  0  0  0  0  0  0  0  # atno 17342 bound_to 10162
  139.4783  144.5559  151.8314 LP  0  0  0  0  0  0  0  0  0  0  0  0  # atno 17343 bound_to 10162
  156.0363  130.3750  150.1552 LP  0  0  0  0  0  0  0  0  0  0  0  0  # atno 17370 bound_to 10713
  156.9740  130.9843  151.3452 LP  0  0  0  0  0  0  0  0  0  0  0  0  # atno 17371 bound_to 10713
  141.1638  133.6537  156.4409 LP  0  0  0  0  0  0  0  0  0  0  0  0  # atno 17394 bound_to 11000
  140.4737  134.6729  157.5140 LP  0  0  0  0  0  0  0  0  0  0  0  0  # atno 17395 bound_to 11000

$$$$
