AV-unprocessed.smi:2594|AV-procd|sdf|10166|dock7
  -GOLD-   2272014183D 1   1.00000     0.00000
 Structure written by MMmdl.
 29 30  0  0  0  0  0  0  0  0  1 V2000
  150.2210  141.3628  158.3107 O   0  0  0  0  0  0  0  0  0  0  0  0
  150.8063  142.0460  157.4689 C   0  0  0  0  0  0  0  0  0  0  0  0
  150.6966  141.7140  155.9749 C   0  0  0  0  0  0  0  0  0  0  0  0
  151.2117  140.3837  155.6478 N   0  0  0  0  0  0  0  0  0  0  0  0
  150.7300  139.7616  154.5380 N   0  0  0  0  0  0  0  0  0  0  0  0
  151.2540  138.6022  154.3858 C   0  0  0  0  0  0  0  0  0  0  0  0
  152.4360  138.1132  155.6071 S   0  0  0  0  0  0  0  0  0  0  0  0
  152.1591  139.6902  156.3962 C   0  0  0  0  0  0  0  0  0  0  0  0
  152.7344  140.0459  157.4234 O   0  0  0  0  0  0  0  0  0  0  0  0
  151.5521  143.1160  157.7827 N   0  0  0  0  0  0  0  0  0  0  0  0
  151.8077  143.5878  159.1387 C   0  0  0  0  0  0  0  0  0  0  0  0
  152.3126  142.4517  160.0440 C   0  0  2  0  0  0  0  0  0  0  0  0
  152.8176  142.9256  161.4041 C   0  0  0  0  0  0  0  0  0  0  0  0
  153.7222  141.7817  161.8025 C   0  0  0  0  0  0  0  0  0  0  0  0
  154.3559  141.3953  160.4677 C   0  0  0  0  0  0  0  0  0  0  0  0
  153.4361  141.8013  159.4565 O   0  0  0  0  0  0  0  0  0  0  0  0
  149.6504  141.7977  155.6769 H   0  0  0  0  0  0  0  0  0  0  0  0
  151.2435  142.4579  155.3931 H   0  0  0  0  0  0  0  0  0  0  0  0
  151.0391  137.8998  153.5807 H   0  0  0  0  0  0  0  0  0  0  0  0
  151.9956  143.6246  157.0317 H   0  0  0  0  0  0  0  0  0  0  0  0
  152.5465  144.3882  159.0932 H   0  0  0  0  0  0  0  0  0  0  0  0
  150.8996  144.0275  159.5543 H   0  0  0  0  0  0  0  0  0  0  0  0
  151.5313  141.7056  160.1991 H   0  0  0  0  0  0  0  0  0  0  0  0
  153.3977  143.8441  161.3028 H   0  0  0  0  0  0  0  0  0  0  0  0
  152.0129  143.1038  162.1179 H   0  0  0  0  0  0  0  0  0  0  0  0
  154.4561  142.0572  162.5603 H   0  0  0  0  0  0  0  0  0  0  0  0
  153.1262  140.9533  162.1884 H   0  0  0  0  0  0  0  0  0  0  0  0
  155.2931  141.9322  160.3172 H   0  0  0  0  0  0  0  0  0  0  0  0
  154.5645  140.3272  160.4067 H   0  0  0  0  0  0  0  0  0  0  0  0
  1  2  2  0  0  0  0
  2  3  1  0  0  0  0
  2 10  1  0  0  0  0
  3  4  1  0  0  0  0
  3 17  1  0  0  0  0
  3 18  1  0  0  0  0
  4  8  1  0  0  0  0
  4  5  1  0  0  0  0
  5  6  2  0  0  0  0
  6  7  1  0  0  0  0
  6 19  1  0  0  0  0
  7  8  1  0  0  0  0
  8  9  2  0  0  0  0
 10 11  1  0  0  0  0
 10 20  1  0  0  0  0
 11 12  1  0  0  0  0
 11 21  1  0  0  0  0
 11 22  1  0  0  0  0
 12 16  1  0  0  0  0
 12 13  1  0  0  0  0
 12 23  1  0  0  0  0
 13 14  1  0  0  0  0
 13 24  1  0  0  0  0
 13 25  1  0  0  0  0
 14 15  1  0  0  0  0
 14 26  1  0  0  0  0
 14 27  1  0  0  0  0
 15 16  1  0  0  0  0
 15 28  1  0  0  0  0
 15 29  1  0  0  0  0
M  END
> <s_m_source_file>
AV-unprocessed.smi

> <i_m_source_file_index>
2594

> <i_lp_mmshare_version>
43012

> <i_f3d_flags>
0

> <s_epik_input>
TzFbQ0gyXVtDSDJdW0NIMl1bQ0BIXTFbQ0gyXVtOSF1DKD1PKVtDSDJdbjJuW2NIXXNjMj1P

> <s_epik_cmdline>
J2VwaWtfcHl0aG9uJywgJy1waCcsICc3LjAnLCAnLXRuJywgJzgnLCAnLW1hJywgJzIwMCcsICctbWV0YWxfYmluZGluZycsICctaW1hZScsICc8aW5maWxlLm1hZT4nLCAnLW9tYWUnLCAnPG91dGZpbGUubWFlPic=

> <r_lp_tautomer_probability>
1

> <r_epik_Ionization_Penalty>
2.49222e-07

> <r_epik_Ionization_Penalty_Charging>
1.4085e-08

> <r_epik_Ionization_Penalty_Neutral>
2.35137e-07

> <r_epik_State_Penalty>
-0

> <r_epik_Charging_Adjusted_Penalty>
1.4085e-08

> <i_epik_Tot_Q>
0

> <i_epik_Tot_abs_Q>
0

> <r_epik_Metal_State_Penalty>
-0

> <b_epik_Metal_Only>
0

> <s_lp_Force_Field>
OPLS_2005

> <r_lp_Energy>
18.2258

> <b_lp_Chiralities_Consistent>
1

> <s_lp_Variant>
AV-unprocessed.smi:2594-1

> <Gold.Version>
5.8.1

> <Gold.Id.Protein>
6NUR|6NUR_protein|mol2

> <Gold.PLP.Fitness>
41.5470

> <Gold.PLP.PLP>
-36.8025

> <Gold.PLP.part.hbond>
-2.0000

> <Gold.PLP.part.metal>
0.0000

> <Gold.PLP.part.buried>
-3.2251

> <Gold.PLP.part.nonpolar>
-30.1951

> <Gold.PLP.part.repulsive>
0.1442

> <Gold.PLP.ligand.clash>
0.0000

> <Gold.PLP.ligand.torsion>
0.4236

> <Gold.PLP.Chemscore.Hbond>
1.6000

> <Gold.PLP.Chemscore.CHOScore>
0.2618

> <Gold.PLP.Chemscore.Metal>
0.0000

> <Gold.Chemscore.Hbonds>
donor molecule, donor type, donor heavy atom, donor atom, acceptor molecule, acceptor atom, score
      P1  H  7989  7998       L1     5  0.55
      P1  H  7997  8009       L1     9  1.00
      L1  C     6    19       P1  7949  0.24

> <Gold.PLP.Chemscore.Internal.Correction>
0.0063

> <Gold.Rescore>
     Score         DG    S(hbond)    S(metal)    S(lipo)     H(rot)  DE(clash)    DE(int)     intcor
      7.97     -12.59       0.91        0.00      78.32       2.00       0.44       4.17       ----

> <Gold.Chemscore.Fitness>
7.9742

> <Gold.Chemscore.DG>
-12.5851

> <Gold.Chemscore.ZeroCoef>
-5.4800

> <Gold.Chemscore.Hbond>
0.9131

> <Gold.Chemscore.Metal>
0.0000

> <Gold.Chemscore.Lipo>
78.3157

> <Gold.Chemscore.Internal_Hbond>
0.0000

> <Gold.Chemscore.DEClash>
0.4370

> <Gold.Chemscore.DEInternal>
4.1739

> <Gold.Chemscore.Rot>
1.9952

> <Gold.Chemscore.Internal.Correction>
   9.000000E+99

> <Gold.Chemscore.Hbonds>
donor molecule, donor type, donor heavy atom, donor atom, acceptor molecule, acceptor atom, score
      P1  H  7989  7998       L1     5  0.02
      P1  H  7997  8009       L1     9  0.25

> <Gold.Chemscore.Hbond.Weighted>
-3.0499

> <Gold.Chemscore.Metal.Weighted>
-0.0000

> <Gold.Chemscore.Lipo.Weighted>
-9.1629

> <Gold.Chemscore.Internal_Hbond.Weighted>
0.0000

> <Gold.Chemscore.DEClash.Weighted>
0.4370

> <Gold.Chemscore.DEInternal.Weighted>
4.1739

> <Gold.Chemscore.Rot.Weighted>
5.1077

> <Gold.Chemscore.Internal.Correction.Weighted>
   9.000000E+99

> <Gold.Protein.RotatedTorsions>
[ 6907 6896 6895 6894 ] final -169.40 input  -60.11 | X-H torsion
[ 7974 7965 7964 7962 ] final  154.42 input  175.53 | X-H torsion
[ 8008 7997 7996 7995 ] final  167.55 input   59.86 | X-H torsion
[ 10167 10162 10161 10158 ] final  -14.10 input  -65.29 | X-H torsion
[ 10718 10713 10712 10709 ] final  -20.40 input   66.30 | X-H torsion
[ 10763 10752 10751 10750 ] final   63.82 input  -60.55 | X-H torsion
[ 11005 11000 10999 10996 ] final -146.68 input  -57.11 | X-H torsion

> <Gold.Protein.ActiveResidues>
 VAL166  LYS551  ARG553  GLY616  TRP617  ASP618  TYR619  PRO620  LYS621  CYS622 
 ASP623  PHE694  ASN695  SER759  ASP760  ASP761  ALA762  ILE779  LEU786  VAL792 
 PHE793  MET794  SER795  GLU796  ALA797  LYS798  CYS799  TRP800  GLU811  SER814 

> <Gold.Protein.RotatedAtoms>
  151.4910  133.3525  159.2853 H   0  0  0  0  0  0  0  0  0  0  0  0  # atno 6907 bound_to 6896
  150.8835  134.8231  159.7253 H   0  0  0  0  0  0  0  0  0  0  0  0  # atno 6908 bound_to 6896
  152.4778  134.4810  159.9717 H   0  0  0  0  0  0  0  0  0  0  0  0  # atno 6909 bound_to 6896
  144.8090  139.6931  143.6149 H   0  0  0  0  0  0  0  0  0  0  0  0  # atno 7974 bound_to 7965
  156.1624  140.1614  156.8589 H   0  0  0  0  0  0  0  0  0  0  0  0  # atno 8008 bound_to 7997
  154.5174  140.0786  156.8143 H   0  0  0  0  0  0  0  0  0  0  0  0  # atno 8009 bound_to 7997
  155.3680  140.3399  155.4244 H   0  0  0  0  0  0  0  0  0  0  0  0  # atno 8010 bound_to 7997
  140.7195  143.5356  150.9468 H   0  0  0  0  0  0  0  0  0  0  0  0  # atno 10167 bound_to 10162
  156.5324  130.4658  149.6540 H   0  0  0  0  0  0  0  0  0  0  0  0  # atno 10718 bound_to 10713
  153.0032  135.5415  154.6413 H   0  0  0  0  0  0  0  0  0  0  0  0  # atno 10763 bound_to 10752
  154.5667  135.2838  155.0869 H   0  0  0  0  0  0  0  0  0  0  0  0  # atno 10764 bound_to 10752
  154.2051  135.6477  153.5151 H   0  0  0  0  0  0  0  0  0  0  0  0  # atno 10765 bound_to 10752
  140.7795  134.3096  157.5050 H   0  0  0  0  0  0  0  0  0  0  0  0  # atno 11005 bound_to 11000
  146.2386  139.5955  142.9507 LP  0  0  0  0  0  0  0  0  0  0  0  0  # atno 17320 bound_to 7965
  145.5369  141.0423  143.2352 LP  0  0  0  0  0  0  0  0  0  0  0  0  # atno 17321 bound_to 7965
  139.9078  143.6757  152.3120 LP  0  0  0  0  0  0  0  0  0  0  0  0  # atno 17342 bound_to 10162
  139.7129  144.7617  151.1081 LP  0  0  0  0  0  0  0  0  0  0  0  0  # atno 17343 bound_to 10162
  156.3047  130.7196  151.2076 LP  0  0  0  0  0  0  0  0  0  0  0  0  # atno 17370 bound_to 10713
  157.7419  131.0497  150.5061 LP  0  0  0  0  0  0  0  0  0  0  0  0  # atno 17371 bound_to 10713
  139.8744  134.9309  156.3516 LP  0  0  0  0  0  0  0  0  0  0  0  0  # atno 17394 bound_to 11000
  140.9496  133.7459  156.0255 LP  0  0  0  0  0  0  0  0  0  0  0  0  # atno 17395 bound_to 11000

$$$$
