AV-unprocessed.smi:1280|AV-procd|sdf|5357|dock4
  -GOLD-   22720 4493D 1   1.00000     0.00000
 Structure written by MMmdl.
 45 46  0  0  0  0  0  0  0  0  1 V2000
  143.4475  132.8900  148.6406 C   0  0  0  0  0  0  0  0  0  0  0  0
  144.6589  132.5928  149.9901 S   0  0  0  0  0  0  0  0  0  0  0  0
  143.9512  131.9821  151.1257 O   0  0  0  0  0  0  0  0  0  0  0  0
  145.8537  131.9454  149.4277 O   0  0  0  0  0  0  0  0  0  0  0  0
  145.1052  134.1932  150.4489 N   0  0  0  0  0  0  0  0  0  0  0  0
  146.0802  134.3469  151.5262 C   0  0  0  0  0  0  0  0  0  0  0  0
  145.7115  135.5438  152.4114 C   0  0  0  0  0  0  0  0  0  0  0  0
  146.8282  135.8980  153.4057 C   0  0  0  0  0  0  0  0  0  0  0  0
  147.0024  137.3398  153.5236 N   0  0  0  0  0  0  0  0  0  0  0  0
  147.9048  137.9485  154.3103 C   0  0  0  0  0  0  0  0  0  0  0  0
  148.7297  137.3405  154.9924 O   0  0  0  0  0  0  0  0  0  0  0  0
  147.9099  139.4544  154.2657 C   0  0  0  0  0  0  0  0  0  0  0  0
  146.8119  140.1127  153.6674 C   0  0  0  0  0  0  0  0  0  0  0  0
  146.7842  141.5173  153.6186 C   0  0  0  0  0  0  0  0  0  0  0  0
  147.8678  142.2222  154.1688 C   0  0  0  0  0  0  0  0  0  0  0  0
  148.9341  141.6148  154.7266 N   0  0  0  0  0  0  0  0  0  0  0  0
  148.9759  140.2599  154.7720 C   0  0  0  0  0  0  0  0  0  0  0  0
  150.1488  139.6901  155.3076 N   0  0  0  0  0  0  0  0  0  0  0  0
  150.9181  138.9031  154.3516 C   0  0  0  0  0  0  0  0  0  0  0  0
  151.9901  138.0863  155.0931 C   0  0  0  0  0  0  0  0  0  0  0  0
  152.8062  138.9588  155.8704 O   0  0  0  0  0  0  0  0  0  0  0  0
  152.0536  139.6698  156.8499 C   0  0  0  0  0  0  0  0  0  0  0  0
  150.9864  140.5324  156.1547 C   0  0  0  0  0  0  0  0  0  0  0  0
  143.0867  131.9339  148.2620 H   0  0  0  0  0  0  0  0  0  0  0  0
  143.9270  133.4412  147.8323 H   0  0  0  0  0  0  0  0  0  0  0  0
  142.6067  133.4662  149.0263 H   0  0  0  0  0  0  0  0  0  0  0  0
  145.3827  134.7373  149.6322 H   0  0  0  0  0  0  0  0  0  0  0  0
  146.1113  133.4295  152.1151 H   0  0  0  0  0  0  0  0  0  0  0  0
  147.0704  134.4895  151.0919 H   0  0  0  0  0  0  0  0  0  0  0  0
  145.4962  136.4067  151.7794 H   0  0  0  0  0  0  0  0  0  0  0  0
  144.7939  135.3240  152.9589 H   0  0  0  0  0  0  0  0  0  0  0  0
  146.5844  135.5071  154.3939 H   0  0  0  0  0  0  0  0  0  0  0  0
  147.7686  135.4294  153.1106 H   0  0  0  0  0  0  0  0  0  0  0  0
  146.3798  137.9212  152.9813 H   0  0  0  0  0  0  0  0  0  0  0  0
  145.9862  139.5494  153.2567 H   0  0  0  0  0  0  0  0  0  0  0  0
  145.9510  142.0408  153.1738 H   0  0  0  0  0  0  0  0  0  0  0  0
  147.8830  143.3021  154.1545 H   0  0  0  0  0  0  0  0  0  0  0  0
  150.2685  138.2360  153.7847 H   0  0  0  0  0  0  0  0  0  0  0  0
  151.3894  139.5753  153.6332 H   0  0  0  0  0  0  0  0  0  0  0  0
  151.5285  137.3346  155.7358 H   0  0  0  0  0  0  0  0  0  0  0  0
  152.6179  137.5533  154.3789 H   0  0  0  0  0  0  0  0  0  0  0  0
  151.5928  138.9689  157.5480 H   0  0  0  0  0  0  0  0  0  0  0  0
  152.7285  140.3004  157.4288 H   0  0  0  0  0  0  0  0  0  0  0  0
  151.4699  141.3003  155.5489 H   0  0  0  0  0  0  0  0  0  0  0  0
  150.3716  141.0411  156.8983 H   0  0  0  0  0  0  0  0  0  0  0  0
  1  2  1  0  0  0  0
  1 24  1  0  0  0  0
  1 25  1  0  0  0  0
  1 26  1  0  0  0  0
  2  3  2  0  0  0  0
  2  4  2  0  0  0  0
  2  5  1  0  0  0  0
  5  6  1  0  0  0  0
  5 27  1  0  0  0  0
  6  7  1  0  0  0  0
  6 28  1  0  0  0  0
  6 29  1  0  0  0  0
  7  8  1  0  0  0  0
  7 30  1  0  0  0  0
  7 31  1  0  0  0  0
  8  9  1  0  0  0  0
  8 32  1  0  0  0  0
  8 33  1  0  0  0  0
  9 10  1  0  0  0  0
  9 34  1  0  0  0  0
 10 11  2  0  0  0  0
 10 12  1  0  0  0  0
 12 17  1  0  0  0  0
 12 13  2  0  0  0  0
 13 14  1  0  0  0  0
 13 35  1  0  0  0  0
 14 15  2  0  0  0  0
 14 36  1  0  0  0  0
 15 16  1  0  0  0  0
 15 37  1  0  0  0  0
 16 17  2  0  0  0  0
 17 18  1  0  0  0  0
 18 23  1  0  0  0  0
 18 19  1  0  0  0  0
 19 20  1  0  0  0  0
 19 38  1  0  0  0  0
 19 39  1  0  0  0  0
 20 21  1  0  0  0  0
 20 40  1  0  0  0  0
 20 41  1  0  0  0  0
 21 22  1  0  0  0  0
 22 23  1  0  0  0  0
 22 42  1  0  0  0  0
 22 43  1  0  0  0  0
 23 44  1  0  0  0  0
 23 45  1  0  0  0  0
M  END
> <s_m_source_file>
AV-unprocessed.smi

> <i_m_source_file_index>
1280

> <i_lp_mmshare_version>
43012

> <i_f3d_flags>
0

> <s_epik_input>
W0NIM11TKD1PKSg9TylbTkhdW0NIMl1bQ0gyXVtDSDJdW05IXUMoPU8pYzFbY0hdW2NIXVtjSF1uYzFOMltDSDJdW0NIMl1PW0NIMl1bQ0gyXTI=

> <s_epik_cmdline>
J2VwaWtfcHl0aG9uJywgJy1waCcsICc3LjAnLCAnLXRuJywgJzgnLCAnLW1hJywgJzIwMCcsICctbWV0YWxfYmluZGluZycsICctaW1hZScsICc8aW5maWxlLm1hZT4nLCAnLW9tYWUnLCAnPG91dGZpbGUubWFlPic=

> <r_lp_tautomer_probability>
1

> <r_epik_Ionization_Penalty>
2.29251e-05

> <r_epik_Ionization_Penalty_Charging>
0

> <r_epik_Ionization_Penalty_Neutral>
2.29251e-05

> <r_epik_State_Penalty>
-0

> <r_epik_Charging_Adjusted_Penalty>
0

> <i_epik_Tot_Q>
0

> <i_epik_Tot_abs_Q>
0

> <r_epik_Metal_State_Penalty>
0.00766126

> <b_epik_Metal_Only>
0

> <s_lp_Force_Field>
OPLS_2005

> <r_lp_Energy>
17.2463

> <b_lp_Chiralities_Consistent>
1

> <s_lp_Variant>
AV-unprocessed.smi:1280-1

> <Gold.Version>
5.8.1

> <Gold.Id.Protein>
6NUR|6NUR_protein|mol2

> <Gold.PLP.Fitness>
40.0248

> <Gold.PLP.PLP>
-32.6444

> <Gold.PLP.part.hbond>
-3.0000

> <Gold.PLP.part.metal>
0.0000

> <Gold.PLP.part.buried>
0.5324

> <Gold.PLP.part.nonpolar>
-29.3901

> <Gold.PLP.part.repulsive>
1.1146

> <Gold.PLP.ligand.clash>
0.0000

> <Gold.PLP.ligand.torsion>
0.9652

> <Gold.PLP.Chemscore.Hbond>
1.9760

> <Gold.PLP.Chemscore.CHOScore>
0.9772

> <Gold.PLP.Chemscore.Metal>
0.0000

> <Gold.Chemscore.Hbonds>
donor molecule, donor type, donor heavy atom, donor atom, acceptor molecule, acceptor atom, score
      L1  H     5    27       P1  7921  0.74
      P1  H  7997  8009       L1    21  0.79
      L1  C    15    37       P1  8028  0.99

> <Gold.PLP.Chemscore.Internal.Correction>
0.4515

> <Gold.Rescore>
     Score         DG    S(hbond)    S(metal)    S(lipo)     H(rot)  DE(clash)    DE(int)     intcor
      7.70     -13.45       1.65        0.00      77.62       2.58       1.80       3.96       ----

> <Gold.Chemscore.Fitness>
7.7001

> <Gold.Chemscore.DG>
-13.4535

> <Gold.Chemscore.ZeroCoef>
-5.4800

> <Gold.Chemscore.Hbond>
1.6482

> <Gold.Chemscore.Metal>
0.0000

> <Gold.Chemscore.Lipo>
77.6243

> <Gold.Chemscore.Internal_Hbond>
0.0000

> <Gold.Chemscore.DEClash>
1.7952

> <Gold.Chemscore.DEInternal>
3.9582

> <Gold.Chemscore.Rot>
2.5835

> <Gold.Chemscore.Internal.Correction>
   9.000000E+99

> <Gold.Chemscore.Hbonds>
donor molecule, donor type, donor heavy atom, donor atom, acceptor molecule, acceptor atom, score
      L1  H     5    27       P1  7921  0.68
      P1  H  7997  8009       L1    21  0.10

> <Gold.Chemscore.Hbond.Weighted>
-5.5051

> <Gold.Chemscore.Metal.Weighted>
-0.0000

> <Gold.Chemscore.Lipo.Weighted>
-9.0820

> <Gold.Chemscore.Internal_Hbond.Weighted>
0.0000

> <Gold.Chemscore.DEClash.Weighted>
1.7952

> <Gold.Chemscore.DEInternal.Weighted>
3.9582

> <Gold.Chemscore.Rot.Weighted>
6.6137

> <Gold.Chemscore.Internal.Correction.Weighted>
   9.000000E+99

> <Gold.Protein.RotatedTorsions>
[ 6907 6896 6895 6894 ] final  109.31 input  -60.11 | X-H torsion
[ 7974 7965 7964 7962 ] final -115.31 input  175.53 | X-H torsion
[ 8008 7997 7996 7995 ] final -137.84 input   59.86 | X-H torsion
[ 10167 10162 10161 10158 ] final    4.11 input  -65.29 | X-H torsion
[ 10718 10713 10712 10709 ] final   -0.76 input   66.30 | X-H torsion
[ 10763 10752 10751 10750 ] final -121.44 input  -60.55 | X-H torsion
[ 11005 11000 10999 10996 ] final  136.70 input  -57.11 | X-H torsion

> <Gold.Protein.ActiveResidues>
 VAL166  LYS551  ARG553  GLY616  TRP617  ASP618  TYR619  PRO620  LYS621  CYS622 
 ASP623  PHE694  ASN695  SER759  ASP760  ASP761  ALA762  ILE779  LEU786  VAL792 
 PHE793  MET794  SER795  GLU796  ALA797  LYS798  CYS799  TRP800  GLU811  SER814 

> <Gold.Protein.RotatedAtoms>
  152.5073  133.8962  159.7418 H   0  0  0  0  0  0  0  0  0  0  0  0  # atno 6907 bound_to 6896
  150.9389  133.6671  159.2801 H   0  0  0  0  0  0  0  0  0  0  0  0  # atno 6908 bound_to 6896
  151.3989  135.0973  159.9602 H   0  0  0  0  0  0  0  0  0  0  0  0  # atno 6909 bound_to 6896
  145.1099  140.8605  143.3876 H   0  0  0  0  0  0  0  0  0  0  0  0  # atno 7974 bound_to 7965
  155.4184  140.0517  157.3027 H   0  0  0  0  0  0  0  0  0  0  0  0  # atno 8008 bound_to 7997
  154.4914  140.2121  155.9500 H   0  0  0  0  0  0  0  0  0  0  0  0  # atno 8009 bound_to 7997
  156.1347  140.3165  155.8407 H   0  0  0  0  0  0  0  0  0  0  0  0  # atno 8010 bound_to 7997
  140.6551  143.7447  150.7640 H   0  0  0  0  0  0  0  0  0  0  0  0  # atno 10167 bound_to 10162
  156.8157  130.5439  149.5703 H   0  0  0  0  0  0  0  0  0  0  0  0  # atno 10718 bound_to 10713
  154.8668  135.4168  154.2621 H   0  0  0  0  0  0  0  0  0  0  0  0  # atno 10763 bound_to 10752
  153.3547  135.7000  153.6766 H   0  0  0  0  0  0  0  0  0  0  0  0  # atno 10764 bound_to 10752
  153.5691  135.3595  155.2803 H   0  0  0  0  0  0  0  0  0  0  0  0  # atno 10765 bound_to 10752
  140.0064  134.9457  157.0183 H   0  0  0  0  0  0  0  0  0  0  0  0  # atno 11005 bound_to 11000
  145.0859  139.2925  143.5760 LP  0  0  0  0  0  0  0  0  0  0  0  0  # atno 17320 bound_to 7965
  146.3526  140.0380  142.8645 LP  0  0  0  0  0  0  0  0  0  0  0  0  # atno 17321 bound_to 7965
  140.1105  143.4704  152.2373 LP  0  0  0  0  0  0  0  0  0  0  0  0  # atno 17342 bound_to 10162
  139.5773  144.7493  151.3733 LP  0  0  0  0  0  0  0  0  0  0  0  0  # atno 17343 bound_to 10162
  156.1018  130.5975  150.9907 LP  0  0  0  0  0  0  0  0  0  0  0  0  # atno 17370 bound_to 10713
  157.6483  131.0901  150.8106 LP  0  0  0  0  0  0  0  0  0  0  0  0  # atno 17371 bound_to 10713
  140.4634  134.1460  155.7194 LP  0  0  0  0  0  0  0  0  0  0  0  0  # atno 17394 bound_to 11000
  141.1679  133.8666  157.1658 LP  0  0  0  0  0  0  0  0  0  0  0  0  # atno 17395 bound_to 11000

$$$$
