AV-unprocessed.smi:2044|AV-procd|sdf|8302|dock2
  -GOLD-   2272010563D 1   1.00000     0.00000
 Structure written by MMmdl.
 38 39  0  0  0  0  0  0  0  0  2 V2000
  145.8538  133.7179  162.2901 C   0  0  0  0  0  0  0  0  0  0  0  0
  146.7819  134.5781  161.5026 C   0  0  0  0  0  0  0  0  0  0  0  0
  147.3355  135.8043  161.7388 C   0  0  0  0  0  0  0  0  0  0  0  0
  148.1149  136.0385  160.5732 C   0  0  0  0  0  0  0  0  0  0  0  0
  148.8689  137.1223  160.3341 N   0  5  0  0  0  0  0  0  0  0  0  0
  149.6736  137.1659  159.2472 C   0  0  0  0  0  0  0  0  0  0  0  0
  149.8463  136.2608  158.4276 O   0  0  0  0  0  0  0  0  0  0  0  0
  150.3173  138.3306  159.0983 N   0  0  0  0  0  0  0  0  0  0  0  0
  151.2384  138.6520  158.0130 C   0  0  0  0  0  0  0  0  0  0  0  0
  152.4436  139.4883  158.5115 C   0  0  2  0  0  0  0  0  0  0  0  0
  153.2119  138.6492  159.5573 C   0  0  0  0  0  0  0  0  0  0  0  0
  152.0823  140.8404  158.9916 N   0  0  0  0  0  0  0  0  0  0  0  0
  151.5292  141.6868  157.9302 C   0  0  0  0  0  0  0  0  0  0  0  0
  151.1674  143.0969  158.4273 C   0  0  0  0  0  0  0  0  0  0  0  0
  152.3133  143.7115  159.0020 O   0  0  0  0  0  0  0  0  0  0  0  0
  152.8420  142.9552  160.0836 C   0  0  0  0  0  0  0  0  0  0  0  0
  153.2163  141.5452  159.5954 C   0  0  0  0  0  0  0  0  0  0  0  0
  148.0543  135.0350  159.7137 N   0  0  0  0  0  0  0  0  0  0  0  0
  147.1951  134.0973  160.2990 O   0  0  0  0  0  0  0  0  0  0  0  0
  146.1654  133.6679  163.3334 H   0  0  0  0  0  0  0  0  0  0  0  0
  145.8310  132.7016  161.8962 H   0  0  0  0  0  0  0  0  0  0  0  0
  144.8398  134.1164  162.2579 H   0  0  0  0  0  0  0  0  0  0  0  0
  147.2022  136.4363  162.6040 H   0  0  0  0  0  0  0  0  0  0  0  0
  150.1499  139.0510  159.7854 H   0  0  0  0  0  0  0  0  0  0  0  0
  151.5900  137.7202  157.5675 H   0  0  0  0  0  0  0  0  0  0  0  0
  150.7065  139.1682  157.2135 H   0  0  0  0  0  0  0  0  0  0  0  0
  153.1105  139.6038  157.6557 H   0  0  0  0  0  0  0  0  0  0  0  0
  153.3627  137.6268  159.2098 H   0  0  0  0  0  0  0  0  0  0  0  0
  152.6720  138.5978  160.5033 H   0  0  0  0  0  0  0  0  0  0  0  0
  154.2048  139.0507  159.7569 H   0  0  0  0  0  0  0  0  0  0  0  0
  152.2431  141.7639  157.1088 H   0  0  0  0  0  0  0  0  0  0  0  0
  150.6223  141.2439  157.5209 H   0  0  0  0  0  0  0  0  0  0  0  0
  150.8124  143.7100  157.5990 H   0  0  0  0  0  0  0  0  0  0  0  0
  150.3613  143.0521  159.1614 H   0  0  0  0  0  0  0  0  0  0  0  0
  153.7211  143.4649  160.4784 H   0  0  0  0  0  0  0  0  0  0  0  0
  152.1119  142.9026  160.8928 H   0  0  0  0  0  0  0  0  0  0  0  0
  153.5980  140.9926  160.4526 H   0  0  0  0  0  0  0  0  0  0  0  0
  154.0335  141.6164  158.8760 H   0  0  0  0  0  0  0  0  0  0  0  0
  1  2  1  0  0  0  0
  1 20  1  0  0  0  0
  1 21  1  0  0  0  0
  1 22  1  0  0  0  0
  2 19  1  0  0  0  0
  2  3  2  0  0  0  0
  3  4  1  0  0  0  0
  3 23  1  0  0  0  0
  4  5  1  0  0  0  0
  4 18  2  0  0  0  0
  5  6  1  0  0  0  0
  6  7  2  0  0  0  0
  6  8  1  0  0  0  0
  8  9  1  0  0  0  0
  8 24  1  0  0  0  0
  9 10  1  0  0  0  0
  9 25  1  0  0  0  0
  9 26  1  0  0  0  0
 10 11  1  0  0  0  0
 10 12  1  0  0  0  0
 10 27  1  0  0  0  0
 11 28  1  0  0  0  0
 11 29  1  0  0  0  0
 11 30  1  0  0  0  0
 12 17  1  0  0  0  0
 12 13  1  0  0  0  0
 13 14  1  0  0  0  0
 13 31  1  0  0  0  0
 13 32  1  0  0  0  0
 14 15  1  0  0  0  0
 14 33  1  0  0  0  0
 14 34  1  0  0  0  0
 15 16  1  0  0  0  0
 16 17  1  0  0  0  0
 16 35  1  0  0  0  0
 16 36  1  0  0  0  0
 17 37  1  0  0  0  0
 17 38  1  0  0  0  0
 18 19  1  0  0  0  0
M  CHG  1   5  -1
M  END
> <s_m_source_file>
AV-unprocessed.smi

> <i_m_source_file_index>
2044

> <i_lp_mmshare_version>
43012

> <i_f3d_flags>
0

> <s_epik_input>
W0NIM11jMVtjSF1jKG5vMSlbTkhdQyg9TylbTkhdW0NIMl1bQ0BIXShbQ0gzXSlOMltDSDJdW0NIMl1PW0NIMl1bQ0gyXTI=

> <s_epik_cmdline>
J2VwaWtfcHl0aG9uJywgJy1waCcsICc3LjAnLCAnLXRuJywgJzgnLCAnLW1hJywgJzIwMCcsICctbWV0YWxfYmluZGluZycsICctaW1hZScsICc8aW5maWxlLm1hZT4nLCAnLW9tYWUnLCAnPG91dGZpbGUubWFlPic=

> <r_epik_Ionization_Penalty>
6.88367

> <r_epik_Ionization_Penalty_Charging>
6.57198

> <r_epik_Ionization_Penalty_Neutral>
0.311681

> <r_epik_State_Penalty>
6.77619

> <r_epik_Charging_Adjusted_Penalty>
13.3482

> <i_epik_Tot_Q>
-1

> <i_epik_Tot_abs_Q>
1

> <r_epik_Metal_State_Penalty>
2.70533

> <b_epik_Metal_Only>
1

> <s_lp_Force_Field>
OPLS_2005

> <r_lp_Energy>
25.764

> <b_lp_Chiralities_Consistent>
1

> <s_lp_Variant>
AV-unprocessed.smi:2044-5

> <Gold.Version>
5.8.1

> <Gold.Id.Protein>
6NUR|6NUR_protein|mol2

> <Gold.PLP.Fitness>
38.9544

> <Gold.PLP.PLP>
-32.9188

> <Gold.PLP.part.hbond>
-2.4028

> <Gold.PLP.part.metal>
0.0000

> <Gold.PLP.part.buried>
-6.0839

> <Gold.PLP.part.nonpolar>
-25.6476

> <Gold.PLP.part.repulsive>
0.3051

> <Gold.PLP.ligand.clash>
0.0000

> <Gold.PLP.ligand.torsion>
0.2360

> <Gold.PLP.Chemscore.Hbond>
2.1520

> <Gold.PLP.Chemscore.CHOScore>
0.0000

> <Gold.PLP.Chemscore.Metal>
0.0000

> <Gold.Chemscore.Hbonds>
donor molecule, donor type, donor heavy atom, donor atom, acceptor molecule, acceptor atom, score
      P1  H  6896  6908       L1     7  0.73
      P1  H  6931  6943       L1     5  1.25

> <Gold.PLP.Chemscore.Internal.Correction>
0.0517

> <Gold.Rescore>
     Score         DG    S(hbond)    S(metal)    S(lipo)     H(rot)  DE(clash)    DE(int)     intcor
     13.17     -15.41       1.42        0.00      78.08       1.55       0.19       2.06       ----

> <Gold.Chemscore.Fitness>
13.1684

> <Gold.Chemscore.DG>
-15.4125

> <Gold.Chemscore.ZeroCoef>
-5.4800

> <Gold.Chemscore.Hbond>
1.4245

> <Gold.Chemscore.Metal>
0.0000

> <Gold.Chemscore.Lipo>
78.0757

> <Gold.Chemscore.Internal_Hbond>
0.0000

> <Gold.Chemscore.DEClash>
0.1889

> <Gold.Chemscore.DEInternal>
2.0552

> <Gold.Chemscore.Rot>
1.5470

> <Gold.Chemscore.Internal.Correction>
   9.000000E+99

> <Gold.Chemscore.Hbonds>
donor molecule, donor type, donor heavy atom, donor atom, acceptor molecule, acceptor atom, score
      P1  H  6896  6908       L1     7  0.28
      P1  H  6931  6943       L1     5  0.52

> <Gold.Chemscore.Hbond.Weighted>
-4.7579

> <Gold.Chemscore.Metal.Weighted>
-0.0000

> <Gold.Chemscore.Lipo.Weighted>
-9.1349

> <Gold.Chemscore.Internal_Hbond.Weighted>
0.0000

> <Gold.Chemscore.DEClash.Weighted>
0.1889

> <Gold.Chemscore.DEInternal.Weighted>
2.0552

> <Gold.Chemscore.Rot.Weighted>
3.9603

> <Gold.Chemscore.Internal.Correction.Weighted>
   9.000000E+99

> <Gold.Protein.RotatedTorsions>
[ 6907 6896 6895 6894 ] final  178.46 input  -60.11 | X-H torsion
[ 7974 7965 7964 7962 ] final -152.03 input  175.53 | X-H torsion
[ 8008 7997 7996 7995 ] final -122.23 input   59.86 | X-H torsion
[ 10167 10162 10161 10158 ] final   34.67 input  -65.29 | X-H torsion
[ 10718 10713 10712 10709 ] final   10.38 input   66.30 | X-H torsion
[ 10763 10752 10751 10750 ] final  -60.66 input  -60.55 | X-H torsion
[ 11005 11000 10999 10996 ] final -153.98 input  -57.11 | X-H torsion

> <Gold.Protein.ActiveResidues>
 VAL166  LYS551  ARG553  GLY616  TRP617  ASP618  TYR619  PRO620  LYS621  CYS622 
 ASP623  PHE694  ASN695  SER759  ASP760  ASP761  ALA762  ILE779  LEU786  VAL792 
 PHE793  MET794  SER795  GLU796  ALA797  LYS798  CYS799  TRP800  GLU811  SER814 

> <Gold.Protein.RotatedAtoms>
  151.6874  133.3311  159.3234 H   0  0  0  0  0  0  0  0  0  0  0  0  # atno 6907 bound_to 6896
  150.7794  134.6728  159.6410 H   0  0  0  0  0  0  0  0  0  0  0  0  # atno 6908 bound_to 6896
  152.3847  134.6539  160.0182 H   0  0  0  0  0  0  0  0  0  0  0  0  # atno 6909 bound_to 6896
  144.7817  140.4718  143.5835 H   0  0  0  0  0  0  0  0  0  0  0  0  # atno 7974 bound_to 7965
  155.1609  140.0406  157.2842 H   0  0  0  0  0  0  0  0  0  0  0  0  # atno 8008 bound_to 7997
  154.6337  140.2530  155.7377 H   0  0  0  0  0  0  0  0  0  0  0  0  # atno 8009 bound_to 7997
  156.2497  140.2870  156.0700 H   0  0  0  0  0  0  0  0  0  0  0  0  # atno 8010 bound_to 7997
  140.4293  144.1347  150.6157 H   0  0  0  0  0  0  0  0  0  0  0  0  # atno 10167 bound_to 10162
  156.9801  130.6002  149.5676 H   0  0  0  0  0  0  0  0  0  0  0  0  # atno 10718 bound_to 10713
  154.2726  135.6287  153.5316 H   0  0  0  0  0  0  0  0  0  0  0  0  # atno 10763 bound_to 10752
  152.9878  135.5614  154.5583 H   0  0  0  0  0  0  0  0  0  0  0  0  # atno 10764 bound_to 10752
  154.5157  135.2879  155.1281 H   0  0  0  0  0  0  0  0  0  0  0  0  # atno 10765 bound_to 10752
  140.7023  134.3924  157.5208 H   0  0  0  0  0  0  0  0  0  0  0  0  # atno 11005 bound_to 11000
  145.6033  139.1506  143.3117 LP  0  0  0  0  0  0  0  0  0  0  0  0  # atno 17320 bound_to 7965
  146.2028  140.6153  142.9094 LP  0  0  0  0  0  0  0  0  0  0  0  0  # atno 17321 bound_to 7965
  140.4445  143.2512  151.9429 LP  0  0  0  0  0  0  0  0  0  0  0  0  # atno 17342 bound_to 10162
  139.4784  144.5622  151.8221 LP  0  0  0  0  0  0  0  0  0  0  0  0  # atno 17343 bound_to 10162
  156.0248  130.5342  150.8376 LP  0  0  0  0  0  0  0  0  0  0  0  0  # atno 17370 bound_to 10713
  157.5532  131.0944  150.9665 LP  0  0  0  0  0  0  0  0  0  0  0  0  # atno 17371 bound_to 10713
  139.8893  134.8832  156.2426 LP  0  0  0  0  0  0  0  0  0  0  0  0  # atno 17394 bound_to 11000
  141.0154  133.7072  156.1179 LP  0  0  0  0  0  0  0  0  0  0  0  0  # atno 17395 bound_to 11000

$$$$
