#       Name:                AV-unprocessed.smi:2857
#       Creating user name   scv26
#       Creation time:       Fri Mar 27 15:45:21 2020


#       File generated by GOLD software.
#

@<TRIPOS>MOLECULE
AV-unprocessed.smi:2857
    52    54     1
SMALL
NO_CHARGES


@<TRIPOS>ATOM
      1 ****        -4.0841   0.1450   1.0217 C.3            1 S1                 0.0000
      2 ****        -3.1861   1.3266   0.7177 C.ar           1 S1                 0.0000
      3 ****        -3.7411   2.5905   0.4393 C.ar           1 S1                 0.0000
      4 ****        -2.8983   3.6808   0.1584 C.ar           1 S1                 0.0000
      5 ****        -1.4977   3.5150   0.1523 C.ar           1 S1                 0.0000
      6 ****        -0.6036   4.7025  -0.1512 C.3            1 S1                 0.0000
      7 ****        -0.9269   2.2508   0.4275 C.ar           1 S1                 0.0000
      8 ****         0.4499   2.1560   0.4013 O.3            1 S1                 0.0000
      9 ****         1.0433   0.8945   0.6741 C.3            1 S1                 0.0000
     10 ****         2.5722   1.0098   0.5346 C.3            1 S1                 0.0000
     11 ****         3.0784   1.6535   1.6863 O.3            1 S1                 0.0000
     12 ****         3.2928  -0.3501   0.4212 C.3            1 S1                 0.0000
     13 ****         2.8726  -1.1222  -0.7388 N.pl3          1 S1                 0.0000
     14 ****         3.4276  -0.8615  -1.9504 N.2            1 S1                 0.0000
     15 ****         2.8505  -1.7053  -2.8035 C.2            1 S1                 0.0000
     16 ****         1.8952  -2.5408  -2.1625 C.2            1 S1                 0.0000
     17 ****         0.9920  -3.6019  -2.5970 C.2            1 S1                 0.0000
     18 ****         0.2262  -4.1572  -1.7105 N.2            1 S1                 0.0000
     19 ****         0.2559  -3.7563  -0.3699 N.am           1 S1                 0.0000
     20 ****        -0.6718  -4.4715   0.5035 C.3            1 S1                 0.0000
     21 ****         1.0641  -2.7782   0.1385 C.2            1 S1                 0.0000
     22 ****         1.0689  -2.4338   1.3204 O.2            1 S1                 0.0000
     23 ****         1.9469  -2.1398  -0.8683 C.2            1 S1                 0.0000
     24 ****        -1.7871   1.1585   0.7110 C.ar           1 S1                 0.0000
     25 ****        -5.1247   0.4527   1.1288 H              1 S1                 0.0000
     26 ****        -3.7760  -0.3369   1.9501 H              1 S1                 0.0000
     27 ****        -4.0253  -0.5889   0.2175 H              1 S1                 0.0000
     28 ****        -4.8123   2.7295   0.4397 H              1 S1                 0.0000
     29 ****        -3.3330   4.6467  -0.0529 H              1 S1                 0.0000
     30 ****         0.0381   4.4859  -1.0057 H              1 S1                 0.0000
     31 ****         0.0311   4.9253   0.7068 H              1 S1                 0.0000
     32 ****        -1.1868   5.5940  -0.3836 H              1 S1                 0.0000
     33 ****         0.7709   0.5279   1.6656 H              1 S1                 0.0000
     34 ****         0.6596   0.1893  -0.0622 H              1 S1                 0.0000
     35 ****         2.8156   1.6137  -0.3407 H              1 S1                 0.0000
     36 ****         2.8459   1.1396   2.4444 H              1 S1                 0.0000
     37 ****         4.3704  -0.1928   0.3505 H              1 S1                 0.0000
     38 ****         3.1373  -0.9451   1.3206 H              1 S1                 0.0000
     39 ****         3.1382  -1.6796  -3.8442 H              1 S1                 0.0000
     40 ****         0.9661  -3.9140  -3.6409 H              1 S1                 0.0000
     41 ****        -0.1257  -5.0343   1.2618 H              1 S1                 0.0000
     42 ****        -1.2924  -5.1777  -0.0503 H              1 S1                 0.0000
     43 ****        -1.3412  -3.7747   1.0102 H              1 S1                 0.0000
     44 ****        -1.3961   0.1756   0.9268 H              1 S1                 0.0000
     45 ****         0.8041   2.8022   1.0773 LP             1 S1                 0.0000
     46 ****         0.7484   2.4322  -0.5122 LP             1 S1                 0.0000
     47 ****         2.6807   2.5677   1.7639 LP             1 S1                 0.0000
     48 ****         4.0736   1.7273   1.6214 LP             1 S1                 0.0000
     49 ****         4.1259  -0.1768  -2.1589 LP             1 S1                 0.0000
     50 ****        -0.3982  -4.8866  -1.9901 LP             1 S1                 0.0000
     51 ****         0.4553  -2.8781   1.9732 LP             1 S1                 0.0000
     52 ****         1.6864  -1.7098   1.6278 LP             1 S1                 0.0000
@<TRIPOS>BOND
    1    1    2 1     
    2    1   25 1     
    3    1   26 1     
    4    1   27 1     
    5    2   24 ar    
    6    2    3 ar    
    7    3    4 ar    
    8    3   28 1     
    9    4    5 ar    
   10    4   29 1     
   11    5    6 1     
   12    5    7 ar    
   13    6   30 1     
   14    6   31 1     
   15    6   32 1     
   16    7    8 1     
   17    7   24 ar    
   18    8    9 1     
   19    9   10 1     
   20    9   33 1     
   21    9   34 1     
   22   10   11 1     
   23   10   12 1     
   24   10   35 1     
   25   11   36 1     
   26   12   13 1     
   27   12   37 1     
   28   12   38 1     
   29   13   23 1     
   30   13   14 1     
   31   14   15 2     
   32   15   16 1     
   33   15   39 1     
   34   16   23 2     
   35   16   17 1     
   36   17   18 2     
   37   17   40 1     
   38   18   19 1     
   39   19   20 1     
   40   19   21 am    
   41   20   41 1     
   42   20   42 1     
   43   20   43 1     
   44   21   22 2     
   45   21   23 1     
   46   24   44 1     
   47    8   45 1     
   48    8   46 1     
   49   11   47 1     
   50   11   48 1     
   51   14   49 1     
   52   18   50 1     
   53   22   51 1     
   54   22   52 1     
@<TRIPOS>SUBSTRUCTURE
      1 S1             1
@<TRIPOS>SET
LONE_PAIRS      STATIC     ATOMS    <user>   **** ""
8 45 46 47 48 49 50 51 52
DONOR_HYDROGENS      STATIC     ATOMS    <user>   **** ""
1 36
ATOM$BLUE        STATIC     ATOMS    COLORGROUP SYSTEM
8 45 46 47 48 49 50 51 52
ATOM$RED        STATIC     ATOMS    COLORGROUP SYSTEM
1 36
