AV-unprocessed.smi:1199|AV-procd|sdf|5021|dock6
  -GOLD-   22720 4 43D 1   1.00000     0.00000
 Structure written by MMmdl.
 42 43  0  0  0  0  0  0  0  0  2 V2000
  150.3486  134.1959  155.9659 C   0  0  0  0  0  0  0  0  0  0  0  0
  149.6954  134.4881  154.6087 C   0  0  1  0  0  0  0  0  0  0  0  0
  148.1916  134.1275  154.6095 C   0  0  0  0  0  0  0  0  0  0  0  0
  147.5582  134.2893  153.2754 N   0  3  0  0  0  0  0  0  0  0  0  0
  147.3696  133.0124  152.5469 C   0  0  0  0  0  0  0  0  0  0  0  0
  146.8125  133.2881  151.1410 C   0  0  0  0  0  0  0  0  0  0  0  0
  145.5844  133.9979  151.2511 O   0  0  0  0  0  0  0  0  0  0  0  0
  145.7501  135.2585  151.8891 C   0  0  0  0  0  0  0  0  0  0  0  0
  146.2918  135.0563  153.3149 C   0  0  0  0  0  0  0  0  0  0  0  0
  149.8820  135.8993  154.2729 N   0  0  0  0  0  0  0  0  0  0  0  0
  149.8447  136.9244  155.1395 C   0  0  0  0  0  0  0  0  0  0  0  0
  149.5513  136.8032  156.3282 O   0  0  0  0  0  0  0  0  0  0  0  0
  150.2511  138.2913  154.5848 C   0  0  0  0  0  0  0  0  0  0  0  0
  150.3737  139.2793  155.6660 N   0  0  0  0  0  0  0  0  0  0  0  0
  149.2231  139.4251  156.4264 N   0  0  0  0  0  0  0  0  0  0  0  0
  149.1941  140.2715  157.3996 C   0  0  0  0  0  0  0  0  0  0  0  0
  148.0325  140.3845  158.1229 O   0  0  0  0  0  0  0  0  0  0  0  0
  150.3485  141.0809  157.7212 C   0  0  0  0  0  0  0  0  0  0  0  0
  151.4619  140.9396  156.9694 C   0  0  0  0  0  0  0  0  0  0  0  0
  151.5235  139.9994  155.8489 C   0  0  0  0  0  0  0  0  0  0  0  0
  152.5132  139.8762  155.1285 O   0  0  0  0  0  0  0  0  0  0  0  0
  148.1252  139.7840  158.8466 H   0  0  0  0  0  0  0  0  0  0  0  0
  150.2420  133.1441  156.2329 H   0  0  0  0  0  0  0  0  0  0  0  0
  149.8969  134.7883  156.7624 H   0  0  0  0  0  0  0  0  0  0  0  0
  151.4149  134.4233  155.9454 H   0  0  0  0  0  0  0  0  0  0  0  0
  150.2052  133.8665  153.8713 H   0  0  0  0  0  0  0  0  0  0  0  0
  148.0339  133.1128  154.9779 H   0  0  0  0  0  0  0  0  0  0  0  0
  147.6883  134.7888  155.3168 H   0  0  0  0  0  0  0  0  0  0  0  0
  148.3146  132.4764  152.4649 H   0  0  0  0  0  0  0  0  0  0  0  0
  146.6853  132.3685  153.1013 H   0  0  0  0  0  0  0  0  0  0  0  0
  147.5268  133.8574  150.5433 H   0  0  0  0  0  0  0  0  0  0  0  0
  146.6331  132.3495  150.6167 H   0  0  0  0  0  0  0  0  0  0  0  0
  146.4239  135.8851  151.3045 H   0  0  0  0  0  0  0  0  0  0  0  0
  144.7877  135.7695  151.9202 H   0  0  0  0  0  0  0  0  0  0  0  0
  145.5600  134.5256  153.9259 H   0  0  0  0  0  0  0  0  0  0  0  0
  146.4600  136.0276  153.7812 H   0  0  0  0  0  0  0  0  0  0  0  0
  150.1216  136.1075  153.3139 H   0  0  0  0  0  0  0  0  0  0  0  0
  151.1937  138.1972  154.0418 H   0  0  0  0  0  0  0  0  0  0  0  0
  149.5180  138.6167  153.8443 H   0  0  0  0  0  0  0  0  0  0  0  0
  150.3130  141.7791  158.5446 H   0  0  0  0  0  0  0  0  0  0  0  0
  152.3314  141.5385  157.1979 H   0  0  0  0  0  0  0  0  0  0  0  0
  148.2018  134.8427  152.7276 H   0  0  0  0  0  0  0  0  0  0  0  0
  1  2  1  0  0  0  0
  1 23  1  0  0  0  0
  1 24  1  0  0  0  0
  1 25  1  0  0  0  0
  2  3  1  0  0  0  0
  2 10  1  0  0  0  0
  2 26  1  0  0  0  0
  3  4  1  0  0  0  0
  3 27  1  0  0  0  0
  3 28  1  0  0  0  0
  4  9  1  0  0  0  0
  4  5  1  0  0  0  0
  4 42  1  0  0  0  0
  5  6  1  0  0  0  0
  5 29  1  0  0  0  0
  5 30  1  0  0  0  0
  6  7  1  0  0  0  0
  6 31  1  0  0  0  0
  6 32  1  0  0  0  0
  7  8  1  0  0  0  0
  8  9  1  0  0  0  0
  8 33  1  0  0  0  0
  8 34  1  0  0  0  0
  9 35  1  0  0  0  0
  9 36  1  0  0  0  0
 10 11  1  0  0  0  0
 10 37  1  0  0  0  0
 11 12  2  0  0  0  0
 11 13  1  0  0  0  0
 13 38  1  0  0  0  0
 13 39  1  0  0  0  0
 13 14  1  0  0  0  0
 14 15  1  0  0  0  0
 14 20  1  0  0  0  0
 15 16  2  0  0  0  0
 16 17  1  0  0  0  0
 16 18  1  0  0  0  0
 17 22  1  0  0  0  0
 18 40  1  0  0  0  0
 18 19  2  0  0  0  0
 19 41  1  0  0  0  0
 19 20  1  0  0  0  0
 20 21  2  0  0  0  0
M  CHG  1   4   1
M  END
> <s_m_source_file>
AV-unprocessed.smi

> <i_m_source_file_index>
1199

> <i_lp_mmshare_version>
43012

> <i_f3d_flags>
0

> <s_epik_input>
W0NIMl0xW0NIMl1PW0NIMl1bQ0gyXU4xW0NIMl1bQ0BASF0oW0NIM10pW05IXUMoPU8pW0NIMl1uMltuSF1jKD1PKVtjSF1bY0hdYzI9Tw==

> <s_epik_cmdline>
J2VwaWtfcHl0aG9uJywgJy1waCcsICc3LjAnLCAnLXRuJywgJzgnLCAnLW1hJywgJzIwMCcsICctbWV0YWxfYmluZGluZycsICctaW1hZScsICc8aW5maWxlLm1hZT4nLCAnLW9tYWUnLCAnPG91dGZpbGUubWFlPic=

> <r_lp_tautomer_probability>
0.9996

> <r_epik_Ionization_Penalty>
2.86815

> <r_epik_Ionization_Penalty_Charging>
0.656653

> <r_epik_Ionization_Penalty_Neutral>
2.21149

> <r_epik_State_Penalty>
2.43136

> <r_epik_Charging_Adjusted_Penalty>
3.08801

> <i_epik_Tot_Q>
1

> <i_epik_Tot_abs_Q>
1

> <r_epik_Metal_State_Penalty>
2.43136

> <b_epik_Metal_Only>
0

> <s_lp_Force_Field>
OPLS_2005

> <r_lp_Energy>
31.569

> <b_lp_Chiralities_Consistent>
1

> <s_lp_Variant>
AV-unprocessed.smi:1199-8

> <Gold.Version>
5.8.1

> <Gold.Id.Protein>
6NUR|6NUR_protein|mol2

> <Gold.PLP.Fitness>
37.3395

> <Gold.PLP.PLP>
-28.8794

> <Gold.PLP.part.hbond>
-5.6539

> <Gold.PLP.part.metal>
0.0000

> <Gold.PLP.part.buried>
-2.7884

> <Gold.PLP.part.nonpolar>
-21.9836

> <Gold.PLP.part.repulsive>
0.2149

> <Gold.PLP.ligand.clash>
0.0000

> <Gold.PLP.ligand.torsion>
1.0621

> <Gold.PLP.Chemscore.Hbond>
3.4947

> <Gold.PLP.Chemscore.CHOScore>
0.0000

> <Gold.PLP.Chemscore.Metal>
0.0000

> <Gold.Chemscore.Hbonds>
donor molecule, donor type, donor heavy atom, donor atom, acceptor molecule, acceptor atom, score
      L1  H     4    42       P1  7948  2.00
      L1  H    10    37       P1  7948  0.17
      P1  H  7989  7998       L1    21  0.40
      P1  H  7997  8010       L1    21  0.83

> <Gold.PLP.Chemscore.Internal.Correction>
0.1002

> <Gold.Rescore>
     Score         DG    S(hbond)    S(metal)    S(lipo)     H(rot)  DE(clash)    DE(int)     intcor
      6.89     -11.01       2.47        0.00      43.20       3.03       0.07       4.05       ----

> <Gold.Chemscore.Fitness>
6.8862

> <Gold.Chemscore.DG>
-11.0124

> <Gold.Chemscore.ZeroCoef>
-5.4800

> <Gold.Chemscore.Hbond>
2.4684

> <Gold.Chemscore.Metal>
0.0000

> <Gold.Chemscore.Lipo>
43.1961

> <Gold.Chemscore.Internal_Hbond>
0.0000

> <Gold.Chemscore.DEClash>
0.0750

> <Gold.Chemscore.DEInternal>
4.0512

> <Gold.Chemscore.Rot>
3.0336

> <Gold.Chemscore.Internal.Correction>
   9.000000E+99

> <Gold.Chemscore.Hbonds>
donor molecule, donor type, donor heavy atom, donor atom, acceptor molecule, acceptor atom, score
      L1  H     4    42       P1  7948  0.70
      P1  H  7989  7998       L1    21  0.05
      P1  H  7997  8010       L1    21  0.79

> <Gold.Chemscore.Hbond.Weighted>
-8.2445

> <Gold.Chemscore.Metal.Weighted>
-0.0000

> <Gold.Chemscore.Lipo.Weighted>
-5.0539

> <Gold.Chemscore.Internal_Hbond.Weighted>
0.0000

> <Gold.Chemscore.DEClash.Weighted>
0.0750

> <Gold.Chemscore.DEInternal.Weighted>
4.0512

> <Gold.Chemscore.Rot.Weighted>
7.7661

> <Gold.Chemscore.Internal.Correction.Weighted>
   9.000000E+99

> <Gold.Protein.RotatedTorsions>
[ 6907 6896 6895 6894 ] final -101.02 input  -60.11 | X-H torsion
[ 7974 7965 7964 7962 ] final -130.89 input  175.53 | X-H torsion
[ 8008 7997 7996 7995 ] final   98.13 input   59.86 | X-H torsion
[ 10167 10162 10161 10158 ] final  -33.78 input  -65.29 | X-H torsion
[ 10718 10713 10712 10709 ] final  -43.21 input   66.30 | X-H torsion
[ 10763 10752 10751 10750 ] final   -6.19 input  -60.55 | X-H torsion
[ 11005 11000 10999 10996 ] final  120.62 input  -57.11 | X-H torsion

> <Gold.Protein.ActiveResidues>
 VAL166  LYS551  ARG553  GLY616  TRP617  ASP618  TYR619  PRO620  LYS621  CYS622 
 ASP623  PHE694  ASN695  SER759  ASP760  ASP761  ALA762  ILE779  LEU786  VAL792 
 PHE793  MET794  SER795  GLU796  ALA797  LYS798  CYS799  TRP800  GLU811  SER814 

> <Gold.Protein.RotatedAtoms>
  150.7138  134.0798  159.3893 H   0  0  0  0  0  0  0  0  0  0  0  0  # atno 6907 bound_to 6896
  151.8782  135.0461  160.0495 H   0  0  0  0  0  0  0  0  0  0  0  0  # atno 6908 bound_to 6896
  152.2589  133.5244  159.5406 H   0  0  0  0  0  0  0  0  0  0  0  0  # atno 6909 bound_to 6896
  144.9431  140.7261  143.4834 H   0  0  0  0  0  0  0  0  0  0  0  0  # atno 7974 bound_to 7965
  156.0973  140.3248  155.7894 H   0  0  0  0  0  0  0  0  0  0  0  0  # atno 8008 bound_to 7997
  155.4897  140.0560  157.2972 H   0  0  0  0  0  0  0  0  0  0  0  0  # atno 8009 bound_to 7997
  154.4674  140.1995  156.0097 H   0  0  0  0  0  0  0  0  0  0  0  0  # atno 8010 bound_to 7997
  140.7198  143.3595  151.1991 H   0  0  0  0  0  0  0  0  0  0  0  0  # atno 10167 bound_to 10162
  156.2514  130.4188  149.8646 H   0  0  0  0  0  0  0  0  0  0  0  0  # atno 10718 bound_to 10713
  153.4090  135.7007  153.6372 H   0  0  0  0  0  0  0  0  0  0  0  0  # atno 10763 bound_to 10752
  153.4874  135.3680  155.2474 H   0  0  0  0  0  0  0  0  0  0  0  0  # atno 10764 bound_to 10752
  154.8716  135.4081  154.3438 H   0  0  0  0  0  0  0  0  0  0  0  0  # atno 10765 bound_to 10752
  139.9193  134.9635  156.7835 H   0  0  0  0  0  0  0  0  0  0  0  0  # atno 11005 bound_to 11000
  145.2960  139.1867  143.4715 LP  0  0  0  0  0  0  0  0  0  0  0  0  # atno 17320 bound_to 7965
  146.3293  140.2944  142.8617 LP  0  0  0  0  0  0  0  0  0  0  0  0  # atno 17321 bound_to 7965
  139.7144  143.9324  152.2961 LP  0  0  0  0  0  0  0  0  0  0  0  0  # atno 17342 bound_to 10162
  139.9060  144.6884  150.8614 LP  0  0  0  0  0  0  0  0  0  0  0  0  # atno 17343 bound_to 10162
  156.6193  130.8619  151.3472 LP  0  0  0  0  0  0  0  0  0  0  0  0  # atno 17370 bound_to 10713
  157.7216  130.9566  150.1460 LP  0  0  0  0  0  0  0  0  0  0  0  0  # atno 17371 bound_to 10713
  140.6525  133.9718  155.7762 LP  0  0  0  0  0  0  0  0  0  0  0  0  # atno 17394 bound_to 11000
  141.0698  134.0222  157.3542 LP  0  0  0  0  0  0  0  0  0  0  0  0  # atno 17395 bound_to 11000

$$$$
