AV-unprocessed.smi:2351|AV-procd|sdf|9375|dock6
  -GOLD-   2272013 03D 1   1.00000     0.00000
 Structure written by MMmdl.
 47 49  0  0  0  0  0  0  0  0  2 V2000
  150.7430  140.5397  156.5332 O   0  0  0  0  0  0  0  0  0  0  0  0
  150.2662  141.6657  156.3938 C   0  0  0  0  0  0  0  0  0  0  0  0
  150.5245  142.7269  157.1772 N   0  0  0  0  0  0  0  0  0  0  0  0
  151.3899  142.8175  158.3021 C   0  0  0  0  0  0  0  0  0  0  0  0
  152.0205  141.7076  158.9152 C   0  0  0  0  0  0  0  0  0  0  0  0
  152.8450  141.9344  160.0358 C   0  0  0  0  0  0  0  0  0  0  0  0
  153.0623  143.1570  160.5652 N   0  0  0  0  0  0  0  0  0  0  0  0
  152.4489  144.2107  159.9864 C   0  0  0  0  0  0  0  0  0  0  0  0
  151.6048  144.0940  158.8637 C   0  0  0  0  0  0  0  0  0  0  0  0
  151.0162  145.1935  158.3338 F   0  0  0  0  0  0  0  0  0  0  0  0
  149.4189  141.9882  155.4056 N   0  0  0  0  0  0  0  0  0  0  0  0
  148.9663  141.0773  154.3581 C   0  0  2  0  0  0  0  0  0  0  0  0
  147.6977  141.6325  153.6927 C   0  0  0  0  0  0  0  0  0  0  0  0
  147.1548  140.6580  152.6339 C   0  0  0  0  0  0  0  0  0  0  0  0
  146.8903  139.3180  153.2200 N   0  3  1  0  0  0  0  0  0  0  0  0
  146.2368  138.3902  152.2599 C   0  0  0  0  0  0  0  0  0  0  0  0
  145.3935  137.3152  152.9718 C   0  0  1  0  0  0  0  0  0  0  0  0
  144.7072  136.3600  152.0152 C   0  0  0  0  0  0  0  0  0  0  0  0
  144.3524  135.1906  152.9278 C   0  0  0  0  0  0  0  0  0  0  0  0
  145.3676  135.1588  153.9261 O   0  0  0  0  0  0  0  0  0  0  0  0
  146.1764  136.3271  153.8386 C   0  0  0  0  0  0  0  0  0  0  0  0
  148.1135  138.7457  153.8425 C   0  0  0  0  0  0  0  0  0  0  0  0
  148.6747  139.6781  154.9290 C   0  0  0  0  0  0  0  0  0  0  0  0
  150.1055  143.5999  156.8921 H   0  0  0  0  0  0  0  0  0  0  0  0
  151.8835  140.6972  158.5629 H   0  0  0  0  0  0  0  0  0  0  0  0
  153.3393  141.1078  160.5242 H   0  0  0  0  0  0  0  0  0  0  0  0
  152.6347  145.1766  160.4323 H   0  0  0  0  0  0  0  0  0  0  0  0
  149.0770  142.9373  155.3649 H   0  0  0  0  0  0  0  0  0  0  0  0
  149.7434  140.9960  153.5952 H   0  0  0  0  0  0  0  0  0  0  0  0
  146.9297  141.8126  154.4468 H   0  0  0  0  0  0  0  0  0  0  0  0
  147.9093  142.5972  153.2298 H   0  0  0  0  0  0  0  0  0  0  0  0
  146.2331  141.0665  152.2172 H   0  0  0  0  0  0  0  0  0  0  0  0
  147.8631  140.5633  151.8094 H   0  0  0  0  0  0  0  0  0  0  0  0
  145.5624  138.9560  151.6149 H   0  0  0  0  0  0  0  0  0  0  0  0
  146.9722  137.9406  151.5906 H   0  0  0  0  0  0  0  0  0  0  0  0
  144.6262  137.7956  153.5817 H   0  0  0  0  0  0  0  0  0  0  0  0
  143.8344  136.7940  151.5263 H   0  0  0  0  0  0  0  0  0  0  0  0
  145.4024  136.0303  151.2415 H   0  0  0  0  0  0  0  0  0  0  0  0
  143.3925  135.3649  153.4153 H   0  0  0  0  0  0  0  0  0  0  0  0
  144.2921  134.2450  152.3885 H   0  0  0  0  0  0  0  0  0  0  0  0
  147.1194  136.0550  153.3622 H   0  0  0  0  0  0  0  0  0  0  0  0
  146.3976  136.7236  154.8296 H   0  0  0  0  0  0  0  0  0  0  0  0
  147.8943  137.7749  154.2846 H   0  0  0  0  0  0  0  0  0  0  0  0
  148.8683  138.5756  153.0731 H   0  0  0  0  0  0  0  0  0  0  0  0
  149.5837  139.2443  155.3480 H   0  0  0  0  0  0  0  0  0  0  0  0
  147.9600  139.7516  155.7500 H   0  0  0  0  0  0  0  0  0  0  0  0
  146.2239  139.4690  153.9639 H   0  0  0  0  0  0  0  0  0  0  0  0
  1  2  2  0  0  0  0
  2  3  1  0  0  0  0
  2 11  1  0  0  0  0
  3  4  1  0  0  0  0
  3 24  1  0  0  0  0
  4  9  1  0  0  0  0
  4  5  2  0  0  0  0
  5  6  1  0  0  0  0
  5 25  1  0  0  0  0
  6  7  2  0  0  0  0
  6 26  1  0  0  0  0
  7  8  1  0  0  0  0
  8  9  2  0  0  0  0
  8 27  1  0  0  0  0
  9 10  1  0  0  0  0
 11 12  1  0  0  0  0
 11 28  1  0  0  0  0
 12 23  1  0  0  0  0
 12 13  1  0  0  0  0
 12 29  1  0  0  0  0
 13 14  1  0  0  0  0
 13 30  1  0  0  0  0
 13 31  1  0  0  0  0
 14 15  1  0  0  0  0
 14 32  1  0  0  0  0
 14 33  1  0  0  0  0
 15 16  1  0  0  0  0
 15 22  1  0  0  0  0
 15 47  1  0  0  0  0
 16 17  1  0  0  0  0
 16 34  1  0  0  0  0
 16 35  1  0  0  0  0
 17 21  1  0  0  0  0
 17 18  1  0  0  0  0
 17 36  1  0  0  0  0
 18 19  1  0  0  0  0
 18 37  1  0  0  0  0
 18 38  1  0  0  0  0
 19 20  1  0  0  0  0
 19 39  1  0  0  0  0
 19 40  1  0  0  0  0
 20 21  1  0  0  0  0
 21 41  1  0  0  0  0
 21 42  1  0  0  0  0
 22 23  1  0  0  0  0
 22 43  1  0  0  0  0
 22 44  1  0  0  0  0
 23 45  1  0  0  0  0
 23 46  1  0  0  0  0
M  CHG  1  15   1
M  END
> <s_m_source_file>
AV-unprocessed.smi

> <i_m_source_file_index>
2351

> <i_lp_mmshare_version>
43012

> <i_f3d_flags>
0

> <s_epik_input>
RmMxW2NIXW5bY0hdW2NIXWMxW05IXUMoPU8pW05IXVtDSF0yW0NIMl1bQ0gyXU4oW0NIMl1bQ0gyXTIpW0NIMl1bQ0BASF0zW0NIMl1bQ0gyXU9bQ0gyXTM=

> <s_epik_cmdline>
J2VwaWtfcHl0aG9uJywgJy1waCcsICc3LjAnLCAnLXRuJywgJzgnLCAnLW1hJywgJzIwMCcsICctbWV0YWxfYmluZGluZycsICctaW1hZScsICc8aW5maWxlLm1hZT4nLCAnLW9tYWUnLCAnPG91dGZpbGUubWFlPic=

> <r_epik_Ionization_Penalty>
0.0102464

> <r_epik_Ionization_Penalty_Charging>
0.00747775

> <r_epik_Ionization_Penalty_Neutral>
0.00276864

> <r_epik_State_Penalty>
0.00558817

> <r_epik_Charging_Adjusted_Penalty>
0.0130659

> <i_epik_Tot_Q>
1

> <i_epik_Tot_abs_Q>
1

> <r_epik_Metal_State_Penalty>
-0

> <b_epik_Metal_Only>
0

> <s_lp_Force_Field>
OPLS_2005

> <r_lp_Energy>
39.8259

> <b_lp_Chiralities_Consistent>
1

> <s_lp_Variant>
AV-unprocessed.smi:2351-2

> <Gold.Version>
5.8.1

> <Gold.Id.Protein>
6NUR|6NUR_protein|mol2

> <Gold.PLP.Fitness>
44.8652

> <Gold.PLP.PLP>
-40.0021

> <Gold.PLP.part.hbond>
-2.0000

> <Gold.PLP.part.metal>
0.0000

> <Gold.PLP.part.buried>
-4.8996

> <Gold.PLP.part.nonpolar>
-33.2829

> <Gold.PLP.part.repulsive>
0.2814

> <Gold.PLP.ligand.clash>
0.0000

> <Gold.PLP.ligand.torsion>
0.5190

> <Gold.PLP.Chemscore.Hbond>
1.9588

> <Gold.PLP.Chemscore.CHOScore>
0.0000

> <Gold.PLP.Chemscore.Metal>
0.0000

> <Gold.Chemscore.Hbonds>
donor molecule, donor type, donor heavy atom, donor atom, acceptor molecule, acceptor atom, score
      L1  H     3    24       P1  8028  0.94
      L1  H    11    28       P1  8028  1.00

> <Gold.PLP.Chemscore.Internal.Correction>
0.0249

> <Gold.Rescore>
     Score         DG    S(hbond)    S(metal)    S(lipo)     H(rot)  DE(clash)    DE(int)     intcor
     17.78     -21.02       1.96        0.00     108.72       1.45       0.14       3.10       ----

> <Gold.Chemscore.Fitness>
17.7834

> <Gold.Chemscore.DG>
-21.0232

> <Gold.Chemscore.ZeroCoef>
-5.4800

> <Gold.Chemscore.Hbond>
1.9551

> <Gold.Chemscore.Metal>
0.0000

> <Gold.Chemscore.Lipo>
108.7246

> <Gold.Chemscore.Internal_Hbond>
0.0000

> <Gold.Chemscore.DEClash>
0.1360

> <Gold.Chemscore.DEInternal>
3.1037

> <Gold.Chemscore.Rot>
1.4483

> <Gold.Chemscore.Internal.Correction>
   9.000000E+99

> <Gold.Chemscore.Hbonds>
donor molecule, donor type, donor heavy atom, donor atom, acceptor molecule, acceptor atom, score
      L1  H     3    24       P1  8028  0.87
      L1  H    11    28       P1  8028  1.00

> <Gold.Chemscore.Hbond.Weighted>
-6.5301

> <Gold.Chemscore.Metal.Weighted>
-0.0000

> <Gold.Chemscore.Lipo.Weighted>
-12.7208

> <Gold.Chemscore.Internal_Hbond.Weighted>
0.0000

> <Gold.Chemscore.DEClash.Weighted>
0.1360

> <Gold.Chemscore.DEInternal.Weighted>
3.1037

> <Gold.Chemscore.Rot.Weighted>
3.7077

> <Gold.Chemscore.Internal.Correction.Weighted>
   9.000000E+99

> <Gold.Protein.RotatedTorsions>
[ 6907 6896 6895 6894 ] final  176.51 input  -60.11 | X-H torsion
[ 7974 7965 7964 7962 ] final -149.22 input  175.53 | X-H torsion
[ 8008 7997 7996 7995 ] final -138.60 input   59.86 | X-H torsion
[ 10167 10162 10161 10158 ] final   72.26 input  -65.29 | X-H torsion
[ 10718 10713 10712 10709 ] final   19.19 input   66.30 | X-H torsion
[ 10763 10752 10751 10750 ] final   29.81 input  -60.55 | X-H torsion
[ 11005 11000 10999 10996 ] final  -65.75 input  -57.11 | X-H torsion

> <Gold.Protein.ActiveResidues>
 VAL166  LYS551  ARG553  GLY616  TRP617  ASP618  TYR619  PRO620  LYS621  CYS622 
 ASP623  PHE694  ASN695  SER759  ASP760  ASP761  ALA762  ILE779  LEU786  VAL792 
 PHE793  MET794  SER795  GLU796  ALA797  LYS798  CYS799  TRP800  GLU811  SER814 

> <Gold.Protein.RotatedAtoms>
  151.7189  133.3314  159.3309 H   0  0  0  0  0  0  0  0  0  0  0  0  # atno 6907 bound_to 6896
  150.7661  134.6466  159.6275 H   0  0  0  0  0  0  0  0  0  0  0  0  # atno 6908 bound_to 6896
  152.3664  134.6800  160.0242 H   0  0  0  0  0  0  0  0  0  0  0  0  # atno 6909 bound_to 6896
  144.7981  140.5094  143.5726 H   0  0  0  0  0  0  0  0  0  0  0  0  # atno 7974 bound_to 7965
  155.4310  140.0525  157.3018 H   0  0  0  0  0  0  0  0  0  0  0  0  # atno 8008 bound_to 7997
  154.4860  140.2101  155.9613 H   0  0  0  0  0  0  0  0  0  0  0  0  # atno 8009 bound_to 7997
  156.1275  140.3177  155.8303 H   0  0  0  0  0  0  0  0  0  0  0  0  # atno 8010 bound_to 7997
  140.0372  144.5418  150.7461 H   0  0  0  0  0  0  0  0  0  0  0  0  # atno 10167 bound_to 10162
  157.1069  130.6492  149.5887 H   0  0  0  0  0  0  0  0  0  0  0  0  # atno 10718 bound_to 10713
  153.0408  135.6480  154.0947 H   0  0  0  0  0  0  0  0  0  0  0  0  # atno 10763 bound_to 10752
  154.0654  135.2884  155.3319 H   0  0  0  0  0  0  0  0  0  0  0  0  # atno 10764 bound_to 10752
  154.6630  135.5384  153.8106 H   0  0  0  0  0  0  0  0  0  0  0  0  # atno 10765 bound_to 10752
  141.1463  133.6687  156.6034 H   0  0  0  0  0  0  0  0  0  0  0  0  # atno 11005 bound_to 11000
  145.5622  139.1480  143.3335 LP  0  0  0  0  0  0  0  0  0  0  0  0  # atno 17320 bound_to 7965
  146.2255  140.5758  142.8998 LP  0  0  0  0  0  0  0  0  0  0  0  0  # atno 17321 bound_to 7965
  140.7276  143.2653  151.4066 LP  0  0  0  0  0  0  0  0  0  0  0  0  # atno 17342 bound_to 10162
  139.6037  144.1242  152.2226 LP  0  0  0  0  0  0  0  0  0  0  0  0  # atno 17343 bound_to 10162
  155.9860  130.4892  150.7057 LP  0  0  0  0  0  0  0  0  0  0  0  0  # atno 17370 bound_to 10713
  157.4593  131.0881  151.0763 LP  0  0  0  0  0  0  0  0  0  0  0  0  # atno 17371 bound_to 10713
  140.3670  134.7638  157.4573 LP  0  0  0  0  0  0  0  0  0  0  0  0  # atno 17394 bound_to 11000
  140.0740  134.5823  155.8611 LP  0  0  0  0  0  0  0  0  0  0  0  0  # atno 17395 bound_to 11000

$$$$
