AV-unprocessed.smi:1445|AV-procd|sdf|5888|dock9
  -GOLD-   22720 5573D 1   1.00000     0.00000
 Structure written by MMmdl.
 46 47  0  0  0  0  0  0  0  0  2 V2000
  151.4680  138.0298  154.4515 C   0  0  0  0  0  0  0  0  0  0  0  0
  150.1246  138.1424  153.9948 O   0  0  0  0  0  0  0  0  0  0  0  0
  149.4714  139.3495  154.1570 C   0  0  0  0  0  0  0  0  0  0  0  0
  150.1843  140.4152  154.6004 N   0  0  0  0  0  0  0  0  0  0  0  0
  149.5479  141.5942  154.7564 C   0  0  0  0  0  0  0  0  0  0  0  0
  148.1811  141.7752  154.4757 C   0  0  0  0  0  0  0  0  0  0  0  0
  147.4396  140.6715  154.0156 C   0  0  0  0  0  0  0  0  0  0  0  0
  148.0901  139.4233  153.8614 C   0  0  0  0  0  0  0  0  0  0  0  0
  147.4399  138.2516  153.3864 N   0  0  0  0  0  0  0  0  0  0  0  0
  146.2021  137.8119  153.6677 C   0  0  0  0  0  0  0  0  0  0  0  0
  145.3984  138.3712  154.4137 O   0  0  0  0  0  0  0  0  0  0  0  0
  145.9462  136.6522  153.0463 N   0  0  0  0  0  0  0  0  0  0  0  0
  144.6995  135.9039  153.1572 C   0  0  0  0  0  0  0  0  0  0  0  0
  144.9497  134.4574  153.6259 C   0  0  0  0  0  0  0  0  0  0  0  0
  145.0075  133.4963  152.4957 N   0  3  2  0  0  0  0  0  0  0  0  0
  143.7099  133.3976  151.7782 C   0  0  0  0  0  0  0  0  0  0  0  0
  143.8316  132.5074  150.5317 C   0  0  0  0  0  0  0  0  0  0  0  0
  144.3532  131.1136  150.9021 C   0  0  0  0  0  0  0  0  0  0  0  0
  145.6815  131.2288  151.6685 C   0  0  2  0  0  0  0  0  0  0  0  0
  146.2138  129.8483  152.0780 C   0  0  0  0  0  0  0  0  0  0  0  0
  145.5158  132.1545  152.8909 C   0  0  0  0  0  0  0  0  0  0  0  0
  151.8342  137.0234  154.2492 H   0  0  0  0  0  0  0  0  0  0  0  0
  151.5380  138.1968  155.5273 H   0  0  0  0  0  0  0  0  0  0  0  0
  152.1260  138.7306  153.9357 H   0  0  0  0  0  0  0  0  0  0  0  0
  150.1478  142.4199  155.1096 H   0  0  0  0  0  0  0  0  0  0  0  0
  147.7135  142.7400  154.6051 H   0  0  0  0  0  0  0  0  0  0  0  0
  146.3958  140.8065  153.7774 H   0  0  0  0  0  0  0  0  0  0  0  0
  148.0150  137.6379  152.8277 H   0  0  0  0  0  0  0  0  0  0  0  0
  146.6646  136.2611  152.4539 H   0  0  0  0  0  0  0  0  0  0  0  0
  144.0175  136.4148  153.8392 H   0  0  0  0  0  0  0  0  0  0  0  0
  144.2273  135.9202  152.1758 H   0  0  0  0  0  0  0  0  0  0  0  0
  145.8657  134.3928  154.2152 H   0  0  0  0  0  0  0  0  0  0  0  0
  144.1357  134.1687  154.2926 H   0  0  0  0  0  0  0  0  0  0  0  0
  142.9491  133.0009  152.4527 H   0  0  0  0  0  0  0  0  0  0  0  0
  143.3776  134.3910  151.4739 H   0  0  0  0  0  0  0  0  0  0  0  0
  142.8633  132.4234  150.0374 H   0  0  0  0  0  0  0  0  0  0  0  0
  144.5068  132.9731  149.8124 H   0  0  0  0  0  0  0  0  0  0  0  0
  143.6130  130.5950  151.5134 H   0  0  0  0  0  0  0  0  0  0  0  0
  144.4868  130.5157  149.9998 H   0  0  0  0  0  0  0  0  0  0  0  0
  146.4182  131.6795  151.0015 H   0  0  0  0  0  0  0  0  0  0  0  0
  145.5258  129.3429  152.7567 H   0  0  0  0  0  0  0  0  0  0  0  0
  147.1771  129.9323  152.5820 H   0  0  0  0  0  0  0  0  0  0  0  0
  146.3534  129.2069  151.2072 H   0  0  0  0  0  0  0  0  0  0  0  0
  146.4787  132.2516  153.3905 H   0  0  0  0  0  0  0  0  0  0  0  0
  144.8313  131.7069  153.6137 H   0  0  0  0  0  0  0  0  0  0  0  0
  145.6656  133.8786  151.8314 H   0  0  0  0  0  0  0  0  0  0  0  0
  1  2  1  0  0  0  0
  1 22  1  0  0  0  0
  1 23  1  0  0  0  0
  1 24  1  0  0  0  0
  2  3  1  0  0  0  0
  3  8  1  0  0  0  0
  3  4  2  0  0  0  0
  4  5  1  0  0  0  0
  5  6  2  0  0  0  0
  5 25  1  0  0  0  0
  6  7  1  0  0  0  0
  6 26  1  0  0  0  0
  7  8  2  0  0  0  0
  7 27  1  0  0  0  0
  8  9  1  0  0  0  0
  9 10  1  0  0  0  0
  9 28  1  0  0  0  0
 10 11  2  0  0  0  0
 10 12  1  0  0  0  0
 12 13  1  0  0  0  0
 12 29  1  0  0  0  0
 13 14  1  0  0  0  0
 13 30  1  0  0  0  0
 13 31  1  0  0  0  0
 14 15  1  0  0  0  0
 14 32  1  0  0  0  0
 14 33  1  0  0  0  0
 15 21  1  0  0  0  0
 15 16  1  0  0  0  0
 15 46  1  0  0  0  0
 16 17  1  0  0  0  0
 16 34  1  0  0  0  0
 16 35  1  0  0  0  0
 17 18  1  0  0  0  0
 17 36  1  0  0  0  0
 17 37  1  0  0  0  0
 18 19  1  0  0  0  0
 18 38  1  0  0  0  0
 18 39  1  0  0  0  0
 19 20  1  0  0  0  0
 19 21  1  0  0  0  0
 19 40  1  0  0  0  0
 20 41  1  0  0  0  0
 20 42  1  0  0  0  0
 20 43  1  0  0  0  0
 21 44  1  0  0  0  0
 21 45  1  0  0  0  0
M  CHG  1  15   1
M  END
> <s_m_source_file>
AV-unprocessed.smi

> <i_m_source_file_index>
1445

> <i_lp_mmshare_version>
43012

> <i_f3d_flags>
0

> <s_epik_input>
W0NIM11PYzFuW2NIXVtjSF1bY0hdYzFbTkhdQyg9TylbTkhdW0NIMl1bQ0gyXU4yW0NIMl1bQ0gyXVtDSDJdW0NAQEhdKFtDSDNdKVtDSDJdMg==

> <s_epik_cmdline>
J2VwaWtfcHl0aG9uJywgJy1waCcsICc3LjAnLCAnLXRuJywgJzgnLCAnLW1hJywgJzIwMCcsICctbWV0YWxfYmluZGluZycsICctaW1hZScsICc8aW5maWxlLm1hZT4nLCAnLW9tYWUnLCAnPG91dGZpbGUubWFlPic=

> <r_lp_tautomer_probability>
1

> <r_epik_Ionization_Penalty>
0.00179544

> <r_epik_Ionization_Penalty_Charging>
0.00171832

> <r_epik_Ionization_Penalty_Neutral>
7.71118e-05

> <r_epik_State_Penalty>
0.0011618

> <r_epik_Charging_Adjusted_Penalty>
0.00288012

> <i_epik_Tot_Q>
1

> <i_epik_Tot_abs_Q>
1

> <r_epik_Metal_State_Penalty>
-0

> <b_epik_Metal_Only>
0

> <s_lp_Force_Field>
OPLS_2005

> <r_lp_Energy>
18.8635

> <b_lp_Chiralities_Consistent>
1

> <s_lp_Variant>
AV-unprocessed.smi:1445-4

> <Gold.Version>
5.8.1

> <Gold.Id.Protein>
6NUR|6NUR_protein|mol2

> <Gold.PLP.Fitness>
42.1837

> <Gold.PLP.PLP>
-33.6027

> <Gold.PLP.part.hbond>
-2.6999

> <Gold.PLP.part.metal>
0.0000

> <Gold.PLP.part.buried>
-1.3463

> <Gold.PLP.part.nonpolar>
-28.4042

> <Gold.PLP.part.repulsive>
0.5053

> <Gold.PLP.ligand.clash>
0.0000

> <Gold.PLP.ligand.torsion>
0.6549

> <Gold.PLP.Chemscore.Hbond>
2.5130

> <Gold.PLP.Chemscore.CHOScore>
0.7760

> <Gold.PLP.Chemscore.Metal>
0.0000

> <Gold.Chemscore.Hbonds>
donor molecule, donor type, donor heavy atom, donor atom, acceptor molecule, acceptor atom, score
      L1  H     9    28       P1  7948  1.00
      L1  H    12    29       P1  7948  0.19
      P1  H  7989  7998       L1     4  0.98
      L1  C     5    25       P1  8028  0.48

> <Gold.PLP.Chemscore.Internal.Correction>
0.0239

> <Gold.Rescore>
     Score         DG    S(hbond)    S(metal)    S(lipo)     H(rot)  DE(clash)    DE(int)     intcor
     17.08     -19.07       2.12        0.00      93.15       1.71       0.46       1.53       ----

> <Gold.Chemscore.Fitness>
17.0792

> <Gold.Chemscore.DG>
-19.0658

> <Gold.Chemscore.ZeroCoef>
-5.4800

> <Gold.Chemscore.Hbond>
2.1157

> <Gold.Chemscore.Metal>
0.0000

> <Gold.Chemscore.Lipo>
93.1513

> <Gold.Chemscore.Internal_Hbond>
0.0000

> <Gold.Chemscore.DEClash>
0.4605

> <Gold.Chemscore.DEInternal>
1.5261

> <Gold.Chemscore.Rot>
1.7107

> <Gold.Chemscore.Internal.Correction>
   9.000000E+99

> <Gold.Chemscore.Hbonds>
donor molecule, donor type, donor heavy atom, donor atom, acceptor molecule, acceptor atom, score
      L1  H     9    28       P1  7948  0.99
      L1  H    12    29       P1  7948  0.20
      P1  H  7989  7998       L1     4  0.29

> <Gold.Chemscore.Hbond.Weighted>
-7.0665

> <Gold.Chemscore.Metal.Weighted>
-0.0000

> <Gold.Chemscore.Lipo.Weighted>
-10.8987

> <Gold.Chemscore.Internal_Hbond.Weighted>
0.0000

> <Gold.Chemscore.DEClash.Weighted>
0.4605

> <Gold.Chemscore.DEInternal.Weighted>
1.5261

> <Gold.Chemscore.Rot.Weighted>
4.3794

> <Gold.Chemscore.Internal.Correction.Weighted>
   9.000000E+99

> <Gold.Protein.RotatedTorsions>
[ 6907 6896 6895 6894 ] final  -18.85 input  -60.11 | X-H torsion
[ 7974 7965 7964 7962 ] final  118.29 input  175.53 | X-H torsion
[ 8008 7997 7996 7995 ] final   -2.35 input   59.86 | X-H torsion
[ 10167 10162 10161 10158 ] final   52.64 input  -65.29 | X-H torsion
[ 10718 10713 10712 10709 ] final   94.77 input   66.30 | X-H torsion
[ 10763 10752 10751 10750 ] final   11.74 input  -60.55 | X-H torsion
[ 11005 11000 10999 10996 ] final   21.72 input  -57.11 | X-H torsion

> <Gold.Protein.ActiveResidues>
 VAL166  LYS551  ARG553  GLY616  TRP617  ASP618  TYR619  PRO620  LYS621  CYS622 
 ASP623  PHE694  ASN695  SER759  ASP760  ASP761  ALA762  ILE779  LEU786  VAL792 
 PHE793  MET794  SER795  GLU796  ALA797  LYS798  CYS799  TRP800  GLU811  SER814 

> <Gold.Protein.RotatedAtoms>
  151.2720  135.0687  159.9137 H   0  0  0  0  0  0  0  0  0  0  0  0  # atno 6907 bound_to 6896
  152.5349  134.0120  159.7953 H   0  0  0  0  0  0  0  0  0  0  0  0  # atno 6908 bound_to 6896
  151.0360  133.5698  159.2687 H   0  0  0  0  0  0  0  0  0  0  0  0  # atno 6909 bound_to 6896
  145.1570  139.3177  143.4537 H   0  0  0  0  0  0  0  0  0  0  0  0  # atno 7974 bound_to 7965
  154.6367  140.2536  155.7369 H   0  0  0  0  0  0  0  0  0  0  0  0  # atno 8008 bound_to 7997
  156.2508  140.2896  156.0663 H   0  0  0  0  0  0  0  0  0  0  0  0  # atno 8009 bound_to 7997
  155.1660  140.0385  157.2843 H   0  0  0  0  0  0  0  0  0  0  0  0  # atno 8010 bound_to 7997
  140.2492  144.3498  150.6354 H   0  0  0  0  0  0  0  0  0  0  0  0  # atno 10167 bound_to 10162
  157.6945  131.0523  150.4236 H   0  0  0  0  0  0  0  0  0  0  0  0  # atno 10718 bound_to 10713
  153.1894  135.6840  153.8372 H   0  0  0  0  0  0  0  0  0  0  0  0  # atno 10763 bound_to 10752
  153.7677  135.3200  155.3348 H   0  0  0  0  0  0  0  0  0  0  0  0  # atno 10764 bound_to 10752
  154.8108  135.4718  154.0610 H   0  0  0  0  0  0  0  0  0  0  0  0  # atno 10765 bound_to 10752
  140.3885  134.1845  155.7663 H   0  0  0  0  0  0  0  0  0  0  0  0  # atno 11005 bound_to 11000
  146.3487  140.1665  142.8590 LP  0  0  0  0  0  0  0  0  0  0  0  0  # atno 17320 bound_to 7965
  145.0371  140.8916  143.5075 LP  0  0  0  0  0  0  0  0  0  0  0  0  # atno 17321 bound_to 7965
  140.6054  143.2167  151.6991 LP  0  0  0  0  0  0  0  0  0  0  0  0  # atno 17342 bound_to 10162
  139.5052  144.3727  152.0454 LP  0  0  0  0  0  0  0  0  0  0  0  0  # atno 17343 bound_to 10162
  156.4609  130.4032  149.6577 LP  0  0  0  0  0  0  0  0  0  0  0  0  # atno 17370 bound_to 10713
  156.3692  130.7522  151.2503 LP  0  0  0  0  0  0  0  0  0  0  0  0  # atno 17371 bound_to 10713
  141.1899  133.8228  157.0939 LP  0  0  0  0  0  0  0  0  0  0  0  0  # atno 17394 bound_to 11000
  140.0425  134.9847  157.0987 LP  0  0  0  0  0  0  0  0  0  0  0  0  # atno 17395 bound_to 11000

$$$$
