AV-unprocessed.smi:1275|AV-procd|sdf|5343|dock2
  -GOLD-   22720 4473D 1   1.00000     0.00000
 Structure written by MMmdl.
 42 43  0  0  0  0  0  0  0  0  1 V2000
  144.6546  135.6311  151.5790 C   0  0  0  0  0  0  0  0  0  0  0  0
  145.5618  136.2066  152.5026 O   0  0  0  0  0  0  0  0  0  0  0  0
  145.8635  137.5576  152.1972 C   0  0  0  0  0  0  0  0  0  0  0  0
  146.8341  138.1035  153.2480 C   0  0  0  0  0  0  0  0  0  0  0  0
  147.1209  139.4649  152.9430 O   0  0  0  0  0  0  0  0  0  0  0  0
  147.9401  140.1735  153.7979 C   0  0  0  0  0  0  0  0  0  0  0  0
  147.7525  141.5651  153.9119 C   0  0  0  0  0  0  0  0  0  0  0  0
  148.5840  142.2922  154.7846 C   0  0  0  0  0  0  0  0  0  0  0  0
  149.5706  141.6091  155.5237 C   0  0  0  0  0  0  0  0  0  0  0  0
  150.4084  142.3717  156.3815 N   0  0  0  0  0  0  0  0  0  0  0  0
  151.3504  141.9401  157.2434 C   0  0  0  0  0  0  0  0  0  0  0  0
  151.6309  140.7514  157.3993 O   0  0  0  0  0  0  0  0  0  0  0  0
  151.9825  142.9334  157.9182 N   0  0  0  0  0  0  0  0  0  0  0  0
  151.7829  144.3805  157.7501 C   0  0  0  0  0  0  0  0  0  0  0  0
  151.0726  144.9161  159.0060 C   0  0  0  0  0  0  0  0  0  0  0  0
  151.8525  144.6192  160.1621 O   0  0  0  0  0  0  0  0  0  0  0  0
  152.0978  143.2246  160.3396 C   0  0  2  0  0  0  0  0  0  0  0  0
  152.9248  143.0416  161.6167 C   0  0  0  0  0  0  0  0  0  0  0  0
  152.8222  142.6785  159.0924 C   0  0  0  0  0  0  0  0  0  0  0  0
  149.6904  140.2116  155.3282 C   0  0  0  0  0  0  0  0  0  0  0  0
  148.8966  139.5091  154.4921 N   0  0  0  0  0  0  0  0  0  0  0  0
  144.4530  134.5973  151.8593 H   0  0  0  0  0  0  0  0  0  0  0  0
  145.0663  135.6313  150.5691 H   0  0  0  0  0  0  0  0  0  0  0  0
  143.7056  136.1683  151.5705 H   0  0  0  0  0  0  0  0  0  0  0  0
  146.3113  137.6274  151.2048 H   0  0  0  0  0  0  0  0  0  0  0  0
  144.9488  138.1526  152.1901 H   0  0  0  0  0  0  0  0  0  0  0  0
  146.3842  138.0242  154.2393 H   0  0  0  0  0  0  0  0  0  0  0  0
  147.7508  137.5116  153.2438 H   0  0  0  0  0  0  0  0  0  0  0  0
  146.9853  142.0657  153.3399 H   0  0  0  0  0  0  0  0  0  0  0  0
  148.4598  143.3605  154.8862 H   0  0  0  0  0  0  0  0  0  0  0  0
  150.2249  143.3643  156.3953 H   0  0  0  0  0  0  0  0  0  0  0  0
  152.7534  144.8654  157.6353 H   0  0  0  0  0  0  0  0  0  0  0  0
  151.2114  144.6541  156.8636 H   0  0  0  0  0  0  0  0  0  0  0  0
  150.9441  145.9964  158.9358 H   0  0  0  0  0  0  0  0  0  0  0  0
  150.0769  144.4808  159.1052 H   0  0  0  0  0  0  0  0  0  0  0  0
  151.1434  142.7099  160.4652 H   0  0  0  0  0  0  0  0  0  0  0  0
  153.1295  141.9872  161.8036 H   0  0  0  0  0  0  0  0  0  0  0  0
  152.3942  143.4352  162.4838 H   0  0  0  0  0  0  0  0  0  0  0  0
  153.8806  143.5615  161.5466 H   0  0  0  0  0  0  0  0  0  0  0  0
  153.0506  141.6201  159.2258 H   0  0  0  0  0  0  0  0  0  0  0  0
  153.7845  143.1766  158.9632 H   0  0  0  0  0  0  0  0  0  0  0  0
  150.4475  139.6266  155.8263 H   0  0  0  0  0  0  0  0  0  0  0  0
  1  2  1  0  0  0  0
  1 22  1  0  0  0  0
  1 23  1  0  0  0  0
  1 24  1  0  0  0  0
  2  3  1  0  0  0  0
  3  4  1  0  0  0  0
  3 25  1  0  0  0  0
  3 26  1  0  0  0  0
  4  5  1  0  0  0  0
  4 27  1  0  0  0  0
  4 28  1  0  0  0  0
  5  6  1  0  0  0  0
  6 21  1  0  0  0  0
  6  7  2  0  0  0  0
  7  8  1  0  0  0  0
  7 29  1  0  0  0  0
  8  9  2  0  0  0  0
  8 30  1  0  0  0  0
  9 10  1  0  0  0  0
  9 20  1  0  0  0  0
 10 11  1  0  0  0  0
 10 31  1  0  0  0  0
 11 12  2  0  0  0  0
 11 13  1  0  0  0  0
 13 19  1  0  0  0  0
 13 14  1  0  0  0  0
 14 15  1  0  0  0  0
 14 32  1  0  0  0  0
 14 33  1  0  0  0  0
 15 16  1  0  0  0  0
 15 34  1  0  0  0  0
 15 35  1  0  0  0  0
 16 17  1  0  0  0  0
 17 18  1  0  0  0  0
 17 19  1  0  0  0  0
 17 36  1  0  0  0  0
 18 37  1  0  0  0  0
 18 38  1  0  0  0  0
 18 39  1  0  0  0  0
 19 40  1  0  0  0  0
 19 41  1  0  0  0  0
 20 21  2  0  0  0  0
 20 42  1  0  0  0  0
M  END
> <s_m_source_file>
AV-unprocessed.smi

> <i_m_source_file_index>
1275

> <i_lp_mmshare_version>
43012

> <i_f3d_flags>
0

> <s_epik_input>
W0NIM11PW0NIMl1bQ0gyXU9jMVtjSF1bY0hdYyhbY0hdbjEpW05IXUMoPU8pTjJbQ0gyXVtDSDJdT1tDQEBIXShbQ0gzXSlbQ0gyXTI=

> <s_epik_cmdline>
J2VwaWtfcHl0aG9uJywgJy1waCcsICc3LjAnLCAnLXRuJywgJzgnLCAnLW1hJywgJzIwMCcsICctbWV0YWxfYmluZGluZycsICctaW1hZScsICc8aW5maWxlLm1hZT4nLCAnLW9tYWUnLCAnPG91dGZpbGUubWFlPic=

> <r_lp_tautomer_probability>
1

> <r_epik_Ionization_Penalty>
5.69099e-05

> <r_epik_Ionization_Penalty_Charging>
0

> <r_epik_Ionization_Penalty_Neutral>
5.69099e-05

> <r_epik_State_Penalty>
-0

> <r_epik_Charging_Adjusted_Penalty>
0

> <i_epik_Tot_Q>
0

> <i_epik_Tot_abs_Q>
0

> <r_epik_Metal_State_Penalty>
-0

> <b_epik_Metal_Only>
0

> <s_lp_Force_Field>
OPLS_2005

> <r_lp_Energy>
33.547

> <b_lp_Chiralities_Consistent>
1

> <s_lp_Variant>
AV-unprocessed.smi:1275-2

> <Gold.Version>
5.8.1

> <Gold.Id.Protein>
6NUR|6NUR_protein|mol2

> <Gold.PLP.Fitness>
41.0631

> <Gold.PLP.PLP>
-39.4255

> <Gold.PLP.part.hbond>
-1.0000

> <Gold.PLP.part.metal>
0.0000

> <Gold.PLP.part.buried>
-0.8999

> <Gold.PLP.part.nonpolar>
-38.2129

> <Gold.PLP.part.repulsive>
1.0577

> <Gold.PLP.ligand.clash>
0.0000

> <Gold.PLP.ligand.torsion>
0.4316

> <Gold.PLP.Chemscore.Hbond>
0.8160

> <Gold.PLP.Chemscore.CHOScore>
0.0000

> <Gold.PLP.Chemscore.Metal>
0.0000

> <Gold.Chemscore.Hbonds>
donor molecule, donor type, donor heavy atom, donor atom, acceptor molecule, acceptor atom, score
      L1  H    10    31       P1  8028  0.81

> <Gold.PLP.Chemscore.Internal.Correction>
0.0528

> <Gold.Rescore>
     Score         DG    S(hbond)    S(metal)    S(lipo)     H(rot)  DE(clash)    DE(int)     intcor
     13.27     -16.07       0.95        0.00      98.87       1.62       1.12       1.69       ----

> <Gold.Chemscore.Fitness>
13.2684

> <Gold.Chemscore.DG>
-16.0717

> <Gold.Chemscore.ZeroCoef>
-5.4800

> <Gold.Chemscore.Hbond>
0.9478

> <Gold.Chemscore.Metal>
0.0000

> <Gold.Chemscore.Lipo>
98.8699

> <Gold.Chemscore.Internal_Hbond>
0.0000

> <Gold.Chemscore.DEClash>
1.1153

> <Gold.Chemscore.DEInternal>
1.6880

> <Gold.Chemscore.Rot>
1.6178

> <Gold.Chemscore.Internal.Correction>
   9.000000E+99

> <Gold.Chemscore.Hbonds>
donor molecule, donor type, donor heavy atom, donor atom, acceptor molecule, acceptor atom, score
      L1  H    10    31       P1  8028  0.75

> <Gold.Chemscore.Hbond.Weighted>
-3.1655

> <Gold.Chemscore.Metal.Weighted>
-0.0000

> <Gold.Chemscore.Lipo.Weighted>
-11.5678

> <Gold.Chemscore.Internal_Hbond.Weighted>
0.0000

> <Gold.Chemscore.DEClash.Weighted>
1.1153

> <Gold.Chemscore.DEInternal.Weighted>
1.6880

> <Gold.Chemscore.Rot.Weighted>
4.1416

> <Gold.Chemscore.Internal.Correction.Weighted>
   9.000000E+99

> <Gold.Protein.RotatedTorsions>
[ 6907 6896 6895 6894 ] final  159.55 input  -60.11 | X-H torsion
[ 7974 7965 7964 7962 ] final  -20.28 input  175.53 | X-H torsion
[ 8008 7997 7996 7995 ] final -175.59 input   59.86 | X-H torsion
[ 10167 10162 10161 10158 ] final   34.30 input  -65.29 | X-H torsion
[ 10718 10713 10712 10709 ] final  159.05 input   66.30 | X-H torsion
[ 10763 10752 10751 10750 ] final  123.81 input  -60.55 | X-H torsion
[ 11005 11000 10999 10996 ] final -145.51 input  -57.11 | X-H torsion

> <Gold.Protein.ActiveResidues>
 VAL166  LYS551  ARG553  GLY616  TRP617  ASP618  TYR619  PRO620  LYS621  CYS622 
 ASP623  PHE694  ASN695  SER759  ASP760  ASP761  ALA762  ILE779  LEU786  VAL792 
 PHE793  MET794  SER795  GLU796  ALA797  LYS798  CYS799  TRP800  GLU811  SER814 

> <Gold.Protein.RotatedAtoms>
  151.9840  133.3767  159.4118 H   0  0  0  0  0  0  0  0  0  0  0  0  # atno 6907 bound_to 6896
  150.6931  134.4009  159.5127 H   0  0  0  0  0  0  0  0  0  0  0  0  # atno 6908 bound_to 6896
  152.1732  134.8816  160.0583 H   0  0  0  0  0  0  0  0  0  0  0  0  # atno 6909 bound_to 6896
  146.1796  140.4180  142.8499 H   0  0  0  0  0  0  0  0  0  0  0  0  # atno 7974 bound_to 7965
  155.9844  140.1188  157.0696 H   0  0  0  0  0  0  0  0  0  0  0  0  # atno 8008 bound_to 7997
  154.4192  140.1138  156.5548 H   0  0  0  0  0  0  0  0  0  0  0  0  # atno 8009 bound_to 7997
  155.6427  140.3473  155.4722 H   0  0  0  0  0  0  0  0  0  0  0  0  # atno 8010 bound_to 7997
  140.4328  144.1300  150.6162 H   0  0  0  0  0  0  0  0  0  0  0  0  # atno 10167 bound_to 10162
  157.1696  131.0607  151.2190 H   0  0  0  0  0  0  0  0  0  0  0  0  # atno 10718 bound_to 10713
  153.6515  135.3362  155.3101 H   0  0  0  0  0  0  0  0  0  0  0  0  # atno 10763 bound_to 10752
  154.8536  135.4342  154.1900 H   0  0  0  0  0  0  0  0  0  0  0  0  # atno 10764 bound_to 10752
  153.2843  135.7011  153.7429 H   0  0  0  0  0  0  0  0  0  0  0  0  # atno 10765 bound_to 10752
  140.7915  134.2962  157.5011 H   0  0  0  0  0  0  0  0  0  0  0  0  # atno 11005 bound_to 11000
  144.8293  140.6681  143.6301 LP  0  0  0  0  0  0  0  0  0  0  0  0  # atno 17320 bound_to 7965
  145.4113  139.1579  143.4124 LP  0  0  0  0  0  0  0  0  0  0  0  0  # atno 17321 bound_to 7965
  140.4408  143.2527  151.9476 LP  0  0  0  0  0  0  0  0  0  0  0  0  # atno 17342 bound_to 10162
  139.4785  144.5656  151.8170 LP  0  0  0  0  0  0  0  0  0  0  0  0  # atno 17343 bound_to 10162
  157.4056  130.7357  149.6800 LP  0  0  0  0  0  0  0  0  0  0  0  0  # atno 17370 bound_to 10713
  155.9740  130.4109  150.3954 LP  0  0  0  0  0  0  0  0  0  0  0  0  # atno 17371 bound_to 10713
  139.8730  134.9377  156.3696 LP  0  0  0  0  0  0  0  0  0  0  0  0  # atno 17394 bound_to 11000
  140.9384  133.7531  156.0115 LP  0  0  0  0  0  0  0  0  0  0  0  0  # atno 17395 bound_to 11000

$$$$
