AV-unprocessed.smi:2568|AV-procd|sdf|10093|dock9
  -GOLD-   2272014113D 1   1.00000     0.00000
 Structure written by MMmdl.
 25 26  0  0  0  0  0  0  0  0  2 V2000
  152.3891  140.6827  158.7771 C   0  0  0  0  0  0  0  0  0  0  0  0
  151.5245  141.1186  157.6439 C   0  0  0  0  0  0  0  0  0  0  0  0
  151.1626  142.3922  157.4980 N   0  0  0  0  0  0  0  0  0  0  0  0
  150.4061  142.3430  156.3814 N   0  0  0  0  0  0  0  0  0  0  0  0
  150.3551  141.0850  155.9367 C   0  0  0  0  0  0  0  0  0  0  0  0
  149.5990  140.7056  154.7027 C   0  0  1  0  0  0  0  0  0  0  0  0
  149.6813  139.1962  154.4030 C   0  0  0  0  0  0  0  0  0  0  0  0
  148.8382  138.8670  153.2372 N   0  3  0  0  0  0  0  0  0  0  0  0
  147.4482  139.3268  153.4285 C   0  0  0  0  0  0  0  0  0  0  0  0
  147.4278  140.8280  153.7667 C   0  0  0  0  0  0  0  0  0  0  0  0
  148.2379  141.0739  154.9118 O   0  0  0  0  0  0  0  0  0  0  0  0
  151.0549  140.2497  156.6991 N   0  0  0  0  0  0  0  0  0  0  0  0
  149.9632  143.1576  155.9809 H   0  0  0  0  0  0  0  0  0  0  0  0
  152.7922  141.5428  159.3130 H   0  0  0  0  0  0  0  0  0  0  0  0
  153.2235  140.0859  158.4080 H   0  0  0  0  0  0  0  0  0  0  0  0
  151.8131  140.0779  159.4778 H   0  0  0  0  0  0  0  0  0  0  0  0
  149.9993  141.2765  153.8624 H   0  0  0  0  0  0  0  0  0  0  0  0
  150.7105  138.8977  154.2020 H   0  0  0  0  0  0  0  0  0  0  0  0
  149.3395  138.6169  155.2620 H   0  0  0  0  0  0  0  0  0  0  0  0
  149.2206  139.3227  152.4209 H   0  0  0  0  0  0  0  0  0  0  0  0
  146.8728  139.1280  152.5242 H   0  0  0  0  0  0  0  0  0  0  0  0
  146.9888  138.7532  154.2347 H   0  0  0  0  0  0  0  0  0  0  0  0
  147.7821  141.4222  152.9229 H   0  0  0  0  0  0  0  0  0  0  0  0
  146.4086  141.1518  153.9781 H   0  0  0  0  0  0  0  0  0  0  0  0
  148.8443  137.8677  153.0897 H   0  0  0  0  0  0  0  0  0  0  0  0
  1  2  1  0  0  0  0
  1 14  1  0  0  0  0
  1 15  1  0  0  0  0
  1 16  1  0  0  0  0
  2 12  1  0  0  0  0
  2  3  2  0  0  0  0
  3  4  1  0  0  0  0
  4 13  1  0  0  0  0
  4  5  1  0  0  0  0
  5  6  1  0  0  0  0
  5 12  2  0  0  0  0
  6 11  1  0  0  0  0
  6  7  1  0  0  0  0
  6 17  1  0  0  0  0
  7  8  1  0  0  0  0
  7 18  1  0  0  0  0
  7 19  1  0  0  0  0
  8  9  1  0  0  0  0
  8 20  1  0  0  0  0
  8 25  1  0  0  0  0
  9 10  1  0  0  0  0
  9 21  1  0  0  0  0
  9 22  1  0  0  0  0
 10 11  1  0  0  0  0
 10 23  1  0  0  0  0
 10 24  1  0  0  0  0
M  CHG  1   8   1
M  END
> <s_m_source_file>
AV-unprocessed.smi

> <i_m_source_file_index>
2568

> <i_lp_mmshare_version>
43012

> <i_f3d_flags>
0

> <s_epik_input>
W0NIM11jMW5bbkhdYyhuMSlbQ0BASF0yW0NIMl1bTkhdW0NIMl1bQ0gyXU8y

> <s_epik_cmdline>
J2VwaWtfcHl0aG9uJywgJy1waCcsICc3LjAnLCAnLXRuJywgJzgnLCAnLW1hJywgJzIwMCcsICctbWV0YWxfYmluZGluZycsICctaW1hZScsICc8aW5maWxlLm1hZT4nLCAnLW9tYWUnLCAnPG91dGZpbGUubWFlPic=

> <r_epik_Ionization_Penalty>
0.166663

> <r_epik_Ionization_Penalty_Charging>
0.125708

> <r_epik_Ionization_Penalty_Neutral>
0.0409555

> <r_epik_State_Penalty>
1.3004

> <r_epik_Charging_Adjusted_Penalty>
1.42611

> <i_epik_Tot_Q>
1

> <i_epik_Tot_abs_Q>
1

> <r_epik_Metal_State_Penalty>
1.60166

> <b_epik_Metal_Only>
0

> <s_lp_Force_Field>
OPLS_2005

> <r_lp_Energy>
12.4533

> <b_lp_Chiralities_Consistent>
1

> <s_lp_Variant>
AV-unprocessed.smi:2568-6

> <Gold.Version>
5.8.1

> <Gold.Id.Protein>
6NUR|6NUR_protein|mol2

> <Gold.PLP.Fitness>
32.7175

> <Gold.PLP.PLP>
-20.9926

> <Gold.PLP.part.hbond>
-2.8828

> <Gold.PLP.part.metal>
0.0000

> <Gold.PLP.part.buried>
-3.6115

> <Gold.PLP.part.nonpolar>
-15.5374

> <Gold.PLP.part.repulsive>
0.3587

> <Gold.PLP.ligand.clash>
0.0000

> <Gold.PLP.ligand.torsion>
0.0030

> <Gold.PLP.Chemscore.Hbond>
3.9100

> <Gold.PLP.Chemscore.CHOScore>
0.0000

> <Gold.PLP.Chemscore.Metal>
0.0000

> <Gold.Chemscore.Hbonds>
donor molecule, donor type, donor heavy atom, donor atom, acceptor molecule, acceptor atom, score
      L1  H     4    13       P1  8028  1.00
      L1  H     8    20       P1  7957  0.91
      L1  H     8    25       P1  7948  2.00

> <Gold.PLP.Chemscore.Internal.Correction>
0.0010

> <Gold.Rescore>
     Score         DG    S(hbond)    S(metal)    S(lipo)     H(rot)  DE(clash)    DE(int)     intcor
     16.59     -16.60       2.90        0.00      34.09       1.00       0.00       0.00       ----

> <Gold.Chemscore.Fitness>
16.5946

> <Gold.Chemscore.DG>
-16.5956

> <Gold.Chemscore.ZeroCoef>
-5.4800

> <Gold.Chemscore.Hbond>
2.9002

> <Gold.Chemscore.Metal>
0.0000

> <Gold.Chemscore.Lipo>
34.0921

> <Gold.Chemscore.Internal_Hbond>
0.0000

> <Gold.Chemscore.DEClash>
0.0000

> <Gold.Chemscore.DEInternal>
0.0010

> <Gold.Chemscore.Rot>
1.0000

> <Gold.Chemscore.Internal.Correction>
   9.000000E+99

> <Gold.Chemscore.Hbonds>
donor molecule, donor type, donor heavy atom, donor atom, acceptor molecule, acceptor atom, score
      L1  H     4    13       P1  8028  0.99
      L1  H     8    20       P1  7957  0.87
      L1  H     8    25       P1  7948  0.88

> <Gold.Chemscore.Hbond.Weighted>
-9.6868

> <Gold.Chemscore.Metal.Weighted>
-0.0000

> <Gold.Chemscore.Lipo.Weighted>
-3.9888

> <Gold.Chemscore.Internal_Hbond.Weighted>
0.0000

> <Gold.Chemscore.DEClash.Weighted>
0.0000

> <Gold.Chemscore.DEInternal.Weighted>
0.0010

> <Gold.Chemscore.Rot.Weighted>
2.5600

> <Gold.Chemscore.Internal.Correction.Weighted>
   9.000000E+99

> <Gold.Protein.RotatedTorsions>
[ 6907 6896 6895 6894 ] final  115.42 input  -60.11 | X-H torsion
[ 7974 7965 7964 7962 ] final -144.82 input  175.53 | X-H torsion
[ 8008 7997 7996 7995 ] final -150.12 input   59.86 | X-H torsion
[ 10167 10162 10161 10158 ] final -137.07 input  -65.29 | X-H torsion
[ 10718 10713 10712 10709 ] final -133.56 input   66.30 | X-H torsion
[ 10763 10752 10751 10750 ] final   -7.42 input  -60.55 | X-H torsion
[ 11005 11000 10999 10996 ] final -146.39 input  -57.11 | X-H torsion

> <Gold.Protein.ActiveResidues>
 VAL166  LYS551  ARG553  GLY616  TRP617  ASP618  TYR619  PRO620  LYS621  CYS622 
 ASP623  PHE694  ASN695  SER759  ASP760  ASP761  ALA762  ILE779  LEU786  VAL792 
 PHE793  MET794  SER795  GLU796  ALA797  LYS798  CYS799  TRP800  GLU811  SER814 

> <Gold.Protein.RotatedAtoms>
  152.4743  133.8101  159.6998 H   0  0  0  0  0  0  0  0  0  0  0  0  # atno 6907 bound_to 6896
  150.8750  133.7442  159.2956 H   0  0  0  0  0  0  0  0  0  0  0  0  # atno 6908 bound_to 6896
  151.4965  135.1063  159.9869 H   0  0  0  0  0  0  0  0  0  0  0  0  # atno 6909 bound_to 6896
  144.8271  140.5662  143.5540 H   0  0  0  0  0  0  0  0  0  0  0  0  # atno 7974 bound_to 7965
  155.6185  140.0679  157.2685 H   0  0  0  0  0  0  0  0  0  0  0  0  # atno 8008 bound_to 7997
  154.4235  140.1788  156.1395 H   0  0  0  0  0  0  0  0  0  0  0  0  # atno 8009 bound_to 7997
  156.0028  140.3334  155.6866 H   0  0  0  0  0  0  0  0  0  0  0  0  # atno 8010 bound_to 7997
  139.8614  143.7072  152.2649 H   0  0  0  0  0  0  0  0  0  0  0  0  # atno 10167 bound_to 10162
  156.2462  130.7125  151.1006 H   0  0  0  0  0  0  0  0  0  0  0  0  # atno 10718 bound_to 10713
  153.4260  135.7011  153.6262 H   0  0  0  0  0  0  0  0  0  0  0  0  # atno 10763 bound_to 10752
  153.4696  135.3718  155.2384 H   0  0  0  0  0  0  0  0  0  0  0  0  # atno 10764 bound_to 10752
  154.8724  135.4040  154.3637 H   0  0  0  0  0  0  0  0  0  0  0  0  # atno 10765 bound_to 10752
  140.7825  134.3063  157.5041 H   0  0  0  0  0  0  0  0  0  0  0  0  # atno 11005 bound_to 11000
  145.4977  139.1485  143.3674 LP  0  0  0  0  0  0  0  0  0  0  0  0  # atno 17320 bound_to 7965
  146.2575  140.5116  142.8867 LP  0  0  0  0  0  0  0  0  0  0  0  0  # atno 17321 bound_to 7965
  139.7370  144.7569  151.0712 LP  0  0  0  0  0  0  0  0  0  0  0  0  # atno 17342 bound_to 10162
  140.7774  143.5018  150.9762 LP  0  0  0  0  0  0  0  0  0  0  0  0  # atno 17343 bound_to 10162
  157.7196  131.0690  150.6190 LP  0  0  0  0  0  0  0  0  0  0  0  0  # atno 17370 bound_to 10713
  156.6267  130.4420  149.5802 LP  0  0  0  0  0  0  0  0  0  0  0  0  # atno 17371 bound_to 10713
  139.8741  134.9326  156.3560 LP  0  0  0  0  0  0  0  0  0  0  0  0  # atno 17394 bound_to 11000
  140.9469  133.7477  156.0220 LP  0  0  0  0  0  0  0  0  0  0  0  0  # atno 17395 bound_to 11000

$$$$
