AV-unprocessed.smi:2859|AV-procd|sdf|11005|dock8
  -GOLD-   2272015463D 1   1.00000     0.00000
 Structure written by MMmdl.
 51 52  0  0  0  0  0  0  0  0  1 V2000
  151.8714  145.7859  159.9768 C   0  0  0  0  0  0  0  0  0  0  0  0
  151.7920  144.2454  159.9803 C   0  0  0  0  0  0  0  0  0  0  0  0
  152.9056  143.6601  159.0873 C   0  0  0  0  0  0  0  0  0  0  0  0
  152.0551  143.7685  161.4261 C   0  0  0  0  0  0  0  0  0  0  0  0
  150.4181  143.7962  159.4542 C   0  0  0  0  0  0  0  0  0  0  0  0
  150.2466  142.9793  158.3108 C   0  0  0  0  0  0  0  0  0  0  0  0
  148.9182  142.6685  157.9281 C   0  0  0  0  0  0  0  0  0  0  0  0
  148.6125  141.8702  156.8029 N   0  0  0  0  0  0  0  0  0  0  0  0
  147.2640  141.3258  156.6813 C   0  0  0  0  0  0  0  0  0  0  0  0
  147.0312  140.7810  155.2638 C   0  0  0  0  0  0  0  0  0  0  0  0
  148.0392  139.8289  154.9477 O   0  0  0  0  0  0  0  0  0  0  0  0
  149.3440  140.4086  154.9359 C   0  0  2  0  0  0  0  0  0  0  0  0
  150.3580  139.3446  154.4886 C   0  0  0  0  0  0  0  0  0  0  0  0
  149.8734  138.1774  154.0550 N   0  0  0  0  0  0  0  0  0  0  0  0
  151.5662  139.5727  154.5157 O   0  0  0  0  0  0  0  0  0  0  0  0
  149.6677  140.9687  156.3397 C   0  0  0  0  0  0  0  0  0  0  0  0
  147.8760  143.1387  158.6514 N   0  0  0  0  0  0  0  0  0  0  0  0
  148.1288  143.8669  159.7435 C   0  0  0  0  0  0  0  0  0  0  0  0
  146.9284  144.5108  160.4565 C   0  0  0  0  0  0  0  0  0  0  0  0
  146.7904  143.9729  161.8998 C   0  0  0  0  0  0  0  0  0  0  0  0
  145.6011  144.1658  159.7399 C   0  0  0  0  0  0  0  0  0  0  0  0
  147.1108  146.0393  160.4865 C   0  0  0  0  0  0  0  0  0  0  0  0
  149.3463  144.2399  160.1495 N   0  0  0  0  0  0  0  0  0  0  0  0
  152.8306  146.1354  160.3604 H   0  0  0  0  0  0  0  0  0  0  0  0
  151.0894  146.2225  160.5992 H   0  0  0  0  0  0  0  0  0  0  0  0
  151.7591  146.1955  158.9723 H   0  0  0  0  0  0  0  0  0  0  0  0
  152.8230  144.0068  158.0566 H   0  0  0  0  0  0  0  0  0  0  0  0
  152.8665  142.5703  159.0706 H   0  0  0  0  0  0  0  0  0  0  0  0
  153.8948  143.9486  159.4442 H   0  0  0  0  0  0  0  0  0  0  0  0
  153.0329  144.0983  161.7791 H   0  0  0  0  0  0  0  0  0  0  0  0
  152.0409  142.6803  161.5006 H   0  0  0  0  0  0  0  0  0  0  0  0
  151.3147  144.1647  162.1222 H   0  0  0  0  0  0  0  0  0  0  0  0
  151.0918  142.6250  157.7436 H   0  0  0  0  0  0  0  0  0  0  0  0
  147.1271  140.5321  157.4168 H   0  0  0  0  0  0  0  0  0  0  0  0
  146.5226  142.0989  156.8854 H   0  0  0  0  0  0  0  0  0  0  0  0
  146.0558  140.2987  155.2028 H   0  0  0  0  0  0  0  0  0  0  0  0
  147.0335  141.5886  154.5299 H   0  0  0  0  0  0  0  0  0  0  0  0
  149.3704  141.2156  154.2014 H   0  0  0  0  0  0  0  0  0  0  0  0
  150.5089  137.4571  153.7433 H   0  0  0  0  0  0  0  0  0  0  0  0
  148.8758  138.0244  154.0317 H   0  0  0  0  0  0  0  0  0  0  0  0
  150.6298  141.4799  156.2992 H   0  0  0  0  0  0  0  0  0  0  0  0
  149.7692  140.1553  157.0598 H   0  0  0  0  0  0  0  0  0  0  0  0
  145.9125  144.3883  162.3961 H   0  0  0  0  0  0  0  0  0  0  0  0
  147.6516  144.2312  162.5168 H   0  0  0  0  0  0  0  0  0  0  0  0
  146.6904  142.8869  161.9110 H   0  0  0  0  0  0  0  0  0  0  0  0
  145.4539  143.0871  159.6731 H   0  0  0  0  0  0  0  0  0  0  0  0
  145.5675  144.5680  158.7265 H   0  0  0  0  0  0  0  0  0  0  0  0
  144.7437  144.5810  160.2706 H   0  0  0  0  0  0  0  0  0  0  0  0
  146.2762  146.5301  160.9876 H   0  0  0  0  0  0  0  0  0  0  0  0
  147.1772  146.4492  159.4781 H   0  0  0  0  0  0  0  0  0  0  0  0
  148.0229  146.3188  161.0152 H   0  0  0  0  0  0  0  0  0  0  0  0
  1  2  1  0  0  0  0
  1 24  1  0  0  0  0
  1 25  1  0  0  0  0
  1 26  1  0  0  0  0
  2  3  1  0  0  0  0
  2  4  1  0  0  0  0
  2  5  1  0  0  0  0
  3 27  1  0  0  0  0
  3 28  1  0  0  0  0
  3 29  1  0  0  0  0
  4 30  1  0  0  0  0
  4 31  1  0  0  0  0
  4 32  1  0  0  0  0
  5 23  1  0  0  0  0
  5  6  2  0  0  0  0
  6  7  1  0  0  0  0
  6 33  1  0  0  0  0
  7  8  1  0  0  0  0
  7 17  2  0  0  0  0
  8 16  1  0  0  0  0
  8  9  1  0  0  0  0
  9 10  1  0  0  0  0
  9 34  1  0  0  0  0
  9 35  1  0  0  0  0
 10 11  1  0  0  0  0
 10 36  1  0  0  0  0
 10 37  1  0  0  0  0
 11 12  1  0  0  0  0
 12 13  1  0  0  0  0
 12 16  1  0  0  0  0
 12 38  1  0  0  0  0
 13 14  1  0  0  0  0
 13 15  2  0  0  0  0
 14 39  1  0  0  0  0
 14 40  1  0  0  0  0
 16 41  1  0  0  0  0
 16 42  1  0  0  0  0
 17 18  1  0  0  0  0
 18 19  1  0  0  0  0
 18 23  2  0  0  0  0
 19 20  1  0  0  0  0
 19 21  1  0  0  0  0
 19 22  1  0  0  0  0
 20 43  1  0  0  0  0
 20 44  1  0  0  0  0
 20 45  1  0  0  0  0
 21 46  1  0  0  0  0
 21 47  1  0  0  0  0
 21 48  1  0  0  0  0
 22 49  1  0  0  0  0
 22 50  1  0  0  0  0
 22 51  1  0  0  0  0
M  END
> <s_m_source_file>
AV-unprocessed.smi

> <i_m_source_file_index>
2859

> <i_lp_mmshare_version>
43012

> <i_f3d_flags>
0

> <s_epik_input>
W0NIM11DKFtDSDNdKShbQ0gzXSljMVtjSF1jKG5jKG4xKUMoW0NIM10pKFtDSDNdKVtDSDNdKU4yW0NIMl1bQ0gyXU9bQ0BIXShbQ0gyXTIpQyg9TylbTkgyXQ==

> <s_epik_cmdline>
J2VwaWtfcHl0aG9uJywgJy1waCcsICc3LjAnLCAnLXRuJywgJzgnLCAnLW1hJywgJzIwMCcsICctbWV0YWxfYmluZGluZycsICctaW1hZScsICc8aW5maWxlLm1hZT4nLCAnLW9tYWUnLCAnPG91dGZpbGUubWFlPic=

> <r_lp_tautomer_probability>
1

> <r_epik_Ionization_Penalty>
0.0011326

> <r_epik_Ionization_Penalty_Charging>
0

> <r_epik_Ionization_Penalty_Neutral>
0.0011326

> <r_epik_State_Penalty>
0.000721507

> <r_epik_Charging_Adjusted_Penalty>
0.000721507

> <i_epik_Tot_Q>
0

> <i_epik_Tot_abs_Q>
0

> <r_epik_Metal_State_Penalty>
-0

> <b_epik_Metal_Only>
0

> <s_lp_Force_Field>
OPLS_2005

> <r_lp_Energy>
9.68103

> <b_lp_Chiralities_Consistent>
1

> <s_lp_Variant>
AV-unprocessed.smi:2859-2

> <Gold.Version>
5.8.1

> <Gold.Id.Protein>
6NUR|6NUR_protein|mol2

> <Gold.PLP.Fitness>
40.7928

> <Gold.PLP.PLP>
-38.7462

> <Gold.PLP.part.hbond>
-2.5056

> <Gold.PLP.part.metal>
0.0000

> <Gold.PLP.part.buried>
-3.3638

> <Gold.PLP.part.nonpolar>
-33.5227

> <Gold.PLP.part.repulsive>
1.5690

> <Gold.PLP.ligand.clash>
0.0000

> <Gold.PLP.ligand.torsion>
0.7751

> <Gold.PLP.Chemscore.Hbond>
1.0000

> <Gold.PLP.Chemscore.CHOScore>
0.0000

> <Gold.PLP.Chemscore.Metal>
0.0000

> <Gold.Chemscore.Hbonds>
donor molecule, donor type, donor heavy atom, donor atom, acceptor molecule, acceptor atom, score
      P1  H  7989  7998       L1    15  1.00

> <Gold.PLP.Chemscore.Internal.Correction>
0.5969

> <Gold.Rescore>
     Score         DG    S(hbond)    S(metal)    S(lipo)     H(rot)  DE(clash)    DE(int)     intcor
     14.80     -15.97       1.18        0.00      96.16       1.83       0.49       0.68       ----

> <Gold.Chemscore.Fitness>
14.8005

> <Gold.Chemscore.DG>
-15.9682

> <Gold.Chemscore.ZeroCoef>
-5.4800

> <Gold.Chemscore.Hbond>
1.1761

> <Gold.Chemscore.Metal>
0.0000

> <Gold.Chemscore.Lipo>
96.1585

> <Gold.Chemscore.Internal_Hbond>
0.0000

> <Gold.Chemscore.DEClash>
0.4902

> <Gold.Chemscore.DEInternal>
0.6775

> <Gold.Chemscore.Rot>
1.8323

> <Gold.Chemscore.Internal.Correction>
   9.000000E+99

> <Gold.Chemscore.Hbonds>
donor molecule, donor type, donor heavy atom, donor atom, acceptor molecule, acceptor atom, score
      P1  H  7989  7998       L1    15  0.30

> <Gold.Chemscore.Hbond.Weighted>
-3.9283

> <Gold.Chemscore.Metal.Weighted>
-0.0000

> <Gold.Chemscore.Lipo.Weighted>
-11.2505

> <Gold.Chemscore.Internal_Hbond.Weighted>
0.0000

> <Gold.Chemscore.DEClash.Weighted>
0.4902

> <Gold.Chemscore.DEInternal.Weighted>
0.6775

> <Gold.Chemscore.Rot.Weighted>
4.6907

> <Gold.Chemscore.Internal.Correction.Weighted>
   9.000000E+99

> <Gold.Protein.RotatedTorsions>
[ 6907 6896 6895 6894 ] final   64.90 input  -60.11 | X-H torsion
[ 7974 7965 7964 7962 ] final -104.93 input  175.53 | X-H torsion
[ 8008 7997 7996 7995 ] final -102.25 input   59.86 | X-H torsion
[ 10167 10162 10161 10158 ] final -144.28 input  -65.29 | X-H torsion
[ 10718 10713 10712 10709 ] final   95.06 input   66.30 | X-H torsion
[ 10763 10752 10751 10750 ] final  101.70 input  -60.55 | X-H torsion
[ 11005 11000 10999 10996 ] final  105.73 input  -57.11 | X-H torsion

> <Gold.Protein.ActiveResidues>
 VAL166  LYS551  ARG553  GLY616  TRP617  ASP618  TYR619  PRO620  LYS621  CYS622 
 ASP623  PHE694  ASN695  SER759  ASP760  ASP761  ALA762  ILE779  LEU786  VAL792 
 PHE793  MET794  SER795  GLU796  ALA797  LYS798  CYS799  TRP800  GLU811  SER814 

> <Gold.Protein.RotatedAtoms>
  152.4367  134.5672  159.9910 H   0  0  0  0  0  0  0  0  0  0  0  0  # atno 6907 bound_to 6896
  151.5781  133.3375  159.3011 H   0  0  0  0  0  0  0  0  0  0  0  0  # atno 6908 bound_to 6896
  150.8266  134.7535  159.6883 H   0  0  0  0  0  0  0  0  0  0  0  0  # atno 6909 bound_to 6896
  145.2369  140.9191  143.3172 H   0  0  0  0  0  0  0  0  0  0  0  0  # atno 7974 bound_to 7965
  154.8540  140.0429  157.1623 H   0  0  0  0  0  0  0  0  0  0  0  0  # atno 8008 bound_to 7997
  154.8911  140.2986  155.5349 H   0  0  0  0  0  0  0  0  0  0  0  0  # atno 8009 bound_to 7997
  156.2997  140.2393  156.3927 H   0  0  0  0  0  0  0  0  0  0  0  0  # atno 8010 bound_to 7997
  139.7914  143.7961  152.2650 H   0  0  0  0  0  0  0  0  0  0  0  0  # atno 10167 bound_to 10162
  157.6942  131.0533  150.4282 H   0  0  0  0  0  0  0  0  0  0  0  0  # atno 10718 bound_to 10713
  153.3300  135.4036  155.1487 H   0  0  0  0  0  0  0  0  0  0  0  0  # atno 10763 bound_to 10752
  154.8621  135.3608  154.5483 H   0  0  0  0  0  0  0  0  0  0  0  0  # atno 10764 bound_to 10752
  153.5921  135.7073  153.5478 H   0  0  0  0  0  0  0  0  0  0  0  0  # atno 10765 bound_to 10752
  139.8805  134.9345  156.5558 H   0  0  0  0  0  0  0  0  0  0  0  0  # atno 11005 bound_to 11000
  144.9625  139.3965  143.6349 LP  0  0  0  0  0  0  0  0  0  0  0  0  # atno 17320 bound_to 7965
  146.3338  139.8685  142.8844 LP  0  0  0  0  0  0  0  0  0  0  0  0  # atno 17321 bound_to 7965
  139.8053  144.7358  150.9770 LP  0  0  0  0  0  0  0  0  0  0  0  0  # atno 17342 bound_to 10162
  140.7820  143.4304  151.0703 LP  0  0  0  0  0  0  0  0  0  0  0  0  # atno 17343 bound_to 10162
  156.4651  130.4040  149.6552 LP  0  0  0  0  0  0  0  0  0  0  0  0  # atno 17370 bound_to 10713
  156.3653  130.7502  151.2479 LP  0  0  0  0  0  0  0  0  0  0  0  0  # atno 17371 bound_to 10713
  140.8206  133.8356  155.8892 LP  0  0  0  0  0  0  0  0  0  0  0  0  # atno 17394 bound_to 11000
  140.9422  134.1887  157.4789 LP  0  0  0  0  0  0  0  0  0  0  0  0  # atno 17395 bound_to 11000

$$$$
