AV-unprocessed.smi:652|AV-procd|sdf|3193|dock2
  -GOLD-   22720 0123D 1   1.00000     0.00000
 Structure written by MMmdl.
 48 49  0  0  0  0  0  0  0  0  2 V2000
  147.2575  144.7076  161.1904 C   0  0  0  0  0  0  0  0  0  0  0  0
  145.8823  144.6329  160.5091 C   0  0  0  0  0  0  0  0  0  0  0  0
  144.8993  143.7688  161.3102 C   0  0  0  0  0  0  0  0  0  0  0  0
  146.0134  144.0934  159.1586 N   0  0  0  0  0  0  0  0  0  0  0  0
  146.1508  142.7950  158.8476 C   0  0  0  0  0  0  0  0  0  0  0  0
  146.1846  141.8984  159.6909 O   0  0  0  0  0  0  0  0  0  0  0  0
  146.2686  142.4764  157.3531 C   0  0  0  0  0  0  0  0  0  0  0  0
  147.4152  141.4985  157.0181 C   0  0  0  0  0  0  0  0  0  0  0  0
  148.4345  142.0957  156.1133 N   0  3  2  0  0  0  0  0  0  0  0  0
  148.5142  141.4241  154.7928 C   0  0  0  0  0  0  0  0  0  0  0  0
  149.2954  140.1005  154.8870 C   0  0  0  0  0  0  0  0  0  0  0  0
  150.5869  140.3478  155.4296 O   0  0  0  0  0  0  0  0  0  0  0  0
  150.5335  140.8818  156.7493 C   0  0  1  0  0  0  0  0  0  0  0  0
  151.9706  141.0450  157.2626 C   0  0  0  0  0  0  0  0  0  0  0  0
  152.0029  141.2835  158.6988 N   0  0  0  0  0  0  0  0  0  0  0  0
  151.5038  142.4758  159.2395 C   0  0  0  0  0  0  0  0  0  0  0  0
  151.7057  143.6801  158.5365 C   0  0  0  0  0  0  0  0  0  0  0  0
  151.1989  144.8607  159.1063 C   0  0  0  0  0  0  0  0  0  0  0  0
  150.5277  144.7466  160.3373 C   0  0  0  0  0  0  0  0  0  0  0  0
  150.3615  143.5626  160.9688 N   0  0  0  0  0  0  0  0  0  0  0  0
  150.8450  142.4396  160.4252 N   0  0  0  0  0  0  0  0  0  0  0  0
  149.7926  142.2353  156.6997 C   0  0  0  0  0  0  0  0  0  0  0  0
  147.1735  145.1233  162.1948 H   0  0  0  0  0  0  0  0  0  0  0  0
  147.9437  145.3433  160.6297 H   0  0  0  0  0  0  0  0  0  0  0  0
  147.7127  143.7203  161.2765 H   0  0  0  0  0  0  0  0  0  0  0  0
  145.4673  145.6409  160.4533 H   0  0  0  0  0  0  0  0  0  0  0  0
  144.7618  144.1639  162.3171 H   0  0  0  0  0  0  0  0  0  0  0  0
  145.2551  142.7420  161.4022 H   0  0  0  0  0  0  0  0  0  0  0  0
  143.9196  143.7415  160.8322 H   0  0  0  0  0  0  0  0  0  0  0  0
  145.9968  144.7623  158.4024 H   0  0  0  0  0  0  0  0  0  0  0  0
  145.3182  142.0565  157.0212 H   0  0  0  0  0  0  0  0  0  0  0  0
  146.4008  143.4194  156.8233 H   0  0  0  0  0  0  0  0  0  0  0  0
  147.8788  141.1254  157.9315 H   0  0  0  0  0  0  0  0  0  0  0  0
  146.9893  140.6291  156.5146 H   0  0  0  0  0  0  0  0  0  0  0  0
  147.5180  141.2591  154.3808 H   0  0  0  0  0  0  0  0  0  0  0  0
  149.0243  142.0933  154.0986 H   0  0  0  0  0  0  0  0  0  0  0  0
  148.7640  139.3665  155.4941 H   0  0  0  0  0  0  0  0  0  0  0  0
  149.4110  139.6641  153.8949 H   0  0  0  0  0  0  0  0  0  0  0  0
  150.0038  140.1910  157.4071 H   0  0  0  0  0  0  0  0  0  0  0  0
  152.5632  140.1615  157.0212 H   0  0  0  0  0  0  0  0  0  0  0  0
  152.4383  141.8937  156.7613 H   0  0  0  0  0  0  0  0  0  0  0  0
  152.4135  140.5879  159.3045 H   0  0  0  0  0  0  0  0  0  0  0  0
  152.2323  143.7009  157.5934 H   0  0  0  0  0  0  0  0  0  0  0  0
  151.3208  145.8169  158.6196 H   0  0  0  0  0  0  0  0  0  0  0  0
  150.1165  145.6183  160.8245 H   0  0  0  0  0  0  0  0  0  0  0  0
  150.3570  142.9305  156.0763 H   0  0  0  0  0  0  0  0  0  0  0  0
  149.7514  142.6903  157.6882 H   0  0  0  0  0  0  0  0  0  0  0  0
  148.1046  143.0320  155.9273 H   0  0  0  0  0  0  0  0  0  0  0  0
  1  2  1  0  0  0  0
  1 23  1  0  0  0  0
  1 24  1  0  0  0  0
  1 25  1  0  0  0  0
  2  3  1  0  0  0  0
  2  4  1  0  0  0  0
  2 26  1  0  0  0  0
  3 27  1  0  0  0  0
  3 28  1  0  0  0  0
  3 29  1  0  0  0  0
  4  5  1  0  0  0  0
  4 30  1  0  0  0  0
  5  6  2  0  0  0  0
  5  7  1  0  0  0  0
  7  8  1  0  0  0  0
  7 31  1  0  0  0  0
  7 32  1  0  0  0  0
  8  9  1  0  0  0  0
  8 33  1  0  0  0  0
  8 34  1  0  0  0  0
  9 22  1  0  0  0  0
  9 10  1  0  0  0  0
  9 48  1  0  0  0  0
 10 11  1  0  0  0  0
 10 35  1  0  0  0  0
 10 36  1  0  0  0  0
 11 12  1  0  0  0  0
 11 37  1  0  0  0  0
 11 38  1  0  0  0  0
 12 13  1  0  0  0  0
 13 14  1  0  0  0  0
 13 22  1  0  0  0  0
 13 39  1  0  0  0  0
 14 15  1  0  0  0  0
 14 40  1  0  0  0  0
 14 41  1  0  0  0  0
 15 16  1  0  0  0  0
 15 42  1  0  0  0  0
 16 21  1  0  0  0  0
 16 17  2  0  0  0  0
 17 18  1  0  0  0  0
 17 43  1  0  0  0  0
 18 19  2  0  0  0  0
 18 44  1  0  0  0  0
 19 20  1  0  0  0  0
 19 45  1  0  0  0  0
 20 21  2  0  0  0  0
 22 46  1  0  0  0  0
 22 47  1  0  0  0  0
M  CHG  1   9   1
M  END
> <s_m_source_file>
AV-unprocessed.smi

> <i_m_source_file_index>
652

> <i_lp_mmshare_version>
43012

> <i_f3d_flags>
0

> <s_epik_input>
W0NIM11bQ0hdKFtDSDNdKVtOSF1DKD1PKVtDSDJdW0NIMl1OMVtDSDJdW0NIMl1PW0NASF0oW0NIMl0xKVtDSDJdW05IXWMyW2NIXVtjSF1bY0hdbm4y

> <s_epik_cmdline>
J2VwaWtfcHl0aG9uJywgJy1waCcsICc3LjAnLCAnLXRuJywgJzgnLCAnLW1hJywgJzIwMCcsICctbWV0YWxfYmluZGluZycsICctaW1hZScsICc8aW5maWxlLm1hZT4nLCAnLW9tYWUnLCAnPG91dGZpbGUubWFlPic=

> <r_lp_tautomer_probability>
0.999978

> <r_epik_Ionization_Penalty>
0.433079

> <r_epik_Ionization_Penalty_Charging>
0.413784

> <r_epik_Ionization_Penalty_Neutral>
0.0192945

> <r_epik_State_Penalty>
0.425138

> <r_epik_Charging_Adjusted_Penalty>
0.838922

> <i_epik_Tot_Q>
1

> <i_epik_Tot_abs_Q>
1

> <r_epik_Metal_State_Penalty>
0.422073

> <b_epik_Metal_Only>
0

> <s_lp_Force_Field>
OPLS_2005

> <r_lp_Energy>
24.1608

> <b_lp_Chiralities_Consistent>
1

> <s_lp_Variant>
AV-unprocessed.smi:652-2

> <Gold.Version>
5.8.1

> <Gold.Id.Protein>
6NUR|6NUR_protein|mol2

> <Gold.PLP.Fitness>
51.9142

> <Gold.PLP.PLP>
-41.1227

> <Gold.PLP.part.hbond>
-6.5936

> <Gold.PLP.part.metal>
0.0000

> <Gold.PLP.part.buried>
-4.1783

> <Gold.PLP.part.nonpolar>
-29.0674

> <Gold.PLP.part.repulsive>
0.4252

> <Gold.PLP.ligand.clash>
0.0000

> <Gold.PLP.ligand.torsion>
1.9044

> <Gold.PLP.Chemscore.Hbond>
4.7791

> <Gold.PLP.Chemscore.CHOScore>
0.0000

> <Gold.PLP.Chemscore.Metal>
0.0000

> <Gold.Chemscore.Hbonds>
donor molecule, donor type, donor heavy atom, donor atom, acceptor molecule, acceptor atom, score
      L1  H     9    48       P1  8028  1.50
      P1  H  6934  6946       L1     6  1.00
      P1  H  7989  7998       L1    12  0.39

> <Gold.PLP.Chemscore.Internal.Correction>
0.2631

> <Gold.Rescore>
     Score         DG    S(hbond)    S(metal)    S(lipo)     H(rot)  DE(clash)    DE(int)     intcor
     17.25     -21.16       3.25        0.00      90.56       2.26       0.71       3.19       ----

> <Gold.Chemscore.Fitness>
17.2502

> <Gold.Chemscore.DG>
-21.1551

> <Gold.Chemscore.ZeroCoef>
-5.4800

> <Gold.Chemscore.Hbond>
3.2527

> <Gold.Chemscore.Metal>
0.0000

> <Gold.Chemscore.Lipo>
90.5590

> <Gold.Chemscore.Internal_Hbond>
0.0000

> <Gold.Chemscore.DEClash>
0.7131

> <Gold.Chemscore.DEInternal>
3.1918

> <Gold.Chemscore.Rot>
2.2594

> <Gold.Chemscore.Internal.Correction>
   9.000000E+99

> <Gold.Chemscore.Hbonds>
donor molecule, donor type, donor heavy atom, donor atom, acceptor molecule, acceptor atom, score
      L1  H     4    30       P1  8029  0.02
      L1  H     9    48       P1  8028  0.56
      P1  H  6934  6946       L1     6  0.99
      P1  H  7989  7998       L1    12  0.07

> <Gold.Chemscore.Hbond.Weighted>
-10.8639

> <Gold.Chemscore.Metal.Weighted>
-0.0000

> <Gold.Chemscore.Lipo.Weighted>
-10.5954

> <Gold.Chemscore.Internal_Hbond.Weighted>
0.0000

> <Gold.Chemscore.DEClash.Weighted>
0.7131

> <Gold.Chemscore.DEInternal.Weighted>
3.1918

> <Gold.Chemscore.Rot.Weighted>
5.7841

> <Gold.Chemscore.Internal.Correction.Weighted>
   9.000000E+99

> <Gold.Protein.RotatedTorsions>
[ 6907 6896 6895 6894 ] final -139.90 input  -60.11 | X-H torsion
[ 7974 7965 7964 7962 ] final  102.27 input  175.53 | X-H torsion
[ 8008 7997 7996 7995 ] final   27.34 input   59.86 | X-H torsion
[ 10167 10162 10161 10158 ] final -170.67 input  -65.29 | X-H torsion
[ 10718 10713 10712 10709 ] final  -29.96 input   66.30 | X-H torsion
[ 10763 10752 10751 10750 ] final  -12.23 input  -60.55 | X-H torsion
[ 11005 11000 10999 10996 ] final    6.01 input  -57.11 | X-H torsion

> <Gold.Protein.ActiveResidues>
 VAL166  LYS551  ARG553  GLY616  TRP617  ASP618  TYR619  PRO620  LYS621  CYS622 
 ASP623  PHE694  ASN695  SER759  ASP760  ASP761  ALA762  ILE779  LEU786  VAL792 
 PHE793  MET794  SER795  GLU796  ALA797  LYS798  CYS799  TRP800  GLU811  SER814 

> <Gold.Protein.RotatedAtoms>
  151.0538  133.5602  159.2639 H   0  0  0  0  0  0  0  0  0  0  0  0  # atno 6907 bound_to 6896
  151.2603  135.0651  159.9105 H   0  0  0  0  0  0  0  0  0  0  0  0  # atno 6908 bound_to 6896
  152.5386  134.0284  159.8067 H   0  0  0  0  0  0  0  0  0  0  0  0  # atno 6909 bound_to 6896
  145.3614  139.2417  143.3505 H   0  0  0  0  0  0  0  0  0  0  0  0  # atno 7974 bound_to 7965
  155.0413  140.3169  155.4723 H   0  0  0  0  0  0  0  0  0  0  0  0  # atno 8008 bound_to 7997
  156.2854  140.2162  156.5480 H   0  0  0  0  0  0  0  0  0  0  0  0  # atno 8009 bound_to 7997
  154.7287  140.0483  157.0694 H   0  0  0  0  0  0  0  0  0  0  0  0  # atno 8010 bound_to 7997
  139.5847  144.1344  152.1561 H   0  0  0  0  0  0  0  0  0  0  0  0  # atno 10167 bound_to 10162
  156.4058  130.4399  149.7288 H   0  0  0  0  0  0  0  0  0  0  0  0  # atno 10718 bound_to 10713
  153.4954  135.7017  153.5861 H   0  0  0  0  0  0  0  0  0  0  0  0  # atno 10763 bound_to 10752
  153.4016  135.3871  155.1991 H   0  0  0  0  0  0  0  0  0  0  0  0  # atno 10764 bound_to 10752
  154.8714  135.3883  154.4419 H   0  0  0  0  0  0  0  0  0  0  0  0  # atno 10765 bound_to 10752
  140.5643  134.0163  155.7983 H   0  0  0  0  0  0  0  0  0  0  0  0  # atno 11005 bound_to 11000
  146.2926  140.4248  142.8734 LP  0  0  0  0  0  0  0  0  0  0  0  0  # atno 17320 bound_to 7965
  144.8644  140.7185  143.6087 LP  0  0  0  0  0  0  0  0  0  0  0  0  # atno 17321 bound_to 7965
  140.0905  144.5625  150.7058 LP  0  0  0  0  0  0  0  0  0  0  0  0  # atno 17342 bound_to 10162
  140.7121  143.2513  151.4549 LP  0  0  0  0  0  0  0  0  0  0  0  0  # atno 17343 bound_to 10162
  156.4286  130.7804  151.2823 LP  0  0  0  0  0  0  0  0  0  0  0  0  # atno 17370 bound_to 10713
  157.7505  131.0161  150.3530 LP  0  0  0  0  0  0  0  0  0  0  0  0  # atno 17371 bound_to 10713
  141.1095  133.9639  157.2935 LP  0  0  0  0  0  0  0  0  0  0  0  0  # atno 17394 bound_to 11000
  139.9393  135.0193  156.8656 LP  0  0  0  0  0  0  0  0  0  0  0  0  # atno 17395 bound_to 11000

$$$$
