AV-unprocessed.smi:970|AV-procd|sdf|4293|dock8
  -GOLD-   22720 2203D 1   1.00000     0.00000
 Structure written by MMmdl.
 31 31  0  0  0  0  0  0  0  0  1 V2000
  149.2216  133.0694  153.7441 C   0  0  0  0  0  0  0  0  0  0  0  0
  148.4313  134.2884  153.8155 N   0  0  0  0  0  0  0  0  0  0  0  0
  147.8468  134.7435  154.9328 C   0  0  0  0  0  0  0  0  0  0  0  0
  147.9353  134.1700  156.0201 O   0  0  0  0  0  0  0  0  0  0  0  0
  147.0555  136.0556  154.8011 C   0  0  2  0  0  0  0  0  0  0  0  0
  145.8903  135.8137  153.8276 C   0  0  0  0  0  0  0  0  0  0  0  0
  147.9041  137.1035  154.2378 N   0  0  0  0  0  0  0  0  0  0  0  0
  148.1639  138.2873  154.8169 C   0  0  0  0  0  0  0  0  0  0  0  0
  147.6551  138.6406  155.8815 O   0  0  0  0  0  0  0  0  0  0  0  0
  149.1604  139.1955  154.0811 C   0  0  1  0  0  0  0  0  0  0  0  0
  148.9183  140.6940  154.3558 C   0  0  0  0  0  0  0  0  0  0  0  0
  150.5252  138.7865  154.3915 N   0  0  0  0  0  0  0  0  0  0  0  0
  151.1043  137.5881  154.2887 C   0  0  0  0  0  0  0  0  0  0  0  0
  152.3586  137.5565  154.7161 N   0  0  0  0  0  0  0  0  0  0  0  0
  152.4968  138.8566  155.1116 C   0  0  0  0  0  0  0  0  0  0  0  0
  151.4262  139.6336  154.9489 N   0  0  0  0  0  0  0  0  0  0  0  0
  149.5717  132.9122  152.7238 H   0  0  0  0  0  0  0  0  0  0  0  0
  148.6273  132.2031  154.0378 H   0  0  0  0  0  0  0  0  0  0  0  0
  150.0925  133.1327  154.3979 H   0  0  0  0  0  0  0  0  0  0  0  0
  148.3150  134.8160  152.9625 H   0  0  0  0  0  0  0  0  0  0  0  0
  146.6655  136.3658  155.7726 H   0  0  0  0  0  0  0  0  0  0  0  0
  145.2193  135.0377  154.1978 H   0  0  0  0  0  0  0  0  0  0  0  0
  146.2409  135.5074  152.8407 H   0  0  0  0  0  0  0  0  0  0  0  0
  145.2973  136.7195  153.6991 H   0  0  0  0  0  0  0  0  0  0  0  0
  148.3665  136.8912  153.3658 H   0  0  0  0  0  0  0  0  0  0  0  0
  149.0159  139.0379  153.0108 H   0  0  0  0  0  0  0  0  0  0  0  0
  147.9095  140.9881  154.0641 H   0  0  0  0  0  0  0  0  0  0  0  0
  149.6145  141.3102  153.7863 H   0  0  0  0  0  0  0  0  0  0  0  0
  149.0426  140.9446  155.4100 H   0  0  0  0  0  0  0  0  0  0  0  0
  150.5954  136.7185  153.8992 H   0  0  0  0  0  0  0  0  0  0  0  0
  153.4119  139.2403  155.5381 H   0  0  0  0  0  0  0  0  0  0  0  0
  1  2  1  0  0  0  0
  1 17  1  0  0  0  0
  1 18  1  0  0  0  0
  1 19  1  0  0  0  0
  2  3  1  0  0  0  0
  2 20  1  0  0  0  0
  3  4  2  0  0  0  0
  3  5  1  0  0  0  0
  5  6  1  0  0  0  0
  5  7  1  0  0  0  0
  5 21  1  0  0  0  0
  6 22  1  0  0  0  0
  6 23  1  0  0  0  0
  6 24  1  0  0  0  0
  7  8  1  0  0  0  0
  7 25  1  0  0  0  0
  8  9  2  0  0  0  0
  8 10  1  0  0  0  0
 10 11  1  0  0  0  0
 10 12  1  0  0  0  0
 10 26  1  0  0  0  0
 11 27  1  0  0  0  0
 11 28  1  0  0  0  0
 11 29  1  0  0  0  0
 12 16  1  0  0  0  0
 12 13  1  0  0  0  0
 13 14  2  0  0  0  0
 13 30  1  0  0  0  0
 14 15  1  0  0  0  0
 15 16  2  0  0  0  0
 15 31  1  0  0  0  0
M  END
> <s_m_source_file>
AV-unprocessed.smi

> <i_m_source_file_index>
970

> <i_lp_mmshare_version>
43012

> <i_f3d_flags>
0

> <s_epik_input>
W0NIM11bTkhdQyg9TylbQ0BIXShbQ0gzXSlbTkhdQyg9TylbQ0BIXShbQ0gzXSluMVtjSF1uW2NIXW4x

> <s_epik_cmdline>
J2VwaWtfcHl0aG9uJywgJy1waCcsICc3LjAnLCAnLXRuJywgJzgnLCAnLW1hJywgJzIwMCcsICctbWV0YWxfYmluZGluZycsICctaW1hZScsICc8aW5maWxlLm1hZT4nLCAnLW9tYWUnLCAnPG91dGZpbGUubWFlPic=

> <r_lp_tautomer_probability>
1

> <r_epik_Ionization_Penalty>
1.07271e-05

> <r_epik_Ionization_Penalty_Charging>
0

> <r_epik_Ionization_Penalty_Neutral>
1.07271e-05

> <r_epik_State_Penalty>
-0

> <r_epik_Charging_Adjusted_Penalty>
0

> <i_epik_Tot_Q>
0

> <i_epik_Tot_abs_Q>
0

> <r_epik_Metal_State_Penalty>
-0

> <b_epik_Metal_Only>
0

> <s_lp_Force_Field>
OPLS_2005

> <r_lp_Energy>
8.21169

> <b_lp_Chiralities_Consistent>
1

> <s_lp_Variant>
AV-unprocessed.smi:970-3

> <Gold.Version>
5.8.1

> <Gold.Id.Protein>
6NUR|6NUR_protein|mol2

> <Gold.PLP.Fitness>
36.4278

> <Gold.PLP.PLP>
-24.4857

> <Gold.PLP.part.hbond>
-4.0000

> <Gold.PLP.part.metal>
0.0000

> <Gold.PLP.part.buried>
-2.9131

> <Gold.PLP.part.nonpolar>
-18.8889

> <Gold.PLP.part.repulsive>
0.1416

> <Gold.PLP.ligand.clash>
0.0000

> <Gold.PLP.ligand.torsion>
0.7523

> <Gold.PLP.Chemscore.Hbond>
3.6000

> <Gold.PLP.Chemscore.CHOScore>
0.8432

> <Gold.PLP.Chemscore.Metal>
0.0000

> <Gold.Chemscore.Hbonds>
donor molecule, donor type, donor heavy atom, donor atom, acceptor molecule, acceptor atom, score
      L1  H     2    20       P1  7948  0.94
      L1  H     7    25       P1  7948  1.00
      P1  H  7989  7998       L1    16  1.00
      P1  H 10752 10764       L1    14  0.66
      L1  C    13    30       P1  7948  0.43
      L1  C    13    30       P1  7949  0.40

> <Gold.PLP.Chemscore.Internal.Correction>
0.1169

> <Gold.Rescore>
     Score         DG    S(hbond)    S(metal)    S(lipo)     H(rot)  DE(clash)    DE(int)     intcor
     11.26     -12.94       3.44        0.00      22.27       2.59       0.56       1.12       ----

> <Gold.Chemscore.Fitness>
11.2567

> <Gold.Chemscore.DG>
-12.9415

> <Gold.Chemscore.ZeroCoef>
-5.4800

> <Gold.Chemscore.Hbond>
3.4354

> <Gold.Chemscore.Metal>
0.0000

> <Gold.Chemscore.Lipo>
22.2684

> <Gold.Chemscore.Internal_Hbond>
0.0000

> <Gold.Chemscore.DEClash>
0.5636

> <Gold.Chemscore.DEInternal>
1.1212

> <Gold.Chemscore.Rot>
2.5852

> <Gold.Chemscore.Internal.Correction>
   9.000000E+99

> <Gold.Chemscore.Hbonds>
donor molecule, donor type, donor heavy atom, donor atom, acceptor molecule, acceptor atom, score
      L1  H     2    20       P1  7948  0.64
      L1  H     7    25       P1  7948  1.00
      P1  H  7989  7998       L1    16  0.21
      P1  H 10752 10764       L1    14  0.28

> <Gold.Chemscore.Hbond.Weighted>
-11.4743

> <Gold.Chemscore.Metal.Weighted>
-0.0000

> <Gold.Chemscore.Lipo.Weighted>
-2.6054

> <Gold.Chemscore.Internal_Hbond.Weighted>
0.0000

> <Gold.Chemscore.DEClash.Weighted>
0.5636

> <Gold.Chemscore.DEInternal.Weighted>
1.1212

> <Gold.Chemscore.Rot.Weighted>
6.6182

> <Gold.Chemscore.Internal.Correction.Weighted>
   9.000000E+99

> <Gold.Protein.RotatedTorsions>
[ 6907 6896 6895 6894 ] final   33.28 input  -60.11 | X-H torsion
[ 7974 7965 7964 7962 ] final  172.49 input  175.53 | X-H torsion
[ 8008 7997 7996 7995 ] final   32.31 input   59.86 | X-H torsion
[ 10167 10162 10161 10158 ] final   68.22 input  -65.29 | X-H torsion
[ 10718 10713 10712 10709 ] final  -51.78 input   66.30 | X-H torsion
[ 10763 10752 10751 10750 ] final  -74.81 input  -60.55 | X-H torsion
[ 11005 11000 10999 10996 ] final  -79.26 input  -57.11 | X-H torsion

> <Gold.Protein.ActiveResidues>
 VAL166  LYS551  ARG553  GLY616  TRP617  ASP618  TYR619  PRO620  LYS621  CYS622 
 ASP623  PHE694  ASN695  SER759  ASP760  ASP761  ALA762  ILE779  LEU786  VAL792 
 PHE793  MET794  SER795  GLU796  ALA797  LYS798  CYS799  TRP800  GLU811  SER814 

> <Gold.Protein.RotatedAtoms>
  152.0863  134.9437  160.0572 H   0  0  0  0  0  0  0  0  0  0  0  0  # atno 6907 bound_to 6896
  152.0706  133.4100  159.4466 H   0  0  0  0  0  0  0  0  0  0  0  0  # atno 6908 bound_to 6896
  150.6836  134.3016  159.4752 H   0  0  0  0  0  0  0  0  0  0  0  0  # atno 6909 bound_to 6896
  144.7267  139.9506  143.6432 H   0  0  0  0  0  0  0  0  0  0  0  0  # atno 7974 bound_to 7965
  155.1204  140.3247  155.4499 H   0  0  0  0  0  0  0  0  0  0  0  0  # atno 8008 bound_to 7997
  156.2664  140.2028  156.6274 H   0  0  0  0  0  0  0  0  0  0  0  0  # atno 8009 bound_to 7997
  154.6688  140.0539  157.0130 H   0  0  0  0  0  0  0  0  0  0  0  0  # atno 8010 bound_to 7997
  140.0811  144.5070  150.7162 H   0  0  0  0  0  0  0  0  0  0  0  0  # atno 10167 bound_to 10162
  156.1680  130.4149  149.9691 H   0  0  0  0  0  0  0  0  0  0  0  0  # atno 10718 bound_to 10713
  154.4781  135.5852  153.6370 H   0  0  0  0  0  0  0  0  0  0  0  0  # atno 10763 bound_to 10752
  152.9843  135.6083  154.3281 H   0  0  0  0  0  0  0  0  0  0  0  0  # atno 10764 bound_to 10752
  154.3169  135.2844  155.2518 H   0  0  0  0  0  0  0  0  0  0  0  0  # atno 10765 bound_to 10752
  141.1667  133.7098  156.8096 H   0  0  0  0  0  0  0  0  0  0  0  0  # atno 11005 bound_to 11000
  146.0714  139.3703  143.0520 LP  0  0  0  0  0  0  0  0  0  0  0  0  # atno 17320 bound_to 7965
  145.7963  140.9792  143.1022 LP  0  0  0  0  0  0  0  0  0  0  0  0  # atno 17321 bound_to 7965
  140.7077  143.2481  151.4676 LP  0  0  0  0  0  0  0  0  0  0  0  0  # atno 17342 bound_to 10162
  139.5779  144.1776  152.1928 LP  0  0  0  0  0  0  0  0  0  0  0  0  # atno 17343 bound_to 10162
  156.7500  130.9111  151.3637 LP  0  0  0  0  0  0  0  0  0  0  0  0  # atno 17370 bound_to 10713
  157.6782  130.9114  150.0201 LP  0  0  0  0  0  0  0  0  0  0  0  0  # atno 17371 bound_to 10713
  140.2197  134.8766  157.3364 LP  0  0  0  0  0  0  0  0  0  0  0  0  # atno 17394 bound_to 11000
  140.2000  134.4266  155.7668 LP  0  0  0  0  0  0  0  0  0  0  0  0  # atno 17395 bound_to 11000

$$$$
