AV-unprocessed.smi:1324|AV-procd|sdf|5471|dock5
  -GOLD-   22720 5 43D 1   1.00000     0.00000
 Structure written by MMmdl.
 42 43  0  0  0  0  0  0  0  0  2 V2000
  143.7567  140.2695  157.0189 C   0  0  0  0  0  0  0  0  0  0  0  0
  145.0739  140.5672  156.3352 C   0  0  0  0  0  0  0  0  0  0  0  0
  145.1499  141.5574  155.5298 N   0  0  0  0  0  0  0  0  0  0  0  0
  146.3714  141.8407  154.8956 C   0  0  0  0  0  0  0  0  0  0  0  0
  146.3714  143.0375  153.9609 C   0  0  0  0  0  0  0  0  0  0  0  0
  147.4782  141.0766  155.1225 C   0  0  0  0  0  0  0  0  0  0  0  0
  148.8318  141.3443  154.4635 C   0  0  0  0  0  0  0  0  0  0  0  0
  150.0501  141.3611  155.3907 C   0  0  0  0  0  0  0  0  0  0  0  0
  150.9664  140.5516  155.2444 O   0  0  0  0  0  0  0  0  0  0  0  0
  150.0433  142.3010  156.3490 N   0  0  0  0  0  0  0  0  0  0  0  0
  151.0947  142.5097  157.3428 C   0  0  0  0  0  0  0  0  0  0  0  0
  151.3006  141.2025  158.1432 C   0  0  0  0  0  0  0  0  0  0  0  0
  152.0734  141.3037  159.4707 C   0  0  0  0  0  0  0  0  0  0  0  0
  153.2235  142.3221  159.5001 C   0  0  0  0  0  0  0  0  0  0  0  0
  152.7483  143.7388  159.8630 C   0  0  0  0  0  0  0  0  0  0  0  0
  151.9931  144.4702  158.7438 C   0  0  0  0  0  0  0  0  0  0  0  0
  150.7486  143.7422  158.2034 C   0  0  0  0  0  0  0  0  0  0  0  0
  147.3460  139.9391  156.0502 C   0  0  0  0  0  0  0  0  0  0  0  0
  148.3086  139.2062  156.2751 O   0  0  0  0  0  0  0  0  0  0  0  0
  146.1304  139.7365  156.6339 N   0  5  0  0  0  0  0  0  0  0  0  0
  142.9381  140.8153  156.5482 H   0  0  0  0  0  0  0  0  0  0  0  0
  143.8053  140.5598  158.0686 H   0  0  0  0  0  0  0  0  0  0  0  0
  143.5299  139.2040  156.9639 H   0  0  0  0  0  0  0  0  0  0  0  0
  147.0249  143.8210  154.3454 H   0  0  0  0  0  0  0  0  0  0  0  0
  145.3700  143.4570  153.8567 H   0  0  0  0  0  0  0  0  0  0  0  0
  146.7178  142.7506  152.9678 H   0  0  0  0  0  0  0  0  0  0  0  0
  149.0047  140.5809  153.7051 H   0  0  0  0  0  0  0  0  0  0  0  0
  148.8033  142.2827  153.9083 H   0  0  0  0  0  0  0  0  0  0  0  0
  149.2471  142.9205  156.3935 H   0  0  0  0  0  0  0  0  0  0  0  0
  152.0167  142.7344  156.8032 H   0  0  0  0  0  0  0  0  0  0  0  0
  150.3334  140.7457  158.3587 H   0  0  0  0  0  0  0  0  0  0  0  0
  151.8171  140.4914  157.4970 H   0  0  0  0  0  0  0  0  0  0  0  0
  151.3760  141.5249  160.2797 H   0  0  0  0  0  0  0  0  0  0  0  0
  152.4709  140.3146  159.7016 H   0  0  0  0  0  0  0  0  0  0  0  0
  153.9317  142.0057  160.2669 H   0  0  0  0  0  0  0  0  0  0  0  0
  153.7793  142.3177  158.5616 H   0  0  0  0  0  0  0  0  0  0  0  0
  152.1306  143.7029  160.7611 H   0  0  0  0  0  0  0  0  0  0  0  0
  153.6191  144.3381  160.1302 H   0  0  0  0  0  0  0  0  0  0  0  0
  151.6851  145.4442  159.1257 H   0  0  0  0  0  0  0  0  0  0  0  0
  152.6774  144.6833  157.9216 H   0  0  0  0  0  0  0  0  0  0  0  0
  150.2056  144.4614  157.5881 H   0  0  0  0  0  0  0  0  0  0  0  0
  150.0697  143.4740  159.0137 H   0  0  0  0  0  0  0  0  0  0  0  0
  1  2  1  0  0  0  0
  1 21  1  0  0  0  0
  1 22  1  0  0  0  0
  1 23  1  0  0  0  0
  2 20  1  0  0  0  0
  2  3  2  0  0  0  0
  3  4  1  0  0  0  0
  4  5  1  0  0  0  0
  4  6  2  0  0  0  0
  5 24  1  0  0  0  0
  5 25  1  0  0  0  0
  5 26  1  0  0  0  0
  6  7  1  0  0  0  0
  6 18  1  0  0  0  0
  7  8  1  0  0  0  0
  7 27  1  0  0  0  0
  7 28  1  0  0  0  0
  8  9  2  0  0  0  0
  8 10  1  0  0  0  0
 10 11  1  0  0  0  0
 10 29  1  0  0  0  0
 11 17  1  0  0  0  0
 11 12  1  0  0  0  0
 11 30  1  0  0  0  0
 12 13  1  0  0  0  0
 12 31  1  0  0  0  0
 12 32  1  0  0  0  0
 13 14  1  0  0  0  0
 13 33  1  0  0  0  0
 13 34  1  0  0  0  0
 14 15  1  0  0  0  0
 14 35  1  0  0  0  0
 14 36  1  0  0  0  0
 15 16  1  0  0  0  0
 15 37  1  0  0  0  0
 15 38  1  0  0  0  0
 16 17  1  0  0  0  0
 16 39  1  0  0  0  0
 16 40  1  0  0  0  0
 17 41  1  0  0  0  0
 17 42  1  0  0  0  0
 18 19  2  0  0  0  0
 18 20  1  0  0  0  0
M  CHG  1  20  -1
M  END
> <s_m_source_file>
AV-unprocessed.smi

> <i_m_source_file_index>
1324

> <i_lp_mmshare_version>
43012

> <i_f3d_flags>
0

> <s_epik_input>
W0NIM11jMW5jKFtDSDNdKWMoYyg9TylbbkhdMSlbQ0gyXUMoPU8pW05IXVtDSF0yW0NIMl1bQ0gyXVtDSDJdW0NIMl1bQ0gyXVtDSDJdMg==

> <s_epik_cmdline>
J2VwaWtfcHl0aG9uJywgJy1waCcsICc3LjAnLCAnLXRuJywgJzgnLCAnLW1hJywgJzIwMCcsICctbWV0YWxfYmluZGluZycsICctaW1hZScsICc8aW5maWxlLm1hZT4nLCAnLW9tYWUnLCAnPG91dGZpbGUubWFlPic=

> <r_lp_tautomer_probability>
0.839158

> <r_epik_Ionization_Penalty>
6.62804

> <r_epik_Ionization_Penalty_Charging>
7.40585e-08

> <r_epik_Ionization_Penalty_Neutral>
6.62804

> <r_epik_State_Penalty>
4.44437

> <r_epik_Charging_Adjusted_Penalty>
4.44437

> <i_epik_Tot_Q>
-1

> <i_epik_Tot_abs_Q>
1

> <r_epik_Metal_State_Penalty>
0.804717

> <b_epik_Metal_Only>
1

> <s_lp_Force_Field>
OPLS_2005

> <r_lp_Energy>
20.4911

> <b_lp_Chiralities_Consistent>
1

> <s_lp_Variant>
AV-unprocessed.smi:1324-3

> <Gold.Version>
5.8.1

> <Gold.Id.Protein>
6NUR|6NUR_protein|mol2

> <Gold.PLP.Fitness>
42.5673

> <Gold.PLP.PLP>
-37.5326

> <Gold.PLP.part.hbond>
-2.0000

> <Gold.PLP.part.metal>
0.0000

> <Gold.PLP.part.buried>
-3.0489

> <Gold.PLP.part.nonpolar>
-30.6284

> <Gold.PLP.part.repulsive>
0.2838

> <Gold.PLP.ligand.clash>
0.0000

> <Gold.PLP.ligand.torsion>
0.1325

> <Gold.PLP.Chemscore.Hbond>
1.7600

> <Gold.PLP.Chemscore.CHOScore>
0.0000

> <Gold.PLP.Chemscore.Metal>
0.0000

> <Gold.Chemscore.Hbonds>
donor molecule, donor type, donor heavy atom, donor atom, acceptor molecule, acceptor atom, score
      L1  H    10    29       P1  8028  0.67
      P1  H  7989  7998       L1     9  0.94

> <Gold.PLP.Chemscore.Internal.Correction>
0.0196

> <Gold.Rescore>
     Score         DG    S(hbond)    S(metal)    S(lipo)     H(rot)  DE(clash)    DE(int)     intcor
     14.78     -17.08       1.31        0.00      93.31       1.45       1.00       1.30       ----

> <Gold.Chemscore.Fitness>
14.7818

> <Gold.Chemscore.DG>
-17.0792

> <Gold.Chemscore.ZeroCoef>
-5.4800

> <Gold.Chemscore.Hbond>
1.3116

> <Gold.Chemscore.Metal>
0.0000

> <Gold.Chemscore.Lipo>
93.3148

> <Gold.Chemscore.Internal_Hbond>
0.0000

> <Gold.Chemscore.DEClash>
0.9987

> <Gold.Chemscore.DEInternal>
1.2988

> <Gold.Chemscore.Rot>
1.4450

> <Gold.Chemscore.Internal.Correction>
   9.000000E+99

> <Gold.Chemscore.Hbonds>
donor molecule, donor type, donor heavy atom, donor atom, acceptor molecule, acceptor atom, score
      L1  H    10    29       P1  8028  0.67
      P1  H  7989  7998       L1     9  0.46

> <Gold.Chemscore.Hbond.Weighted>
-4.3806

> <Gold.Chemscore.Metal.Weighted>
-0.0000

> <Gold.Chemscore.Lipo.Weighted>
-10.9178

> <Gold.Chemscore.Internal_Hbond.Weighted>
0.0000

> <Gold.Chemscore.DEClash.Weighted>
0.9987

> <Gold.Chemscore.DEInternal.Weighted>
1.2988

> <Gold.Chemscore.Rot.Weighted>
3.6992

> <Gold.Chemscore.Internal.Correction.Weighted>
   9.000000E+99

> <Gold.Protein.RotatedTorsions>
[ 6907 6896 6895 6894 ] final  -82.97 input  -60.11 | X-H torsion
[ 7974 7965 7964 7962 ] final  -98.93 input  175.53 | X-H torsion
[ 8008 7997 7996 7995 ] final -129.00 input   59.86 | X-H torsion
[ 10167 10162 10161 10158 ] final  -90.08 input  -65.29 | X-H torsion
[ 10718 10713 10712 10709 ] final  166.39 input   66.30 | X-H torsion
[ 10763 10752 10751 10750 ] final -122.07 input  -60.55 | X-H torsion
[ 11005 11000 10999 10996 ] final   52.58 input  -57.11 | X-H torsion

> <Gold.Protein.ActiveResidues>
 VAL166  LYS551  ARG553  GLY616  TRP617  ASP618  TYR619  PRO620  LYS621  CYS622 
 ASP623  PHE694  ASN695  SER759  ASP760  ASP761  ALA762  ILE779  LEU786  VAL792 
 PHE793  MET794  SER795  GLU796  ALA797  LYS798  CYS799  TRP800  GLU811  SER814 

> <Gold.Protein.RotatedAtoms>
  150.6891  134.3583  159.4938 H   0  0  0  0  0  0  0  0  0  0  0  0  # atno 6907 bound_to 6896
  152.1415  134.9056  160.0562 H   0  0  0  0  0  0  0  0  0  0  0  0  # atno 6908 bound_to 6896
  152.0188  133.3855  159.4286 H   0  0  0  0  0  0  0  0  0  0  0  0  # atno 6909 bound_to 6896
  145.3141  140.9407  143.2753 H   0  0  0  0  0  0  0  0  0  0  0  0  # atno 7974 bound_to 7965
  155.2719  140.0440  157.3008 H   0  0  0  0  0  0  0  0  0  0  0  0  # atno 8008 bound_to 7997
  154.5648  140.2356  155.8249 H   0  0  0  0  0  0  0  0  0  0  0  0  # atno 8009 bound_to 7997
  156.2076  140.3008  155.9669 H   0  0  0  0  0  0  0  0  0  0  0  0  # atno 8010 bound_to 7997
  140.3585  143.2854  151.9643 H   0  0  0  0  0  0  0  0  0  0  0  0  # atno 10167 bound_to 10162
  157.0666  131.0354  151.2627 H   0  0  0  0  0  0  0  0  0  0  0  0  # atno 10718 bound_to 10713
  154.8682  135.4145  154.2723 H   0  0  0  0  0  0  0  0  0  0  0  0  # atno 10763 bound_to 10752
  153.3630  135.7004  153.6702 H   0  0  0  0  0  0  0  0  0  0  0  0  # atno 10764 bound_to 10752
  153.5595  135.3613  155.2765 H   0  0  0  0  0  0  0  0  0  0  0  0  # atno 10765 bound_to 10752
  140.0838  134.5303  155.8920 H   0  0  0  0  0  0  0  0  0  0  0  0  # atno 11005 bound_to 11000
  144.8992  139.4672  143.6641 LP  0  0  0  0  0  0  0  0  0  0  0  0  # atno 17320 bound_to 7965
  146.3107  139.7735  142.9022 LP  0  0  0  0  0  0  0  0  0  0  0  0  # atno 17321 bound_to 7965
  139.4817  144.6014  151.7599 LP  0  0  0  0  0  0  0  0  0  0  0  0  # atno 17342 bound_to 10162
  140.5150  144.0966  150.6006 LP  0  0  0  0  0  0  0  0  0  0  0  0  # atno 17343 bound_to 10162
  157.4912  130.7823  149.7509 LP  0  0  0  0  0  0  0  0  0  0  0  0  # atno 17370 bound_to 10713
  155.9962  130.3907  150.2786 LP  0  0  0  0  0  0  0  0  0  0  0  0  # atno 17371 bound_to 10713
  141.2055  133.6648  156.6188 LP  0  0  0  0  0  0  0  0  0  0  0  0  # atno 17394 bound_to 11000
  140.3450  134.7817  157.4425 LP  0  0  0  0  0  0  0  0  0  0  0  0  # atno 17395 bound_to 11000

$$$$
