#       Name:                AV-unprocessed.smi:1475
#       Creating user name   scv26
#       Creation time:       Fri Mar 27 06:07:05 2020


#       File generated by GOLD software.
#

@<TRIPOS>MOLECULE
AV-unprocessed.smi:1475
    53    54     1
SMALL
NO_CHARGES


@<TRIPOS>ATOM
      1 ****        -4.8948  -1.7998   4.4899 C.3            1 S1                 0.0000
      2 ****        -4.7648  -0.7315   3.4447 C.2            1 S1                 0.0000
      3 ****        -5.0828   0.6511   3.5541 C.2            1 S1                 0.0000
      4 ****        -4.7814   1.1653   2.3246 C.2            1 S1                 0.0000
      5 ****        -4.8993   2.5630   1.8115 C.3            1 S1                 0.0000
      6 ****        -4.3106   0.1160   1.5551 N.pl3          1 S1                 0.0000
      7 ****        -3.8437   0.1243   0.1779 C.3            1 S1                 0.0000
      8 ****        -2.3425   0.4077   0.1099 C.2            1 S1                 0.0000
      9 ****        -1.9365   1.5650   0.0055 O.2            1 S1                 0.0000
     10 ****        -1.5282  -0.6573   0.1735 N.am           1 S1                 0.0000
     11 ****        -0.0716  -0.6006   0.1601 C.3            1 S1                 0.0000
     12 ****         0.4755  -0.2775  -1.2451 C.3            1 S1                 0.0000
     13 ****         1.9592  -0.2891  -1.2970 N.4            1 S1                 1.0000
     14 ****         2.4679  -0.4707  -2.6814 C.3            1 S1                 0.0000
     15 ****         3.9984  -0.6505  -2.7029 C.3            1 S1                 0.0000
     16 ****         4.5222  -0.8278  -4.1353 C.3            1 S1                 0.0000
     17 ****         4.6859   0.5340  -2.0004 C.3            1 S1                 0.0000
     18 ****         4.1172   0.7680  -0.5889 C.3            1 S1                 0.0000
     19 ****         4.5825  -0.2894   0.4280 C.3            1 S1                 0.0000
     20 ****         2.5816   0.8920  -0.6402 C.3            1 S1                 0.0000
     21 ****        -4.3013  -1.0455   2.2459 N.2            1 S1                 0.0000
     22 ****        -5.3174  -1.3997   5.4116 H              1 S1                 0.0000
     23 ****        -3.9241  -2.2336   4.7308 H              1 S1                 0.0000
     24 ****        -5.5458  -2.6052   4.1494 H              1 S1                 0.0000
     25 ****        -5.4741   1.1852   4.4073 H              1 S1                 0.0000
     26 ****        -5.2545   3.2355   2.5923 H              1 S1                 0.0000
     27 ****        -5.6033   2.6137   0.9808 H              1 S1                 0.0000
     28 ****        -3.9351   2.9344   1.4647 H              1 S1                 0.0000
     29 ****        -4.0710  -0.8364  -0.2877 H              1 S1                 0.0000
     30 ****        -4.3909   0.8825  -0.3829 H              1 S1                 0.0000
     31 ****        -1.9515  -1.5697   0.2687 H              1 S1                 0.0000
     32 ****         0.2549   0.1319   0.8984 H              1 S1                 0.0000
     33 ****         0.3068  -1.5674   0.4929 H              1 S1                 0.0000
     34 ****         0.0867  -1.0269  -1.9362 H              1 S1                 0.0000
     35 ****         0.1098   0.6871  -1.6004 H              1 S1                 0.0000
     36 ****         2.0005  -1.3489  -3.1291 H              1 S1                 0.0000
     37 ****         2.1760   0.3873  -3.2899 H              1 S1                 0.0000
     38 ****         4.2397  -1.5630  -2.1564 H              1 S1                 0.0000
     39 ****         4.3111   0.0501  -4.7469 H              1 S1                 0.0000
     40 ****         4.0617  -1.6892  -4.6197 H              1 S1                 0.0000
     41 ****         5.6012  -0.9850  -4.1415 H              1 S1                 0.0000
     42 ****         5.7638   0.3740  -1.9507 H              1 S1                 0.0000
     43 ****         4.5402   1.4373  -2.5949 H              1 S1                 0.0000
     44 ****         4.5100   1.7229  -0.2373 H              1 S1                 0.0000
     45 ****         4.2098  -1.2842   0.1840 H              1 S1                 0.0000
     46 ****         4.2326  -0.0458   1.4316 H              1 S1                 0.0000
     47 ****         5.6709  -0.3438   0.4663 H              1 S1                 0.0000
     48 ****         2.3021   1.7926  -1.1895 H              1 S1                 0.0000
     49 ****         2.2017   1.0200   0.3725 H              1 S1                 0.0000
     50 ****         2.2557  -1.1038  -0.7789 H              1 S1                 0.0000
     51 ****        -2.5887   2.3220  -0.0350 LP             1 S1                 0.0000
     52 ****        -0.9544   1.7483  -0.0388 LP             1 S1                 0.0000
     53 ****        -4.0083  -1.9451   1.9220 LP             1 S1                 0.0000
@<TRIPOS>BOND
    1    1    2 1     
    2    1   22 1     
    3    1   23 1     
    4    1   24 1     
    5    2   21 2     
    6    2    3 1     
    7    3    4 2     
    8    3   25 1     
    9    4    5 1     
   10    4    6 1     
   11    5   26 1     
   12    5   27 1     
   13    5   28 1     
   14    6    7 1     
   15    6   21 1     
   16    7    8 1     
   17    7   29 1     
   18    7   30 1     
   19    8    9 2     
   20    8   10 am    
   21   10   11 1     
   22   10   31 1     
   23   11   12 1     
   24   11   32 1     
   25   11   33 1     
   26   12   13 1     
   27   12   34 1     
   28   12   35 1     
   29   13   20 1     
   30   13   14 1     
   31   13   50 1     
   32   14   15 1     
   33   14   36 1     
   34   14   37 1     
   35   15   16 1     
   36   15   17 1     
   37   15   38 1     
   38   16   39 1     
   39   16   40 1     
   40   16   41 1     
   41   17   18 1     
   42   17   42 1     
   43   17   43 1     
   44   18   19 1     
   45   18   20 1     
   46   18   44 1     
   47   19   45 1     
   48   19   46 1     
   49   19   47 1     
   50   20   48 1     
   51   20   49 1     
   52    9   51 1     
   53    9   52 1     
   54   21   53 1     
@<TRIPOS>SUBSTRUCTURE
      1 S1             1
@<TRIPOS>SET
LONE_PAIRS      STATIC     ATOMS    <user>   **** ""
3 51 52 53
DONOR_HYDROGENS      STATIC     ATOMS    <user>   **** ""
2 31 50
ATOM$BLUE        STATIC     ATOMS    COLORGROUP SYSTEM
3 51 52 53
ATOM$RED        STATIC     ATOMS    COLORGROUP SYSTEM
2 31 50
