#       Name:                AV-unprocessed.smi:1867
#       Creating user name   scv26
#       Creation time:       Fri Mar 27 09:28:24 2020


#       File generated by GOLD software.
#

@<TRIPOS>MOLECULE
AV-unprocessed.smi:1867
    55    58     1
SMALL
NO_CHARGES


@<TRIPOS>ATOM
      1 ****        -0.7820   3.2425  -0.5597 O.2            1 S1                 0.0000
      2 ****        -1.2587   2.1105  -0.5844 C.2            1 S1                 0.0000
      3 ****        -0.5364   0.9763  -0.6734 N.am           1 S1                 0.0000
      4 ****         0.8762   0.8231  -0.6824 C.ar           1 S1                 0.0000
      5 ****         1.4013  -0.4408  -0.3399 C.ar           1 S1                 0.0000
      6 ****         2.7966  -0.6432  -0.3349 C.ar           1 S1                 0.0000
      7 ****         3.6597   0.4216  -0.6855 C.ar           1 S1                 0.0000
      8 ****         5.0616   0.3005  -0.6874 N.pl3          1 S1                 0.0000
      9 ****         5.7300  -0.9798  -0.5303 C.3            1 S1                 0.0000
     10 ****         7.2170  -0.6552  -0.6702 C.3            1 S1                 0.0000
     11 ****         7.2286   0.5249  -1.6433 C.3            1 S1                 0.0000
     12 ****         5.9258   1.2744  -1.3401 C.3            1 S1                 0.0000
     13 ****         3.1118   1.6129  -1.0234 N.pl3          1 S1                 1.0000
     14 ****         1.7822   1.8504  -1.0398 C.ar           1 S1                 0.0000
     15 ****        -2.5887   1.9192  -0.5161 N.am           1 S1                 0.0000
     16 ****        -3.6584   2.9145  -0.4130 C.3            1 S1                 0.0000
     17 ****        -4.8982   2.3717   0.2896 C.3            1 S1                 0.0000
     18 ****        -5.9858   3.3428  -0.1706 C.3            1 S1                 0.0000
     19 ****        -5.6254   3.7260  -1.5541 N.4            1 S1                 1.0000
     20 ****        -5.9886   5.1157  -1.9248 C.3            1 S1                 0.0000
     21 ****        -5.5818   5.4113  -3.3795 C.3            1 S1                 0.0000
     22 ****        -4.1090   5.0602  -3.6771 C.3            1 S1                 0.0000
     23 ****        -3.3829   4.4752  -2.4549 C.3            1 S1                 0.0000
     24 ****        -4.2025   3.3460  -1.7883 C.3            1 S1                 0.0000
     25 ****        -1.0640   0.1165  -0.6423 H              1 S1                 0.0000
     26 ****         0.7414  -1.2528  -0.0711 H              1 S1                 0.0000
     27 ****         3.1860  -1.6119  -0.0591 H              1 S1                 0.0000
     28 ****         5.5090  -1.4377   0.4343 H              1 S1                 0.0000
     29 ****         5.4058  -1.6579  -1.3208 H              1 S1                 0.0000
     30 ****         7.6183  -0.3397   0.2941 H              1 S1                 0.0000
     31 ****         7.8063  -1.5037  -1.0187 H              1 S1                 0.0000
     32 ****         8.1125   1.1548  -1.5384 H              1 S1                 0.0000
     33 ****         7.2051   0.1508  -2.6676 H              1 S1                 0.0000
     34 ****         5.4824   1.6754  -2.2524 H              1 S1                 0.0000
     35 ****         6.1061   2.1022  -0.6533 H              1 S1                 0.0000
     36 ****         1.5059   2.8483  -1.3448 H              1 S1                 0.0000
     37 ****        -2.8961   0.9581  -0.5641 H              1 S1                 0.0000
     38 ****        -3.3276   3.7900   0.1489 H              1 S1                 0.0000
     39 ****        -5.1273   1.3638  -0.0608 H              1 S1                 0.0000
     40 ****        -4.7935   2.3380   1.3746 H              1 S1                 0.0000
     41 ****        -6.9839   2.9064  -0.1250 H              1 S1                 0.0000
     42 ****        -5.9768   4.2233   0.4740 H              1 S1                 0.0000
     43 ****        -7.0636   5.2539  -1.8021 H              1 S1                 0.0000
     44 ****        -5.5020   5.8194  -1.2474 H              1 S1                 0.0000
     45 ****        -6.2252   4.8433  -4.0531 H              1 S1                 0.0000
     46 ****        -5.7675   6.4621  -3.6049 H              1 S1                 0.0000
     47 ****        -4.0733   4.3387  -4.4944 H              1 S1                 0.0000
     48 ****        -3.5769   5.9433  -4.0323 H              1 S1                 0.0000
     49 ****        -2.4038   4.1026  -2.7566 H              1 S1                 0.0000
     50 ****        -3.1937   5.2732  -1.7354 H              1 S1                 0.0000
     51 ****        -4.2285   2.4835  -2.4567 H              1 S1                 0.0000
     52 ****        -6.1632   3.1254  -2.1630 H              1 S1                 0.0000
     53 ****         3.7380   2.3765  -1.2791 H              1 S1                 0.0000
     54 ****         0.2088   3.3690  -0.6072 LP             1 S1                 0.0000
     55 ****        -1.3848   4.0376  -0.4922 LP             1 S1                 0.0000
@<TRIPOS>BOND
    1    1    2 2     
    2    2    3 am    
    3    2   15 am    
    4    3    4 1     
    5    3   25 1     
    6    4   14 ar    
    7    4    5 ar    
    8    5    6 ar    
    9    5   26 1     
   10    6    7 ar    
   11    6   27 1     
   12    7    8 1     
   13    7   13 ar    
   14    8   12 1     
   15    8    9 1     
   16    9   10 1     
   17    9   28 1     
   18    9   29 1     
   19   10   11 1     
   20   10   30 1     
   21   10   31 1     
   22   11   12 1     
   23   11   32 1     
   24   11   33 1     
   25   12   34 1     
   26   12   35 1     
   27   13   14 ar    
   28   13   53 1     
   29   14   36 1     
   30   15   16 1     
   31   15   37 1     
   32   16   24 1     
   33   16   17 1     
   34   16   38 1     
   35   17   18 1     
   36   17   39 1     
   37   17   40 1     
   38   18   19 1     
   39   18   41 1     
   40   18   42 1     
   41   19   24 1     
   42   19   20 1     
   43   19   52 1     
   44   20   21 1     
   45   20   43 1     
   46   20   44 1     
   47   21   22 1     
   48   21   45 1     
   49   21   46 1     
   50   22   23 1     
   51   22   47 1     
   52   22   48 1     
   53   23   24 1     
   54   23   49 1     
   55   23   50 1     
   56   24   51 1     
   57    1   54 1     
   58    1   55 1     
@<TRIPOS>SUBSTRUCTURE
      1 S1             1
@<TRIPOS>SET
LONE_PAIRS      STATIC     ATOMS    <user>   **** ""
2 54 55
DONOR_HYDROGENS      STATIC     ATOMS    <user>   **** ""
4 25 53 37 52
ATOM$BLUE        STATIC     ATOMS    COLORGROUP SYSTEM
2 54 55
ATOM$RED        STATIC     ATOMS    COLORGROUP SYSTEM
4 25 53 37 52
