AV-unprocessed.smi:447|AV-procd|sdf|2598|dock4
  -GOLD-   2262022593D 1   1.00000     0.00000
 Structure written by MMmdl.
 45 47  0  0  0  0  0  0  0  0  1 V2000
  149.5297  136.4614  155.3663 C   0  0  0  0  0  0  0  0  0  0  0  0
  148.0323  136.6850  155.1882 C   0  0  0  0  0  0  0  0  0  0  0  0
  147.3164  136.8785  156.1704 O   0  0  0  0  0  0  0  0  0  0  0  0
  147.5718  136.6445  153.9293 N   0  0  0  0  0  0  0  0  0  0  0  0
  146.1710  136.7746  153.5329 C   0  0  1  0  0  0  0  0  0  0  0  0
  145.9601  138.0007  152.6315 C   0  0  0  0  0  0  0  0  0  0  0  0
  145.7651  135.4953  152.8459 C   0  0  0  0  0  0  0  0  0  0  0  0
  146.6401  134.5125  152.6101 N   0  0  0  0  0  0  0  0  0  0  0  0
  145.8735  133.5601  151.9708 C   0  0  0  0  0  0  0  0  0  0  0  0
  146.2208  132.2844  151.4716 C   0  0  0  0  0  0  0  0  0  0  0  0
  145.2504  131.4745  150.8463 C   0  0  0  0  0  0  0  0  0  0  0  0
  143.9224  131.9282  150.7107 C   0  0  0  0  0  0  0  0  0  0  0  0
  143.5566  133.1969  151.2002 C   0  0  0  0  0  0  0  0  0  0  0  0
  144.5293  134.0010  151.8244 C   0  0  0  0  0  0  0  0  0  0  0  0
  144.5001  135.2670  152.4013 N   0  0  0  0  0  0  0  0  0  0  0  0
  143.3235  136.1237  152.4843 C   0  0  0  0  0  0  0  0  0  0  0  0
  142.5376  135.9140  153.7950 C   0  0  2  0  0  0  0  0  0  0  0  0
  142.3641  134.5251  153.9887 O   0  0  0  0  0  0  0  0  0  0  0  0
  141.2181  136.6745  153.8224 C   0  0  0  0  0  0  0  0  0  0  0  0
  141.2098  138.0711  153.6159 C   0  0  0  0  0  0  0  0  0  0  0  0
  139.9963  138.7854  153.6310 C   0  0  0  0  0  0  0  0  0  0  0  0
  138.7830  138.1080  153.8564 C   0  0  0  0  0  0  0  0  0  0  0  0
  138.7834  136.7148  154.0594 C   0  0  0  0  0  0  0  0  0  0  0  0
  139.9962  135.9993  154.0398 C   0  0  0  0  0  0  0  0  0  0  0  0
  150.0966  137.0226  154.6229 H   0  0  0  0  0  0  0  0  0  0  0  0
  149.7669  135.4028  155.2562 H   0  0  0  0  0  0  0  0  0  0  0  0
  149.8532  136.7839  156.3565 H   0  0  0  0  0  0  0  0  0  0  0  0
  148.2350  136.4822  153.1851 H   0  0  0  0  0  0  0  0  0  0  0  0
  145.5857  136.9022  154.4412 H   0  0  0  0  0  0  0  0  0  0  0  0
  144.9138  138.0915  152.3385 H   0  0  0  0  0  0  0  0  0  0  0  0
  146.5557  137.9322  151.7206 H   0  0  0  0  0  0  0  0  0  0  0  0
  146.2386  138.9219  153.1439 H   0  0  0  0  0  0  0  0  0  0  0  0
  147.2354  131.9281  151.5702 H   0  0  0  0  0  0  0  0  0  0  0  0
  145.5262  130.5009  150.4684 H   0  0  0  0  0  0  0  0  0  0  0  0
  143.1847  131.3022  150.2304 H   0  0  0  0  0  0  0  0  0  0  0  0
  142.5404  133.5475  151.0972 H   0  0  0  0  0  0  0  0  0  0  0  0
  143.5986  137.1682  152.3439 H   0  0  0  0  0  0  0  0  0  0  0  0
  142.6846  135.8767  151.6353 H   0  0  0  0  0  0  0  0  0  0  0  0
  143.1468  136.2601  154.6311 H   0  0  0  0  0  0  0  0  0  0  0  0
  142.6445  134.3084  154.8649 H   0  0  0  0  0  0  0  0  0  0  0  0
  142.1357  138.5984  153.4378 H   0  0  0  0  0  0  0  0  0  0  0  0
  139.9962  139.8530  153.4677 H   0  0  0  0  0  0  0  0  0  0  0  0
  137.8518  138.6551  153.8655 H   0  0  0  0  0  0  0  0  0  0  0  0
  137.8521  136.1930  154.2231 H   0  0  0  0  0  0  0  0  0  0  0  0
  139.9823  134.9292  154.1871 H   0  0  0  0  0  0  0  0  0  0  0  0
  1  2  1  0  0  0  0
  1 25  1  0  0  0  0
  1 26  1  0  0  0  0
  1 27  1  0  0  0  0
  2  3  2  0  0  0  0
  2  4  1  0  0  0  0
  4  5  1  0  0  0  0
  4 28  1  0  0  0  0
  5  6  1  0  0  0  0
  5  7  1  0  0  0  0
  5 29  1  0  0  0  0
  6 30  1  0  0  0  0
  6 31  1  0  0  0  0
  6 32  1  0  0  0  0
  7 15  1  0  0  0  0
  7  8  2  0  0  0  0
  8  9  1  0  0  0  0
  9 14  2  0  0  0  0
  9 10  1  0  0  0  0
 10 11  2  0  0  0  0
 10 33  1  0  0  0  0
 11 12  1  0  0  0  0
 11 34  1  0  0  0  0
 12 13  2  0  0  0  0
 12 35  1  0  0  0  0
 13 14  1  0  0  0  0
 13 36  1  0  0  0  0
 14 15  1  0  0  0  0
 15 16  1  0  0  0  0
 16 17  1  0  0  0  0
 16 37  1  0  0  0  0
 16 38  1  0  0  0  0
 17 18  1  0  0  0  0
 17 19  1  0  0  0  0
 17 39  1  0  0  0  0
 18 40  1  0  0  0  0
 19 24  1  0  0  0  0
 19 20  2  0  0  0  0
 20 21  1  0  0  0  0
 20 41  1  0  0  0  0
 21 22  2  0  0  0  0
 21 42  1  0  0  0  0
 22 23  1  0  0  0  0
 22 43  1  0  0  0  0
 23 24  2  0  0  0  0
 23 44  1  0  0  0  0
 24 45  1  0  0  0  0
M  END
> <s_m_source_file>
AV-unprocessed.smi

> <i_m_source_file_index>
447

> <i_lp_mmshare_version>
43012

> <i_f3d_flags>
0

> <s_epik_input>
W0NIM11DKD1PKVtOSF1bQ0BIXShbQ0gzXSljKG4xKW4oYyhjMTIpW2NIXVtjSF1bY0hdW2NIXTIpW0NIMl1bQ0BIXShbT0hdKWMzW2NIXVtjSF1bY0hdW2NIXVtjSF0z

> <s_epik_cmdline>
J2VwaWtfcHl0aG9uJywgJy1waCcsICc3LjAnLCAnLXRuJywgJzgnLCAnLW1hJywgJzIwMCcsICctbWV0YWxfYmluZGluZycsICctaW1hZScsICc8aW5maWxlLm1hZT4nLCAnLW9tYWUnLCAnPG91dGZpbGUubWFlPic=

> <r_epik_Ionization_Penalty>
0.13301

> <r_epik_Ionization_Penalty_Charging>
0

> <r_epik_Ionization_Penalty_Neutral>
0.13301

> <r_epik_State_Penalty>
0.122384

> <r_epik_Charging_Adjusted_Penalty>
0.122384

> <i_epik_Tot_Q>
0

> <i_epik_Tot_abs_Q>
0

> <r_epik_Metal_State_Penalty>
0.0997374

> <b_epik_Metal_Only>
0

> <s_lp_Force_Field>
OPLS_2005

> <r_lp_Energy>
6.90784

> <b_lp_Chiralities_Consistent>
1

> <s_lp_Variant>
AV-unprocessed.smi:447-2

> <Gold.Version>
5.8.1

> <Gold.Id.Protein>
6NUR|6NUR_protein|mol2

> <Gold.PLP.Fitness>
44.3691

> <Gold.PLP.PLP>
-42.2128

> <Gold.PLP.part.hbond>
-1.9171

> <Gold.PLP.part.metal>
0.0000

> <Gold.PLP.part.buried>
-5.6658

> <Gold.PLP.part.nonpolar>
-35.4248

> <Gold.PLP.part.repulsive>
0.5063

> <Gold.PLP.ligand.clash>
0.0000

> <Gold.PLP.ligand.torsion>
0.4521

> <Gold.PLP.Chemscore.Hbond>
0.9913

> <Gold.PLP.Chemscore.CHOScore>
0.0000

> <Gold.PLP.Chemscore.Metal>
0.0000

> <Gold.Chemscore.Hbonds>
donor molecule, donor type, donor heavy atom, donor atom, acceptor molecule, acceptor atom, score
      L1  H     4    28       P1  7948  0.99

> <Gold.PLP.Chemscore.Internal.Correction>
0.0866

> <Gold.Rescore>
     Score         DG    S(hbond)    S(metal)    S(lipo)     H(rot)  DE(clash)    DE(int)     intcor
     15.71     -16.42       1.11        0.00     113.42       2.35       0.15       0.57       ----

> <Gold.Chemscore.Fitness>
15.7073

> <Gold.Chemscore.DG>
-16.4220

> <Gold.Chemscore.ZeroCoef>
-5.4800

> <Gold.Chemscore.Hbond>
1.1063

> <Gold.Chemscore.Metal>
0.0000

> <Gold.Chemscore.Lipo>
113.4183

> <Gold.Chemscore.Internal_Hbond>
0.0000

> <Gold.Chemscore.DEClash>
0.1477

> <Gold.Chemscore.DEInternal>
0.5670

> <Gold.Chemscore.Rot>
2.3528

> <Gold.Chemscore.Internal.Correction>
   9.000000E+99

> <Gold.Chemscore.Hbonds>
donor molecule, donor type, donor heavy atom, donor atom, acceptor molecule, acceptor atom, score
      L1  H     4    28       P1  7948  0.92

> <Gold.Chemscore.Hbond.Weighted>
-3.6951

> <Gold.Chemscore.Metal.Weighted>
-0.0000

> <Gold.Chemscore.Lipo.Weighted>
-13.2699

> <Gold.Chemscore.Internal_Hbond.Weighted>
0.0000

> <Gold.Chemscore.DEClash.Weighted>
0.1477

> <Gold.Chemscore.DEInternal.Weighted>
0.5670

> <Gold.Chemscore.Rot.Weighted>
6.0231

> <Gold.Chemscore.Internal.Correction.Weighted>
   9.000000E+99

> <Gold.Protein.RotatedTorsions>
[ 6907 6896 6895 6894 ] final -131.10 input  -60.11 | X-H torsion
[ 7974 7965 7964 7962 ] final -116.53 input  175.53 | X-H torsion
[ 8008 7997 7996 7995 ] final  -34.88 input   59.86 | X-H torsion
[ 10167 10162 10161 10158 ] final -109.95 input  -65.29 | X-H torsion
[ 10718 10713 10712 10709 ] final -110.81 input   66.30 | X-H torsion
[ 10763 10752 10751 10750 ] final   99.16 input  -60.55 | X-H torsion
[ 11005 11000 10999 10996 ] final  -68.40 input  -57.11 | X-H torsion

> <Gold.Protein.ActiveResidues>
 VAL166  LYS551  ARG553  GLY616  TRP617  ASP618  TYR619  PRO620  LYS621  CYS622 
 ASP623  PHE694  ASN695  SER759  ASP760  ASP761  ALA762  ILE779  LEU786  VAL792 
 PHE793  MET794  SER795  GLU796  ALA797  LYS798  CYS799  TRP800  GLU811  SER814 

> <Gold.Protein.RotatedAtoms>
  150.9471  133.6590  159.2778 H   0  0  0  0  0  0  0  0  0  0  0  0  # atno 6907 bound_to 6896
  151.3959  135.0962  159.9550 H   0  0  0  0  0  0  0  0  0  0  0  0  # atno 6908 bound_to 6896
  152.5094  133.8976  159.7479 H   0  0  0  0  0  0  0  0  0  0  0  0  # atno 6909 bound_to 6896
  145.0957  140.8519  143.3956 H   0  0  0  0  0  0  0  0  0  0  0  0  # atno 7974 bound_to 7965
  154.4109  140.1672  156.2121 H   0  0  0  0  0  0  0  0  0  0  0  0  # atno 8008 bound_to 7997
  155.9436  140.3406  155.6324 H   0  0  0  0  0  0  0  0  0  0  0  0  # atno 8009 bound_to 7997
  155.6959  140.0739  157.2420 H   0  0  0  0  0  0  0  0  0  0  0  0  # atno 8010 bound_to 7997
  140.1497  143.4209  152.1503 H   0  0  0  0  0  0  0  0  0  0  0  0  # atno 10167 bound_to 10162
  156.0611  130.5834  150.8288 H   0  0  0  0  0  0  0  0  0  0  0  0  # atno 10718 bound_to 10713
  153.2979  135.4123  155.1226 H   0  0  0  0  0  0  0  0  0  0  0  0  # atno 10763 bound_to 10752
  154.8540  135.3534  154.5891 H   0  0  0  0  0  0  0  0  0  0  0  0  # atno 10764 bound_to 10752
  153.6316  135.7060  153.5332 H   0  0  0  0  0  0  0  0  0  0  0  0  # atno 10765 bound_to 10752
  141.1531  133.6740  156.6441 H   0  0  0  0  0  0  0  0  0  0  0  0  # atno 11005 bound_to 11000
  145.1014  139.2820  143.5684 LP  0  0  0  0  0  0  0  0  0  0  0  0  # atno 17320 bound_to 7965
  146.3531  140.0582  142.8631 LP  0  0  0  0  0  0  0  0  0  0  0  0  # atno 17321 bound_to 7965
  139.5432  144.7275  151.4668 LP  0  0  0  0  0  0  0  0  0  0  0  0  # atno 17342 bound_to 10162
  140.6710  143.8294  150.6999 LP  0  0  0  0  0  0  0  0  0  0  0  0  # atno 17343 bound_to 10162
  157.5621  131.0946  150.9544 LP  0  0  0  0  0  0  0  0  0  0  0  0  # atno 17370 bound_to 10713
  156.9780  130.5516  149.5294 LP  0  0  0  0  0  0  0  0  0  0  0  0  # atno 17371 bound_to 10713
  140.3371  134.7880  157.4370 LP  0  0  0  0  0  0  0  0  0  0  0  0  # atno 17394 bound_to 11000
  140.0969  134.5525  155.8390 LP  0  0  0  0  0  0  0  0  0  0  0  0  # atno 17395 bound_to 11000

$$$$
