AV-unprocessed.smi:931|AV-procd|sdf|4198|dock9
  -GOLD-   22720 2103D 1   1.00000     0.00000
 Structure written by MMmdl.
 36 37  0  0  0  0  0  0  0  0  1 V2000
  153.1809  142.8695  163.1045 C   0  0  0  0  0  0  0  0  0  0  0  0
  152.8946  142.0631  161.8298 C   0  0  0  0  0  0  0  0  0  0  0  0
  154.0597  141.1509  161.4193 C   0  0  0  0  0  0  0  0  0  0  0  0
  152.4369  142.9351  160.7030 C   0  0  0  0  0  0  0  0  0  0  0  0
  152.1721  142.4822  159.4735 N   0  0  0  0  0  0  0  0  0  0  0  0
  151.7653  143.4953  158.6000 C   0  0  0  0  0  0  0  0  0  0  0  0
  151.4144  143.1655  157.1812 C   0  0  0  0  0  0  0  0  0  0  0  0
  150.4629  141.9609  157.0872 C   0  0  0  0  0  0  0  0  0  0  0  0
  149.4960  142.1161  156.0065 N   0  0  0  0  0  0  0  0  0  0  0  0
  149.4331  141.3407  154.9125 C   0  0  0  0  0  0  0  0  0  0  0  0
  150.1730  140.3774  154.7135 O   0  0  0  0  0  0  0  0  0  0  0  0
  148.4255  141.6724  154.0896 N   0  0  0  0  0  0  0  0  0  0  0  0
  147.5593  140.8365  153.2633 C   0  0  0  0  0  0  0  0  0  0  0  0
  146.7024  142.0839  153.0615 C   0  0  0  0  0  0  0  0  0  0  0  0
  147.4327  142.7299  154.2364 C   0  0  0  0  0  0  0  0  0  0  0  0
  151.7233  144.7336  159.1901 C   0  0  0  0  0  0  0  0  0  0  0  0
  152.1965  144.6715  160.8653 S   0  0  0  0  0  0  0  0  0  0  0  0
  152.3044  143.4406  163.4117 H   0  0  0  0  0  0  0  0  0  0  0  0
  154.0013  143.5719  162.9543 H   0  0  0  0  0  0  0  0  0  0  0  0
  153.4530  142.2131  163.9314 H   0  0  0  0  0  0  0  0  0  0  0  0
  152.0583  141.4039  162.0656 H   0  0  0  0  0  0  0  0  0  0  0  0
  153.7886  140.5291  160.5656 H   0  0  0  0  0  0  0  0  0  0  0  0
  154.3438  140.4856  162.2351 H   0  0  0  0  0  0  0  0  0  0  0  0
  154.9402  141.7320  161.1427 H   0  0  0  0  0  0  0  0  0  0  0  0
  150.9576  144.0339  156.7053 H   0  0  0  0  0  0  0  0  0  0  0  0
  152.3222  142.9581  156.6129 H   0  0  0  0  0  0  0  0  0  0  0  0
  151.0330  141.0502  156.9020 H   0  0  0  0  0  0  0  0  0  0  0  0
  149.9407  141.8133  158.0340 H   0  0  0  0  0  0  0  0  0  0  0  0
  148.8275  142.8677  156.0945 H   0  0  0  0  0  0  0  0  0  0  0  0
  148.0189  140.4667  152.3461 H   0  0  0  0  0  0  0  0  0  0  0  0
  147.0542  140.0432  153.8170 H   0  0  0  0  0  0  0  0  0  0  0  0
  146.8996  142.5855  152.1126 H   0  0  0  0  0  0  0  0  0  0  0  0
  145.6352  141.9296  153.2241 H   0  0  0  0  0  0  0  0  0  0  0  0
  146.8780  142.6861  155.1751 H   0  0  0  0  0  0  0  0  0  0  0  0
  147.8024  143.7343  154.0272 H   0  0  0  0  0  0  0  0  0  0  0  0
  151.4400  145.6748  158.7425 H   0  0  0  0  0  0  0  0  0  0  0  0
  1  2  1  0  0  0  0
  1 18  1  0  0  0  0
  1 19  1  0  0  0  0
  1 20  1  0  0  0  0
  2  3  1  0  0  0  0
  2  4  1  0  0  0  0
  2 21  1  0  0  0  0
  3 22  1  0  0  0  0
  3 23  1  0  0  0  0
  3 24  1  0  0  0  0
  4 17  1  0  0  0  0
  4  5  2  0  0  0  0
  5  6  1  0  0  0  0
  6  7  1  0  0  0  0
  6 16  2  0  0  0  0
  7  8  1  0  0  0  0
  7 25  1  0  0  0  0
  7 26  1  0  0  0  0
  8  9  1  0  0  0  0
  8 27  1  0  0  0  0
  8 28  1  0  0  0  0
  9 10  1  0  0  0  0
  9 29  1  0  0  0  0
 10 11  2  0  0  0  0
 10 12  1  0  0  0  0
 12 15  1  0  0  0  0
 12 13  1  0  0  0  0
 13 14  1  0  0  0  0
 13 30  1  0  0  0  0
 13 31  1  0  0  0  0
 14 15  1  0  0  0  0
 14 32  1  0  0  0  0
 14 33  1  0  0  0  0
 15 34  1  0  0  0  0
 15 35  1  0  0  0  0
 16 17  1  0  0  0  0
 16 36  1  0  0  0  0
M  END
> <s_m_source_file>
AV-unprocessed.smi

> <i_m_source_file_index>
931

> <i_lp_mmshare_version>
43012

> <i_f3d_flags>
0

> <s_epik_input>
W0NIM11bQ0hdKFtDSDNdKWMxbmMoW2NIXXMxKVtDSDJdW0NIMl1bTkhdQyg9TylOMltDSDJdW0NIMl1bQ0gyXTI=

> <s_epik_cmdline>
J2VwaWtfcHl0aG9uJywgJy1waCcsICc3LjAnLCAnLXRuJywgJzgnLCAnLW1hJywgJzIwMCcsICctbWV0YWxfYmluZGluZycsICctaW1hZScsICc8aW5maWxlLm1hZT4nLCAnLW9tYWUnLCAnPG91dGZpbGUubWFlPic=

> <r_epik_Ionization_Penalty>
0.00159927

> <r_epik_Ionization_Penalty_Charging>
0

> <r_epik_Ionization_Penalty_Neutral>
0.00159927

> <r_epik_State_Penalty>
0.00102964

> <r_epik_Charging_Adjusted_Penalty>
0.00102964

> <i_epik_Tot_Q>
0

> <i_epik_Tot_abs_Q>
0

> <r_epik_Metal_State_Penalty>
-0

> <b_epik_Metal_Only>
0

> <s_lp_Force_Field>
OPLS_2005

> <r_lp_Energy>
8.94744

> <b_lp_Chiralities_Consistent>
1

> <s_lp_Variant>
AV-unprocessed.smi:931-1

> <Gold.Version>
5.8.1

> <Gold.Id.Protein>
6NUR|6NUR_protein|mol2

> <Gold.PLP.Fitness>
48.2378

> <Gold.PLP.PLP>
-44.8623

> <Gold.PLP.part.hbond>
-2.0000

> <Gold.PLP.part.metal>
0.0000

> <Gold.PLP.part.buried>
-2.5138

> <Gold.PLP.part.nonpolar>
-39.5068

> <Gold.PLP.part.repulsive>
0.1843

> <Gold.PLP.ligand.clash>
0.0000

> <Gold.PLP.ligand.torsion>
0.7379

> <Gold.PLP.Chemscore.Hbond>
1.4880

> <Gold.PLP.Chemscore.CHOScore>
0.0000

> <Gold.PLP.Chemscore.Metal>
0.0000

> <Gold.Chemscore.Hbonds>
donor molecule, donor type, donor heavy atom, donor atom, acceptor molecule, acceptor atom, score
      L1  H     9    29       P1  8028  0.67
      P1  H  7989  7998       L1    11  1.00

> <Gold.PLP.Chemscore.Internal.Correction>
0.3874

> <Gold.Rescore>
     Score         DG    S(hbond)    S(metal)    S(lipo)     H(rot)  DE(clash)    DE(int)     intcor
     17.02     -18.61       0.96        0.00     117.37       1.48       0.77       0.82       ----

> <Gold.Chemscore.Fitness>
17.0170

> <Gold.Chemscore.DG>
-18.6134

> <Gold.Chemscore.ZeroCoef>
-5.4800

> <Gold.Chemscore.Hbond>
0.9589

> <Gold.Chemscore.Metal>
0.0000

> <Gold.Chemscore.Lipo>
117.3656

> <Gold.Chemscore.Internal_Hbond>
0.0000

> <Gold.Chemscore.DEClash>
0.7743

> <Gold.Chemscore.DEInternal>
0.8222

> <Gold.Chemscore.Rot>
1.4847

> <Gold.Chemscore.Internal.Correction>
   9.000000E+99

> <Gold.Chemscore.Hbonds>
donor molecule, donor type, donor heavy atom, donor atom, acceptor molecule, acceptor atom, score
      L1  H     9    29       P1  8028  0.68
      P1  H  7989  7998       L1    11  0.69

> <Gold.Chemscore.Hbond.Weighted>
-3.2026

> <Gold.Chemscore.Metal.Weighted>
-0.0000

> <Gold.Chemscore.Lipo.Weighted>
-13.7318

> <Gold.Chemscore.Internal_Hbond.Weighted>
0.0000

> <Gold.Chemscore.DEClash.Weighted>
0.7743

> <Gold.Chemscore.DEInternal.Weighted>
0.8222

> <Gold.Chemscore.Rot.Weighted>
3.8009

> <Gold.Chemscore.Internal.Correction.Weighted>
   9.000000E+99

> <Gold.Protein.RotatedTorsions>
[ 6907 6896 6895 6894 ] final  -91.94 input  -60.11 | X-H torsion
[ 7974 7965 7964 7962 ] final -130.93 input  175.53 | X-H torsion
[ 8008 7997 7996 7995 ] final  -65.14 input   59.86 | X-H torsion
[ 10167 10162 10161 10158 ] final  136.67 input  -65.29 | X-H torsion
[ 10718 10713 10712 10709 ] final  154.93 input   66.30 | X-H torsion
[ 10763 10752 10751 10750 ] final -120.67 input  -60.55 | X-H torsion
[ 11005 11000 10999 10996 ] final  107.19 input  -57.11 | X-H torsion

> <Gold.Protein.ActiveResidues>
 VAL166  LYS551  ARG553  GLY616  TRP617  ASP618  TYR619  PRO620  LYS621  CYS622 
 ASP623  PHE694  ASN695  SER759  ASP760  ASP761  ALA762  ILE779  LEU786  VAL792 
 PHE793  MET794  SER795  GLU796  ALA797  LYS798  CYS799  TRP800  GLU811  SER814 

> <Gold.Protein.RotatedAtoms>
  150.6899  134.2199  159.4392 H   0  0  0  0  0  0  0  0  0  0  0  0  # atno 6907 bound_to 6896
  152.0155  134.9849  160.0578 H   0  0  0  0  0  0  0  0  0  0  0  0  # atno 6908 bound_to 6896
  152.1447  133.4450  159.4821 H   0  0  0  0  0  0  0  0  0  0  0  0  # atno 6909 bound_to 6896
  144.9428  140.7258  143.4836 H   0  0  0  0  0  0  0  0  0  0  0  0  # atno 7974 bound_to 7965
  154.4653  140.0939  156.7004 H   0  0  0  0  0  0  0  0  0  0  0  0  # atno 8008 bound_to 7997
  155.4875  140.3469  155.4331 H   0  0  0  0  0  0  0  0  0  0  0  0  # atno 8009 bound_to 7997
  156.0945  140.1406  156.9537 H   0  0  0  0  0  0  0  0  0  0  0  0  # atno 8010 bound_to 7997
  139.5171  144.6452  151.5460 H   0  0  0  0  0  0  0  0  0  0  0  0  # atno 10167 bound_to 10162
  157.2251  131.0727  151.1888 H   0  0  0  0  0  0  0  0  0  0  0  0  # atno 10718 bound_to 10713
  154.8650  135.4194  154.2497 H   0  0  0  0  0  0  0  0  0  0  0  0  # atno 10763 bound_to 10752
  153.3446  135.6995  153.6844 H   0  0  0  0  0  0  0  0  0  0  0  0  # atno 10764 bound_to 10752
  153.5809  135.3573  155.2847 H   0  0  0  0  0  0  0  0  0  0  0  0  # atno 10765 bound_to 10752
  139.8824  134.9393  156.5782 H   0  0  0  0  0  0  0  0  0  0  0  0  # atno 11005 bound_to 11000
  145.2965  139.1865  143.4712 LP  0  0  0  0  0  0  0  0  0  0  0  0  # atno 17320 bound_to 7965
  146.3292  140.2949  142.8617 LP  0  0  0  0  0  0  0  0  0  0  0  0  # atno 17321 bound_to 7965
  140.6234  143.9215  150.6544 LP  0  0  0  0  0  0  0  0  0  0  0  0  # atno 17342 bound_to 10162
  140.2496  143.3603  152.1417 LP  0  0  0  0  0  0  0  0  0  0  0  0  # atno 17343 bound_to 10162
  157.3536  130.7095  149.6456 LP  0  0  0  0  0  0  0  0  0  0  0  0  # atno 17370 bound_to 10713
  155.9679  130.4245  150.4613 LP  0  0  0  0  0  0  0  0  0  0  0  0  # atno 17371 bound_to 10713
  140.8047  133.8477  155.8757 LP  0  0  0  0  0  0  0  0  0  0  0  0  # atno 17394 bound_to 11000
  140.9561  134.1716  157.4691 LP  0  0  0  0  0  0  0  0  0  0  0  0  # atno 17395 bound_to 11000

$$$$
