AV-unprocessed.smi:115|AV-procd|sdf|1126|dock1
  -GOLD-   2262018253D 1   1.00000     0.00000
 Structure written by MMmdl.
 55 57  0  0  0  0  0  0  0  0  1 V2000
  149.6157  132.7379  165.7468 C   0  0  0  0  0  0  0  0  0  0  0  0
  150.8729  133.3852  165.8368 O   0  0  0  0  0  0  0  0  0  0  0  0
  151.0531  134.3710  164.8323 C   0  0  0  0  0  0  0  0  0  0  0  0
  152.4609  134.9842  164.9773 C   0  0  1  0  0  0  0  0  0  0  0  0
  153.6010  133.9555  164.8834 C   0  0  0  0  0  0  0  0  0  0  0  0
  152.6932  136.1419  164.0976 N   0  0  0  0  0  0  0  0  0  0  0  0
  152.9276  137.4354  164.5630 C   0  0  0  0  0  0  0  0  0  0  0  0
  152.9712  137.7981  166.0140 C   0  0  0  0  0  0  0  0  0  0  0  0
  153.0901  138.2479  163.4823 C   0  0  0  0  0  0  0  0  0  0  0  0
  152.9763  137.4638  162.3043 C   0  0  0  0  0  0  0  0  0  0  0  0
  153.0517  137.9263  160.8946 C   0  0  0  0  0  0  0  0  0  0  0  0
  154.1135  138.1481  160.3108 O   0  0  0  0  0  0  0  0  0  0  0  0
  151.7008  138.1038  160.1763 C   0  0  0  0  0  0  0  0  0  0  0  0
  151.5674  139.4020  159.5270 N   0  0  0  0  0  0  0  0  0  0  0  0
  151.1987  139.4271  158.1586 C   0  0  0  0  0  0  0  0  0  0  0  0
  150.9838  138.3962  157.5185 O   0  0  0  0  0  0  0  0  0  0  0  0
  151.1145  140.7631  157.5788 C   0  0  0  0  0  0  0  0  0  0  0  0
  150.7753  140.9062  156.2864 F   0  0  0  0  0  0  0  0  0  0  0  0
  151.3788  141.8625  158.3171 C   0  0  0  0  0  0  0  0  0  0  0  0
  151.7399  141.8072  159.6531 N   0  0  0  0  0  0  0  0  0  0  0  0
  152.0490  143.0614  160.4406 C   0  0  1  0  0  0  0  0  0  0  0  0
  153.2361  143.8010  159.8136 C   0  0  0  0  0  0  0  0  0  0  0  0
  152.5404  144.7727  158.8859 C   0  0  0  0  0  0  0  0  0  0  0  0
  151.2854  145.1119  159.6823 C   0  0  0  0  0  0  0  0  0  0  0  0
  150.9462  143.9204  160.3882 O   0  0  0  0  0  0  0  0  0  0  0  0
  151.8562  140.5555  160.2952 C   0  0  0  0  0  0  0  0  0  0  0  0
  152.2121  140.4803  161.4736 O   0  0  0  0  0  0  0  0  0  0  0  0
  152.7652  136.1600  162.6955 C   0  0  0  0  0  0  0  0  0  0  0  0
  152.6184  134.9178  161.8600 C   0  0  0  0  0  0  0  0  0  0  0  0
  149.5289  131.9959  166.5404 H   0  0  0  0  0  0  0  0  0  0  0  0
  149.5042  132.2233  164.7916 H   0  0  0  0  0  0  0  0  0  0  0  0
  148.7964  133.4490  165.8600 H   0  0  0  0  0  0  0  0  0  0  0  0
  150.9063  133.9147  163.8547 H   0  0  0  0  0  0  0  0  0  0  0  0
  150.2951  135.1467  164.9539 H   0  0  0  0  0  0  0  0  0  0  0  0
  152.4825  135.3538  166.0007 H   0  0  0  0  0  0  0  0  0  0  0  0
  153.4680  133.1615  165.6183 H   0  0  0  0  0  0  0  0  0  0  0  0
  154.5638  134.4262  165.0844 H   0  0  0  0  0  0  0  0  0  0  0  0
  153.6657  133.4845  163.9047 H   0  0  0  0  0  0  0  0  0  0  0  0
  153.2656  138.8397  166.1440 H   0  0  0  0  0  0  0  0  0  0  0  0
  153.6929  137.1827  166.5516 H   0  0  0  0  0  0  0  0  0  0  0  0
  151.9930  137.6707  166.4781 H   0  0  0  0  0  0  0  0  0  0  0  0
  153.2686  139.3118  163.5376 H   0  0  0  0  0  0  0  0  0  0  0  0
  151.5557  137.3283  159.4229 H   0  0  0  0  0  0  0  0  0  0  0  0
  150.8676  137.9908  160.8718 H   0  0  0  0  0  0  0  0  0  0  0  0
  151.3078  142.8217  157.8267 H   0  0  0  0  0  0  0  0  0  0  0  0
  152.2177  142.7397  161.4696 H   0  0  0  0  0  0  0  0  0  0  0  0
  153.7667  144.3376  160.6010 H   0  0  0  0  0  0  0  0  0  0  0  0
  153.9324  143.1272  159.3130 H   0  0  0  0  0  0  0  0  0  0  0  0
  153.1457  145.6480  158.6492 H   0  0  0  0  0  0  0  0  0  0  0  0
  152.2748  144.2781  157.9508 H   0  0  0  0  0  0  0  0  0  0  0  0
  151.4990  145.8974  160.4081 H   0  0  0  0  0  0  0  0  0  0  0  0
  150.4647  145.4485  159.0488 H   0  0  0  0  0  0  0  0  0  0  0  0
  153.1890  134.9866  160.9357 H   0  0  0  0  0  0  0  0  0  0  0  0
  151.5740  134.7484  161.5983 H   0  0  0  0  0  0  0  0  0  0  0  0
  152.9950  134.0306  162.3599 H   0  0  0  0  0  0  0  0  0  0  0  0
  1  2  1  0  0  0  0
  1 30  1  0  0  0  0
  1 31  1  0  0  0  0
  1 32  1  0  0  0  0
  2  3  1  0  0  0  0
  3  4  1  0  0  0  0
  3 33  1  0  0  0  0
  3 34  1  0  0  0  0
  4  5  1  0  0  0  0
  4  6  1  0  0  0  0
  4 35  1  0  0  0  0
  5 36  1  0  0  0  0
  5 37  1  0  0  0  0
  5 38  1  0  0  0  0
  6 28  1  0  0  0  0
  6  7  1  0  0  0  0
  7  8  1  0  0  0  0
  7  9  2  0  0  0  0
  8 39  1  0  0  0  0
  8 40  1  0  0  0  0
  8 41  1  0  0  0  0
  9 10  1  0  0  0  0
  9 42  1  0  0  0  0
 10 11  1  0  0  0  0
 10 28  2  0  0  0  0
 11 12  2  0  0  0  0
 11 13  1  0  0  0  0
 13 14  1  0  0  0  0
 13 43  1  0  0  0  0
 13 44  1  0  0  0  0
 14 26  1  0  0  0  0
 14 15  1  0  0  0  0
 15 16  2  0  0  0  0
 15 17  1  0  0  0  0
 17 18  1  0  0  0  0
 17 19  2  0  0  0  0
 19 20  1  0  0  0  0
 19 45  1  0  0  0  0
 20 21  1  0  0  0  0
 20 26  1  0  0  0  0
 21 25  1  0  0  0  0
 21 22  1  0  0  0  0
 21 46  1  0  0  0  0
 22 23  1  0  0  0  0
 22 47  1  0  0  0  0
 22 48  1  0  0  0  0
 23 24  1  0  0  0  0
 23 49  1  0  0  0  0
 23 50  1  0  0  0  0
 24 25  1  0  0  0  0
 24 51  1  0  0  0  0
 24 52  1  0  0  0  0
 26 27  2  0  0  0  0
 28 29  1  0  0  0  0
 29 53  1  0  0  0  0
 29 54  1  0  0  0  0
 29 55  1  0  0  0  0
M  END
> <s_m_source_file>
AV-unprocessed.smi

> <i_m_source_file_index>
115

> <i_lp_mmshare_version>
43012

> <i_f3d_flags>
0

> <s_epik_input>
W0NIM11PW0NIMl1bQ0BIXShbQ0gzXSluMWMoW0NIM10pW2NIXWMoYzFbQ0gzXSlDKD1PKVtDSDJdbjJjKD1PKWMoRilbY0hdbihjMj1PKVtDQEBIXTNbQ0gyXVtDSDJdW0NIMl1PMw==

> <s_epik_cmdline>
J2VwaWtfcHl0aG9uJywgJy1waCcsICc3LjAnLCAnLXRuJywgJzgnLCAnLW1hJywgJzIwMCcsICctbWV0YWxfYmluZGluZycsICctaW1hZScsICc8aW5maWxlLm1hZT4nLCAnLW9tYWUnLCAnPG91dGZpbGUubWFlPic=

> <r_lp_tautomer_probability>
1

> <r_epik_Ionization_Penalty>
5.02611e-09

> <r_epik_Ionization_Penalty_Charging>
5.01743e-09

> <r_epik_Ionization_Penalty_Neutral>
8.68114e-12

> <r_epik_State_Penalty>
-0

> <r_epik_Charging_Adjusted_Penalty>
5.01743e-09

> <i_epik_Tot_Q>
0

> <i_epik_Tot_abs_Q>
0

> <r_epik_Metal_State_Penalty>
-0

> <b_epik_Metal_Only>
0

> <s_epik_Chemistry_Notes>
This compound contains an acetal/aminal-like group ( X-CH(R)-Y where X, Y are N, S, or O) that may be acid/base labile, releasing an aldehyde.

> <s_lp_Force_Field>
OPLS_2005

> <r_lp_Energy>
46.6669

> <b_lp_Chiralities_Consistent>
1

> <s_lp_Variant>
AV-unprocessed.smi:115-4

> <Gold.Version>
5.8.1

> <Gold.Id.Protein>
6NUR|6NUR_protein|mol2

> <Gold.PLP.Fitness>
49.1968

> <Gold.PLP.PLP>
-49.0502

> <Gold.PLP.part.hbond>
-1.0000

> <Gold.PLP.part.metal>
0.0000

> <Gold.PLP.part.buried>
-7.2711

> <Gold.PLP.part.nonpolar>
-40.6043

> <Gold.PLP.part.repulsive>
0.1606

> <Gold.PLP.ligand.clash>
0.0000

> <Gold.PLP.ligand.torsion>
1.6929

> <Gold.PLP.Chemscore.Hbond>
0.9913

> <Gold.PLP.Chemscore.CHOScore>
0.0000

> <Gold.PLP.Chemscore.Metal>
0.0000

> <Gold.PLP.Chemscore.Internal.Correction>
0.5586

> <Gold.Rescore>
     Score         DG    S(hbond)    S(metal)    S(lipo)     H(rot)  DE(clash)    DE(int)     intcor
     13.00     -16.77       1.00        0.00     115.95       2.19       0.03       3.74       ----

> <Gold.Chemscore.Fitness>
12.9970

> <Gold.Chemscore.DG>
-16.7684

> <Gold.Chemscore.ZeroCoef>
-5.4800

> <Gold.Chemscore.Hbond>
0.9994

> <Gold.Chemscore.Metal>
0.0000

> <Gold.Chemscore.Lipo>
115.9533

> <Gold.Chemscore.Internal_Hbond>
0.0000

> <Gold.Chemscore.DEClash>
0.0308

> <Gold.Chemscore.DEInternal>
3.7407

> <Gold.Chemscore.Rot>
2.1938

> <Gold.Chemscore.Internal.Correction>
   9.000000E+99

> <Gold.Chemscore.Hbond.Weighted>
-3.3379

> <Gold.Chemscore.Metal.Weighted>
-0.0000

> <Gold.Chemscore.Lipo.Weighted>
-13.5665

> <Gold.Chemscore.Internal_Hbond.Weighted>
0.0000

> <Gold.Chemscore.DEClash.Weighted>
0.0308

> <Gold.Chemscore.DEInternal.Weighted>
3.7407

> <Gold.Chemscore.Rot.Weighted>
5.6160

> <Gold.Chemscore.Internal.Correction.Weighted>
   9.000000E+99

> <Gold.Protein.RotatedTorsions>
[ 6907 6896 6895 6894 ] final -172.83 input  -60.11 | X-H torsion
[ 7974 7965 7964 7962 ] final  -36.54 input  175.53 | X-H torsion
[ 8008 7997 7996 7995 ] final -121.82 input   59.86 | X-H torsion
[ 10167 10162 10161 10158 ] final -122.40 input  -65.29 | X-H torsion
[ 10718 10713 10712 10709 ] final  -63.58 input   66.30 | X-H torsion
[ 10763 10752 10751 10750 ] final   96.13 input  -60.55 | X-H torsion
[ 11005 11000 10999 10996 ] final   32.06 input  -57.11 | X-H torsion

> <Gold.Protein.ActiveResidues>
 VAL166  LYS551  ARG553  GLY616  TRP617  ASP618  TYR619  PRO620  LYS621  CYS622 
 ASP623  PHE694  ASN695  SER759  ASP760  ASP761  ALA762  ILE779  LEU786  VAL792 
 PHE793  MET794  SER795  GLU796  ALA797  LYS798  CYS799  TRP800  GLU811  SER814 

> <Gold.Protein.RotatedAtoms>
  151.5463  133.3424  159.2944 H   0  0  0  0  0  0  0  0  0  0  0  0  # atno 6907 bound_to 6896
  150.8505  134.7831  159.7016 H   0  0  0  0  0  0  0  0  0  0  0  0  # atno 6908 bound_to 6896
  152.4552  134.5314  159.9864 H   0  0  0  0  0  0  0  0  0  0  0  0  # atno 6909 bound_to 6896
  146.0652  140.6291  142.8978 H   0  0  0  0  0  0  0  0  0  0  0  0  # atno 7974 bound_to 7965
  155.1541  140.0404  157.2828 H   0  0  0  0  0  0  0  0  0  0  0  0  # atno 8008 bound_to 7997
  154.6383  140.2541  155.7325 H   0  0  0  0  0  0  0  0  0  0  0  0  # atno 8009 bound_to 7997
  156.2519  140.2861  156.0765 H   0  0  0  0  0  0  0  0  0  0  0  0  # atno 8010 bound_to 7997
  140.0147  143.5406  152.2248 H   0  0  0  0  0  0  0  0  0  0  0  0  # atno 10167 bound_to 10162
  156.0782  130.4222  150.1297 H   0  0  0  0  0  0  0  0  0  0  0  0  # atno 10718 bound_to 10713
  153.2613  135.4229  155.0896 H   0  0  0  0  0  0  0  0  0  0  0  0  # atno 10763 bound_to 10752
  154.8421  135.3449  154.6374 H   0  0  0  0  0  0  0  0  0  0  0  0  # atno 10764 bound_to 10752
  153.6794  135.7039  153.5179 H   0  0  0  0  0  0  0  0  0  0  0  0  # atno 10765 bound_to 10752
  140.2774  134.3012  155.7810 H   0  0  0  0  0  0  0  0  0  0  0  0  # atno 11005 bound_to 11000
  144.7198  140.4336  143.7016 LP  0  0  0  0  0  0  0  0  0  0  0  0  # atno 17320 bound_to 7965
  145.6489  139.1562  143.2873 LP  0  0  0  0  0  0  0  0  0  0  0  0  # atno 17321 bound_to 7965
  139.6181  144.7623  151.2801 LP  0  0  0  0  0  0  0  0  0  0  0  0  # atno 17342 bound_to 10162
  140.7367  143.6699  150.8091 LP  0  0  0  0  0  0  0  0  0  0  0  0  # atno 17343 bound_to 10162
  156.9334  130.9721  151.3529 LP  0  0  0  0  0  0  0  0  0  0  0  0  # atno 17370 bound_to 10713
  157.5887  130.8428  149.8628 LP  0  0  0  0  0  0  0  0  0  0  0  0  # atno 17371 bound_to 10713
  141.2168  133.7504  156.9428 LP  0  0  0  0  0  0  0  0  0  0  0  0  # atno 17394 bound_to 11000
  140.1316  134.9352  157.2344 LP  0  0  0  0  0  0  0  0  0  0  0  0  # atno 17395 bound_to 11000

$$$$
