#       Name:                AV-unprocessed.smi:265
#       Creating user name   scv26
#       Creation time:       Thu Mar 26 21:23:44 2020


#       File generated by GOLD software.
#

@<TRIPOS>MOLECULE
AV-unprocessed.smi:265
    64    68     1
SMALL
NO_CHARGES


@<TRIPOS>ATOM
      1 ****        -2.2778  -3.7886  -4.8620 C.3            1 S1                 0.0000
      2 ****        -3.2601  -3.0775  -3.9184 C.3            1 S1                 0.0000
      3 ****        -4.0527  -4.0794  -3.2858 O.3            1 S1                 0.0000
      4 ****        -4.4223  -3.6271  -1.9955 C.3            1 S1                 0.0000
      5 ****        -3.1511  -2.9472  -1.5118 C.3            1 S1                 0.0000
      6 ****        -2.6417  -2.2386  -2.7642 C.3            1 S1                 0.0000
      7 ****        -3.2345  -0.9514  -2.8039 O.3            1 S1                 0.0000
      8 ****        -1.1007  -2.0593  -2.7904 C.3            1 S1                 0.0000
      9 ****        -0.5859  -1.3077  -1.6559 N.pl3          1 S1                 0.0000
     10 ****        -0.1888  -1.8180  -0.4406 C.2            1 S1                 0.0000
     11 ****         0.2357  -0.9355   0.4214 N.2            1 S1                 0.0000
     12 ****         0.1388   0.2753  -0.2550 C.ar           1 S1                 0.0000
     13 ****         0.4325   1.6268   0.0839 C.ar           1 S1                 0.0000
     14 ****         0.9498   1.9869   1.2862 N.3            1 S1                 0.0000
     15 ****         0.7472   3.3713   1.7286 C.3            1 S1                 0.0000
     16 ****         1.0756   3.5373   3.2250 C.3            1 S1                 0.0000
     17 ****         2.4849   3.0046   3.5144 C.3            1 S1                 0.0000
     18 ****         2.7960   3.0416   4.8990 O.3            1 S1                 0.0000
     19 ****         4.1572   2.6999   5.1833 C.3            1 S1                 0.0000
     20 ****         4.6204   1.4250   4.4463 C.2            1 S1                 0.0000
     21 ****         5.6671   0.8726   4.7768 O.2            1 S1                 0.0000
     22 ****         3.8738   0.9774   3.4235 N.am           1 S1                 0.0000
     23 ****         2.5711   1.5327   3.0826 C.3            1 S1                 0.0000
     24 ****         2.2632   1.4093   1.5829 C.3            1 S1                 0.0000
     25 ****         0.1788   2.5755  -0.8571 N.ar           1 S1                 0.0000
     26 ****        -0.3125   2.2292  -2.0506 C.ar           1 S1                 0.0000
     27 ****        -0.6189   1.0132  -2.5057 N.ar           1 S1                 0.0000
     28 ****        -0.3807   0.0578  -1.5625 C.ar           1 S1                 0.0000
     29 ****         3.2087   3.6105   2.9647 H              1 S1                 0.0000
     30 ****         1.8299   0.9543   3.6372 H              1 S1                 0.0000
     31 ****        -1.6467  -3.0753  -5.3925 H              1 S1                 0.0000
     32 ****        -2.8178  -4.3654  -5.6131 H              1 S1                 0.0000
     33 ****        -1.6333  -4.4815  -4.3210 H              1 S1                 0.0000
     34 ****        -3.9286  -2.4603  -4.5218 H              1 S1                 0.0000
     35 ****        -5.2462  -2.9160  -2.0730 H              1 S1                 0.0000
     36 ****        -4.7325  -4.4508  -1.3525 H              1 S1                 0.0000
     37 ****        -3.3141  -2.2826  -0.6620 H              1 S1                 0.0000
     38 ****        -2.4415  -3.7154  -1.2013 H              1 S1                 0.0000
     39 ****        -4.1738  -1.0530  -2.7858 H              1 S1                 0.0000
     40 ****        -0.6038  -3.0297  -2.7910 H              1 S1                 0.0000
     41 ****        -0.7898  -1.5525  -3.7047 H              1 S1                 0.0000
     42 ****        -0.2291  -2.8725  -0.2096 H              1 S1                 0.0000
     43 ****         1.3808   4.0330   1.1361 H              1 S1                 0.0000
     44 ****        -0.2864   3.6716   1.5511 H              1 S1                 0.0000
     45 ****         1.0014   4.5865   3.5114 H              1 S1                 0.0000
     46 ****         0.3432   2.9957   3.8253 H              1 S1                 0.0000
     47 ****         4.8036   3.5274   4.8885 H              1 S1                 0.0000
     48 ****         4.2735   2.5672   6.2591 H              1 S1                 0.0000
     49 ****         4.1864   0.1643   2.9131 H              1 S1                 0.0000
     50 ****         2.3157   0.3618   1.2889 H              1 S1                 0.0000
     51 ****         3.0190   1.9359   0.9986 H              1 S1                 0.0000
     52 ****        -0.4836   3.0422  -2.7406 H              1 S1                 0.0000
     53 ****        -3.5242  -4.9246  -3.2063 LP             1 S1                 0.0000
     54 ****        -4.8744  -4.2500  -3.8296 LP             1 S1                 0.0000
     55 ****        -2.9623  -0.4805  -3.6430 LP             1 S1                 0.0000
     56 ****        -2.9375  -0.4188  -2.0114 LP             1 S1                 0.0000
     57 ****         0.5572  -1.0938   1.3550 LP             1 S1                 0.0000
     58 ****         0.3284   1.5192   1.9148 LP             1 S1                 0.0000
     59 ****         2.2003   2.3950   5.3755 LP             1 S1                 0.0000
     60 ****         2.6234   3.9662   5.2385 LP             1 S1                 0.0000
     61 ****         6.2174   1.2490   5.5221 LP             1 S1                 0.0000
     62 ****         5.9686   0.0466   4.3004 LP             1 S1                 0.0000
     63 ****         0.3610   3.5377  -0.6547 LP             1 S1                 0.0000
     64 ****        -0.9770   0.8264  -3.4205 LP             1 S1                 0.0000
@<TRIPOS>BOND
    1    1    2 1     
    2    1   31 1     
    3    1   32 1     
    4    1   33 1     
    5    2    6 1     
    6    2    3 1     
    7    2   34 1     
    8    3    4 1     
    9    4    5 1     
   10    4   35 1     
   11    4   36 1     
   12    5    6 1     
   13    5   37 1     
   14    5   38 1     
   15    6    7 1     
   16    6    8 1     
   17    7   39 1     
   18    8    9 1     
   19    8   40 1     
   20    8   41 1     
   21    9   28 1     
   22    9   10 1     
   23   10   11 2     
   24   10   42 1     
   25   11   12 1     
   26   12   28 ar    
   27   12   13 ar    
   28   13   14 1     
   29   13   25 ar    
   30   14   24 1     
   31   14   15 1     
   32   15   16 1     
   33   15   43 1     
   34   15   44 1     
   35   16   17 1     
   36   16   45 1     
   37   16   46 1     
   38   17   29 1     
   39   17   23 1     
   40   17   18 1     
   41   18   19 1     
   42   19   20 1     
   43   19   47 1     
   44   19   48 1     
   45   20   21 2     
   46   20   22 am    
   47   22   23 1     
   48   22   49 1     
   49   23   30 1     
   50   23   24 1     
   51   24   50 1     
   52   24   51 1     
   53   25   26 ar    
   54   26   27 ar    
   55   26   52 1     
   56   27   28 ar    
   57    3   53 1     
   58    3   54 1     
   59    7   55 1     
   60    7   56 1     
   61   11   57 1     
   62   14   58 1     
   63   18   59 1     
   64   18   60 1     
   65   21   61 1     
   66   21   62 1     
   67   25   63 1     
   68   27   64 1     
@<TRIPOS>SUBSTRUCTURE
      1 S1             1
@<TRIPOS>SET
LONE_PAIRS      STATIC     ATOMS    <user>   **** ""
12 53 54 55 56 57 58 59 60 61 62 63 64
DONOR_HYDROGENS      STATIC     ATOMS    <user>   **** ""
2 39 49
ATOM$BLUE        STATIC     ATOMS    COLORGROUP SYSTEM
12 53 54 55 56 57 58 59 60 61 62 63 64
ATOM$RED        STATIC     ATOMS    COLORGROUP SYSTEM
2 39 49
