AV-unprocessed.smi:2303|AV-procd|sdf|9243|dock5
  -GOLD-   2272012463D 1   1.00000     0.00000
 Structure written by MMmdl.
 32 33  0  0  0  0  0  0  0  0  2 V2000
  151.8989  144.0056  161.3363 C   0  0  0  0  0  0  0  0  0  0  0  0
  152.5294  143.7945  159.9508 C   0  0  0  0  0  0  0  0  0  0  0  0
  151.5368  144.1295  158.8232 C   0  0  0  0  0  0  0  0  0  0  0  0
  153.1080  142.3836  159.8162 C   0  0  0  0  0  0  0  0  0  0  0  0
  154.0336  141.9406  160.7506 C   0  0  0  0  0  0  0  0  0  0  0  0
  154.5574  140.5898  160.5634 C   0  0  0  0  0  0  0  0  0  0  0  0
  155.5624  140.0368  161.4720 C   0  0  0  0  0  0  0  0  0  0  0  0
  156.6753  140.5390  161.6359 O   0  0  0  0  0  0  0  0  0  0  0  0
  155.2035  138.9202  162.1450 N   0  0  0  0  0  0  0  0  0  0  0  0
  156.0231  138.1334  163.0569 C   0  0  0  0  0  0  0  0  0  0  0  0
  155.3007  136.8008  163.1399 C   0  0  0  0  0  0  0  0  0  0  0  0
  154.5596  136.7492  161.8135 C   0  0  0  0  0  0  0  0  0  0  0  0
  154.1888  138.1010  161.6077 O   0  0  0  0  0  0  0  0  0  0  0  0
  154.1767  139.8570  159.4914 C   0  0  0  0  0  0  0  0  0  0  0  0
  153.1975  140.3859  158.5425 C   0  0  0  0  0  0  0  0  0  0  0  0
  152.8592  139.6897  157.5875 O   0  0  0  0  0  0  0  0  0  0  0  0
  152.6942  141.6339  158.7578 N   0  5  0  0  0  0  0  0  0  0  0  0
  152.6225  143.8098  162.1282 H   0  0  0  0  0  0  0  0  0  0  0  0
  151.0471  143.3428  161.4928 H   0  0  0  0  0  0  0  0  0  0  0  0
  151.5480  145.0308  161.4561 H   0  0  0  0  0  0  0  0  0  0  0  0
  153.3465  144.5122  159.8648 H   0  0  0  0  0  0  0  0  0  0  0  0
  151.9950  143.9872  157.8440 H   0  0  0  0  0  0  0  0  0  0  0  0
  151.2105  145.1676  158.8866 H   0  0  0  0  0  0  0  0  0  0  0  0
  150.6462  143.5019  158.8694 H   0  0  0  0  0  0  0  0  0  0  0  0
  154.3557  142.5672  161.5695 H   0  0  0  0  0  0  0  0  0  0  0  0
  157.0234  138.0048  162.6401 H   0  0  0  0  0  0  0  0  0  0  0  0
  156.1133  138.6136  164.0316 H   0  0  0  0  0  0  0  0  0  0  0  0
  155.9728  135.9553  163.2881 H   0  0  0  0  0  0  0  0  0  0  0  0
  154.5844  136.8173  163.9623 H   0  0  0  0  0  0  0  0  0  0  0  0
  155.2243  136.4303  161.0092 H   0  0  0  0  0  0  0  0  0  0  0  0
  153.6926  136.0886  161.8323 H   0  0  0  0  0  0  0  0  0  0  0  0
  154.5806  138.8677  159.3263 H   0  0  0  0  0  0  0  0  0  0  0  0
  1  2  1  0  0  0  0
  1 18  1  0  0  0  0
  1 19  1  0  0  0  0
  1 20  1  0  0  0  0
  2  3  1  0  0  0  0
  2 21  1  0  0  0  0
  2  4  1  0  0  0  0
  3 22  1  0  0  0  0
  3 23  1  0  0  0  0
  3 24  1  0  0  0  0
  4 17  1  0  0  0  0
  4  5  2  0  0  0  0
  5 25  1  0  0  0  0
  5  6  1  0  0  0  0
  6  7  1  0  0  0  0
  6 14  2  0  0  0  0
  7  8  2  0  0  0  0
  7  9  1  0  0  0  0
  9 13  1  0  0  0  0
  9 10  1  0  0  0  0
 10 11  1  0  0  0  0
 10 26  1  0  0  0  0
 10 27  1  0  0  0  0
 11 12  1  0  0  0  0
 11 28  1  0  0  0  0
 11 29  1  0  0  0  0
 12 13  1  0  0  0  0
 12 30  1  0  0  0  0
 12 31  1  0  0  0  0
 14 15  1  0  0  0  0
 14 32  1  0  0  0  0
 15 16  2  0  0  0  0
 15 17  1  0  0  0  0
M  CHG  1  17  -1
M  END
> <s_m_source_file>
AV-unprocessed.smi

> <i_m_source_file_index>
2303

> <i_lp_mmshare_version>
43012

> <i_f3d_flags>
0

> <s_epik_input>
W0NIM11bQ0hdKFtDSDNdKWMxW2NIXWMoW2NIXWMobjEpW09IXSlDKD1PKU4yW0NIMl1bQ0gyXVtDSDJdTzI=

> <s_epik_cmdline>
J2VwaWtfcHl0aG9uJywgJy1waCcsICc3LjAnLCAnLXRuJywgJzgnLCAnLW1hJywgJzIwMCcsICctbWV0YWxfYmluZGluZycsICctaW1hZScsICc8aW5maWxlLm1hZT4nLCAnLW9tYWUnLCAnPG91dGZpbGUubWFlPic=

> <r_lp_tautomer_probability>
1

> <r_epik_Ionization_Penalty>
5.39588

> <r_epik_Ionization_Penalty_Charging>
0.166011

> <r_epik_Ionization_Penalty_Neutral>
5.22987

> <r_epik_State_Penalty>
5.22978

> <r_epik_Charging_Adjusted_Penalty>
5.39579

> <i_epik_Tot_Q>
-1

> <i_epik_Tot_abs_Q>
1

> <r_epik_Metal_State_Penalty>
1.21816

> <b_epik_Metal_Only>
1

> <s_epik_Chemistry_Notes>
This compound has a N-S or N-O group and may undergo hydrolysis at high or low pH.

> <s_lp_Force_Field>
OPLS_2005

> <r_lp_Energy>
27.9757

> <b_lp_Chiralities_Consistent>
1

> <s_lp_Variant>
AV-unprocessed.smi:2303-2

> <Gold.Version>
5.8.1

> <Gold.Id.Protein>
6NUR|6NUR_protein|mol2

> <Gold.PLP.Fitness>
37.3599

> <Gold.PLP.PLP>
-35.7938

> <Gold.PLP.part.hbond>
-2.0000

> <Gold.PLP.part.metal>
0.0000

> <Gold.PLP.part.buried>
-1.7807

> <Gold.PLP.part.nonpolar>
-31.6608

> <Gold.PLP.part.repulsive>
0.0000

> <Gold.PLP.ligand.clash>
0.0002

> <Gold.PLP.ligand.torsion>
1.3310

> <Gold.PLP.Chemscore.Hbond>
1.0000

> <Gold.PLP.Chemscore.CHOScore>
0.0000

> <Gold.PLP.Chemscore.Metal>
0.0000

> <Gold.Chemscore.Hbonds>
donor molecule, donor type, donor heavy atom, donor atom, acceptor molecule, acceptor atom, score
      P1  H  7997  8010       L1    16  0.50

> <Gold.PLP.Chemscore.Internal.Correction>
1.2283

> <Gold.Rescore>
     Score         DG    S(hbond)    S(metal)    S(lipo)     H(rot)  DE(clash)    DE(int)     intcor
     14.00     -17.06       0.81        0.00      97.62       1.00       0.28       2.78       ----

> <Gold.Chemscore.Fitness>
14.0020

> <Gold.Chemscore.DG>
-17.0600

> <Gold.Chemscore.ZeroCoef>
-5.4800

> <Gold.Chemscore.Hbond>
0.8139

> <Gold.Chemscore.Metal>
0.0000

> <Gold.Chemscore.Lipo>
97.6202

> <Gold.Chemscore.Internal_Hbond>
0.0000

> <Gold.Chemscore.DEClash>
0.2786

> <Gold.Chemscore.DEInternal>
2.7794

> <Gold.Chemscore.Rot>
1.0000

> <Gold.Chemscore.Internal.Correction>
   9.000000E+99

> <Gold.Chemscore.Hbonds>
donor molecule, donor type, donor heavy atom, donor atom, acceptor molecule, acceptor atom, score
      P1  H  7997  8010       L1    16  0.02

> <Gold.Chemscore.Hbond.Weighted>
-2.7185

> <Gold.Chemscore.Metal.Weighted>
-0.0000

> <Gold.Chemscore.Lipo.Weighted>
-11.4216

> <Gold.Chemscore.Internal_Hbond.Weighted>
0.0000

> <Gold.Chemscore.DEClash.Weighted>
0.2786

> <Gold.Chemscore.DEInternal.Weighted>
2.7794

> <Gold.Chemscore.Rot.Weighted>
2.5600

> <Gold.Chemscore.Internal.Correction.Weighted>
   9.000000E+99

> <Gold.Protein.RotatedTorsions>
[ 6907 6896 6895 6894 ] final  145.15 input  -60.11 | X-H torsion
[ 7974 7965 7964 7962 ] final   50.38 input  175.53 | X-H torsion
[ 8008 7997 7996 7995 ] final   52.33 input   59.86 | X-H torsion
[ 10167 10162 10161 10158 ] final  -60.46 input  -65.29 | X-H torsion
[ 10718 10713 10712 10709 ] final   -1.05 input   66.30 | X-H torsion
[ 10763 10752 10751 10750 ] final  178.88 input  -60.55 | X-H torsion
[ 11005 11000 10999 10996 ] final    2.42 input  -57.11 | X-H torsion

> <Gold.Protein.ActiveResidues>
 VAL166  LYS551  ARG553  GLY616  TRP617  ASP618  TYR619  PRO620  LYS621  CYS622 
 ASP623  PHE694  ASN695  SER759  ASP760  ASP761  ALA762  ILE779  LEU786  VAL792 
 PHE793  MET794  SER795  GLU796  ALA797  LYS798  CYS799  TRP800  GLU811  SER814 

> <Gold.Protein.RotatedAtoms>
  152.1845  133.4730  159.4975 H   0  0  0  0  0  0  0  0  0  0  0  0  # atno 6907 bound_to 6896
  150.6940  134.1791  159.4250 H   0  0  0  0  0  0  0  0  0  0  0  0  # atno 6908 bound_to 6896
  151.9703  135.0080  160.0603 H   0  0  0  0  0  0  0  0  0  0  0  0  # atno 6909 bound_to 6896
  146.0018  139.4447  143.0010 H   0  0  0  0  0  0  0  0  0  0  0  0  # atno 7974 bound_to 7965
  155.4500  140.3458  155.4299 H   0  0  0  0  0  0  0  0  0  0  0  0  # atno 8008 bound_to 7997
  156.1226  140.1491  156.9212 H   0  0  0  0  0  0  0  0  0  0  0  0  # atno 8009 bound_to 7997
  154.4834  140.0862  156.7411 H   0  0  0  0  0  0  0  0  0  0  0  0  # atno 8010 bound_to 7997
  140.6070  143.2376  151.5798 H   0  0  0  0  0  0  0  0  0  0  0  0  # atno 10167 bound_to 10162
  156.8113  130.5425  149.5708 H   0  0  0  0  0  0  0  0  0  0  0  0  # atno 10718 bound_to 10713
  154.5135  135.2790  155.1323 H   0  0  0  0  0  0  0  0  0  0  0  0  # atno 10763 bound_to 10752
  154.2909  135.6267  153.5388 H   0  0  0  0  0  0  0  0  0  0  0  0  # atno 10764 bound_to 10752
  152.9923  135.5674  154.5606 H   0  0  0  0  0  0  0  0  0  0  0  0  # atno 10765 bound_to 10752
  140.6045  133.9805  155.8148 H   0  0  0  0  0  0  0  0  0  0  0  0  # atno 11005 bound_to 11000
  145.7476  140.9984  143.1267 LP  0  0  0  0  0  0  0  0  0  0  0  0  # atno 17320 bound_to 7965
  144.6922  139.9175  143.7466 LP  0  0  0  0  0  0  0  0  0  0  0  0  # atno 17321 bound_to 7965
  139.5332  144.2855  152.1194 LP  0  0  0  0  0  0  0  0  0  0  0  0  # atno 17342 bound_to 10162
  140.2047  144.4623  150.6414 LP  0  0  0  0  0  0  0  0  0  0  0  0  # atno 17343 bound_to 10162
  156.1043  130.5992  150.9944 LP  0  0  0  0  0  0  0  0  0  0  0  0  # atno 17370 bound_to 10713
  157.6504  131.0898  150.8063 LP  0  0  0  0  0  0  0  0  0  0  0  0  # atno 17371 bound_to 10713
  141.0850  134.0005  157.3328 LP  0  0  0  0  0  0  0  0  0  0  0  0  # atno 17394 bound_to 11000
  139.9218  135.0200  156.8092 LP  0  0  0  0  0  0  0  0  0  0  0  0  # atno 17395 bound_to 11000

$$$$
