AV-unprocessed.smi:2855|AV-procd|sdf|10991|dock9
  -GOLD-   2272015443D 1   1.00000     0.00000
 Structure written by MMmdl.
 46 47  0  0  0  0  0  0  0  0  2 V2000
  153.9836  141.2363  160.7489 C   0  0  0  0  0  0  0  0  0  0  0  0
  153.4157  141.9477  159.5129 C   0  0  2  0  0  0  0  0  0  0  0  0
  153.2031  143.4525  159.7757 C   0  0  0  0  0  0  0  0  0  0  0  0
  152.5589  144.1596  158.5681 C   0  0  0  0  0  0  0  0  0  0  0  0
  151.2052  143.5184  158.1700 C   0  0  2  0  0  0  0  0  0  0  0  0
  150.0712  143.7643  159.2276 C   0  0  0  0  0  0  0  0  0  0  0  0
  148.6612  143.3732  158.7420 C   0  0  0  0  0  0  0  0  0  0  0  0
  150.0200  145.2309  159.7021 C   0  0  0  0  0  0  0  0  0  0  0  0
  151.5250  142.0328  157.8165 C   0  0  2  0  0  0  0  0  0  0  0  0
  150.4136  141.2893  157.2309 N   0  0  0  0  0  0  0  0  0  0  0  0
  150.4645  140.5692  156.0998 C   0  0  0  0  0  0  0  0  0  0  0  0
  151.4853  140.4538  155.4198 O   0  0  0  0  0  0  0  0  0  0  0  0
  149.1455  139.9067  155.6773 C   0  0  0  0  0  0  0  0  0  0  0  0
  148.0973  140.8686  155.3005 N   0  0  0  0  0  0  0  0  0  0  0  0
  148.1055  141.3546  153.9811 C   0  0  0  0  0  0  0  0  0  0  0  0
  147.1852  142.2341  153.5421 C   0  0  0  0  0  0  0  0  0  0  0  0
  146.1597  142.6834  154.4755 C   0  0  0  0  0  0  0  0  0  0  0  0
  145.3155  143.4918  154.0942 O   0  0  0  0  0  0  0  0  0  0  0  0
  146.1896  142.1772  155.7432 N   0  5  0  0  0  0  0  0  0  0  0  0
  147.1296  141.2797  156.1745 C   0  0  0  0  0  0  0  0  0  0  0  0
  147.1352  140.8316  157.3217 O   0  0  0  0  0  0  0  0  0  0  0  0
  152.1151  141.2787  159.0232 C   0  0  0  0  0  0  0  0  0  0  0  0
  153.2957  141.2986  161.5928 H   0  0  0  0  0  0  0  0  0  0  0  0
  154.9300  141.6808  161.0575 H   0  0  0  0  0  0  0  0  0  0  0  0
  154.1658  140.1809  160.5453 H   0  0  0  0  0  0  0  0  0  0  0  0
  154.1536  141.8543  158.7147 H   0  0  0  0  0  0  0  0  0  0  0  0
  152.5827  143.5930  160.6610 H   0  0  0  0  0  0  0  0  0  0  0  0
  154.1603  143.9236  160.0014 H   0  0  0  0  0  0  0  0  0  0  0  0
  152.4622  145.2268  158.7592 H   0  0  0  0  0  0  0  0  0  0  0  0
  153.2447  144.0957  157.7221 H   0  0  0  0  0  0  0  0  0  0  0  0
  150.8881  144.0157  157.2524 H   0  0  0  0  0  0  0  0  0  0  0  0
  150.2748  143.1620  160.1121 H   0  0  0  0  0  0  0  0  0  0  0  0
  148.4440  143.7990  157.7619 H   0  0  0  0  0  0  0  0  0  0  0  0
  147.8914  143.7242  159.4297 H   0  0  0  0  0  0  0  0  0  0  0  0
  148.5345  142.2936  158.6848 H   0  0  0  0  0  0  0  0  0  0  0  0
  149.9303  145.9180  158.8602 H   0  0  0  0  0  0  0  0  0  0  0  0
  150.9047  145.5070  160.2745 H   0  0  0  0  0  0  0  0  0  0  0  0
  149.1698  145.4055  160.3621 H   0  0  0  0  0  0  0  0  0  0  0  0
  152.3029  142.0379  157.0497 H   0  0  0  0  0  0  0  0  0  0  0  0
  149.5333  141.3271  157.7238 H   0  0  0  0  0  0  0  0  0  0  0  0
  149.3416  139.2141  154.8569 H   0  0  0  0  0  0  0  0  0  0  0  0
  148.7979  139.2813  156.5011 H   0  0  0  0  0  0  0  0  0  0  0  0
  148.8940  140.9658  153.3534 H   0  0  0  0  0  0  0  0  0  0  0  0
  147.2031  142.5948  152.5241 H   0  0  0  0  0  0  0  0  0  0  0  0
  152.3276  140.2465  158.7413 H   0  0  0  0  0  0  0  0  0  0  0  0
  151.3866  141.2269  159.8325 H   0  0  0  0  0  0  0  0  0  0  0  0
  1  2  1  0  0  0  0
  1 23  1  0  0  0  0
  1 24  1  0  0  0  0
  1 25  1  0  0  0  0
  2 22  1  0  0  0  0
  2  3  1  0  0  0  0
  2 26  1  0  0  0  0
  3  4  1  0  0  0  0
  3 27  1  0  0  0  0
  3 28  1  0  0  0  0
  4  5  1  0  0  0  0
  4 29  1  0  0  0  0
  4 30  1  0  0  0  0
  5  6  1  0  0  0  0
  5  9  1  0  0  0  0
  5 31  1  0  0  0  0
  6  7  1  0  0  0  0
  6  8  1  0  0  0  0
  6 32  1  0  0  0  0
  7 33  1  0  0  0  0
  7 34  1  0  0  0  0
  7 35  1  0  0  0  0
  8 36  1  0  0  0  0
  8 37  1  0  0  0  0
  8 38  1  0  0  0  0
  9 10  1  0  0  0  0
  9 22  1  0  0  0  0
  9 39  1  0  0  0  0
 10 11  1  0  0  0  0
 10 40  1  0  0  0  0
 11 12  2  0  0  0  0
 11 13  1  0  0  0  0
 13 14  1  0  0  0  0
 13 41  1  0  0  0  0
 13 42  1  0  0  0  0
 14 20  1  0  0  0  0
 14 15  1  0  0  0  0
 15 16  2  0  0  0  0
 15 43  1  0  0  0  0
 16 17  1  0  0  0  0
 16 44  1  0  0  0  0
 17 18  2  0  0  0  0
 17 19  1  0  0  0  0
 19 20  1  0  0  0  0
 20 21  2  0  0  0  0
 22 45  1  0  0  0  0
 22 46  1  0  0  0  0
M  CHG  1  19  -1
M  END
> <s_m_source_file>
AV-unprocessed.smi

> <i_m_source_file_index>
2855

> <i_lp_mmshare_version>
43012

> <i_f3d_flags>
0

> <s_epik_input>
W0NIM11bQ0BASF0xW0NIMl1bQ0gyXVtDQEBIXShbQ0hdKFtDSDNdKVtDSDNdKVtDQEhdKFtDSDJdMSlbTkhdQyg9TylbQ0gyXW4yW2NIXVtjSF1jKD1PKVtuSF1jMj1P

> <s_epik_cmdline>
J2VwaWtfcHl0aG9uJywgJy1waCcsICc3LjAnLCAnLXRuJywgJzgnLCAnLW1hJywgJzIwMCcsICctbWV0YWxfYmluZGluZycsICctaW1hZScsICc8aW5maWxlLm1hZT4nLCAnLW9tYWUnLCAnPG91dGZpbGUubWFlPic=

> <r_lp_tautomer_probability>
0.999537

> <r_epik_Ionization_Penalty>
3.12102

> <r_epik_Ionization_Penalty_Charging>
2.9581e-08

> <r_epik_Ionization_Penalty_Neutral>
3.12102

> <r_epik_State_Penalty>
3.12011

> <r_epik_Charging_Adjusted_Penalty>
3.12011

> <i_epik_Tot_Q>
-1

> <i_epik_Tot_abs_Q>
1

> <r_epik_Metal_State_Penalty>
0.463583

> <b_epik_Metal_Only>
1

> <s_lp_Force_Field>
OPLS_2005

> <r_lp_Energy>
28.6833

> <b_lp_Chiralities_Consistent>
1

> <s_lp_Variant>
AV-unprocessed.smi:2855-15

> <Gold.Version>
5.8.1

> <Gold.Id.Protein>
6NUR|6NUR_protein|mol2

> <Gold.PLP.Fitness>
43.9801

> <Gold.PLP.PLP>
-39.6722

> <Gold.PLP.part.hbond>
-1.0000

> <Gold.PLP.part.metal>
0.0000

> <Gold.PLP.part.buried>
-5.9465

> <Gold.PLP.part.nonpolar>
-33.7735

> <Gold.PLP.part.repulsive>
0.4117

> <Gold.PLP.ligand.clash>
0.0000

> <Gold.PLP.ligand.torsion>
0.6546

> <Gold.PLP.Chemscore.Hbond>
0.8480

> <Gold.PLP.Chemscore.CHOScore>
1.0000

> <Gold.PLP.Chemscore.Metal>
0.0000

> <Gold.Chemscore.Hbonds>
donor molecule, donor type, donor heavy atom, donor atom, acceptor molecule, acceptor atom, score
      P1  H  7989  7998       L1    12  0.85
      L1  C    15    43       P1  7957  1.00

> <Gold.PLP.Chemscore.Internal.Correction>
0.0731

> <Gold.Rescore>
     Score         DG    S(hbond)    S(metal)    S(lipo)     H(rot)  DE(clash)    DE(int)     intcor
     16.23     -16.81       0.81        0.00     113.25       1.81       0.06       0.52       ----

> <Gold.Chemscore.Fitness>
16.2346

> <Gold.Chemscore.DG>
-16.8150

> <Gold.Chemscore.ZeroCoef>
-5.4800

> <Gold.Chemscore.Hbond>
0.8137

> <Gold.Chemscore.Metal>
0.0000

> <Gold.Chemscore.Lipo>
113.2549

> <Gold.Chemscore.Internal_Hbond>
0.0000

> <Gold.Chemscore.DEClash>
0.0641

> <Gold.Chemscore.DEInternal>
0.5164

> <Gold.Chemscore.Rot>
1.8100

> <Gold.Chemscore.Internal.Correction>
   9.000000E+99

> <Gold.Chemscore.Hbonds>
donor molecule, donor type, donor heavy atom, donor atom, acceptor molecule, acceptor atom, score
      P1  H  7989  7998       L1    12  0.84

> <Gold.Chemscore.Hbond.Weighted>
-2.7176

> <Gold.Chemscore.Metal.Weighted>
-0.0000

> <Gold.Chemscore.Lipo.Weighted>
-13.2508

> <Gold.Chemscore.Internal_Hbond.Weighted>
0.0000

> <Gold.Chemscore.DEClash.Weighted>
0.0641

> <Gold.Chemscore.DEInternal.Weighted>
0.5164

> <Gold.Chemscore.Rot.Weighted>
4.6335

> <Gold.Chemscore.Internal.Correction.Weighted>
   9.000000E+99

> <Gold.Protein.RotatedTorsions>
[ 6907 6896 6895 6894 ] final  167.33 input  -60.11 | X-H torsion
[ 7974 7965 7964 7962 ] final  132.04 input  175.53 | X-H torsion
[ 8008 7997 7996 7995 ] final  -23.48 input   59.86 | X-H torsion
[ 10167 10162 10161 10158 ] final  120.20 input  -65.29 | X-H torsion
[ 10718 10713 10712 10709 ] final   62.75 input   66.30 | X-H torsion
[ 10763 10752 10751 10750 ] final -155.97 input  -60.55 | X-H torsion
[ 11005 11000 10999 10996 ] final -117.98 input  -57.11 | X-H torsion

> <Gold.Protein.ActiveResidues>
 VAL166  LYS551  ARG553  GLY616  TRP617  ASP618  TYR619  PRO620  LYS621  CYS622 
 ASP623  PHE694  ASN695  SER759  ASP760  ASP761  ALA762  ILE779  LEU786  VAL792 
 PHE793  MET794  SER795  GLU796  ALA797  LYS798  CYS799  TRP800  GLU811  SER814 

> <Gold.Protein.RotatedAtoms>
  151.8649  133.3464  159.3715 H   0  0  0  0  0  0  0  0  0  0  0  0  # atno 6907 bound_to 6896
  150.7168  134.5170  159.5644 H   0  0  0  0  0  0  0  0  0  0  0  0  # atno 6908 bound_to 6896
  152.2690  134.7953  160.0468 H   0  0  0  0  0  0  0  0  0  0  0  0  # atno 6909 bound_to 6896
  145.0010  139.4312  143.5292 H   0  0  0  0  0  0  0  0  0  0  0  0  # atno 7974 bound_to 7965
  154.4583  140.1979  156.0317 H   0  0  0  0  0  0  0  0  0  0  0  0  # atno 8008 bound_to 7997
  156.0790  140.3274  155.7641 H   0  0  0  0  0  0  0  0  0  0  0  0  # atno 8009 bound_to 7997
  155.5142  140.0564  157.2909 H   0  0  0  0  0  0  0  0  0  0  0  0  # atno 8010 bound_to 7997
  139.5997  144.7053  151.3092 H   0  0  0  0  0  0  0  0  0  0  0  0  # atno 10167 bound_to 10162
  157.5923  130.9067  149.9627 H   0  0  0  0  0  0  0  0  0  0  0  0  # atno 10718 bound_to 10713
  154.7748  135.3156  154.8115 H   0  0  0  0  0  0  0  0  0  0  0  0  # atno 10763 bound_to 10752
  153.8842  135.6832  153.4769 H   0  0  0  0  0  0  0  0  0  0  0  0  # atno 10764 bound_to 10752
  153.1369  135.4756  154.9371 H   0  0  0  0  0  0  0  0  0  0  0  0  # atno 10765 bound_to 10752
  141.0317  133.9970  157.3132 H   0  0  0  0  0  0  0  0  0  0  0  0  # atno 11005 bound_to 11000
  146.3452  139.9398  142.8742 LP  0  0  0  0  0  0  0  0  0  0  0  0  # atno 17320 bound_to 7965
  145.2154  140.9913  143.4076 LP  0  0  0  0  0  0  0  0  0  0  0  0  # atno 17321 bound_to 7965
  140.7240  143.7057  150.7810 LP  0  0  0  0  0  0  0  0  0  0  0  0  # atno 17342 bound_to 10162
  140.0630  143.5136  152.2618 LP  0  0  0  0  0  0  0  0  0  0  0  0  # atno 17343 bound_to 10162
  156.0979  130.3658  150.0272 LP  0  0  0  0  0  0  0  0  0  0  0  0  # atno 17370 bound_to 10713
  156.8392  130.9420  151.3633 LP  0  0  0  0  0  0  0  0  0  0  0  0  # atno 17371 bound_to 10713
  139.9213  135.0200  156.8073 LP  0  0  0  0  0  0  0  0  0  0  0  0  # atno 17394 bound_to 11000
  140.6394  133.9832  155.7700 LP  0  0  0  0  0  0  0  0  0  0  0  0  # atno 17395 bound_to 11000

$$$$
