AV-unprocessed.smi:853|AV-procd|sdf|3953|dock8
  -GOLD-   22720 1423D 1   1.00000     0.00000
 Structure written by MMmdl.
 49 51  0  0  0  0  0  0  0  0  1 V2000
  143.7987  132.6934  149.3152 C   0  0  0  0  0  0  0  0  0  0  0  0
  144.6725  132.1054  150.4255 C   0  0  0  0  0  0  0  0  0  0  0  0
  145.3573  131.1172  150.1601 O   0  0  0  0  0  0  0  0  0  0  0  0
  144.6671  132.6850  151.6501 N   0  0  0  0  0  0  0  0  0  0  0  0
  145.5257  132.2271  152.7487 C   0  0  0  0  0  0  0  0  0  0  0  0
  146.6189  133.2815  152.9976 C   0  0  0  0  0  0  0  0  0  0  0  0
  146.0077  134.6710  153.2787 C   0  0  0  0  0  0  0  0  0  0  0  0
  147.0694  135.6719  153.3246 N   0  0  0  0  0  0  0  0  0  0  0  0
  147.3469  136.4597  154.3731 C   0  0  0  0  0  0  0  0  0  0  0  0
  146.7147  136.4318  155.4287 O   0  0  0  0  0  0  0  0  0  0  0  0
  148.3785  137.2776  154.1022 N   0  0  0  0  0  0  0  0  0  0  0  0
  149.0065  138.2328  154.9468 C   0  0  0  0  0  0  0  0  0  0  0  0
  148.8237  138.3108  156.3474 C   0  0  0  0  0  0  0  0  0  0  0  0
  149.5249  139.2924  157.0735 C   0  0  0  0  0  0  0  0  0  0  0  0
  150.4008  140.1662  156.3868 C   0  0  0  0  0  0  0  0  0  0  0  0
  151.1216  141.1607  157.0776 N   0  0  0  0  0  0  0  0  0  0  0  0
  151.4512  141.0240  158.4882 C   0  0  0  0  0  0  0  0  0  0  0  0
  152.0758  142.3646  158.8709 C   0  0  0  0  0  0  0  0  0  0  0  0
  151.3344  143.3583  157.9771 C   0  0  0  0  0  0  0  0  0  0  0  0
  151.0404  142.5653  156.6984 C   0  0  0  0  0  0  0  0  0  0  0  0
  150.5753  140.0886  155.0461 N   0  0  0  0  0  0  0  0  0  0  0  0
  149.9011  139.1464  154.3547 C   0  0  0  0  0  0  0  0  0  0  0  0
  144.9489  135.0472  152.2163 C   0  0  0  0  0  0  0  0  0  0  0  0
  143.9365  133.9068  152.0091 C   0  0  0  0  0  0  0  0  0  0  0  0
  144.0653  133.7328  149.1216 H   0  0  0  0  0  0  0  0  0  0  0  0
  142.7438  132.6411  149.5858 H   0  0  0  0  0  0  0  0  0  0  0  0
  143.9321  132.1378  148.3863 H   0  0  0  0  0  0  0  0  0  0  0  0
  144.9224  132.0919  153.6477 H   0  0  0  0  0  0  0  0  0  0  0  0
  145.9841  131.2571  152.5513 H   0  0  0  0  0  0  0  0  0  0  0  0
  147.2487  132.9736  153.8331 H   0  0  0  0  0  0  0  0  0  0  0  0
  147.2690  133.3323  152.1226 H   0  0  0  0  0  0  0  0  0  0  0  0
  145.5166  134.6243  154.2527 H   0  0  0  0  0  0  0  0  0  0  0  0
  147.6372  135.7683  152.4955 H   0  0  0  0  0  0  0  0  0  0  0  0
  148.7408  137.2336  153.1609 H   0  0  0  0  0  0  0  0  0  0  0  0
  148.1750  137.6362  156.8834 H   0  0  0  0  0  0  0  0  0  0  0  0
  149.3802  139.3607  158.1413 H   0  0  0  0  0  0  0  0  0  0  0  0
  150.5390  140.8477  159.0602 H   0  0  0  0  0  0  0  0  0  0  0  0
  152.1365  140.1944  158.6645 H   0  0  0  0  0  0  0  0  0  0  0  0
  151.9796  142.5904  159.9332 H   0  0  0  0  0  0  0  0  0  0  0  0
  153.1372  142.3633  158.6192 H   0  0  0  0  0  0  0  0  0  0  0  0
  150.3952  143.6434  158.4534 H   0  0  0  0  0  0  0  0  0  0  0  0
  151.9038  144.2690  157.7885 H   0  0  0  0  0  0  0  0  0  0  0  0
  151.7933  142.7675  155.9361 H   0  0  0  0  0  0  0  0  0  0  0  0
  150.0624  142.8295  156.2946 H   0  0  0  0  0  0  0  0  0  0  0  0
  150.0833  139.1239  153.2901 H   0  0  0  0  0  0  0  0  0  0  0  0
  144.4253  135.9571  152.5121 H   0  0  0  0  0  0  0  0  0  0  0  0
  145.4386  135.2672  151.2663 H   0  0  0  0  0  0  0  0  0  0  0  0
  143.1908  134.2031  151.2729 H   0  0  0  0  0  0  0  0  0  0  0  0
  143.3799  133.7327  152.9311 H   0  0  0  0  0  0  0  0  0  0  0  0
  1  2  1  0  0  0  0
  1 25  1  0  0  0  0
  1 26  1  0  0  0  0
  1 27  1  0  0  0  0
  2  3  2  0  0  0  0
  2  4  1  0  0  0  0
  4 24  1  0  0  0  0
  4  5  1  0  0  0  0
  5  6  1  0  0  0  0
  5 28  1  0  0  0  0
  5 29  1  0  0  0  0
  6  7  1  0  0  0  0
  6 30  1  0  0  0  0
  6 31  1  0  0  0  0
  7  8  1  0  0  0  0
  7 23  1  0  0  0  0
  7 32  1  0  0  0  0
  8  9  1  0  0  0  0
  8 33  1  0  0  0  0
  9 10  2  0  0  0  0
  9 11  1  0  0  0  0
 11 12  1  0  0  0  0
 11 34  1  0  0  0  0
 12 22  1  0  0  0  0
 12 13  2  0  0  0  0
 13 14  1  0  0  0  0
 13 35  1  0  0  0  0
 14 15  2  0  0  0  0
 14 36  1  0  0  0  0
 15 16  1  0  0  0  0
 15 21  1  0  0  0  0
 16 20  1  0  0  0  0
 16 17  1  0  0  0  0
 17 18  1  0  0  0  0
 17 37  1  0  0  0  0
 17 38  1  0  0  0  0
 18 19  1  0  0  0  0
 18 39  1  0  0  0  0
 18 40  1  0  0  0  0
 19 20  1  0  0  0  0
 19 41  1  0  0  0  0
 19 42  1  0  0  0  0
 20 43  1  0  0  0  0
 20 44  1  0  0  0  0
 21 22  2  0  0  0  0
 22 45  1  0  0  0  0
 23 24  1  0  0  0  0
 23 46  1  0  0  0  0
 23 47  1  0  0  0  0
 24 48  1  0  0  0  0
 24 49  1  0  0  0  0
M  END
> <s_m_source_file>
AV-unprocessed.smi

> <i_m_source_file_index>
853

> <i_lp_mmshare_version>
43012

> <i_f3d_flags>
0

> <s_epik_input>
W0NIM11DKD1PKU4xW0NIMl1bQ0gyXVtDSF0oW0NIMl1bQ0gyXTEpW05IXUMoPU8pW05IXWMyW2NIXVtjSF1jKG5bY0hdMilOM1tDSDJdW0NIMl1bQ0gyXVtDSDJdMw==

> <s_epik_cmdline>
J2VwaWtfcHl0aG9uJywgJy1waCcsICc3LjAnLCAnLXRuJywgJzgnLCAnLW1hJywgJzIwMCcsICctbWV0YWxfYmluZGluZycsICctaW1hZScsICc8aW5maWxlLm1hZT4nLCAnLW9tYWUnLCAnPG91dGZpbGUubWFlPic=

> <r_lp_tautomer_probability>
1

> <r_epik_Ionization_Penalty>
0.102256

> <r_epik_Ionization_Penalty_Charging>
0

> <r_epik_Ionization_Penalty_Neutral>
0.102256

> <r_epik_State_Penalty>
0.0916633

> <r_epik_Charging_Adjusted_Penalty>
0.0916633

> <i_epik_Tot_Q>
0

> <i_epik_Tot_abs_Q>
0

> <r_epik_Metal_State_Penalty>
0.078099

> <b_epik_Metal_Only>
0

> <s_lp_Force_Field>
OPLS_2005

> <r_lp_Energy>
47.0227

> <b_lp_Chiralities_Consistent>
1

> <s_lp_Variant>
AV-unprocessed.smi:853-1

> <Gold.Version>
5.8.1

> <Gold.Id.Protein>
6NUR|6NUR_protein|mol2

> <Gold.PLP.Fitness>
43.4339

> <Gold.PLP.PLP>
-33.3128

> <Gold.PLP.part.hbond>
-3.3060

> <Gold.PLP.part.metal>
0.0000

> <Gold.PLP.part.buried>
-2.9624

> <Gold.PLP.part.nonpolar>
-28.5642

> <Gold.PLP.part.repulsive>
0.2034

> <Gold.PLP.ligand.clash>
0.0000

> <Gold.PLP.ligand.torsion>
0.6907

> <Gold.PLP.Chemscore.Hbond>
2.7632

> <Gold.PLP.Chemscore.CHOScore>
1.0000

> <Gold.PLP.Chemscore.Metal>
0.0000

> <Gold.Chemscore.Hbonds>
donor molecule, donor type, donor heavy atom, donor atom, acceptor molecule, acceptor atom, score
      L1  H     8    33       P1  7948  0.97
      L1  H    11    34       P1  7948  0.90
      P1  H  7989  7998       L1    21  0.90
      L1  C    22    45       P1  7957  1.00

> <Gold.PLP.Chemscore.Internal.Correction>
0.2129

> <Gold.Rescore>
     Score         DG    S(hbond)    S(metal)    S(lipo)     H(rot)  DE(clash)    DE(int)     intcor
     17.52     -19.88       2.30        0.00      79.30       1.00       0.54       1.82       ----

> <Gold.Chemscore.Fitness>
17.5227

> <Gold.Chemscore.DG>
-19.8811

> <Gold.Chemscore.ZeroCoef>
-5.4800

> <Gold.Chemscore.Hbond>
2.3002

> <Gold.Chemscore.Metal>
0.0000

> <Gold.Chemscore.Lipo>
79.3020

> <Gold.Chemscore.Internal_Hbond>
0.0000

> <Gold.Chemscore.DEClash>
0.5433

> <Gold.Chemscore.DEInternal>
1.8151

> <Gold.Chemscore.Rot>
1.0000

> <Gold.Chemscore.Internal.Correction>
   9.000000E+99

> <Gold.Chemscore.Hbonds>
donor molecule, donor type, donor heavy atom, donor atom, acceptor molecule, acceptor atom, score
      L1  H     8    33       P1  7948  0.86
      L1  H    11    34       P1  7948  0.88
      P1  H  7989  7998       L1    21  0.17

> <Gold.Chemscore.Hbond.Weighted>
-7.6827

> <Gold.Chemscore.Metal.Weighted>
-0.0000

> <Gold.Chemscore.Lipo.Weighted>
-9.2783

> <Gold.Chemscore.Internal_Hbond.Weighted>
0.0000

> <Gold.Chemscore.DEClash.Weighted>
0.5433

> <Gold.Chemscore.DEInternal.Weighted>
1.8151

> <Gold.Chemscore.Rot.Weighted>
2.5600

> <Gold.Chemscore.Internal.Correction.Weighted>
   9.000000E+99

> <Gold.Protein.RotatedTorsions>
[ 6907 6896 6895 6894 ] final -121.99 input  -60.11 | X-H torsion
[ 7974 7965 7964 7962 ] final  171.31 input  175.53 | X-H torsion
[ 8008 7997 7996 7995 ] final  -37.17 input   59.86 | X-H torsion
[ 10167 10162 10161 10158 ] final -149.67 input  -65.29 | X-H torsion
[ 10718 10713 10712 10709 ] final -171.36 input   66.30 | X-H torsion
[ 10763 10752 10751 10750 ] final  -52.12 input  -60.55 | X-H torsion
[ 11005 11000 10999 10996 ] final    3.36 input  -57.11 | X-H torsion

> <Gold.Protein.ActiveResidues>
 VAL166  LYS551  ARG553  GLY616  TRP617  ASP618  TYR619  PRO620  LYS621  CYS622 
 ASP623  PHE694  ASN695  SER759  ASP760  ASP761  ALA762  ILE779  LEU786  VAL792 
 PHE793  MET794  SER795  GLU796  ALA797  LYS798  CYS799  TRP800  GLU811  SER814 

> <Gold.Protein.RotatedAtoms>
  150.8534  133.7752  159.3017 H   0  0  0  0  0  0  0  0  0  0  0  0  # atno 6907 bound_to 6896
  151.5417  135.1067  159.9937 H   0  0  0  0  0  0  0  0  0  0  0  0  # atno 6908 bound_to 6896
  152.4571  133.7701  159.6850 H   0  0  0  0  0  0  0  0  0  0  0  0  # atno 6909 bound_to 6896
  144.7298  139.9331  143.6425 H   0  0  0  0  0  0  0  0  0  0  0  0  # atno 7974 bound_to 7965
  154.4058  140.1611  156.2493 H   0  0  0  0  0  0  0  0  0  0  0  0  # atno 8008 bound_to 7997
  155.9133  140.3426  155.6093 H   0  0  0  0  0  0  0  0  0  0  0  0  # atno 8009 bound_to 7997
  155.7310  140.0780  157.2279 H   0  0  0  0  0  0  0  0  0  0  0  0  # atno 8010 bound_to 7997
  139.7422  143.8644  152.2565 H   0  0  0  0  0  0  0  0  0  0  0  0  # atno 10167 bound_to 10162
  156.7397  130.9338  151.3109 H   0  0  0  0  0  0  0  0  0  0  0  0  # atno 10718 bound_to 10713
  154.1376  135.6510  153.4935 H   0  0  0  0  0  0  0  0  0  0  0  0  # atno 10763 bound_to 10752
  153.0176  135.5307  154.6938 H   0  0  0  0  0  0  0  0  0  0  0  0  # atno 10764 bound_to 10752
  154.6190  135.2962  155.0318 H   0  0  0  0  0  0  0  0  0  0  0  0  # atno 10765 bound_to 10752
  140.5940  133.9898  155.8101 H   0  0  0  0  0  0  0  0  0  0  0  0  # atno 11005 bound_to 11000
  146.0842  139.3830  143.0445 LP  0  0  0  0  0  0  0  0  0  0  0  0  # atno 17320 bound_to 7965
  145.7799  140.9861  143.1105 LP  0  0  0  0  0  0  0  0  0  0  0  0  # atno 17321 bound_to 7965
  139.8598  144.7123  150.9113 LP  0  0  0  0  0  0  0  0  0  0  0  0  # atno 17342 bound_to 10162
  140.7787  143.3827  151.1448 LP  0  0  0  0  0  0  0  0  0  0  0  0  # atno 17343 bound_to 10162
  157.6823  130.9152  150.0299 LP  0  0  0  0  0  0  0  0  0  0  0  0  # atno 17370 bound_to 10713
  156.1473  130.3642  149.9491 LP  0  0  0  0  0  0  0  0  0  0  0  0  # atno 17371 bound_to 10713
  141.0916  133.9907  157.3227 LP  0  0  0  0  0  0  0  0  0  0  0  0  # atno 17394 bound_to 11000
  139.9261  135.0201  156.8240 LP  0  0  0  0  0  0  0  0  0  0  0  0  # atno 17395 bound_to 11000

$$$$
