AV-unprocessed.smi:2110|AV-procd|sdf|8609|dock9
  -GOLD-   2272011353D 1   1.00000     0.00000
 Structure written by MMmdl.
 47 48  0  0  0  0  0  0  0  0  2 V2000
  152.4421  144.1740  158.8937 C   0  0  0  0  0  0  0  0  0  0  0  0
  151.9264  142.8273  159.4170 C   0  0  0  0  0  0  0  0  0  0  0  0
  151.6162  141.9168  158.3036 N   0  0  0  0  0  0  0  0  0  0  0  0
  150.5130  142.3108  157.4124 C   0  0  0  0  0  0  0  0  0  0  0  0
  150.6661  141.6883  156.0175 C   0  0  0  0  0  0  0  0  0  0  0  0
  152.1052  140.2550  158.3831 S   0  0  0  0  0  0  0  0  0  0  0  0
  152.5368  139.8161  157.0469 O   0  0  0  0  0  0  0  0  0  0  0  0
  152.9684  140.0823  159.5610 O   0  0  0  0  0  0  0  0  0  0  0  0
  150.5736  139.5329  158.7242 N   0  0  0  0  0  0  0  0  0  0  0  0
  149.7739  138.8946  157.6758 C   0  0  0  0  0  0  0  0  0  0  0  0
  149.3434  137.4774  158.0115 C   0  0  0  0  0  0  0  0  0  0  0  0
  149.6662  136.4161  157.1410 C   0  0  0  0  0  0  0  0  0  0  0  0
  149.2622  135.1108  157.4761 C   0  0  0  0  0  0  0  0  0  0  0  0
  148.5744  134.8925  158.6170 N   0  3  0  0  0  0  0  0  0  0  0  0
  148.2306  135.8693  159.4922 C   0  0  0  0  0  0  0  0  0  0  0  0
  147.5219  135.4997  160.6572 N   0  0  0  0  0  0  0  0  0  0  0  0
  147.6208  136.4058  161.8007 C   0  0  0  0  0  0  0  0  0  0  0  0
  146.5557  136.0637  162.8563 C   0  0  0  0  0  0  0  0  0  0  0  0
  146.6583  134.6907  163.2152 O   0  0  0  0  0  0  0  0  0  0  0  0
  146.4154  133.8374  162.1032 C   0  0  0  0  0  0  0  0  0  0  0  0
  147.4755  134.0851  161.0170 C   0  0  0  0  0  0  0  0  0  0  0  0
  148.6146  137.2008  159.1904 C   0  0  0  0  0  0  0  0  0  0  0  0
  152.6573  144.8513  159.7201 H   0  0  0  0  0  0  0  0  0  0  0  0
  151.7040  144.6568  158.2528 H   0  0  0  0  0  0  0  0  0  0  0  0
  153.3596  144.0581  158.3175 H   0  0  0  0  0  0  0  0  0  0  0  0
  152.6706  142.3617  160.0638 H   0  0  0  0  0  0  0  0  0  0  0  0
  151.0415  142.9872  160.0341 H   0  0  0  0  0  0  0  0  0  0  0  0
  149.5650  141.9887  157.8438 H   0  0  0  0  0  0  0  0  0  0  0  0
  150.4689  143.3986  157.3480 H   0  0  0  0  0  0  0  0  0  0  0  0
  149.8249  141.9621  155.3806 H   0  0  0  0  0  0  0  0  0  0  0  0
  150.6975  140.6001  156.0722 H   0  0  0  0  0  0  0  0  0  0  0  0
  151.5757  142.0260  155.5211 H   0  0  0  0  0  0  0  0  0  0  0  0
  150.0545  139.9537  159.4947 H   0  0  0  0  0  0  0  0  0  0  0  0
  148.8771  139.4925  157.5143 H   0  0  0  0  0  0  0  0  0  0  0  0
  150.3303  138.9079  156.7389 H   0  0  0  0  0  0  0  0  0  0  0  0
  150.2211  136.5956  156.2316 H   0  0  0  0  0  0  0  0  0  0  0  0
  149.4702  134.2392  156.8726 H   0  0  0  0  0  0  0  0  0  0  0  0
  148.6175  136.3165  162.2340 H   0  0  0  0  0  0  0  0  0  0  0  0
  147.4934  137.4458  161.5014 H   0  0  0  0  0  0  0  0  0  0  0  0
  146.7014  136.6748  163.7472 H   0  0  0  0  0  0  0  0  0  0  0  0
  145.5535  136.2806  162.4830 H   0  0  0  0  0  0  0  0  0  0  0  0
  146.4545  132.8001  162.4357 H   0  0  0  0  0  0  0  0  0  0  0  0
  145.4107  134.0078  161.7127 H   0  0  0  0  0  0  0  0  0  0  0  0
  147.2284  133.4785  160.1454 H   0  0  0  0  0  0  0  0  0  0  0  0
  148.4582  133.7712  161.3714 H   0  0  0  0  0  0  0  0  0  0  0  0
  148.3627  138.0202  159.8463 H   0  0  0  0  0  0  0  0  0  0  0  0
  148.3026  133.9337  158.8360 H   0  0  0  0  0  0  0  0  0  0  0  0
  1  2  1  0  0  0  0
  1 23  1  0  0  0  0
  1 24  1  0  0  0  0
  1 25  1  0  0  0  0
  2  3  1  0  0  0  0
  2 26  1  0  0  0  0
  2 27  1  0  0  0  0
  3  4  1  0  0  0  0
  3  6  1  0  0  0  0
  4  5  1  0  0  0  0
  4 28  1  0  0  0  0
  4 29  1  0  0  0  0
  5 30  1  0  0  0  0
  5 31  1  0  0  0  0
  5 32  1  0  0  0  0
  6  7  2  0  0  0  0
  6  8  2  0  0  0  0
  6  9  1  0  0  0  0
  9 10  1  0  0  0  0
  9 33  1  0  0  0  0
 10 11  1  0  0  0  0
 10 34  1  0  0  0  0
 10 35  1  0  0  0  0
 11 22  1  0  0  0  0
 11 12  2  0  0  0  0
 12 13  1  0  0  0  0
 12 36  1  0  0  0  0
 13 14  2  0  0  0  0
 13 37  1  0  0  0  0
 14 15  1  0  0  0  0
 14 47  1  0  0  0  0
 15 16  1  0  0  0  0
 15 22  2  0  0  0  0
 16 21  1  0  0  0  0
 16 17  1  0  0  0  0
 17 18  1  0  0  0  0
 17 38  1  0  0  0  0
 17 39  1  0  0  0  0
 18 19  1  0  0  0  0
 18 40  1  0  0  0  0
 18 41  1  0  0  0  0
 19 20  1  0  0  0  0
 20 21  1  0  0  0  0
 20 42  1  0  0  0  0
 20 43  1  0  0  0  0
 21 44  1  0  0  0  0
 21 45  1  0  0  0  0
 22 46  1  0  0  0  0
M  CHG  1  14   1
M  END
> <s_m_source_file>
AV-unprocessed.smi

> <i_m_source_file_index>
2110

> <i_lp_mmshare_version>
43012

> <i_f3d_flags>
0

> <s_epik_input>
W0NIM11bQ0gyXU4oW0NIMl1bQ0gzXSlTKD1PKSg9TylbTkhdW0NIMl1jMVtjSF1bY0hdbmMoW2NIXTEpTjJbQ0gyXVtDSDJdT1tDSDJdW0NIMl0y

> <s_epik_cmdline>
J2VwaWtfcHl0aG9uJywgJy1waCcsICc3LjAnLCAnLXRuJywgJzgnLCAnLW1hJywgJzIwMCcsICctbWV0YWxfYmluZGluZycsICctaW1hZScsICc8aW5maWxlLm1hZT4nLCAnLW9tYWUnLCAnPG91dGZpbGUubWFlPic=

> <r_lp_tautomer_probability>
0.999994

> <r_epik_Ionization_Penalty>
1.66934

> <r_epik_Ionization_Penalty_Charging>
1.61364

> <r_epik_Ionization_Penalty_Neutral>
0.0557011

> <r_epik_State_Penalty>
1.67389

> <r_epik_Charging_Adjusted_Penalty>
3.28753

> <i_epik_Tot_Q>
1

> <i_epik_Tot_abs_Q>
1

> <r_epik_Metal_State_Penalty>
4.64949

> <b_epik_Metal_Only>
0

> <s_lp_Force_Field>
OPLS_2005

> <r_lp_Energy>
18.4454

> <b_lp_Chiralities_Consistent>
1

> <s_lp_Variant>
AV-unprocessed.smi:2110-2

> <Gold.Version>
5.8.1

> <Gold.Id.Protein>
6NUR|6NUR_protein|mol2

> <Gold.PLP.Fitness>
40.6708

> <Gold.PLP.PLP>
-38.7028

> <Gold.PLP.part.hbond>
-2.0740

> <Gold.PLP.part.metal>
0.0000

> <Gold.PLP.part.buried>
-6.2651

> <Gold.PLP.part.nonpolar>
-30.3687

> <Gold.PLP.part.repulsive>
0.2815

> <Gold.PLP.ligand.clash>
0.0000

> <Gold.PLP.ligand.torsion>
2.4644

> <Gold.PLP.Chemscore.Hbond>
1.0000

> <Gold.PLP.Chemscore.CHOScore>
0.0000

> <Gold.PLP.Chemscore.Metal>
0.0000

> <Gold.Chemscore.Hbonds>
donor molecule, donor type, donor heavy atom, donor atom, acceptor molecule, acceptor atom, score
      P1  H  7997  8010       L1     7  1.00

> <Gold.PLP.Chemscore.Internal.Correction>
3.8968

> <Gold.Rescore>
     Score         DG    S(hbond)    S(metal)    S(lipo)     H(rot)  DE(clash)    DE(int)     intcor
     10.68     -14.37       0.99        0.00      86.49       1.77       0.06       3.63       ----

> <Gold.Chemscore.Fitness>
10.6849

> <Gold.Chemscore.DG>
-14.3749

> <Gold.Chemscore.ZeroCoef>
-5.4800

> <Gold.Chemscore.Hbond>
0.9885

> <Gold.Chemscore.Metal>
0.0000

> <Gold.Chemscore.Lipo>
86.4908

> <Gold.Chemscore.Internal_Hbond>
0.0000

> <Gold.Chemscore.DEClash>
0.0618

> <Gold.Chemscore.DEInternal>
3.6282

> <Gold.Chemscore.Rot>
1.7680

> <Gold.Chemscore.Internal.Correction>
   9.000000E+99

> <Gold.Chemscore.Hbonds>
donor molecule, donor type, donor heavy atom, donor atom, acceptor molecule, acceptor atom, score
      P1  H  7997  8010       L1     7  0.92

> <Gold.Chemscore.Hbond.Weighted>
-3.3015

> <Gold.Chemscore.Metal.Weighted>
-0.0000

> <Gold.Chemscore.Lipo.Weighted>
-10.1194

> <Gold.Chemscore.Internal_Hbond.Weighted>
0.0000

> <Gold.Chemscore.DEClash.Weighted>
0.0618

> <Gold.Chemscore.DEInternal.Weighted>
3.6282

> <Gold.Chemscore.Rot.Weighted>
4.5261

> <Gold.Chemscore.Internal.Correction.Weighted>
   9.000000E+99

> <Gold.Protein.RotatedTorsions>
[ 6907 6896 6895 6894 ] final  141.57 input  -60.11 | X-H torsion
[ 7974 7965 7964 7962 ] final  124.16 input  175.53 | X-H torsion
[ 8008 7997 7996 7995 ] final   60.82 input   59.86 | X-H torsion
[ 10167 10162 10161 10158 ] final  -69.46 input  -65.29 | X-H torsion
[ 10718 10713 10712 10709 ] final -130.09 input   66.30 | X-H torsion
[ 10763 10752 10751 10750 ] final    9.60 input  -60.55 | X-H torsion
[ 11005 11000 10999 10996 ] final   31.67 input  -57.11 | X-H torsion

> <Gold.Protein.ActiveResidues>
 VAL166  LYS551  ARG553  GLY616  TRP617  ASP618  TYR619  PRO620  LYS621  CYS622 
 ASP623  PHE694  ASN695  SER759  ASP760  ASP761  ALA762  ILE779  LEU786  VAL792 
 PHE793  MET794  SER795  GLU796  ALA797  LYS798  CYS799  TRP800  GLU811  SER814 

> <Gold.Protein.RotatedAtoms>
  152.2293  133.5046  159.5206 H   0  0  0  0  0  0  0  0  0  0  0  0  # atno 6907 bound_to 6896
  150.7033  134.1237  159.4053 H   0  0  0  0  0  0  0  0  0  0  0  0  # atno 6908 bound_to 6896
  151.9158  135.0319  160.0569 H   0  0  0  0  0  0  0  0  0  0  0  0  # atno 6909 bound_to 6896
  145.0876  139.3610  143.4877 H   0  0  0  0  0  0  0  0  0  0  0  0  # atno 7974 bound_to 7965
  155.5885  140.3492  155.4560 H   0  0  0  0  0  0  0  0  0  0  0  0  # atno 8008 bound_to 7997
  156.0319  140.1276  157.0274 H   0  0  0  0  0  0  0  0  0  0  0  0  # atno 8009 bound_to 7997
  154.4356  140.1041  156.6098 H   0  0  0  0  0  0  0  0  0  0  0  0  # atno 8010 bound_to 7997
  140.5429  143.2314  151.7056 H   0  0  0  0  0  0  0  0  0  0  0  0  # atno 10167 bound_to 10162
  156.2111  130.6919  151.0650 H   0  0  0  0  0  0  0  0  0  0  0  0  # atno 10718 bound_to 10713
  153.2122  135.6870  153.8100 H   0  0  0  0  0  0  0  0  0  0  0  0  # atno 10763 bound_to 10752
  153.7328  135.3250  155.3290 H   0  0  0  0  0  0  0  0  0  0  0  0  # atno 10764 bound_to 10752
  154.8228  135.4640  154.0935 H   0  0  0  0  0  0  0  0  0  0  0  0  # atno 10765 bound_to 10752
  140.2815  134.2968  155.7799 H   0  0  0  0  0  0  0  0  0  0  0  0  # atno 11005 bound_to 11000
  146.3531  140.0696  142.8624 LP  0  0  0  0  0  0  0  0  0  0  0  0  # atno 17320 bound_to 7965
  145.1104  140.9401  143.4660 LP  0  0  0  0  0  0  0  0  0  0  0  0  # atno 17321 bound_to 7965
  139.4996  144.3941  152.0250 LP  0  0  0  0  0  0  0  0  0  0  0  0  # atno 17342 bound_to 10162
  140.3051  144.3602  150.6049 LP  0  0  0  0  0  0  0  0  0  0  0  0  # atno 17343 bound_to 10162
  157.7039  131.0765  150.6732 LP  0  0  0  0  0  0  0  0  0  0  0  0  # atno 17370 bound_to 10713
  156.6792  130.4562  149.5633 LP  0  0  0  0  0  0  0  0  0  0  0  0  # atno 17371 bound_to 10713
  141.2162  133.7528  156.9487 LP  0  0  0  0  0  0  0  0  0  0  0  0  # atno 17394 bound_to 11000
  140.1279  134.9375  157.2296 LP  0  0  0  0  0  0  0  0  0  0  0  0  # atno 17395 bound_to 11000

$$$$
