#       Name:                AV-unprocessed.smi:3338
#       Creating user name   scv26
#       Creation time:       Fri Mar 27 19:27:14 2020


#       File generated by GOLD software.
#

@<TRIPOS>MOLECULE
AV-unprocessed.smi:3338
    47    48     1
SMALL
NO_CHARGES


@<TRIPOS>ATOM
      1 ****        -4.1698  -0.2706  -1.9396 C.3            1 S1                 0.0000
      2 ****        -4.2988   0.2890  -0.5119 C.3            1 S1                 0.0000
      3 ****        -4.7433   1.7630  -0.4858 C.3            1 S1                 0.0000
      4 ****        -3.5992   2.6970  -0.9045 C.3            1 S1                 0.0000
      5 ****        -2.3387   2.4373  -0.0647 C.3            1 S1                 0.0000
      6 ****        -1.9232   1.0134  -0.1492 N.4            1 S1                 1.0000
      7 ****        -0.6241   0.7639   0.5242 C.3            1 S1                 0.0000
      8 ****         0.0961  -0.4763  -0.0395 C.3            1 S1                 0.0000
      9 ****         1.3898  -0.6833   0.5998 N.am           1 S1                 0.0000
     10 ****         2.5087  -0.0000   0.3101 C.2            1 S1                 0.0000
     11 ****         2.5403   0.9063  -0.5235 O.2            1 S1                 0.0000
     12 ****         3.7742  -0.4041   1.0851 C.3            1 S1                 0.0000
     13 ****         4.8823   0.6665   1.0270 C.3            1 S1                 0.0000
     14 ****         4.2549  -1.7061   0.6372 N.pl3          1 S1                 0.0000
     15 ****         4.1669  -2.9163   1.2949 C.2            1 S1                 0.0000
     16 ****         4.7241  -3.8648   0.4861 C.2            1 S1                 0.0000
     17 ****         5.1265  -3.1329  -0.6654 C.2            1 S1                 0.0000
     18 ****         4.8399  -1.8448  -0.5755 N.2            1 S1                 0.0000
     19 ****        -3.0055   0.0997   0.3076 C.3            1 S1                 0.0000
     20 ****        -3.3868   0.2326  -2.5069 H              1 S1                 0.0000
     21 ****        -5.1038  -0.1563  -2.4905 H              1 S1                 0.0000
     22 ****        -3.9294  -1.3340  -1.9214 H              1 S1                 0.0000
     23 ****        -5.0820  -0.2938  -0.0250 H              1 S1                 0.0000
     24 ****        -5.6113   1.9145  -1.1286 H              1 S1                 0.0000
     25 ****        -5.0631   2.0234   0.5241 H              1 S1                 0.0000
     26 ****        -3.3722   2.5583  -1.9620 H              1 S1                 0.0000
     27 ****        -3.9104   3.7362  -0.7941 H              1 S1                 0.0000
     28 ****        -1.5349   3.0803  -0.4258 H              1 S1                 0.0000
     29 ****        -2.5161   2.7060   0.9779 H              1 S1                 0.0000
     30 ****         0.0220   1.6306   0.3786 H              1 S1                 0.0000
     31 ****        -0.7742   0.6716   1.6011 H              1 S1                 0.0000
     32 ****        -0.4930  -1.3777   0.1247 H              1 S1                 0.0000
     33 ****         0.2275  -0.3844  -1.1191 H              1 S1                 0.0000
     34 ****         1.4473  -1.4142   1.2943 H              1 S1                 0.0000
     35 ****         3.4852  -0.5107   2.1321 H              1 S1                 0.0000
     36 ****         4.5321   1.6179   1.4289 H              1 S1                 0.0000
     37 ****         5.2270   0.8441   0.0075 H              1 S1                 0.0000
     38 ****         5.7469   0.3623   1.6175 H              1 S1                 0.0000
     39 ****         3.7196  -3.0015   2.2742 H              1 S1                 0.0000
     40 ****         4.8270  -4.9211   0.6854 H              1 S1                 0.0000
     41 ****         5.6118  -3.4970  -1.5590 H              1 S1                 0.0000
     42 ****        -3.2081   0.2913   1.3627 H              1 S1                 0.0000
     43 ****        -2.6863  -0.9398   0.2399 H              1 S1                 0.0000
     44 ****        -1.7739   0.8261  -1.1304 H              1 S1                 0.0000
     45 ****         1.7087   1.1606  -1.0173 LP             1 S1                 0.0000
     46 ****         3.3974   1.3877  -0.7063 LP             1 S1                 0.0000
     47 ****         5.0163  -1.1313  -1.2535 LP             1 S1                 0.0000
@<TRIPOS>BOND
    1    1    2 1     
    2    1   20 1     
    3    1   21 1     
    4    1   22 1     
    5    2   19 1     
    6    2    3 1     
    7    2   23 1     
    8    3    4 1     
    9    3   24 1     
   10    3   25 1     
   11    4    5 1     
   12    4   26 1     
   13    4   27 1     
   14    5    6 1     
   15    5   28 1     
   16    5   29 1     
   17    6    7 1     
   18    6   19 1     
   19    6   44 1     
   20    7    8 1     
   21    7   30 1     
   22    7   31 1     
   23    8    9 1     
   24    8   32 1     
   25    8   33 1     
   26    9   10 am    
   27    9   34 1     
   28   10   11 2     
   29   10   12 1     
   30   12   13 1     
   31   12   14 1     
   32   12   35 1     
   33   13   36 1     
   34   13   37 1     
   35   13   38 1     
   36   14   18 1     
   37   14   15 1     
   38   15   16 2     
   39   15   39 1     
   40   16   17 1     
   41   16   40 1     
   42   17   18 2     
   43   17   41 1     
   44   19   42 1     
   45   19   43 1     
   46   11   45 1     
   47   11   46 1     
   48   18   47 1     
@<TRIPOS>SUBSTRUCTURE
      1 S1             1
@<TRIPOS>SET
LONE_PAIRS      STATIC     ATOMS    <user>   **** ""
3 45 46 47
DONOR_HYDROGENS      STATIC     ATOMS    <user>   **** ""
2 44 34
ATOM$BLUE        STATIC     ATOMS    COLORGROUP SYSTEM
3 45 46 47
ATOM$RED        STATIC     ATOMS    COLORGROUP SYSTEM
2 44 34
