#       Name:                AV-unprocessed.smi:21
#       Creating user name   scv26
#       Creation time:       Thu Mar 26 15:38:04 2020


#       File generated by GOLD software.
#

@<TRIPOS>MOLECULE
AV-unprocessed.smi:21
    71    74     1
SMALL
NO_CHARGES


@<TRIPOS>ATOM
      1 ****        -3.6376  -0.0814  -5.9618 C.3            1 S1                 0.0000
      2 ****        -3.2673  -0.9864  -4.9341 O.3            1 S1                 0.0000
      3 ****        -4.0352  -0.8373  -3.7486 C.3            1 S1                 0.0000
      4 ****        -3.6097   0.3778  -2.9034 C.3            1 S1                 0.0000
      5 ****        -3.1765  -0.2187  -1.5542 C.3            1 S1                 0.0000
      6 ****        -3.4202   0.7244  -0.3550 C.3            1 S1                 0.0000
      7 ****        -2.6316   1.9548  -0.4216 N.pl3          1 S1                 0.0000
      8 ****        -3.2655   3.1434  -0.9901 C.3            1 S1                 0.0000
      9 ****        -1.2690   1.9142  -0.3293 C.ar           1 S1                 0.0000
     10 ****        -0.5557   2.9394  -0.8712 N.ar           1 S1                 0.0000
     11 ****         0.7783   2.9525  -0.8243 C.ar           1 S1                 0.0000
     12 ****         1.6006   2.0533  -0.2861 N.ar           1 S1                 0.0000
     13 ****         0.9040   1.0225   0.2695 C.ar           1 S1                 0.0000
     14 ****        -0.5145   0.8721   0.2968 C.ar           1 S1                 0.0000
     15 ****        -0.8344  -0.3069   0.9647 N.2            1 S1                 0.0000
     16 ****         0.3154  -0.8199   1.3031 C.2            1 S1                 0.0000
     17 ****         1.4127  -0.0827   0.9288 N.pl3          1 S1                 0.0000
     18 ****         2.8036  -0.4139   1.1814 C.3            1 S1                 0.0000
     19 ****         3.2549  -0.1623   2.6444 C.3            1 S1                 0.0000
     20 ****         2.9856   1.2935   3.1056 C.3            1 S1                 0.0000
     21 ****         1.6324   1.4909   3.4620 O.3            1 S1                 0.0000
     22 ****         4.7511  -0.5310   2.8201 C.3            1 S1                 0.0000
     23 ****         5.1152  -1.9523   2.4231 C.3            1 S1                 0.0000
     24 ****         6.4485  -2.1502   3.1312 C.3            1 S1                 0.0000
     25 ****         6.3191  -1.4487   4.3598 O.3            1 S1                 0.0000
     26 ****         5.2546  -0.5052   4.2709 C.3            1 S1                 0.0000
     27 ****        -3.8685  -1.4946  -1.4691 N.3            1 S1                 0.0000
     28 ****        -3.3005  -2.4053  -0.4838 C.3            1 S1                 0.0000
     29 ****        -3.7825  -2.0239  -2.8155 C.3            1 S1                 0.0000
     30 ****        -5.1011  -0.7840  -3.9778 H              1 S1                 0.0000
     31 ****        -2.1072  -0.4247  -1.6259 H              1 S1                 0.0000
     32 ****        -3.0152  -0.2525  -6.8397 H              1 S1                 0.0000
     33 ****        -3.5033   0.9561  -5.6542 H              1 S1                 0.0000
     34 ****        -4.6780  -0.2257  -6.2556 H              1 S1                 0.0000
     35 ****        -2.7958   0.9454  -3.3559 H              1 S1                 0.0000
     36 ****        -4.4576   1.0531  -2.7830 H              1 S1                 0.0000
     37 ****        -4.4792   0.9823  -0.3181 H              1 S1                 0.0000
     38 ****        -3.2314   0.2248   0.5926 H              1 S1                 0.0000
     39 ****        -2.9636   4.0391  -0.4459 H              1 S1                 0.0000
     40 ****        -4.3521   3.0779  -0.9340 H              1 S1                 0.0000
     41 ****        -2.9915   3.2644  -2.0388 H              1 S1                 0.0000
     42 ****         1.2542   3.8050  -1.2858 H              1 S1                 0.0000
     43 ****         0.3954  -1.7508   1.8453 H              1 S1                 0.0000
     44 ****         2.9359  -1.4621   0.9136 H              1 S1                 0.0000
     45 ****         3.4274   0.1581   0.4937 H              1 S1                 0.0000
     46 ****         2.6823  -0.8298   3.2908 H              1 S1                 0.0000
     47 ****         3.5729   1.5467   3.9870 H              1 S1                 0.0000
     48 ****         3.2683   2.0050   2.3291 H              1 S1                 0.0000
     49 ****         1.5161   2.3939   3.7158 H              1 S1                 0.0000
     50 ****         5.3625   0.1533   2.2292 H              1 S1                 0.0000
     51 ****         4.3786  -2.6594   2.8075 H              1 S1                 0.0000
     52 ****         5.1963  -2.0930   1.3449 H              1 S1                 0.0000
     53 ****         6.6882  -3.2016   3.2917 H              1 S1                 0.0000
     54 ****         7.2572  -1.7005   2.5537 H              1 S1                 0.0000
     55 ****         5.5960   0.4854   4.5715 H              1 S1                 0.0000
     56 ****         4.4704  -0.8142   4.9632 H              1 S1                 0.0000
     57 ****        -3.8191  -3.3643  -0.5048 H              1 S1                 0.0000
     58 ****        -3.3971  -2.0021   0.5240 H              1 S1                 0.0000
     59 ****        -2.2425  -2.5881  -0.6767 H              1 S1                 0.0000
     60 ****        -4.4911  -2.8370  -2.9761 H              1 S1                 0.0000
     61 ****        -2.7802  -2.4181  -2.9935 H              1 S1                 0.0000
     62 ****        -2.3048  -0.8347  -4.7096 LP             1 S1                 0.0000
     63 ****        -3.3873  -1.9190  -5.2744 LP             1 S1                 0.0000
     64 ****        -1.0394   3.6956  -1.3119 LP             1 S1                 0.0000
     65 ****         2.5979   2.1253  -0.2894 LP             1 S1                 0.0000
     66 ****        -1.7452  -0.6783   1.1450 LP             1 S1                 0.0000
     67 ****         1.3948   0.8926   4.2272 LP             1 S1                 0.0000
     68 ****         1.0443   1.2821   2.6806 LP             1 S1                 0.0000
     69 ****         7.1729  -0.9674   4.5581 LP             1 S1                 0.0000
     70 ****         6.1249  -2.0993   5.0940 LP             1 S1                 0.0000
     71 ****        -4.8101  -1.3799  -1.1523 LP             1 S1                 0.0000
@<TRIPOS>BOND
    1    1    2 1     
    2    1   32 1     
    3    1   33 1     
    4    1   34 1     
    5    2    3 1     
    6    3   30 1     
    7    3   29 1     
    8    3    4 1     
    9    4    5 1     
   10    4   35 1     
   11    4   36 1     
   12    5   31 1     
   13    5    6 1     
   14    5   27 1     
   15    6    7 1     
   16    6   37 1     
   17    6   38 1     
   18    7    8 1     
   19    7    9 1     
   20    8   39 1     
   21    8   40 1     
   22    8   41 1     
   23    9   14 ar    
   24    9   10 ar    
   25   10   11 ar    
   26   11   12 ar    
   27   11   42 1     
   28   12   13 ar    
   29   13   17 1     
   30   13   14 ar    
   31   14   15 1     
   32   15   16 2     
   33   16   17 1     
   34   16   43 1     
   35   17   18 1     
   36   18   19 1     
   37   18   44 1     
   38   18   45 1     
   39   19   20 1     
   40   19   22 1     
   41   19   46 1     
   42   20   21 1     
   43   20   47 1     
   44   20   48 1     
   45   21   49 1     
   46   22   26 1     
   47   22   23 1     
   48   22   50 1     
   49   23   24 1     
   50   23   51 1     
   51   23   52 1     
   52   24   25 1     
   53   24   53 1     
   54   24   54 1     
   55   25   26 1     
   56   26   55 1     
   57   26   56 1     
   58   27   28 1     
   59   27   29 1     
   60   28   57 1     
   61   28   58 1     
   62   28   59 1     
   63   29   60 1     
   64   29   61 1     
   65    2   62 1     
   66    2   63 1     
   67   10   64 1     
   68   12   65 1     
   69   15   66 1     
   70   21   67 1     
   71   21   68 1     
   72   25   69 1     
   73   25   70 1     
   74   27   71 1     
@<TRIPOS>SUBSTRUCTURE
      1 S1             1
@<TRIPOS>SET
LONE_PAIRS      STATIC     ATOMS    <user>   **** ""
10 62 63 64 65 66 67 68 69 70 71
DONOR_HYDROGENS      STATIC     ATOMS    <user>   **** ""
1 49
ATOM$BLUE        STATIC     ATOMS    COLORGROUP SYSTEM
10 62 63 64 65 66 67 68 69 70 71
ATOM$RED        STATIC     ATOMS    COLORGROUP SYSTEM
1 49
