AV-unprocessed.smi:1261|AV-procd|sdf|5306|dock6
  -GOLD-   22720 4433D 1   1.00000     0.00000
 Structure written by MMmdl.
 50 51  0  0  0  0  0  0  0  0  2 V2000
  150.9078  144.7847  158.7736 C   0  0  0  0  0  0  0  0  0  0  0  0
  151.8262  143.5543  158.7840 C   0  0  1  0  0  0  0  0  0  0  0  0
  152.2812  143.2052  160.2110 C   0  0  0  0  0  0  0  0  0  0  0  0
  153.1806  141.9580  160.2032 C   0  0  1  0  0  0  0  0  0  0  0  0
  153.6295  141.5807  161.6221 C   0  0  0  0  0  0  0  0  0  0  0  0
  152.4596  140.7867  159.5084 C   0  0  0  0  0  0  0  0  0  0  0  0
  152.0403  141.1496  158.1300 N   0  3  1  0  0  0  0  0  0  0  0  0
  151.4769  139.9907  157.3915 C   0  0  0  0  0  0  0  0  0  0  0  0
  151.0921  140.3463  155.9455 C   0  0  0  0  0  0  0  0  0  0  0  0
  151.6618  139.3461  154.9263 C   0  0  0  0  0  0  0  0  0  0  0  0
  150.8555  138.1337  154.8646 N   0  0  0  0  0  0  0  0  0  0  0  0
  151.3289  136.8806  154.9764 C   0  0  0  0  0  0  0  0  0  0  0  0
  152.5251  136.6340  155.1276 O   0  0  0  0  0  0  0  0  0  0  0  0
  150.3260  135.7142  154.9249 C   0  0  0  0  0  0  0  0  0  0  0  0
  150.9286  134.3711  154.9528 N   0  0  0  0  0  0  0  0  0  0  0  0
  151.8457  134.1828  155.9759 N   0  0  0  0  0  0  0  0  0  0  0  0
  152.4394  133.0449  156.1089 C   0  0  0  0  0  0  0  0  0  0  0  0
  153.3413  132.9018  157.1345 O   0  0  0  0  0  0  0  0  0  0  0  0
  152.1664  131.9484  155.2057 C   0  0  0  0  0  0  0  0  0  0  0  0
  151.2725  132.1416  154.2111 C   0  0  0  0  0  0  0  0  0  0  0  0
  150.5845  133.4210  154.0294 C   0  0  0  0  0  0  0  0  0  0  0  0
  149.7781  133.6300  153.1235 O   0  0  0  0  0  0  0  0  0  0  0  0
  151.1454  142.3376  158.1279 C   0  0  0  0  0  0  0  0  0  0  0  0
  153.5816  131.9880  157.1332 H   0  0  0  0  0  0  0  0  0  0  0  0
  149.9957  144.6047  159.3438 H   0  0  0  0  0  0  0  0  0  0  0  0
  150.6170  145.0501  157.7567 H   0  0  0  0  0  0  0  0  0  0  0  0
  151.4070  145.6507  159.2091 H   0  0  0  0  0  0  0  0  0  0  0  0
  152.7123  143.8021  158.1972 H   0  0  0  0  0  0  0  0  0  0  0  0
  152.8186  144.0482  160.6470 H   0  0  0  0  0  0  0  0  0  0  0  0
  151.4105  143.0301  160.8451 H   0  0  0  0  0  0  0  0  0  0  0  0
  154.0778  142.1914  159.6273 H   0  0  0  0  0  0  0  0  0  0  0  0
  152.7773  141.3346  162.2563 H   0  0  0  0  0  0  0  0  0  0  0  0
  154.1693  142.4020  162.0942 H   0  0  0  0  0  0  0  0  0  0  0  0
  154.2943  140.7166  161.6075 H   0  0  0  0  0  0  0  0  0  0  0  0
  153.1308  139.9274  159.4701 H   0  0  0  0  0  0  0  0  0  0  0  0
  151.5851  140.4806  160.0854 H   0  0  0  0  0  0  0  0  0  0  0  0
  152.2216  139.1945  157.3518 H   0  0  0  0  0  0  0  0  0  0  0  0
  150.6211  139.5844  157.9332 H   0  0  0  0  0  0  0  0  0  0  0  0
  150.0080  140.3788  155.8415 H   0  0  0  0  0  0  0  0  0  0  0  0
  151.4543  141.3477  155.7091 H   0  0  0  0  0  0  0  0  0  0  0  0
  151.6750  139.7932  153.9319 H   0  0  0  0  0  0  0  0  0  0  0  0
  152.6962  139.0965  155.1693 H   0  0  0  0  0  0  0  0  0  0  0  0
  149.8605  138.2513  154.7372 H   0  0  0  0  0  0  0  0  0  0  0  0
  149.6396  135.8290  155.7657 H   0  0  0  0  0  0  0  0  0  0  0  0
  149.7068  135.8267  154.0331 H   0  0  0  0  0  0  0  0  0  0  0  0
  152.6689  131.0005  155.3310 H   0  0  0  0  0  0  0  0  0  0  0  0
  151.0584  131.3309  153.5302 H   0  0  0  0  0  0  0  0  0  0  0  0
  150.2185  142.0951  158.6506 H   0  0  0  0  0  0  0  0  0  0  0  0
  150.8697  142.5980  157.1067 H   0  0  0  0  0  0  0  0  0  0  0  0
  152.8841  141.4149  157.6424 H   0  0  0  0  0  0  0  0  0  0  0  0
  1  2  1  0  0  0  0
  1 25  1  0  0  0  0
  1 26  1  0  0  0  0
  1 27  1  0  0  0  0
  2 23  1  0  0  0  0
  2  3  1  0  0  0  0
  2 28  1  0  0  0  0
  3  4  1  0  0  0  0
  3 29  1  0  0  0  0
  3 30  1  0  0  0  0
  4  5  1  0  0  0  0
  4  6  1  0  0  0  0
  4 31  1  0  0  0  0
  5 32  1  0  0  0  0
  5 33  1  0  0  0  0
  5 34  1  0  0  0  0
  6  7  1  0  0  0  0
  6 35  1  0  0  0  0
  6 36  1  0  0  0  0
  7  8  1  0  0  0  0
  7 23  1  0  0  0  0
  7 50  1  0  0  0  0
  8  9  1  0  0  0  0
  8 37  1  0  0  0  0
  8 38  1  0  0  0  0
  9 10  1  0  0  0  0
  9 39  1  0  0  0  0
  9 40  1  0  0  0  0
 10 11  1  0  0  0  0
 10 41  1  0  0  0  0
 10 42  1  0  0  0  0
 11 12  1  0  0  0  0
 11 43  1  0  0  0  0
 12 13  2  0  0  0  0
 12 14  1  0  0  0  0
 14 44  1  0  0  0  0
 14 45  1  0  0  0  0
 14 15  1  0  0  0  0
 15 16  1  0  0  0  0
 15 21  1  0  0  0  0
 16 17  2  0  0  0  0
 17 18  1  0  0  0  0
 17 19  1  0  0  0  0
 18 24  1  0  0  0  0
 19 46  1  0  0  0  0
 19 20  2  0  0  0  0
 20 47  1  0  0  0  0
 20 21  1  0  0  0  0
 21 22  2  0  0  0  0
 23 48  1  0  0  0  0
 23 49  1  0  0  0  0
M  CHG  1   7   1
M  END
> <s_m_source_file>
AV-unprocessed.smi

> <i_m_source_file_index>
1261

> <i_lp_mmshare_version>
43012

> <i_f3d_flags>
0

> <s_epik_input>
W0NIM11bQ0BASF0xW0NIMl1bQ0BASF0oW0NIM10pW0NIMl1OKFtDSDJdMSlbQ0gyXVtDSDJdW0NIMl1bTkhdQyg9TylbQ0gyXW4yW25IXWMoPU8pW2NIXVtjSF1jMj1P

> <s_epik_cmdline>
J2VwaWtfcHl0aG9uJywgJy1waCcsICc3LjAnLCAnLXRuJywgJzgnLCAnLW1hJywgJzIwMCcsICctbWV0YWxfYmluZGluZycsICctaW1hZScsICc8aW5maWxlLm1hZT4nLCAnLW9tYWUnLCAnPG91dGZpbGUubWFlPic=

> <r_lp_tautomer_probability>
0.9996

> <r_epik_Ionization_Penalty>
2.1425

> <r_epik_Ionization_Penalty_Charging>
0.000312112

> <r_epik_Ionization_Penalty_Neutral>
2.14218

> <r_epik_State_Penalty>
1.71978

> <r_epik_Charging_Adjusted_Penalty>
1.72009

> <i_epik_Tot_Q>
1

> <i_epik_Tot_abs_Q>
1

> <r_epik_Metal_State_Penalty>
1.71978

> <b_epik_Metal_Only>
0

> <s_lp_Force_Field>
OPLS_2005

> <r_lp_Energy>
26.9224

> <b_lp_Chiralities_Consistent>
1

> <s_lp_Variant>
AV-unprocessed.smi:1261-6

> <Gold.Version>
5.8.1

> <Gold.Id.Protein>
6NUR|6NUR_protein|mol2

> <Gold.PLP.Fitness>
53.1718

> <Gold.PLP.PLP>
-48.3133

> <Gold.PLP.part.hbond>
-1.7873

> <Gold.PLP.part.metal>
0.0000

> <Gold.PLP.part.buried>
-6.0978

> <Gold.PLP.part.nonpolar>
-41.7562

> <Gold.PLP.part.repulsive>
1.7716

> <Gold.PLP.ligand.clash>
0.0000

> <Gold.PLP.ligand.torsion>
0.5896

> <Gold.PLP.Chemscore.Hbond>
1.9920

> <Gold.PLP.Chemscore.CHOScore>
0.0000

> <Gold.PLP.Chemscore.Metal>
0.0000

> <Gold.Chemscore.Hbonds>
donor molecule, donor type, donor heavy atom, donor atom, acceptor molecule, acceptor atom, score
      P1  H 10752 10764       L1    13  0.23

> <Gold.PLP.Chemscore.Internal.Correction>
0.0616

> <Gold.Rescore>
     Score         DG    S(hbond)    S(metal)    S(lipo)     H(rot)  DE(clash)    DE(int)     intcor
     14.08     -15.88       1.98        0.00     101.04       3.14       0.04       1.77       ----

> <Gold.Chemscore.Fitness>
14.0771

> <Gold.Chemscore.DG>
-15.8781

> <Gold.Chemscore.ZeroCoef>
-5.4800

> <Gold.Chemscore.Hbond>
1.9766

> <Gold.Chemscore.Metal>
0.0000

> <Gold.Chemscore.Lipo>
101.0442

> <Gold.Chemscore.Internal_Hbond>
0.0000

> <Gold.Chemscore.DEClash>
0.0354

> <Gold.Chemscore.DEInternal>
1.7656

> <Gold.Chemscore.Rot>
3.1352

> <Gold.Chemscore.Internal.Correction>
   9.000000E+99

> <Gold.Chemscore.Hbonds>
donor molecule, donor type, donor heavy atom, donor atom, acceptor molecule, acceptor atom, score
      P1  H 10752 10764       L1    13  0.23

> <Gold.Chemscore.Hbond.Weighted>
-6.6020

> <Gold.Chemscore.Metal.Weighted>
-0.0000

> <Gold.Chemscore.Lipo.Weighted>
-11.8222

> <Gold.Chemscore.Internal_Hbond.Weighted>
0.0000

> <Gold.Chemscore.DEClash.Weighted>
0.0354

> <Gold.Chemscore.DEInternal.Weighted>
1.7656

> <Gold.Chemscore.Rot.Weighted>
8.0260

> <Gold.Chemscore.Internal.Correction.Weighted>
   9.000000E+99

> <Gold.Protein.RotatedTorsions>
[ 6907 6896 6895 6894 ] final -176.14 input  -60.11 | X-H torsion
[ 7974 7965 7964 7962 ] final  -34.56 input  175.53 | X-H torsion
[ 8008 7997 7996 7995 ] final  -41.19 input   59.86 | X-H torsion
[ 10167 10162 10161 10158 ] final  157.52 input  -65.29 | X-H torsion
[ 10718 10713 10712 10709 ] final  -14.87 input   66.30 | X-H torsion
[ 10763 10752 10751 10750 ] final  -31.86 input  -60.55 | X-H torsion
[ 11005 11000 10999 10996 ] final   68.10 input  -57.11 | X-H torsion

> <Gold.Protein.ActiveResidues>
 VAL166  LYS551  ARG553  GLY616  TRP617  ASP618  TYR619  PRO620  LYS621  CYS622 
 ASP623  PHE694  ASN695  SER759  ASP760  ASP761  ALA762  ILE779  LEU786  VAL792 
 PHE793  MET794  SER795  GLU796  ALA797  LYS798  CYS799  TRP800  GLU811  SER814 

> <Gold.Protein.RotatedAtoms>
  151.6000  133.3357  159.3045 H   0  0  0  0  0  0  0  0  0  0  0  0  # atno 6907 bound_to 6896
  150.8213  134.7425  159.6786 H   0  0  0  0  0  0  0  0  0  0  0  0  # atno 6908 bound_to 6896
  152.4306  134.5790  159.9994 H   0  0  0  0  0  0  0  0  0  0  0  0  # atno 6909 bound_to 6896
  146.0819  140.6054  142.8904 H   0  0  0  0  0  0  0  0  0  0  0  0  # atno 7974 bound_to 7965
  154.4006  140.1506  156.3150 H   0  0  0  0  0  0  0  0  0  0  0  0  # atno 8008 bound_to 7997
  155.8581  140.3454  155.5717 H   0  0  0  0  0  0  0  0  0  0  0  0  # atno 8009 bound_to 7997
  155.7910  140.0856  157.1999 H   0  0  0  0  0  0  0  0  0  0  0  0  # atno 8010 bound_to 7997
  139.4823  144.4909  151.8309 H   0  0  0  0  0  0  0  0  0  0  0  0  # atno 10167 bound_to 10162
  156.6098  130.4846  149.6206 H   0  0  0  0  0  0  0  0  0  0  0  0  # atno 10718 bound_to 10713
  153.8043  135.6887  153.4851 H   0  0  0  0  0  0  0  0  0  0  0  0  # atno 10763 bound_to 10752
  153.1668  135.4558  154.9847 H   0  0  0  0  0  0  0  0  0  0  0  0  # atno 10764 bound_to 10752
  154.7994  135.3331  154.7529 H   0  0  0  0  0  0  0  0  0  0  0  0  # atno 10765 bound_to 10752
  139.9731  134.6867  156.0407 H   0  0  0  0  0  0  0  0  0  0  0  0  # atno 11005 bound_to 11000
  144.7299  140.4639  143.6945 LP  0  0  0  0  0  0  0  0  0  0  0  0  # atno 17320 bound_to 7965
  145.6202  139.1523  143.3027 LP  0  0  0  0  0  0  0  0  0  0  0  0  # atno 17321 bound_to 7965
  140.4393  144.2008  150.5890 LP  0  0  0  0  0  0  0  0  0  0  0  0  # atno 17342 bound_to 10162
  140.4699  143.2417  151.9103 LP  0  0  0  0  0  0  0  0  0  0  0  0  # atno 17343 bound_to 10162
  156.2400  130.6845  151.1546 LP  0  0  0  0  0  0  0  0  0  0  0  0  # atno 17370 bound_to 10713
  157.7257  131.0651  150.5940 LP  0  0  0  0  0  0  0  0  0  0  0  0  # atno 17371 bound_to 10713
  141.1410  133.6565  156.3729 LP  0  0  0  0  0  0  0  0  0  0  0  0  # atno 17394 bound_to 11000
  140.5251  134.6266  157.5331 LP  0  0  0  0  0  0  0  0  0  0  0  0  # atno 17395 bound_to 11000

$$$$
