AV-unprocessed.smi:2478|AV-procd|sdf|9764|dock3
  -GOLD-   2272013403D 1   1.00000     0.00000
 Structure written by MMmdl.
 42 43  0  0  0  0  0  0  0  0  1 V2000
  151.1664  141.2736  158.3987 C   0  0  0  0  0  0  0  0  0  0  0  0
  150.0206  141.2131  157.3766 C   0  0  1  0  0  0  0  0  0  0  0  0
  150.5230  141.4403  155.9363 C   0  0  0  0  0  0  0  0  0  0  0  0
  149.3664  141.4142  154.9240 C   0  0  0  0  0  0  0  0  0  0  0  0
  148.5603  140.1110  155.0299 C   0  0  0  0  0  0  0  0  0  0  0  0
  148.0569  139.8838  156.4647 C   0  0  0  0  0  0  0  0  0  0  0  0
  149.2161  139.8982  157.4845 C   0  0  1  0  0  0  0  0  0  0  0  0
  150.1009  138.8088  157.2465 O   0  0  0  0  0  0  0  0  0  0  0  0
  149.4908  137.5270  157.2997 C   0  0  0  0  0  0  0  0  0  0  0  0
  149.4027  137.0726  158.7564 C   0  0  0  0  0  0  0  0  0  0  0  0
  150.4306  136.9365  159.4214 O   0  0  0  0  0  0  0  0  0  0  0  0
  148.1578  136.8428  159.2127 N   0  0  0  0  0  0  0  0  0  0  0  0
  147.7529  136.4029  160.5030 C   0  0  0  0  0  0  0  0  0  0  0  0
  147.8321  137.1838  161.6094 N   0  0  0  0  0  0  0  0  0  0  0  0
  147.4269  136.6921  162.7976 C   0  0  0  0  0  0  0  0  0  0  0  0
  146.9154  135.3930  162.9554 C   0  0  0  0  0  0  0  0  0  0  0  0
  146.8270  134.5725  161.8178 C   0  0  0  0  0  0  0  0  0  0  0  0
  147.2597  135.0747  160.5665 C   0  0  0  0  0  0  0  0  0  0  0  0
  147.1862  134.3309  159.4080 O   0  0  0  0  0  0  0  0  0  0  0  0
  147.9716  133.2291  159.2742 C   0  0  0  0  0  0  0  0  0  0  0  0
  147.5214  132.2273  160.0692 F   0  0  0  0  0  0  0  0  0  0  0  0
  147.9262  132.7882  157.9938 F   0  0  0  0  0  0  0  0  0  0  0  0
  151.9138  140.5030  158.2071 H   0  0  0  0  0  0  0  0  0  0  0  0
  150.7953  141.1322  159.4140 H   0  0  0  0  0  0  0  0  0  0  0  0
  151.6711  142.2393  158.3642 H   0  0  0  0  0  0  0  0  0  0  0  0
  149.3400  142.0312  157.6173 H   0  0  0  0  0  0  0  0  0  0  0  0
  151.0429  142.3964  155.8690 H   0  0  0  0  0  0  0  0  0  0  0  0
  151.2541  140.6745  155.6734 H   0  0  0  0  0  0  0  0  0  0  0  0
  148.7077  142.2656  155.1000 H   0  0  0  0  0  0  0  0  0  0  0  0
  149.7558  141.5285  153.9120 H   0  0  0  0  0  0  0  0  0  0  0  0
  147.7164  140.1397  154.3401 H   0  0  0  0  0  0  0  0  0  0  0  0
  149.1821  139.2693  154.7217 H   0  0  0  0  0  0  0  0  0  0  0  0
  147.3458  140.6699  156.7220 H   0  0  0  0  0  0  0  0  0  0  0  0
  147.4993  138.9495  156.5186 H   0  0  0  0  0  0  0  0  0  0  0  0
  148.8100  139.8266  158.4953 H   0  0  0  0  0  0  0  0  0  0  0  0
  148.4909  137.5720  156.8643 H   0  0  0  0  0  0  0  0  0  0  0  0
  150.0673  136.7897  156.7415 H   0  0  0  0  0  0  0  0  0  0  0  0
  147.4067  137.0015  158.5569 H   0  0  0  0  0  0  0  0  0  0  0  0
  147.5101  137.3554  163.6456 H   0  0  0  0  0  0  0  0  0  0  0  0
  146.5957  135.0368  163.9235 H   0  0  0  0  0  0  0  0  0  0  0  0
  146.4255  133.5748  161.9144 H   0  0  0  0  0  0  0  0  0  0  0  0
  149.0129  133.4439  159.5160 H   0  0  0  0  0  0  0  0  0  0  0  0
  1  2  1  0  0  0  0
  1 23  1  0  0  0  0
  1 24  1  0  0  0  0
  1 25  1  0  0  0  0
  2  7  1  0  0  0  0
  2  3  1  0  0  0  0
  2 26  1  0  0  0  0
  3  4  1  0  0  0  0
  3 27  1  0  0  0  0
  3 28  1  0  0  0  0
  4  5  1  0  0  0  0
  4 29  1  0  0  0  0
  4 30  1  0  0  0  0
  5  6  1  0  0  0  0
  5 31  1  0  0  0  0
  5 32  1  0  0  0  0
  6  7  1  0  0  0  0
  6 33  1  0  0  0  0
  6 34  1  0  0  0  0
  7  8  1  0  0  0  0
  7 35  1  0  0  0  0
  8  9  1  0  0  0  0
  9 10  1  0  0  0  0
  9 36  1  0  0  0  0
  9 37  1  0  0  0  0
 10 11  2  0  0  0  0
 10 12  1  0  0  0  0
 12 13  1  0  0  0  0
 12 38  1  0  0  0  0
 13 18  1  0  0  0  0
 13 14  2  0  0  0  0
 14 15  1  0  0  0  0
 15 16  2  0  0  0  0
 15 39  1  0  0  0  0
 16 17  1  0  0  0  0
 16 40  1  0  0  0  0
 17 18  2  0  0  0  0
 17 41  1  0  0  0  0
 18 19  1  0  0  0  0
 19 20  1  0  0  0  0
 20 21  1  0  0  0  0
 20 22  1  0  0  0  0
 20 42  1  0  0  0  0
M  END
> <s_m_source_file>
AV-unprocessed.smi

> <i_m_source_file_index>
2478

> <i_lp_mmshare_version>
43012

> <i_f3d_flags>
0

> <s_epik_input>
W0NIM11bQ0BASF0xW0NIMl1bQ0gyXVtDSDJdW0NIMl1bQ0BIXTFPW0NIMl1DKD1PKVtOSF1jMm5bY0hdW2NIXVtjSF1jMk9bQ0hdKEYpRg==

> <s_epik_cmdline>
J2VwaWtfcHl0aG9uJywgJy1waCcsICc3LjAnLCAnLXRuJywgJzgnLCAnLW1hJywgJzIwMCcsICctbWV0YWxfYmluZGluZycsICctaW1hZScsICc8aW5maWxlLm1hZT4nLCAnLW9tYWUnLCAnPG91dGZpbGUubWFlPic=

> <r_lp_tautomer_probability>
1

> <r_epik_Ionization_Penalty>
6.06012e-05

> <r_epik_Ionization_Penalty_Charging>
0

> <r_epik_Ionization_Penalty_Neutral>
6.06012e-05

> <r_epik_State_Penalty>
-0

> <r_epik_Charging_Adjusted_Penalty>
0

> <i_epik_Tot_Q>
0

> <i_epik_Tot_abs_Q>
0

> <r_epik_Metal_State_Penalty>
-0

> <b_epik_Metal_Only>
0

> <s_lp_Force_Field>
OPLS_2005

> <r_lp_Energy>
14.9607

> <b_lp_Chiralities_Consistent>
1

> <s_lp_Variant>
AV-unprocessed.smi:2478-2

> <Gold.Version>
5.8.1

> <Gold.Id.Protein>
6NUR|6NUR_protein|mol2

> <Gold.PLP.Fitness>
41.6616

> <Gold.PLP.PLP>
-35.2865

> <Gold.PLP.part.hbond>
-2.9821

> <Gold.PLP.part.metal>
0.0000

> <Gold.PLP.part.buried>
-4.1554

> <Gold.PLP.part.nonpolar>
-28.0087

> <Gold.PLP.part.repulsive>
0.1679

> <Gold.PLP.ligand.clash>
0.0000

> <Gold.PLP.ligand.torsion>
0.8988

> <Gold.PLP.Chemscore.Hbond>
2.6708

> <Gold.PLP.Chemscore.CHOScore>
0.0000

> <Gold.PLP.Chemscore.Metal>
0.0000

> <Gold.Chemscore.Hbonds>
donor molecule, donor type, donor heavy atom, donor atom, acceptor molecule, acceptor atom, score
      P1  H  6896  6909       L1    11  1.00
      P1  H  6931  6943       L1    14  1.00
      P1  H  6934  6947       L1    14  0.65

> <Gold.PLP.Chemscore.Internal.Correction>
0.1602

> <Gold.Rescore>
     Score         DG    S(hbond)    S(metal)    S(lipo)     H(rot)  DE(clash)    DE(int)     intcor
     15.72     -16.70       2.33        0.00      69.95       1.85       0.00       0.98       ----

> <Gold.Chemscore.Fitness>
15.7180

> <Gold.Chemscore.DG>
-16.7003

> <Gold.Chemscore.ZeroCoef>
-5.4800

> <Gold.Chemscore.Hbond>
2.3254

> <Gold.Chemscore.Metal>
0.0000

> <Gold.Chemscore.Lipo>
69.9527

> <Gold.Chemscore.Internal_Hbond>
0.0000

> <Gold.Chemscore.DEClash>
0.0000

> <Gold.Chemscore.DEInternal>
0.9823

> <Gold.Chemscore.Rot>
1.8481

> <Gold.Chemscore.Internal.Correction>
   9.000000E+99

> <Gold.Chemscore.Hbonds>
donor molecule, donor type, donor heavy atom, donor atom, acceptor molecule, acceptor atom, score
      P1  H  6896  6909       L1    11  0.92
      P1  H  6931  6943       L1    14  0.58
      P1  H  6934  6947       L1    14  0.27

> <Gold.Chemscore.Hbond.Weighted>
-7.7670

> <Gold.Chemscore.Metal.Weighted>
-0.0000

> <Gold.Chemscore.Lipo.Weighted>
-8.1845

> <Gold.Chemscore.Internal_Hbond.Weighted>
0.0000

> <Gold.Chemscore.DEClash.Weighted>
0.0000

> <Gold.Chemscore.DEInternal.Weighted>
0.9823

> <Gold.Chemscore.Rot.Weighted>
4.7311

> <Gold.Chemscore.Internal.Correction.Weighted>
   9.000000E+99

> <Gold.Protein.RotatedTorsions>
[ 6907 6896 6895 6894 ] final   96.93 input  -60.11 | X-H torsion
[ 7974 7965 7964 7962 ] final   79.23 input  175.53 | X-H torsion
[ 8008 7997 7996 7995 ] final  117.85 input   59.86 | X-H torsion
[ 10167 10162 10161 10158 ] final    8.44 input  -65.29 | X-H torsion
[ 10718 10713 10712 10709 ] final    3.42 input   66.30 | X-H torsion
[ 10763 10752 10751 10750 ] final   -7.29 input  -60.55 | X-H torsion
[ 11005 11000 10999 10996 ] final  -94.51 input  -57.11 | X-H torsion

> <Gold.Protein.ActiveResidues>
 VAL166  LYS551  ARG553  GLY616  TRP617  ASP618  TYR619  PRO620  LYS621  CYS622 
 ASP623  PHE694  ASN695  SER759  ASP760  ASP761  ALA762  ILE779  LEU786  VAL792 
 PHE793  MET794  SER795  GLU796  ALA797  LYS798  CYS799  TRP800  GLU811  SER814 

> <Gold.Protein.RotatedAtoms>
  152.5429  134.0811  159.8235 H   0  0  0  0  0  0  0  0  0  0  0  0  # atno 6907 bound_to 6896
  151.0913  133.5307  159.2622 H   0  0  0  0  0  0  0  0  0  0  0  0  # atno 6908 bound_to 6896
  151.2097  135.0485  159.8960 H   0  0  0  0  0  0  0  0  0  0  0  0  # atno 6909 bound_to 6896
  145.6669  139.2486  143.1890 H   0  0  0  0  0  0  0  0  0  0  0  0  # atno 7974 bound_to 7965
  156.2516  140.2887  156.0742 H   0  0  0  0  0  0  0  0  0  0  0  0  # atno 8008 bound_to 7997
  155.1637  140.0400  157.2865 H   0  0  0  0  0  0  0  0  0  0  0  0  # atno 8009 bound_to 7997
  154.6375  140.2514  155.7368 H   0  0  0  0  0  0  0  0  0  0  0  0  # atno 8010 bound_to 7997
  140.6314  143.7985  150.7300 H   0  0  0  0  0  0  0  0  0  0  0  0  # atno 10167 bound_to 10162
  156.8776  130.5642  149.5654 H   0  0  0  0  0  0  0  0  0  0  0  0  # atno 10718 bound_to 10713
  153.4243  135.7010  153.6273 H   0  0  0  0  0  0  0  0  0  0  0  0  # atno 10763 bound_to 10752
  153.4715  135.3714  155.2393 H   0  0  0  0  0  0  0  0  0  0  0  0  # atno 10764 bound_to 10752
  154.8723  135.4044  154.3616 H   0  0  0  0  0  0  0  0  0  0  0  0  # atno 10765 bound_to 10752
  141.1468  133.7961  157.0308 H   0  0  0  0  0  0  0  0  0  0  0  0  # atno 11005 bound_to 11000
  146.1078  140.7466  142.9518 LP  0  0  0  0  0  0  0  0  0  0  0  0  # atno 17320 bound_to 7965
  144.7070  140.3890  143.7110 LP  0  0  0  0  0  0  0  0  0  0  0  0  # atno 17321 bound_to 7965
  140.1597  143.4286  152.2075 LP  0  0  0  0  0  0  0  0  0  0  0  0  # atno 17342 bound_to 10162
  139.5528  144.7350  151.4385 LP  0  0  0  0  0  0  0  0  0  0  0  0  # atno 17343 bound_to 10162
  156.0694  130.5730  150.9353 LP  0  0  0  0  0  0  0  0  0  0  0  0  # atno 17370 bound_to 10713
  157.6159  131.0933  150.8711 LP  0  0  0  0  0  0  0  0  0  0  0  0  # atno 17371 bound_to 10713
  140.0755  134.9678  157.1539 LP  0  0  0  0  0  0  0  0  0  0  0  0  # atno 17394 bound_to 11000
  140.3650  134.2453  155.7183 LP  0  0  0  0  0  0  0  0  0  0  0  0  # atno 17395 bound_to 11000

$$$$
