#       Name:                AV-unprocessed.smi:876
#       Creating user name   scv26
#       Creation time:       Fri Mar 27 01:50:57 2020


#       File generated by GOLD software.
#

@<TRIPOS>MOLECULE
AV-unprocessed.smi:876
    45    46     1
SMALL
NO_CHARGES


@<TRIPOS>ATOM
      1 ****        -6.5608   0.0996   0.4031 C.3            1 S1                 0.0000
      2 ****        -5.6092   1.1994   0.3121 N.pl3          1 S1                 0.0000
      3 ****        -6.0831   2.5758   0.2204 C.3            1 S1                 0.0000
      4 ****        -4.2252   0.9395   0.4130 C.ar           1 S1                 0.0000
      5 ****        -3.6881  -0.3648   0.5448 C.ar           1 S1                 0.0000
      6 ****        -2.2928  -0.5465   0.6393 C.ar           1 S1                 0.0000
      7 ****        -1.4364   0.5807   0.5921 C.ar           1 S1                 0.0000
      8 ****        -0.0206   0.5129   0.6946 N.am           1 S1                 0.0000
      9 ****         0.7882  -0.5325   0.4493 C.2            1 S1                 0.0000
     10 ****         0.4205  -1.6417   0.0626 O.2            1 S1                 0.0000
     11 ****         2.0724  -0.2122   0.6606 N.am           1 S1                 0.0000
     12 ****         3.2000  -1.1168   0.4669 C.3            1 S1                 0.0000
     13 ****         4.4460  -0.5479   1.0881 C.2            1 S1                 0.0000
     14 ****         5.4334  -0.3914   0.2095 C.2            1 S1                 0.0000
     15 ****         5.0450  -0.8015  -1.1882 C.3            1 S1                 0.0000
     16 ****         5.9802  -1.8721  -1.7767 C.3            1 S1                 0.0000
     17 ****         7.2799  -1.3508  -1.9616 O.3            1 S1                 0.0000
     18 ****         3.5827  -1.2907  -1.0268 C.3            1 S1                 0.0000
     19 ****        -2.0219   1.8570   0.4745 C.ar           1 S1                 0.0000
     20 ****        -3.3632   1.9852   0.3869 N.pl3          1 S1                 1.0000
     21 ****         2.9939  -2.0833   0.9304 H              1 S1                 0.0000
     22 ****         5.0625   0.0886  -1.8189 H              1 S1                 0.0000
     23 ****        -6.4519  -0.4250   1.3529 H              1 S1                 0.0000
     24 ****        -6.4034  -0.6113  -0.4088 H              1 S1                 0.0000
     25 ****        -7.5884   0.4577   0.3366 H              1 S1                 0.0000
     26 ****        -5.6404   3.0790  -0.6399 H              1 S1                 0.0000
     27 ****        -5.8208   3.1316   1.1213 H              1 S1                 0.0000
     28 ****        -7.1665   2.6156   0.1058 H              1 S1                 0.0000
     29 ****        -4.3256  -1.2357   0.5796 H              1 S1                 0.0000
     30 ****        -1.9110  -1.5484   0.7593 H              1 S1                 0.0000
     31 ****         0.4389   1.3810   0.9282 H              1 S1                 0.0000
     32 ****         2.2890   0.7238   0.9710 H              1 S1                 0.0000
     33 ****         4.5092  -0.3128   2.1405 H              1 S1                 0.0000
     34 ****         6.4133  -0.0006   0.4416 H              1 S1                 0.0000
     35 ****         6.0322  -2.7448  -1.1245 H              1 S1                 0.0000
     36 ****         5.6048  -2.2121  -2.7424 H              1 S1                 0.0000
     37 ****         7.8251  -2.0280  -2.3324 H              1 S1                 0.0000
     38 ****         3.4811  -2.3379  -1.3154 H              1 S1                 0.0000
     39 ****         2.9227  -0.7231  -1.6846 H              1 S1                 0.0000
     40 ****        -1.4603   2.7796   0.4410 H              1 S1                 0.0000
     41 ****        -3.7497   2.9249   0.2960 H              1 S1                 0.0000
     42 ****        -0.5510  -1.8200  -0.0937 LP             1 S1                 0.0000
     43 ****         1.0932  -2.3645  -0.0953 LP             1 S1                 0.0000
     44 ****         7.6550  -1.0601  -1.0814 LP             1 S1                 0.0000
     45 ****         7.2441  -0.5685  -2.5835 LP             1 S1                 0.0000
@<TRIPOS>BOND
    1    1    2 1     
    2    1   23 1     
    3    1   24 1     
    4    1   25 1     
    5    2    3 1     
    6    2    4 1     
    7    3   26 1     
    8    3   27 1     
    9    3   28 1     
   10    4   20 ar    
   11    4    5 ar    
   12    5    6 ar    
   13    5   29 1     
   14    6    7 ar    
   15    6   30 1     
   16    7    8 1     
   17    7   19 ar    
   18    8    9 am    
   19    8   31 1     
   20    9   10 2     
   21    9   11 am    
   22   11   12 1     
   23   11   32 1     
   24   12   21 1     
   25   12   18 1     
   26   12   13 1     
   27   13   14 2     
   28   13   33 1     
   29   14   15 1     
   30   14   34 1     
   31   15   22 1     
   32   15   16 1     
   33   15   18 1     
   34   16   17 1     
   35   16   35 1     
   36   16   36 1     
   37   17   37 1     
   38   18   38 1     
   39   18   39 1     
   40   19   20 ar    
   41   19   40 1     
   42   20   41 1     
   43   10   42 1     
   44   10   43 1     
   45   17   44 1     
   46   17   45 1     
@<TRIPOS>SUBSTRUCTURE
      1 S1             1
@<TRIPOS>SET
LONE_PAIRS      STATIC     ATOMS    <user>   **** ""
4 42 43 44 45
DONOR_HYDROGENS      STATIC     ATOMS    <user>   **** ""
4 31 32 37 41
ATOM$BLUE        STATIC     ATOMS    COLORGROUP SYSTEM
4 42 43 44 45
ATOM$RED        STATIC     ATOMS    COLORGROUP SYSTEM
4 31 32 37 41
