#       Name:                AV-unprocessed.smi:2503
#       Creating user name   scv26
#       Creation time:       Fri Mar 27 13:47:28 2020


#       File generated by GOLD software.
#

@<TRIPOS>MOLECULE
AV-unprocessed.smi:2503
    41    42     1
SMALL
NO_CHARGES


@<TRIPOS>ATOM
      1 ****        -1.8360  -2.1965   2.6028 C.3            1 S1                 0.0000
      2 ****        -1.0935  -1.9605   1.2805 C.3            1 S1                 0.0000
      3 ****        -1.6040  -2.8944   0.1718 C.3            1 S1                 0.0000
      4 ****         0.3955  -2.0648   1.4673 C.2            1 S1                 0.0000
      5 ****         1.1001  -3.2036   1.4477 N.pl3          1 S1                 1.0000
      6 ****         2.4243  -2.9550   1.6822 C.2            1 S1                 0.0000
      7 ****         2.5350  -1.6035   1.8724 C.2            1 S1                 0.0000
      8 ****         1.2724  -1.0810   1.7453 N.pl3          1 S1                 0.0000
      9 ****         0.9105   0.3386   1.8816 C.3            1 S1                 0.0000
     10 ****         0.7431   1.0344   0.5253 C.2            1 S1                 0.0000
     11 ****         1.4289   0.6698  -0.4328 O.2            1 S1                 0.0000
     12 ****        -0.1821   2.0213   0.5039 N.am           1 S1                 0.0000
     13 ****        -0.6172   2.8130  -0.5051 C.2            1 S1                 0.0000
     14 ****        -1.4759   3.6685  -0.2979 O.2            1 S1                 0.0000
     15 ****        -0.0767   2.6105  -1.7211 N.am           1 S1                 0.0000
     16 ****        -0.4055   3.3276  -2.9102 C.3            1 S1                 0.0000
     17 ****        -0.4350   2.5533  -4.2100 C.3            1 S1                 0.0000
     18 ****         0.6879   3.5162  -3.9392 C.3            1 S1                 0.0000
     19 ****        -1.5180  -1.4851   3.3654 H              1 S1                 0.0000
     20 ****        -1.6537  -3.2006   2.9871 H              1 S1                 0.0000
     21 ****        -2.9124  -2.0806   2.4735 H              1 S1                 0.0000
     22 ****        -1.2941  -0.9405   0.9560 H              1 S1                 0.0000
     23 ****        -1.1019  -2.6900  -0.7743 H              1 S1                 0.0000
     24 ****        -2.6738  -2.7597   0.0100 H              1 S1                 0.0000
     25 ****        -1.4381  -3.9431   0.4199 H              1 S1                 0.0000
     26 ****         3.1682  -3.7382   1.6999 H              1 S1                 0.0000
     27 ****         3.3981  -0.9895   2.0859 H              1 S1                 0.0000
     28 ****        -0.0012   0.4072   2.4768 H              1 S1                 0.0000
     29 ****         1.6997   0.8382   2.4447 H              1 S1                 0.0000
     30 ****        -0.6310   2.1989   1.3906 H              1 S1                 0.0000
     31 ****         0.6236   1.8876  -1.8087 H              1 S1                 0.0000
     32 ****        -1.1219   4.1433  -2.8217 H              1 S1                 0.0000
     33 ****        -0.2035   1.4903  -4.1758 H              1 S1                 0.0000
     34 ****        -1.1790   2.8434  -4.9494 H              1 S1                 0.0000
     35 ****         0.6945   4.4496  -4.4983 H              1 S1                 0.0000
     36 ****         1.6686   3.0952  -3.7248 H              1 S1                 0.0000
     37 ****         0.7042  -4.1198   1.2784 H              1 S1                 0.0000
     38 ****         2.0878  -0.0742  -0.3217 LP             1 S1                 0.0000
     39 ****         1.3260   1.1181  -1.3207 LP             1 S1                 0.0000
     40 ****        -1.8569   3.7826   0.6196 LP             1 S1                 0.0000
     41 ****        -1.7932   4.2501  -1.0469 LP             1 S1                 0.0000
@<TRIPOS>BOND
    1    1    2 1     
    2    1   19 1     
    3    1   20 1     
    4    1   21 1     
    5    2    3 1     
    6    2    4 1     
    7    2   22 1     
    8    3   23 1     
    9    3   24 1     
   10    3   25 1     
   11    4    8 1     
   12    4    5 2     
   13    5    6 1     
   14    5   37 1     
   15    6    7 2     
   16    6   26 1     
   17    7    8 1     
   18    7   27 1     
   19    8    9 1     
   20    9   10 1     
   21    9   28 1     
   22    9   29 1     
   23   10   11 2     
   24   10   12 1     
   25   12   13 1     
   26   12   30 1     
   27   13   14 2     
   28   13   15 1     
   29   15   16 1     
   30   15   31 1     
   31   16   18 1     
   32   16   17 1     
   33   16   32 1     
   34   17   18 1     
   35   17   33 1     
   36   17   34 1     
   37   18   35 1     
   38   18   36 1     
   39   11   38 1     
   40   11   39 1     
   41   14   40 1     
   42   14   41 1     
@<TRIPOS>SUBSTRUCTURE
      1 S1             1
@<TRIPOS>SET
LONE_PAIRS      STATIC     ATOMS    <user>   **** ""
4 38 39 40 41
DONOR_HYDROGENS      STATIC     ATOMS    <user>   **** ""
3 37 30 31
ATOM$BLUE        STATIC     ATOMS    COLORGROUP SYSTEM
4 38 39 40 41
ATOM$RED        STATIC     ATOMS    COLORGROUP SYSTEM
3 37 30 31
