#       Name:                AV-unprocessed.smi:2952
#       Creating user name   scv26
#       Creation time:       Fri Mar 27 16:18:21 2020


#       File generated by GOLD software.
#

@<TRIPOS>MOLECULE
AV-unprocessed.smi:2952
    44    46     1
SMALL
NO_CHARGES


@<TRIPOS>ATOM
      1 ****        -2.2711   1.4493   0.4930 O.3            1 S1                 0.0000
      2 ****        -2.6123   0.6141   1.5790 C.3            1 S1                 0.0000
      3 ****        -2.0861  -0.8164   1.3744 C.3            1 S1                 0.0000
      4 ****        -0.6331  -0.8691   1.2748 N.pl3          1 S1                 0.0000
      5 ****         0.1467  -0.9137   0.1630 C.2            1 S1                 0.0000
      6 ****        -0.4274  -0.9070  -1.2289 C.3            1 S1                 0.0000
      7 ****         0.3305  -0.1038  -2.1883 N.3            1 S1                 0.0000
      8 ****         0.2751   1.3243  -1.8832 C.3            1 S1                 0.0000
      9 ****         1.0635   2.1583  -2.9072 C.3            1 S1                 0.0000
     10 ****         0.5683   1.8977  -4.2170 O.3            1 S1                 0.0000
     11 ****         0.6449   0.5201  -4.5699 C.3            1 S1                 0.0000
     12 ****        -0.1449  -0.3183  -3.5497 C.3            1 S1                 0.0000
     13 ****         1.4618  -0.9829   0.3855 N.2            1 S1                 0.0000
     14 ****         1.5431  -0.9602   1.7629 C.ar           1 S1                 0.0000
     15 ****         2.6678  -0.9985   2.6176 C.ar           1 S1                 0.0000
     16 ****         2.5012  -0.9651   4.0177 C.ar           1 S1                 0.0000
     17 ****         1.2105  -0.8936   4.5816 C.ar           1 S1                 0.0000
     18 ****         1.0187  -0.8545   6.2955 Cl             1 S1                 0.0000
     19 ****         0.0772  -0.8553   3.7468 C.ar           1 S1                 0.0000
     20 ****         0.2493  -0.8885   2.3502 C.ar           1 S1                 0.0000
     21 ****        -2.6082   2.3158   0.6631 H              1 S1                 0.0000
     22 ****        -2.2055   1.0431   2.4950 H              1 S1                 0.0000
     23 ****        -3.6972   0.6030   1.6850 H              1 S1                 0.0000
     24 ****        -2.3886  -1.4353   2.2196 H              1 S1                 0.0000
     25 ****        -2.5378  -1.2791   0.4977 H              1 S1                 0.0000
     26 ****        -0.4588  -1.9433  -1.5666 H              1 S1                 0.0000
     27 ****        -1.4588  -0.5584  -1.2116 H              1 S1                 0.0000
     28 ****        -0.7630   1.6593  -1.8732 H              1 S1                 0.0000
     29 ****         0.6733   1.5143  -0.8862 H              1 S1                 0.0000
     30 ****         0.9596   3.2216  -2.6910 H              1 S1                 0.0000
     31 ****         2.1278   1.9231  -2.8591 H              1 S1                 0.0000
     32 ****         0.2355   0.3845  -5.5710 H              1 S1                 0.0000
     33 ****         1.6887   0.2043  -4.6043 H              1 S1                 0.0000
     34 ****        -0.0610  -1.3744  -3.8087 H              1 S1                 0.0000
     35 ****        -1.2038  -0.0635  -3.6165 H              1 S1                 0.0000
     36 ****         3.6603  -1.0543   2.1953 H              1 S1                 0.0000
     37 ****         3.3687  -0.9957   4.6605 H              1 S1                 0.0000
     38 ****        -0.9131  -0.8006   4.1738 H              1 S1                 0.0000
     39 ****        -2.6743   1.0898  -0.3485 LP             1 S1                 0.0000
     40 ****        -1.2766   1.4873   0.3963 LP             1 S1                 0.0000
     41 ****         1.2806  -0.4066  -2.1137 LP             1 S1                 0.0000
     42 ****         1.1063   2.4264  -4.8734 LP             1 S1                 0.0000
     43 ****        -0.3882   2.1863  -4.2607 LP             1 S1                 0.0000
     44 ****         2.2046  -1.0377  -0.2817 LP             1 S1                 0.0000
@<TRIPOS>BOND
    1    1    2 1     
    2    1   21 1     
    3    2    3 1     
    4    2   22 1     
    5    2   23 1     
    6    3    4 1     
    7    3   24 1     
    8    3   25 1     
    9    4   20 1     
   10    4    5 1     
   11    5    6 1     
   12    5   13 2     
   13    6    7 1     
   14    6   26 1     
   15    6   27 1     
   16    7   12 1     
   17    7    8 1     
   18    8    9 1     
   19    8   28 1     
   20    8   29 1     
   21    9   10 1     
   22    9   30 1     
   23    9   31 1     
   24   10   11 1     
   25   11   12 1     
   26   11   32 1     
   27   11   33 1     
   28   12   34 1     
   29   12   35 1     
   30   13   14 1     
   31   14   20 ar    
   32   14   15 ar    
   33   15   16 ar    
   34   15   36 1     
   35   16   17 ar    
   36   16   37 1     
   37   17   18 1     
   38   17   19 ar    
   39   19   20 ar    
   40   19   38 1     
   41    1   39 1     
   42    1   40 1     
   43    7   41 1     
   44   10   42 1     
   45   10   43 1     
   46   13   44 1     
@<TRIPOS>SUBSTRUCTURE
      1 S1             1
@<TRIPOS>SET
LONE_PAIRS      STATIC     ATOMS    <user>   **** ""
6 39 40 41 42 43 44
DONOR_HYDROGENS      STATIC     ATOMS    <user>   **** ""
1 21
ATOM$BLUE        STATIC     ATOMS    COLORGROUP SYSTEM
6 39 40 41 42 43 44
ATOM$RED        STATIC     ATOMS    COLORGROUP SYSTEM
1 21
