AV-unprocessed.smi:1218|AV-procd|sdf|5110|dock5
  -GOLD-   22720 4163D 1   1.00000     0.00000
 Structure written by MMmdl.
 44 45  0  0  0  0  0  0  0  0  1 V2000
  152.9250  142.3950  160.1526 C   0  0  0  0  0  0  0  0  0  0  0  0
  153.1058  140.9206  159.7590 C   0  0  0  0  0  0  0  0  0  0  0  0
  154.6029  140.5995  159.6099 C   0  0  0  0  0  0  0  0  0  0  0  0
  152.3150  140.5897  158.4712 C   0  0  0  0  0  0  0  0  0  0  0  0
  152.8544  139.4961  157.6617 N   0  0  0  0  0  0  0  0  0  0  0  0
  152.8250  138.2388  158.4014 C   0  0  0  0  0  0  0  0  0  0  0  0
  153.3832  137.0701  157.5736 C   0  0  0  0  0  0  0  0  0  0  0  0
  152.6528  136.9640  156.3574 O   0  0  0  0  0  0  0  0  0  0  0  0
  152.7086  138.1499  155.5682 C   0  0  1  0  0  0  0  0  0  0  0  0
  151.9089  137.9293  154.2731 C   0  0  0  0  0  0  0  0  0  0  0  0
  150.4726  138.0490  154.5020 N   0  0  0  0  0  0  0  0  0  0  0  0
  149.7753  139.1951  154.4838 C   0  0  0  0  0  0  0  0  0  0  0  0
  150.2864  140.2916  154.2506 O   0  0  0  0  0  0  0  0  0  0  0  0
  148.2755  139.0622  154.7782 C   0  0  0  0  0  0  0  0  0  0  0  0
  147.5687  140.3315  154.7121 N   0  0  0  0  0  0  0  0  0  0  0  0
  147.4842  141.2112  153.6527 C   0  0  0  0  0  0  0  0  0  0  0  0
  146.7156  142.2642  154.0584 C   0  0  0  0  0  0  0  0  0  0  0  0
  146.3691  141.9330  155.3982 C   0  0  0  0  0  0  0  0  0  0  0  0
  146.8786  140.7749  155.7858 N   0  0  0  0  0  0  0  0  0  0  0  0
  152.1425  139.3197  156.3984 C   0  0  0  0  0  0  0  0  0  0  0  0
  153.2926  143.0625  159.3724 H   0  0  0  0  0  0  0  0  0  0  0  0
  153.4652  142.6268  161.0711 H   0  0  0  0  0  0  0  0  0  0  0  0
  151.8741  142.6296  160.3248 H   0  0  0  0  0  0  0  0  0  0  0  0
  152.7077  140.3249  160.5818 H   0  0  0  0  0  0  0  0  0  0  0  0
  155.0615  141.2094  158.8310 H   0  0  0  0  0  0  0  0  0  0  0  0
  154.7713  139.5552  159.3502 H   0  0  0  0  0  0  0  0  0  0  0  0
  155.1390  140.7933  160.5395 H   0  0  0  0  0  0  0  0  0  0  0  0
  151.2999  140.3153  158.7623 H   0  0  0  0  0  0  0  0  0  0  0  0
  152.2005  141.4869  157.8606 H   0  0  0  0  0  0  0  0  0  0  0  0
  153.4033  138.3357  159.3209 H   0  0  0  0  0  0  0  0  0  0  0  0
  151.8007  138.0093  158.6997 H   0  0  0  0  0  0  0  0  0  0  0  0
  154.4432  137.2158  157.3603 H   0  0  0  0  0  0  0  0  0  0  0  0
  153.2921  136.1353  158.1267 H   0  0  0  0  0  0  0  0  0  0  0  0
  153.7491  138.3610  155.3131 H   0  0  0  0  0  0  0  0  0  0  0  0
  152.2426  138.6146  153.4921 H   0  0  0  0  0  0  0  0  0  0  0  0
  152.0945  136.9230  153.8966 H   0  0  0  0  0  0  0  0  0  0  0  0
  149.9728  137.1953  154.7044 H   0  0  0  0  0  0  0  0  0  0  0  0
  147.8222  138.3798  154.0582 H   0  0  0  0  0  0  0  0  0  0  0  0
  148.1383  138.6235  155.7678 H   0  0  0  0  0  0  0  0  0  0  0  0
  147.9755  141.0171  152.7108 H   0  0  0  0  0  0  0  0  0  0  0  0
  146.4434  143.1385  153.4862 H   0  0  0  0  0  0  0  0  0  0  0  0
  145.7662  142.4958  156.0952 H   0  0  0  0  0  0  0  0  0  0  0  0
  151.0822  139.1504  156.5924 H   0  0  0  0  0  0  0  0  0  0  0  0
  152.2127  140.2289  155.8024 H   0  0  0  0  0  0  0  0  0  0  0  0
  1  2  1  0  0  0  0
  1 21  1  0  0  0  0
  1 22  1  0  0  0  0
  1 23  1  0  0  0  0
  2  3  1  0  0  0  0
  2  4  1  0  0  0  0
  2 24  1  0  0  0  0
  3 25  1  0  0  0  0
  3 26  1  0  0  0  0
  3 27  1  0  0  0  0
  4  5  1  0  0  0  0
  4 28  1  0  0  0  0
  4 29  1  0  0  0  0
  5 20  1  0  0  0  0
  5  6  1  0  0  0  0
  6  7  1  0  0  0  0
  6 30  1  0  0  0  0
  6 31  1  0  0  0  0
  7  8  1  0  0  0  0
  7 32  1  0  0  0  0
  7 33  1  0  0  0  0
  8  9  1  0  0  0  0
  9 10  1  0  0  0  0
  9 20  1  0  0  0  0
  9 34  1  0  0  0  0
 10 11  1  0  0  0  0
 10 35  1  0  0  0  0
 10 36  1  0  0  0  0
 11 12  1  0  0  0  0
 11 37  1  0  0  0  0
 12 13  2  0  0  0  0
 12 14  1  0  0  0  0
 14 15  1  0  0  0  0
 14 38  1  0  0  0  0
 14 39  1  0  0  0  0
 15 19  1  0  0  0  0
 15 16  1  0  0  0  0
 16 17  2  0  0  0  0
 16 40  1  0  0  0  0
 17 18  1  0  0  0  0
 17 41  1  0  0  0  0
 18 19  2  0  0  0  0
 18 42  1  0  0  0  0
 20 43  1  0  0  0  0
 20 44  1  0  0  0  0
M  END
> <s_m_source_file>
AV-unprocessed.smi

> <i_m_source_file_index>
1218

> <i_lp_mmshare_version>
43012

> <i_f3d_flags>
0

> <s_epik_input>
W0NIM11bQ0hdKFtDSDNdKVtDSDJdTjFbQ0gyXVtDSDJdT1tDQEhdKFtDSDJdMSlbQ0gyXVtOSF1DKD1PKVtDSDJdbjJbY0hdW2NIXVtjSF1uMg==

> <s_epik_cmdline>
J2VwaWtfcHl0aG9uJywgJy1waCcsICc3LjAnLCAnLXRuJywgJzgnLCAnLW1hJywgJzIwMCcsICctbWV0YWxfYmluZGluZycsICctaW1hZScsICc8aW5maWxlLm1hZT4nLCAnLW9tYWUnLCAnPG91dGZpbGUubWFlPic=

> <r_lp_tautomer_probability>
1

> <r_epik_Ionization_Penalty>
1.10621

> <r_epik_Ionization_Penalty_Charging>
0

> <r_epik_Ionization_Penalty_Neutral>
1.10621

> <r_epik_State_Penalty>
1.16377

> <r_epik_Charging_Adjusted_Penalty>
1.16377

> <i_epik_Tot_Q>
0

> <i_epik_Tot_abs_Q>
0

> <r_epik_Metal_State_Penalty>
1.16377

> <b_epik_Metal_Only>
0

> <s_lp_Force_Field>
OPLS_2005

> <r_lp_Energy>
27.1639

> <b_lp_Chiralities_Consistent>
1

> <s_lp_Variant>
AV-unprocessed.smi:1218-5

> <Gold.Version>
5.8.1

> <Gold.Id.Protein>
6NUR|6NUR_protein|mol2

> <Gold.PLP.Fitness>
46.3184

> <Gold.PLP.PLP>
-36.0326

> <Gold.PLP.part.hbond>
-2.8194

> <Gold.PLP.part.metal>
0.0000

> <Gold.PLP.part.buried>
-6.5183

> <Gold.PLP.part.nonpolar>
-27.9142

> <Gold.PLP.part.repulsive>
0.2560

> <Gold.PLP.ligand.clash>
0.0000

> <Gold.PLP.ligand.torsion>
0.7102

> <Gold.PLP.Chemscore.Hbond>
2.8560

> <Gold.PLP.Chemscore.CHOScore>
1.0000

> <Gold.PLP.Chemscore.Metal>
0.0000

> <Gold.Chemscore.Hbonds>
donor molecule, donor type, donor heavy atom, donor atom, acceptor molecule, acceptor atom, score
      P1  H  7989  7998       L1    13  0.99
      P1  H  7997  8010       L1     5  1.00
      P1  H 10752 10765       L1     8  0.91
      L1  C    16    40       P1  7957  1.00

> <Gold.PLP.Chemscore.Internal.Correction>
0.1381

> <Gold.Rescore>
     Score         DG    S(hbond)    S(metal)    S(lipo)     H(rot)  DE(clash)    DE(int)     intcor
     15.83     -16.92       1.75        0.00      89.42       1.90       0.22       0.87       ----

> <Gold.Chemscore.Fitness>
15.8272

> <Gold.Chemscore.DG>
-16.9194

> <Gold.Chemscore.ZeroCoef>
-5.4800

> <Gold.Chemscore.Hbond>
1.7465

> <Gold.Chemscore.Metal>
0.0000

> <Gold.Chemscore.Lipo>
89.4226

> <Gold.Chemscore.Internal_Hbond>
0.0000

> <Gold.Chemscore.DEClash>
0.2239

> <Gold.Chemscore.DEInternal>
0.8684

> <Gold.Chemscore.Rot>
1.8970

> <Gold.Chemscore.Internal.Correction>
   9.000000E+99

> <Gold.Chemscore.Hbonds>
donor molecule, donor type, donor heavy atom, donor atom, acceptor molecule, acceptor atom, score
      P1  H  7989  7998       L1    13  0.94
      P1  H  7997  8010       L1     5  0.20
      P1  H 10752 10765       L1     8  0.40

> <Gold.Chemscore.Hbond.Weighted>
-5.8334

> <Gold.Chemscore.Metal.Weighted>
-0.0000

> <Gold.Chemscore.Lipo.Weighted>
-10.4624

> <Gold.Chemscore.Internal_Hbond.Weighted>
0.0000

> <Gold.Chemscore.DEClash.Weighted>
0.2239

> <Gold.Chemscore.DEInternal.Weighted>
0.8684

> <Gold.Chemscore.Rot.Weighted>
4.8564

> <Gold.Chemscore.Internal.Correction.Weighted>
   9.000000E+99

> <Gold.Protein.RotatedTorsions>
[ 6907 6896 6895 6894 ] final -106.44 input  -60.11 | X-H torsion
[ 7974 7965 7964 7962 ] final  105.23 input  175.53 | X-H torsion
[ 8008 7997 7996 7995 ] final   27.91 input   59.86 | X-H torsion
[ 10167 10162 10161 10158 ] final  145.63 input  -65.29 | X-H torsion
[ 10718 10713 10712 10709 ] final -172.55 input   66.30 | X-H torsion
[ 10763 10752 10751 10750 ] final -139.37 input  -60.55 | X-H torsion
[ 11005 11000 10999 10996 ] final  -49.06 input  -57.11 | X-H torsion

> <Gold.Protein.ActiveResidues>
 VAL166  LYS551  ARG553  GLY616  TRP617  ASP618  TYR619  PRO620  LYS621  CYS622 
 ASP623  PHE694  ASN695  SER759  ASP760  ASP761  ALA762  ILE779  LEU786  VAL792 
 PHE793  MET794  SER795  GLU796  ALA797  LYS798  CYS799  TRP800  GLU811  SER814 

> <Gold.Protein.RotatedAtoms>
  150.7389  133.9976  159.3627 H   0  0  0  0  0  0  0  0  0  0  0  0  # atno 6907 bound_to 6896
  151.7928  135.0729  160.0399 H   0  0  0  0  0  0  0  0  0  0  0  0  # atno 6908 bound_to 6896
  152.3196  133.5802  159.5771 H   0  0  0  0  0  0  0  0  0  0  0  0  # atno 6909 bound_to 6896
  145.3224  139.2509  143.3704 H   0  0  0  0  0  0  0  0  0  0  0  0  # atno 7974 bound_to 7965
  155.0503  140.3179  155.4694 H   0  0  0  0  0  0  0  0  0  0  0  0  # atno 8008 bound_to 7997
  156.2836  140.2147  156.5573 H   0  0  0  0  0  0  0  0  0  0  0  0  # atno 8009 bound_to 7997
  154.7216  140.0489  157.0632 H   0  0  0  0  0  0  0  0  0  0  0  0  # atno 8010 bound_to 7997
  139.4922  144.5888  151.6723 H   0  0  0  0  0  0  0  0  0  0  0  0  # atno 10167 bound_to 10162
  156.7573  130.9400  151.3117 H   0  0  0  0  0  0  0  0  0  0  0  0  # atno 10718 bound_to 10713
  154.8611  135.3584  154.5536 H   0  0  0  0  0  0  0  0  0  0  0  0  # atno 10763 bound_to 10752
  153.6153  135.7008  153.5336 H   0  0  0  0  0  0  0  0  0  0  0  0  # atno 10764 bound_to 10752
  153.3174  135.4161  155.1348 H   0  0  0  0  0  0  0  0  0  0  0  0  # atno 10765 bound_to 10752
  141.0737  133.6671  156.3532 H   0  0  0  0  0  0  0  0  0  0  0  0  # atno 11005 bound_to 11000
  146.3077  140.3784  142.8681 LP  0  0  0  0  0  0  0  0  0  0  0  0  # atno 17320 bound_to 7965
  144.8929  140.7546  143.5915 LP  0  0  0  0  0  0  0  0  0  0  0  0  # atno 17321 bound_to 7965
  140.5510  144.0425  150.6127 LP  0  0  0  0  0  0  0  0  0  0  0  0  # atno 17342 bound_to 10162
  140.3479  143.2980  152.0518 LP  0  0  0  0  0  0  0  0  0  0  0  0  # atno 17343 bound_to 10162
  157.6750  130.9086  150.0130 LP  0  0  0  0  0  0  0  0  0  0  0  0  # atno 17370 bound_to 10713
  156.1362  130.3642  149.9653 LP  0  0  0  0  0  0  0  0  0  0  0  0  # atno 17371 bound_to 10713
  140.5618  134.5927  157.5435 LP  0  0  0  0  0  0  0  0  0  0  0  0  # atno 17394 bound_to 11000
  139.9550  134.7551  156.0362 LP  0  0  0  0  0  0  0  0  0  0  0  0  # atno 17395 bound_to 11000

$$$$
