AV-unprocessed.smi:2751|AV-procd|sdf|10598|dock4
  -GOLD-   2272015 53D 1   1.00000     0.00000
 Structure written by MMmdl.
 35 36  0  0  0  0  0  0  0  0  2 V2000
  148.3396  141.3607  158.5569 O   0  0  0  0  0  0  0  0  0  0  0  0
  148.5112  142.4631  158.0353 C   0  0  0  0  0  0  0  0  0  0  0  0
  149.2561  142.6560  156.9364 N   0  0  0  0  0  0  0  0  0  0  0  0
  149.9664  141.6057  156.2149 C   0  0  0  0  0  0  0  0  0  0  0  0
  150.7690  140.7063  157.1710 C   0  0  0  0  0  0  0  0  0  0  0  0
  151.3413  139.4582  156.4807 C   0  0  1  0  0  0  0  0  0  0  0  0
  150.2290  138.4900  156.0328 C   0  0  0  0  0  0  0  0  0  0  0  0
  150.8221  137.2979  155.2739 C   0  0  0  0  0  0  0  0  0  0  0  0
  151.7110  137.8030  154.1329 C   0  0  0  0  0  0  0  0  0  0  0  0
  152.7453  138.8063  154.6668 C   0  0  0  0  0  0  0  0  0  0  0  0
  152.0844  139.8756  155.3368 O   0  0  0  0  0  0  0  0  0  0  0  0
  147.9874  143.6156  158.4861 N   0  0  0  0  0  0  0  0  0  0  0  0
  147.1596  143.7919  159.6239 C   0  0  0  0  0  0  0  0  0  0  0  0
  146.6732  144.9424  160.0953 N   0  3  0  0  0  0  0  0  0  0  0  0
  145.9190  144.6827  161.2118 C   0  0  0  0  0  0  0  0  0  0  0  0
  145.9745  143.3214  161.3887 C   0  0  0  0  0  0  0  0  0  0  0  0
  146.7499  142.7496  160.3990 O   0  0  0  0  0  0  0  0  0  0  0  0
  149.3439  143.5937  156.5722 H   0  0  0  0  0  0  0  0  0  0  0  0
  149.2626  141.0140  155.6271 H   0  0  0  0  0  0  0  0  0  0  0  0
  150.6398  142.0824  155.5021 H   0  0  0  0  0  0  0  0  0  0  0  0
  151.5884  141.2864  157.5975 H   0  0  0  0  0  0  0  0  0  0  0  0
  150.1421  140.3985  158.0089 H   0  0  0  0  0  0  0  0  0  0  0  0
  152.0088  138.9449  157.1755 H   0  0  0  0  0  0  0  0  0  0  0  0
  149.6639  138.1364  156.8956 H   0  0  0  0  0  0  0  0  0  0  0  0
  149.5216  139.0148  155.3893 H   0  0  0  0  0  0  0  0  0  0  0  0
  151.4122  136.6843  155.9557 H   0  0  0  0  0  0  0  0  0  0  0  0
  150.0278  136.6605  154.8847 H   0  0  0  0  0  0  0  0  0  0  0  0
  152.2117  136.9664  153.6449 H   0  0  0  0  0  0  0  0  0  0  0  0
  151.0943  138.2854  153.3735 H   0  0  0  0  0  0  0  0  0  0  0  0
  153.4483  138.3183  155.3435 H   0  0  0  0  0  0  0  0  0  0  0  0
  153.3298  139.2153  153.8426 H   0  0  0  0  0  0  0  0  0  0  0  0
  146.8158  145.8714  159.7175 H   0  0  0  0  0  0  0  0  0  0  0  0
  145.4285  145.4762  161.7573 H   0  0  0  0  0  0  0  0  0  0  0  0
  145.5492  142.6461  162.1172 H   0  0  0  0  0  0  0  0  0  0  0  0
  148.2042  144.4523  157.9648 H   0  0  0  0  0  0  0  0  0  0  0  0
  1  2  2  0  0  0  0
  2 12  1  0  0  0  0
  2  3  1  0  0  0  0
  3  4  1  0  0  0  0
  3 18  1  0  0  0  0
  4  5  1  0  0  0  0
  4 19  1  0  0  0  0
  4 20  1  0  0  0  0
  5  6  1  0  0  0  0
  5 21  1  0  0  0  0
  5 22  1  0  0  0  0
  6 11  1  0  0  0  0
  6  7  1  0  0  0  0
  6 23  1  0  0  0  0
  7  8  1  0  0  0  0
  7 24  1  0  0  0  0
  7 25  1  0  0  0  0
  8  9  1  0  0  0  0
  8 26  1  0  0  0  0
  8 27  1  0  0  0  0
  9 10  1  0  0  0  0
  9 28  1  0  0  0  0
  9 29  1  0  0  0  0
 10 11  1  0  0  0  0
 10 30  1  0  0  0  0
 10 31  1  0  0  0  0
 12 13  1  0  0  0  0
 12 35  1  0  0  0  0
 13 17  1  0  0  0  0
 13 14  2  0  0  0  0
 14 32  1  0  0  0  0
 14 15  1  0  0  0  0
 15 33  1  0  0  0  0
 15 16  2  0  0  0  0
 16 34  1  0  0  0  0
 16 17  1  0  0  0  0
M  CHG  1  14   1
M  END
> <s_m_source_file>
AV-unprocessed.smi

> <i_m_source_file_index>
2751

> <i_lp_mmshare_version>
43012

> <i_f3d_flags>
0

> <s_epik_input>
bzFbY0hdW2NIXW5jMVtOSF1DKD1PKVtOSF1bQ0gyXVtDSDJdW0NAQEhdMltDSDJdW0NIMl1bQ0gyXVtDSDJdTzI=

> <s_epik_cmdline>
J2VwaWtfcHl0aG9uJywgJy1waCcsICc3LjAnLCAnLXRuJywgJzgnLCAnLW1hJywgJzIwMCcsICctbWV0YWxfYmluZGluZycsICctaW1hZScsICc8aW5maWxlLm1hZT4nLCAnLW9tYWUnLCAnPG91dGZpbGUubWFlPic=

> <r_epik_Ionization_Penalty>
6.63408

> <r_epik_Ionization_Penalty_Charging>
6.57733

> <r_epik_Ionization_Penalty_Neutral>
0.0567487

> <r_epik_State_Penalty>
1.8175

> <r_epik_Charging_Adjusted_Penalty>
8.39483

> <i_epik_Tot_Q>
1

> <i_epik_Tot_abs_Q>
1

> <r_epik_Metal_State_Penalty>
1.83396

> <b_epik_Metal_Only>
0

> <s_lp_Force_Field>
OPLS_2005

> <r_lp_Energy>
17.5714

> <b_lp_Chiralities_Consistent>
1

> <s_lp_Variant>
AV-unprocessed.smi:2751-4

> <Gold.Version>
5.8.1

> <Gold.Id.Protein>
6NUR|6NUR_protein|mol2

> <Gold.PLP.Fitness>
39.2418

> <Gold.PLP.PLP>
-26.8344

> <Gold.PLP.part.hbond>
-7.0422

> <Gold.PLP.part.metal>
0.0000

> <Gold.PLP.part.buried>
-2.1911

> <Gold.PLP.part.nonpolar>
-18.8742

> <Gold.PLP.part.repulsive>
0.2376

> <Gold.PLP.ligand.clash>
0.0000

> <Gold.PLP.ligand.torsion>
0.1150

> <Gold.PLP.Chemscore.Hbond>
4.2056

> <Gold.PLP.Chemscore.CHOScore>
0.0000

> <Gold.PLP.Chemscore.Metal>
0.0000

> <Gold.Chemscore.Hbonds>
donor molecule, donor type, donor heavy atom, donor atom, acceptor molecule, acceptor atom, score
      L1  H     3    18       P1  8028  0.96
      L1  H    12    35       P1  8029  0.95
      P1  H  6933  6944       L1    17  0.77
      P1  H  6934  6946       L1    17  0.98
      P1  H  7989  7998       L1    11  0.37

> <Gold.PLP.Chemscore.Internal.Correction>
0.0207

> <Gold.Rescore>
     Score         DG    S(hbond)    S(metal)    S(lipo)     H(rot)  DE(clash)    DE(int)     intcor
     13.31     -16.72       2.71        0.00      55.08       1.66       0.60       2.81       ----

> <Gold.Chemscore.Fitness>
13.3128

> <Gold.Chemscore.DG>
-16.7174

> <Gold.Chemscore.ZeroCoef>
-5.4800

> <Gold.Chemscore.Hbond>
2.7055

> <Gold.Chemscore.Metal>
0.0000

> <Gold.Chemscore.Lipo>
55.0765

> <Gold.Chemscore.Internal_Hbond>
0.0000

> <Gold.Chemscore.DEClash>
0.5966

> <Gold.Chemscore.DEInternal>
2.8080

> <Gold.Chemscore.Rot>
1.6575

> <Gold.Chemscore.Internal.Correction>
   9.000000E+99

> <Gold.Chemscore.Hbonds>
donor molecule, donor type, donor heavy atom, donor atom, acceptor molecule, acceptor atom, score
      L1  H     3    18       P1  8028  0.87
      L1  H    12    35       P1  8029  0.21
      P1  H  6933  6944       L1    17  0.07
      P1  H  6934  6946       L1    17  0.69
      P1  H  7989  7998       L1    11  0.03

> <Gold.Chemscore.Hbond.Weighted>
-9.0365

> <Gold.Chemscore.Metal.Weighted>
-0.0000

> <Gold.Chemscore.Lipo.Weighted>
-6.4439

> <Gold.Chemscore.Internal_Hbond.Weighted>
0.0000

> <Gold.Chemscore.DEClash.Weighted>
0.5966

> <Gold.Chemscore.DEInternal.Weighted>
2.8080

> <Gold.Chemscore.Rot.Weighted>
4.2431

> <Gold.Chemscore.Internal.Correction.Weighted>
   9.000000E+99

> <Gold.Protein.RotatedTorsions>
[ 6907 6896 6895 6894 ] final  147.88 input  -60.11 | X-H torsion
[ 7974 7965 7964 7962 ] final  -36.53 input  175.53 | X-H torsion
[ 8008 7997 7996 7995 ] final  151.38 input   59.86 | X-H torsion
[ 10167 10162 10161 10158 ] final   79.45 input  -65.29 | X-H torsion
[ 10718 10713 10712 10709 ] final  -43.98 input   66.30 | X-H torsion
[ 10763 10752 10751 10750 ] final   39.36 input  -60.55 | X-H torsion
[ 11005 11000 10999 10996 ] final   49.43 input  -57.11 | X-H torsion

> <Gold.Protein.ActiveResidues>
 VAL166  LYS551  ARG553  GLY616  TRP617  ASP618  TYR619  PRO620  LYS621  CYS622 
 ASP623  PHE694  ASN695  SER759  ASP760  ASP761  ALA762  ILE779  LEU786  VAL792 
 PHE793  MET794  SER795  GLU796  ALA797  LYS798  CYS799  TRP800  GLU811  SER814 

> <Gold.Protein.RotatedAtoms>
  152.1488  133.4509  159.4803 H   0  0  0  0  0  0  0  0  0  0  0  0  # atno 6907 bound_to 6896
  150.6893  134.2214  159.4407 H   0  0  0  0  0  0  0  0  0  0  0  0  # atno 6908 bound_to 6896
  152.0110  134.9876  160.0618 H   0  0  0  0  0  0  0  0  0  0  0  0  # atno 6909 bound_to 6896
  146.0653  140.6289  142.8978 H   0  0  0  0  0  0  0  0  0  0  0  0  # atno 7974 bound_to 7965
  156.2676  140.2049  156.6167 H   0  0  0  0  0  0  0  0  0  0  0  0  # atno 8008 bound_to 7997
  154.6789  140.0542  157.0269 H   0  0  0  0  0  0  0  0  0  0  0  0  # atno 8009 bound_to 7997
  155.1029  140.3208  155.4545 H   0  0  0  0  0  0  0  0  0  0  0  0  # atno 8010 bound_to 7997
  139.9602  144.5966  150.8079 H   0  0  0  0  0  0  0  0  0  0  0  0  # atno 10167 bound_to 10162
  156.2433  130.4181  149.8735 H   0  0  0  0  0  0  0  0  0  0  0  0  # atno 10718 bound_to 10713
  152.9970  135.6223  154.2452 H   0  0  0  0  0  0  0  0  0  0  0  0  # atno 10763 bound_to 10752
  154.2192  135.2796  155.2932 H   0  0  0  0  0  0  0  0  0  0  0  0  # atno 10764 bound_to 10752
  154.5543  135.5724  153.7008 H   0  0  0  0  0  0  0  0  0  0  0  0  # atno 10765 bound_to 10752
  140.1104  134.4962  155.8683 H   0  0  0  0  0  0  0  0  0  0  0  0  # atno 11005 bound_to 11000
  144.7199  140.4337  143.7016 LP  0  0  0  0  0  0  0  0  0  0  0  0  # atno 17320 bound_to 7965
  145.6487  139.1561  143.2874 LP  0  0  0  0  0  0  0  0  0  0  0  0  # atno 17321 bound_to 7965
  140.7555  143.3048  151.2988 LP  0  0  0  0  0  0  0  0  0  0  0  0  # atno 17342 bound_to 10162
  139.6560  144.0275  152.2660 LP  0  0  0  0  0  0  0  0  0  0  0  0  # atno 17343 bound_to 10162
  156.6309  130.8665  151.3495 LP  0  0  0  0  0  0  0  0  0  0  0  0  # atno 17370 bound_to 10713
  157.7184  130.9527  150.1344 LP  0  0  0  0  0  0  0  0  0  0  0  0  # atno 17371 bound_to 10713
  141.2129  133.6725  156.6694 LP  0  0  0  0  0  0  0  0  0  0  0  0  # atno 17394 bound_to 11000
  140.3098  134.8095  157.4167 LP  0  0  0  0  0  0  0  0  0  0  0  0  # atno 17395 bound_to 11000

$$$$
