AV-unprocessed.smi:290|AV-procd|sdf|2245|dock8
  -GOLD-   2262022123D 1   1.00000     0.00000
 Structure written by MMmdl.
 59 62  0  0  0  0  0  0  0  0  2 V2000
  145.5795  134.7746  162.7723 C   0  0  0  0  0  0  0  0  0  0  0  0
  146.8399  134.5114  161.9337 C   0  0  2  0  0  0  0  0  0  0  0  0
  147.7458  135.6119  162.0041 O   0  0  0  0  0  0  0  0  0  0  0  0
  148.2070  135.9597  160.7039 C   0  0  0  0  0  0  0  0  0  0  0  0
  147.9212  134.7363  159.8401 C   0  0  0  0  0  0  0  0  0  0  0  0
  146.6202  134.2120  160.4328 C   0  0  2  0  0  0  0  0  0  0  0  0
  145.5494  134.9914  159.9262 O   0  0  0  0  0  0  0  0  0  0  0  0
  146.2769  132.7392  160.0884 C   0  0  0  0  0  0  0  0  0  0  0  0
  146.1588  132.4495  158.6675 N   0  0  0  0  0  0  0  0  0  0  0  0
  145.1763  132.8940  157.8142 C   0  0  0  0  0  0  0  0  0  0  0  0
  145.2949  132.4966  156.5777 N   0  0  0  0  0  0  0  0  0  0  0  0
  146.4606  131.7374  156.5643 C   0  0  0  0  0  0  0  0  0  0  0  0
  147.1805  131.0167  155.5632 C   0  0  0  0  0  0  0  0  0  0  0  0
  146.8153  130.9190  154.2557 N   0  0  0  0  0  0  0  0  0  0  0  0
  146.6352  129.6318  153.5936 C   0  0  0  0  0  0  0  0  0  0  0  0
  146.4484  129.9529  152.1050 C   0  0  0  0  0  0  0  0  0  0  0  0
  146.1331  131.4592  152.0841 C   0  0  2  0  0  0  0  0  0  0  0  0
  146.3745  132.1619  150.7880 N   0  3  2  0  0  0  0  0  0  0  0  0
  146.6444  133.6095  150.9892 C   0  0  0  0  0  0  0  0  0  0  0  0
  145.3057  131.9323  149.7743 C   0  0  0  0  0  0  0  0  0  0  0  0
  143.9295  132.4663  150.2116 C   0  0  0  0  0  0  0  0  0  0  0  0
  142.9541  132.1453  149.2421 O   0  0  0  0  0  0  0  0  0  0  0  0
  146.9741  131.9788  153.2700 C   0  0  2  0  0  0  0  0  0  0  0  0
  148.4668  132.1990  152.9295 C   0  0  0  0  0  0  0  0  0  0  0  0
  148.3081  130.3692  155.9599 N   0  0  0  0  0  0  0  0  0  0  0  0
  148.7192  130.4276  157.2293 C   0  0  0  0  0  0  0  0  0  0  0  0
  148.1574  131.0629  158.2574 N   0  0  0  0  0  0  0  0  0  0  0  0
  147.0169  131.7052  157.8767 C   0  0  0  0  0  0  0  0  0  0  0  0
  145.0767  131.5769  152.3357 H   0  0  0  0  0  0  0  0  0  0  0  0
  146.5317  132.9035  153.6372 H   0  0  0  0  0  0  0  0  0  0  0  0
  144.8877  133.9339  162.7141 H   0  0  0  0  0  0  0  0  0  0  0  0
  145.0536  135.6698  162.4400 H   0  0  0  0  0  0  0  0  0  0  0  0
  145.8379  134.9185  163.8214 H   0  0  0  0  0  0  0  0  0  0  0  0
  147.3812  133.6838  162.3893 H   0  0  0  0  0  0  0  0  0  0  0  0
  147.6402  136.8211  160.3485 H   0  0  0  0  0  0  0  0  0  0  0  0
  149.2630  136.2297  160.7129 H   0  0  0  0  0  0  0  0  0  0  0  0
  147.8589  134.9655  158.7756 H   0  0  0  0  0  0  0  0  0  0  0  0
  148.7317  134.0219  159.9806 H   0  0  0  0  0  0  0  0  0  0  0  0
  144.8541  134.4093  159.6603 H   0  0  0  0  0  0  0  0  0  0  0  0
  147.0357  132.0748  160.5042 H   0  0  0  0  0  0  0  0  0  0  0  0
  145.3369  132.4567  160.5648 H   0  0  0  0  0  0  0  0  0  0  0  0
  144.3588  133.5200  158.1420 H   0  0  0  0  0  0  0  0  0  0  0  0
  147.4897  128.9720  153.7504 H   0  0  0  0  0  0  0  0  0  0  0  0
  145.7468  129.1439  153.9965 H   0  0  0  0  0  0  0  0  0  0  0  0
  147.3743  129.7484  151.5656 H   0  0  0  0  0  0  0  0  0  0  0  0
  145.6600  129.3448  151.6606 H   0  0  0  0  0  0  0  0  0  0  0  0
  145.7573  134.1218  151.3636 H   0  0  0  0  0  0  0  0  0  0  0  0
  146.9523  134.0956  150.0650 H   0  0  0  0  0  0  0  0  0  0  0  0
  147.4508  133.7772  151.7017 H   0  0  0  0  0  0  0  0  0  0  0  0
  145.5469  132.4214  148.8323 H   0  0  0  0  0  0  0  0  0  0  0  0
  145.2425  130.8660  149.5527 H   0  0  0  0  0  0  0  0  0  0  0  0
  143.6391  131.9959  151.1514 H   0  0  0  0  0  0  0  0  0  0  0  0
  143.9335  133.5397  150.3944 H   0  0  0  0  0  0  0  0  0  0  0  0
  142.2759  132.8040  149.2662 H   0  0  0  0  0  0  0  0  0  0  0  0
  148.5995  132.9832  152.1849 H   0  0  0  0  0  0  0  0  0  0  0  0
  148.9353  131.2941  152.5421 H   0  0  0  0  0  0  0  0  0  0  0  0
  149.0330  132.5018  153.8099 H   0  0  0  0  0  0  0  0  0  0  0  0
  149.6269  129.8866  157.4529 H   0  0  0  0  0  0  0  0  0  0  0  0
  147.2149  131.7540  150.4030 H   0  0  0  0  0  0  0  0  0  0  0  0
  1  2  1  0  0  0  0
  1 31  1  0  0  0  0
  1 32  1  0  0  0  0
  1 33  1  0  0  0  0
  2  6  1  0  0  0  0
  2  3  1  0  0  0  0
  2 34  1  0  0  0  0
  3  4  1  0  0  0  0
  4  5  1  0  0  0  0
  4 35  1  0  0  0  0
  4 36  1  0  0  0  0
  5  6  1  0  0  0  0
  5 37  1  0  0  0  0
  5 38  1  0  0  0  0
  6  7  1  0  0  0  0
  6  8  1  0  0  0  0
  7 39  1  0  0  0  0
  8  9  1  0  0  0  0
  8 40  1  0  0  0  0
  8 41  1  0  0  0  0
  9 28  1  0  0  0  0
  9 10  1  0  0  0  0
 10 11  2  0  0  0  0
 10 42  1  0  0  0  0
 11 12  1  0  0  0  0
 12 28  2  0  0  0  0
 12 13  1  0  0  0  0
 13 14  1  0  0  0  0
 13 25  2  0  0  0  0
 14 23  1  0  0  0  0
 14 15  1  0  0  0  0
 15 16  1  0  0  0  0
 15 43  1  0  0  0  0
 15 44  1  0  0  0  0
 16 17  1  0  0  0  0
 16 45  1  0  0  0  0
 16 46  1  0  0  0  0
 17 29  1  0  0  0  0
 17 18  1  0  0  0  0
 17 23  1  0  0  0  0
 18 19  1  0  0  0  0
 18 20  1  0  0  0  0
 18 59  1  0  0  0  0
 19 47  1  0  0  0  0
 19 48  1  0  0  0  0
 19 49  1  0  0  0  0
 20 21  1  0  0  0  0
 20 50  1  0  0  0  0
 20 51  1  0  0  0  0
 21 22  1  0  0  0  0
 21 52  1  0  0  0  0
 21 53  1  0  0  0  0
 22 54  1  0  0  0  0
 23 30  1  0  0  0  0
 23 24  1  0  0  0  0
 24 55  1  0  0  0  0
 24 56  1  0  0  0  0
 24 57  1  0  0  0  0
 25 26  1  0  0  0  0
 26 27  2  0  0  0  0
 26 58  1  0  0  0  0
 27 28  1  0  0  0  0
M  CHG  1  18   1
M  END
> <s_m_source_file>
AV-unprocessed.smi

> <i_m_source_file_index>
290

> <i_lp_mmshare_version>
43012

> <i_f3d_flags>
0

> <s_epik_input>
W0NIMl0xW0NIMl1PW0NAQEhdKFtDSDNdKVtDQEBdMShbT0hdKVtDSDJdbihbY0hdbjIpYyhjMjMpbltjSF1uYzNONFtDSDJdW0NIMl1bQ0BIXShbQ0BIXTRbQ0gzXSlOKFtDSDNdKVtDSDJdW0NIMl1bT0hd

> <s_epik_cmdline>
J2VwaWtfcHl0aG9uJywgJy1waCcsICc3LjAnLCAnLXRuJywgJzgnLCAnLW1hJywgJzIwMCcsICctbWV0YWxfYmluZGluZycsICctaW1hZScsICc8aW5maWxlLm1hZT4nLCAnLW9tYWUnLCAnPG91dGZpbGUubWFlPic=

> <r_lp_tautomer_probability>
1

> <r_epik_Ionization_Penalty>
0.0036983

> <r_epik_Ionization_Penalty_Charging>
0.0032725

> <r_epik_Ionization_Penalty_Neutral>
0.000425798

> <r_epik_State_Penalty>
-0

> <r_epik_Charging_Adjusted_Penalty>
0.0032725

> <i_epik_Tot_Q>
1

> <i_epik_Tot_abs_Q>
1

> <r_epik_Metal_State_Penalty>
-0

> <b_epik_Metal_Only>
0

> <s_lp_Force_Field>
OPLS_2005

> <r_lp_Energy>
66.7181

> <b_lp_Chiralities_Consistent>
1

> <s_lp_Variant>
AV-unprocessed.smi:290-31

> <Gold.Version>
5.8.1

> <Gold.Id.Protein>
6NUR|6NUR_protein|mol2

> <Gold.PLP.Fitness>
42.3017

> <Gold.PLP.PLP>
-36.9136

> <Gold.PLP.part.hbond>
-4.0000

> <Gold.PLP.part.metal>
0.0000

> <Gold.PLP.part.buried>
-5.3850

> <Gold.PLP.part.nonpolar>
-28.1366

> <Gold.PLP.part.repulsive>
0.2053

> <Gold.PLP.ligand.clash>
0.0066

> <Gold.PLP.ligand.torsion>
1.7240

> <Gold.PLP.Chemscore.Hbond>
2.8688

> <Gold.PLP.Chemscore.CHOScore>
0.0000

> <Gold.PLP.Chemscore.Metal>
0.0000

> <Gold.Chemscore.Hbonds>
donor molecule, donor type, donor heavy atom, donor atom, acceptor molecule, acceptor atom, score
      L1  H    18    59       P1 10747  1.00
      L1  H    22    54       P1 10186  0.91
      P1  H 10785 10796       L1    22  0.88

> <Gold.PLP.Chemscore.Internal.Correction>
0.2365

> <Gold.Rescore>
     Score         DG    S(hbond)    S(metal)    S(lipo)     H(rot)  DE(clash)    DE(int)     intcor
     12.75     -16.32       2.50        0.00      94.73       3.35       0.05       3.52       ----

> <Gold.Chemscore.Fitness>
12.7546

> <Gold.Chemscore.DG>
-16.3195

> <Gold.Chemscore.ZeroCoef>
-5.4800

> <Gold.Chemscore.Hbond>
2.4962

> <Gold.Chemscore.Metal>
0.0000

> <Gold.Chemscore.Lipo>
94.7255

> <Gold.Chemscore.Internal_Hbond>
0.0000

> <Gold.Chemscore.DEClash>
0.0492

> <Gold.Chemscore.DEInternal>
3.5156

> <Gold.Chemscore.Rot>
3.3518

> <Gold.Chemscore.Internal.Correction>
   9.000000E+99

> <Gold.Chemscore.Hbonds>
donor molecule, donor type, donor heavy atom, donor atom, acceptor molecule, acceptor atom, score
      L1  H    18    59       P1 10747  0.98
      L1  H    22    54       P1 10186  0.89
      P1  H 10785 10796       L1    22  0.56

> <Gold.Chemscore.Hbond.Weighted>
-8.3371

> <Gold.Chemscore.Metal.Weighted>
-0.0000

> <Gold.Chemscore.Lipo.Weighted>
-11.0829

> <Gold.Chemscore.Internal_Hbond.Weighted>
0.0000

> <Gold.Chemscore.DEClash.Weighted>
0.0492

> <Gold.Chemscore.DEInternal.Weighted>
3.5156

> <Gold.Chemscore.Rot.Weighted>
8.5806

> <Gold.Chemscore.Internal.Correction.Weighted>
   9.000000E+99

> <Gold.Protein.RotatedTorsions>
[ 6907 6896 6895 6894 ] final  161.14 input  -60.11 | X-H torsion
[ 7974 7965 7964 7962 ] final   46.33 input  175.53 | X-H torsion
[ 8008 7997 7996 7995 ] final -104.52 input   59.86 | X-H torsion
[ 10167 10162 10161 10158 ] final  -70.10 input  -65.29 | X-H torsion
[ 10718 10713 10712 10709 ] final -142.43 input   66.30 | X-H torsion
[ 10763 10752 10751 10750 ] final   -8.17 input  -60.55 | X-H torsion
[ 11005 11000 10999 10996 ] final  -10.44 input  -57.11 | X-H torsion

> <Gold.Protein.ActiveResidues>
 VAL166  LYS551  ARG553  GLY616  TRP617  ASP618  TYR619  PRO620  LYS621  CYS622 
 ASP623  PHE694  ASN695  SER759  ASP760  ASP761  ALA762  ILE779  LEU786  VAL792 
 PHE793  MET794  SER795  GLU796  ALA797  LYS798  CYS799  TRP800  GLU811  SER814 

> <Gold.Protein.RotatedAtoms>
  151.9601  133.3692  159.4031 H   0  0  0  0  0  0  0  0  0  0  0  0  # atno 6907 bound_to 6896
  150.6965  134.4249  159.5231 H   0  0  0  0  0  0  0  0  0  0  0  0  # atno 6908 bound_to 6896
  152.1937  134.8650  160.0566 H   0  0  0  0  0  0  0  0  0  0  0  0  # atno 6909 bound_to 6896
  146.0400  139.4868  142.9784 H   0  0  0  0  0  0  0  0  0  0  0  0  # atno 7974 bound_to 7965
  154.8865  140.0417  157.1813 H   0  0  0  0  0  0  0  0  0  0  0  0  # atno 8008 bound_to 7997
  154.8585  140.2940  155.5533 H   0  0  0  0  0  0  0  0  0  0  0  0  # atno 8009 bound_to 7997
  156.2998  140.2451  156.3555 H   0  0  0  0  0  0  0  0  0  0  0  0  # atno 8010 bound_to 7997
  140.5379  143.2317  151.7144 H   0  0  0  0  0  0  0  0  0  0  0  0  # atno 10167 bound_to 10162
  156.3458  130.7662  151.1806 H   0  0  0  0  0  0  0  0  0  0  0  0  # atno 10718 bound_to 10713
  153.4368  135.7013  153.6195 H   0  0  0  0  0  0  0  0  0  0  0  0  # atno 10763 bound_to 10752
  153.4587  135.3741  155.2326 H   0  0  0  0  0  0  0  0  0  0  0  0  # atno 10764 bound_to 10752
  154.8727  135.4014  154.3760 H   0  0  0  0  0  0  0  0  0  0  0  0  # atno 10765 bound_to 10752
  140.7448  133.8641  155.8996 H   0  0  0  0  0  0  0  0  0  0  0  0  # atno 11005 bound_to 11000
  145.6901  141.0167  143.1560 LP  0  0  0  0  0  0  0  0  0  0  0  0  # atno 17320 bound_to 7965
  144.7070  139.8522  143.7427 LP  0  0  0  0  0  0  0  0  0  0  0  0  # atno 17321 bound_to 7965
  139.4977  144.4015  152.0176 LP  0  0  0  0  0  0  0  0  0  0  0  0  # atno 17342 bound_to 10162
  140.3122  144.3525  150.6031 LP  0  0  0  0  0  0  0  0  0  0  0  0  # atno 17343 bound_to 10162
  157.7454  131.0441  150.4779 LP  0  0  0  0  0  0  0  0  0  0  0  0  # atno 17370 bound_to 10713
  156.4966  130.4107  149.6376 LP  0  0  0  0  0  0  0  0  0  0  0  0  # atno 17371 bound_to 10713
  140.9804  134.1412  157.4499 LP  0  0  0  0  0  0  0  0  0  0  0  0  # atno 17394 bound_to 11000
  139.8799  135.0009  156.6034 LP  0  0  0  0  0  0  0  0  0  0  0  0  # atno 17395 bound_to 11000

$$$$
