AV-unprocessed.smi:3217|AV-procd|sdf|12290|dock10
  -GOLD-   2272018133D 1   1.00000     0.00000
 Structure written by MMmdl.
 34 35  0  0  0  0  0  0  0  0  1 V2000
  152.5658  136.6336  147.9088 C   0  0  0  0  0  0  0  0  0  0  0  0
  152.0673  135.6306  148.9591 C   0  0  1  0  0  0  0  0  0  0  0  0
  151.6208  136.3676  150.1407 N   0  0  0  0  0  0  0  0  0  0  0  0
  152.2908  137.3547  150.7530 C   0  0  0  0  0  0  0  0  0  0  0  0
  153.3946  137.7578  150.3881 O   0  0  0  0  0  0  0  0  0  0  0  0
  151.5896  137.8373  151.7933 N   0  0  0  0  0  0  0  0  0  0  0  0
  151.9209  138.8983  152.6799 C   0  0  0  0  0  0  0  0  0  0  0  0
  152.9763  139.8203  152.4731 C   0  0  0  0  0  0  0  0  0  0  0  0
  153.2040  140.8206  153.4378 C   0  0  0  0  0  0  0  0  0  0  0  0
  152.3763  140.8589  154.5764 C   0  0  0  0  0  0  0  0  0  0  0  0
  151.3761  139.9795  154.7932 N   0  0  0  0  0  0  0  0  0  0  0  0
  151.1629  139.0240  153.8635 C   0  0  0  0  0  0  0  0  0  0  0  0
  150.9273  134.7448  148.4167 C   0  0  2  0  0  0  0  0  0  0  0  0
  150.3357  133.7639  149.4327 C   0  0  0  0  0  0  0  0  0  0  0  0
  149.7867  132.6802  148.5341 C   0  0  0  0  0  0  0  0  0  0  0  0
  150.8595  132.6079  147.4532 C   0  0  0  0  0  0  0  0  0  0  0  0
  151.3974  133.9235  147.3486 O   0  0  0  0  0  0  0  0  0  0  0  0
  152.9433  136.1219  147.0231 H   0  0  0  0  0  0  0  0  0  0  0  0
  153.3784  137.2438  148.3050 H   0  0  0  0  0  0  0  0  0  0  0  0
  151.7689  137.3063  147.5902 H   0  0  0  0  0  0  0  0  0  0  0  0
  152.9062  134.9819  149.2176 H   0  0  0  0  0  0  0  0  0  0  0  0
  150.7199  136.1090  150.5152 H   0  0  0  0  0  0  0  0  0  0  0  0
  150.6741  137.4348  151.9301 H   0  0  0  0  0  0  0  0  0  0  0  0
  153.6203  139.7787  151.6092 H   0  0  0  0  0  0  0  0  0  0  0  0
  153.9982  141.5408  153.3086 H   0  0  0  0  0  0  0  0  0  0  0  0
  152.5253  141.6126  155.3354 H   0  0  0  0  0  0  0  0  0  0  0  0
  150.3543  138.3382  154.0713 H   0  0  0  0  0  0  0  0  0  0  0  0
  150.1235  135.3680  148.0207 H   0  0  0  0  0  0  0  0  0  0  0  0
  151.1177  133.3540  150.0740 H   0  0  0  0  0  0  0  0  0  0  0  0
  149.5746  134.2166  150.0688 H   0  0  0  0  0  0  0  0  0  0  0  0
  149.6338  131.7310  149.0482 H   0  0  0  0  0  0  0  0  0  0  0  0
  148.8357  132.9955  148.1026 H   0  0  0  0  0  0  0  0  0  0  0  0
  151.6593  131.9310  147.7562 H   0  0  0  0  0  0  0  0  0  0  0  0
  150.4657  132.2602  146.4980 H   0  0  0  0  0  0  0  0  0  0  0  0
  1  2  1  0  0  0  0
  1 18  1  0  0  0  0
  1 19  1  0  0  0  0
  1 20  1  0  0  0  0
  2  3  1  0  0  0  0
  2 13  1  0  0  0  0
  2 21  1  0  0  0  0
  3  4  1  0  0  0  0
  3 22  1  0  0  0  0
  4  5  2  0  0  0  0
  4  6  1  0  0  0  0
  6  7  1  0  0  0  0
  6 23  1  0  0  0  0
  7 12  1  0  0  0  0
  7  8  2  0  0  0  0
  8  9  1  0  0  0  0
  8 24  1  0  0  0  0
  9 10  2  0  0  0  0
  9 25  1  0  0  0  0
 10 11  1  0  0  0  0
 10 26  1  0  0  0  0
 11 12  2  0  0  0  0
 12 27  1  0  0  0  0
 13 17  1  0  0  0  0
 13 14  1  0  0  0  0
 13 28  1  0  0  0  0
 14 15  1  0  0  0  0
 14 29  1  0  0  0  0
 14 30  1  0  0  0  0
 15 16  1  0  0  0  0
 15 31  1  0  0  0  0
 15 32  1  0  0  0  0
 16 17  1  0  0  0  0
 16 33  1  0  0  0  0
 16 34  1  0  0  0  0
M  END
> <s_m_source_file>
AV-unprocessed.smi

> <i_m_source_file_index>
3217

> <i_lp_mmshare_version>
43012

> <i_f3d_flags>
0

> <s_epik_input>
TzFbQ0gyXVtDSDJdW0NIMl1bQ0BIXTFbQ0BIXShbQ0gzXSlbTkhdQyg9TylbTkhdYzJbY0hdW2NIXVtjSF1uW2NIXTI=

> <s_epik_cmdline>
J2VwaWtfcHl0aG9uJywgJy1waCcsICc3LjAnLCAnLXRuJywgJzgnLCAnLW1hJywgJzIwMCcsICctbWV0YWxfYmluZGluZycsICctaW1hZScsICc8aW5maWxlLm1hZT4nLCAnLW9tYWUnLCAnPG91dGZpbGUubWFlPic=

> <r_epik_Ionization_Penalty>
0.00475451

> <r_epik_Ionization_Penalty_Charging>
0

> <r_epik_Ionization_Penalty_Neutral>
0.00475451

> <r_epik_State_Penalty>
0.00341814

> <r_epik_Charging_Adjusted_Penalty>
0.00341814

> <i_epik_Tot_Q>
0

> <i_epik_Tot_abs_Q>
0

> <r_epik_Metal_State_Penalty>
-0

> <b_epik_Metal_Only>
0

> <s_lp_Force_Field>
OPLS_2005

> <r_lp_Energy>
20.7148

> <b_lp_Chiralities_Consistent>
1

> <s_lp_Variant>
AV-unprocessed.smi:3217-2

> <Gold.Version>
5.8.1

> <Gold.Id.Protein>
6NUR|6NUR_protein|mol2

> <Gold.PLP.Fitness>
41.7714

> <Gold.PLP.PLP>
-30.3407

> <Gold.PLP.part.hbond>
-3.7493

> <Gold.PLP.part.metal>
0.0000

> <Gold.PLP.part.buried>
-3.7019

> <Gold.PLP.part.nonpolar>
-23.2584

> <Gold.PLP.part.repulsive>
0.2729

> <Gold.PLP.ligand.clash>
0.0000

> <Gold.PLP.ligand.torsion>
0.1706

> <Gold.PLP.Chemscore.Hbond>
2.9913

> <Gold.PLP.Chemscore.CHOScore>
0.9298

> <Gold.PLP.Chemscore.Metal>
0.0000

> <Gold.PLP.Chemscore.Internal.Correction>
0.0088

> <Gold.Rescore>
     Score         DG    S(hbond)    S(metal)    S(lipo)     H(rot)  DE(clash)    DE(int)     intcor
     14.97     -17.43       2.31        0.00      63.05       1.22       0.00       2.46       ----

> <Gold.Chemscore.Fitness>
14.9710

> <Gold.Chemscore.DG>
-17.4299

> <Gold.Chemscore.ZeroCoef>
-5.4800

> <Gold.Chemscore.Hbond>
2.3071

> <Gold.Chemscore.Metal>
0.0000

> <Gold.Chemscore.Lipo>
63.0499

> <Gold.Chemscore.Internal_Hbond>
0.0000

> <Gold.Chemscore.DEClash>
0.0000

> <Gold.Chemscore.DEInternal>
2.4589

> <Gold.Chemscore.Rot>
1.2236

> <Gold.Chemscore.Internal.Correction>
   9.000000E+99

> <Gold.Chemscore.Hbond.Weighted>
-7.7056

> <Gold.Chemscore.Metal.Weighted>
-0.0000

> <Gold.Chemscore.Lipo.Weighted>
-7.3768

> <Gold.Chemscore.Internal_Hbond.Weighted>
0.0000

> <Gold.Chemscore.DEClash.Weighted>
0.0000

> <Gold.Chemscore.DEInternal.Weighted>
2.4589

> <Gold.Chemscore.Rot.Weighted>
3.1325

> <Gold.Chemscore.Internal.Correction.Weighted>
   9.000000E+99

> <Gold.Protein.RotatedTorsions>
[ 6907 6896 6895 6894 ] final  162.41 input  -60.11 | X-H torsion
[ 7974 7965 7964 7962 ] final   39.94 input  175.53 | X-H torsion
[ 8008 7997 7996 7995 ] final  -79.90 input   59.86 | X-H torsion
[ 10167 10162 10161 10158 ] final  171.32 input  -65.29 | X-H torsion
[ 10718 10713 10712 10709 ] final -137.47 input   66.30 | X-H torsion
[ 10763 10752 10751 10750 ] final -164.88 input  -60.55 | X-H torsion
[ 11005 11000 10999 10996 ] final   44.01 input  -57.11 | X-H torsion

> <Gold.Protein.ActiveResidues>
 VAL166  LYS551  ARG553  GLY616  TRP617  ASP618  TYR619  PRO620  LYS621  CYS622 
 ASP623  PHE694  ASN695  SER759  ASP760  ASP761  ALA762  ILE779  LEU786  VAL792 
 PHE793  MET794  SER795  GLU796  ALA797  LYS798  CYS799  TRP800  GLU811  SER814 

> <Gold.Protein.RotatedAtoms>
  151.9409  133.3637  159.3964 H   0  0  0  0  0  0  0  0  0  0  0  0  # atno 6907 bound_to 6896
  150.6998  134.4440  159.5315 H   0  0  0  0  0  0  0  0  0  0  0  0  # atno 6908 bound_to 6896
  152.2097  134.8512  160.0549 H   0  0  0  0  0  0  0  0  0  0  0  0  # atno 6909 bound_to 6896
  146.0945  139.5592  142.9454 H   0  0  0  0  0  0  0  0  0  0  0  0  # atno 7974 bound_to 7965
  154.5830  140.0671  156.9131 H   0  0  0  0  0  0  0  0  0  0  0  0  # atno 8008 bound_to 7997
  155.2429  140.3346  155.4272 H   0  0  0  0  0  0  0  0  0  0  0  0  # atno 8009 bound_to 7997
  156.2203  140.1796  156.7478 H   0  0  0  0  0  0  0  0  0  0  0  0  # atno 8010 bound_to 7997
  139.5043  144.3499  151.9933 H   0  0  0  0  0  0  0  0  0  0  0  0  # atno 10167 bound_to 10162
  156.2885  130.7361  151.1380 H   0  0  0  0  0  0  0  0  0  0  0  0  # atno 10718 bound_to 10713
  154.6986  135.2983  154.9375 H   0  0  0  0  0  0  0  0  0  0  0  0  # atno 10763 bound_to 10752
  154.0314  135.6669  153.4785 H   0  0  0  0  0  0  0  0  0  0  0  0  # atno 10764 bound_to 10752
  153.0664  135.5086  154.8117 H   0  0  0  0  0  0  0  0  0  0  0  0  # atno 10765 bound_to 10752
  140.1591  134.4364  155.8329 H   0  0  0  0  0  0  0  0  0  0  0  0  # atno 11005 bound_to 11000
  145.5975  141.0360  143.2036 LP  0  0  0  0  0  0  0  0  0  0  0  0  # atno 17320 bound_to 7965
  144.7385  139.7517  143.7320 LP  0  0  0  0  0  0  0  0  0  0  0  0  # atno 17321 bound_to 7965
  140.2935  144.3726  150.6081 LP  0  0  0  0  0  0  0  0  0  0  0  0  # atno 17342 bound_to 10162
  140.5928  143.2167  151.7221 LP  0  0  0  0  0  0  0  0  0  0  0  0  # atno 17343 bound_to 10162
  157.7335  131.0590  150.5571 LP  0  0  0  0  0  0  0  0  0  0  0  0  # atno 17370 bound_to 10713
  156.5685  130.4273  149.6030 LP  0  0  0  0  0  0  0  0  0  0  0  0  # atno 17371 bound_to 10713
  141.2207  133.6905  156.7561 LP  0  0  0  0  0  0  0  0  0  0  0  0  # atno 17394 bound_to 11000
  140.2511  134.8539  157.3668 LP  0  0  0  0  0  0  0  0  0  0  0  0  # atno 17395 bound_to 11000

$$$$
