AV-unprocessed.smi:2024|AV-procd|sdf|8193|dock10
  -GOLD-   2272010453D 1   1.00000     0.00000
 Structure written by MMmdl.
 43 44  0  0  0  0  0  0  0  0  1 V2000
  152.1827  142.3353  159.2548 C   0  0  0  0  0  0  0  0  0  0  0  0
  151.8389  141.5502  158.0794 N   0  0  0  0  0  0  0  0  0  0  0  0
  151.0075  142.3096  157.1508 C   0  0  0  0  0  0  0  0  0  0  0  0
  150.6614  141.4817  155.8999 C   0  0  0  0  0  0  0  0  0  0  0  0
  149.9511  140.2395  156.2462 N   0  0  0  0  0  0  0  0  0  0  0  0
  149.4636  139.4514  155.0795 C   0  0  0  0  0  0  0  0  0  0  0  0
  148.5889  140.2825  154.1098 C   0  0  0  0  0  0  0  0  0  0  0  0
  150.6496  138.8893  154.2552 C   0  0  0  0  0  0  0  0  0  0  0  0
  148.6122  138.2261  155.5269 C   0  0  0  0  0  0  0  0  0  0  0  0
  148.1245  137.4289  154.4016 N   0  0  0  0  0  0  0  0  0  0  0  0
  146.8906  136.9206  154.2764 C   0  0  0  0  0  0  0  0  0  0  0  0
  146.0062  137.0614  155.1210 O   0  0  0  0  0  0  0  0  0  0  0  0
  146.7584  136.2536  153.1187 N   0  0  0  0  0  0  0  0  0  0  0  0
  145.6100  135.5839  152.6291 C   0  0  0  0  0  0  0  0  0  0  0  0
  144.7556  135.0469  153.5019 N   0  0  0  0  0  0  0  0  0  0  0  0
  143.6777  134.4239  152.8662 C   0  0  0  0  0  0  0  0  0  0  0  0
  143.7279  134.4969  151.4962 C   0  0  0  0  0  0  0  0  0  0  0  0
  145.1400  135.3560  150.9426 S   0  0  0  0  0  0  0  0  0  0  0  0
  150.7876  139.4862  157.1951 C   0  0  0  0  0  0  0  0  0  0  0  0
  151.1362  140.3227  158.4401 C   0  0  0  0  0  0  0  0  0  0  0  0
  152.7252  143.2377  158.9705 H   0  0  0  0  0  0  0  0  0  0  0  0
  152.8213  141.7626  159.9280 H   0  0  0  0  0  0  0  0  0  0  0  0
  151.2896  142.6345  159.8050 H   0  0  0  0  0  0  0  0  0  0  0  0
  150.0879  142.6281  157.6447 H   0  0  0  0  0  0  0  0  0  0  0  0
  151.5296  143.2178  156.8478 H   0  0  0  0  0  0  0  0  0  0  0  0
  150.0532  142.1085  155.2506 H   0  0  0  0  0  0  0  0  0  0  0  0
  151.5787  141.2574  155.3550 H   0  0  0  0  0  0  0  0  0  0  0  0
  148.2582  139.6759  153.2659 H   0  0  0  0  0  0  0  0  0  0  0  0
  149.1283  141.1322  153.6921 H   0  0  0  0  0  0  0  0  0  0  0  0
  147.6897  140.6653  154.5921 H   0  0  0  0  0  0  0  0  0  0  0  0
  150.3128  138.1630  153.5145 H   0  0  0  0  0  0  0  0  0  0  0  0
  151.3814  138.3892  154.8904 H   0  0  0  0  0  0  0  0  0  0  0  0
  151.1735  139.6674  153.7003 H   0  0  0  0  0  0  0  0  0  0  0  0
  149.1899  137.5656  156.1730 H   0  0  0  0  0  0  0  0  0  0  0  0
  147.7800  138.5528  156.1534 H   0  0  0  0  0  0  0  0  0  0  0  0
  148.7790  137.2702  153.6495 H   0  0  0  0  0  0  0  0  0  0  0  0
  147.5696  136.2214  152.5189 H   0  0  0  0  0  0  0  0  0  0  0  0
  142.9162  133.9506  153.4680 H   0  0  0  0  0  0  0  0  0  0  0  0
  143.0224  134.0986  150.7821 H   0  0  0  0  0  0  0  0  0  0  0  0
  150.2751  138.5887  157.5360 H   0  0  0  0  0  0  0  0  0  0  0  0
  151.7107  139.1609  156.7146 H   0  0  0  0  0  0  0  0  0  0  0  0
  151.7567  139.7278  159.1111 H   0  0  0  0  0  0  0  0  0  0  0  0
  150.2233  140.5605  158.9888 H   0  0  0  0  0  0  0  0  0  0  0  0
  1  2  1  0  0  0  0
  1 21  1  0  0  0  0
  1 22  1  0  0  0  0
  1 23  1  0  0  0  0
  2 20  1  0  0  0  0
  2  3  1  0  0  0  0
  3  4  1  0  0  0  0
  3 24  1  0  0  0  0
  3 25  1  0  0  0  0
  4  5  1  0  0  0  0
  4 26  1  0  0  0  0
  4 27  1  0  0  0  0
  5  6  1  0  0  0  0
  5 19  1  0  0  0  0
  6  7  1  0  0  0  0
  6  8  1  0  0  0  0
  6  9  1  0  0  0  0
  7 28  1  0  0  0  0
  7 29  1  0  0  0  0
  7 30  1  0  0  0  0
  8 31  1  0  0  0  0
  8 32  1  0  0  0  0
  8 33  1  0  0  0  0
  9 10  1  0  0  0  0
  9 34  1  0  0  0  0
  9 35  1  0  0  0  0
 10 11  1  0  0  0  0
 10 36  1  0  0  0  0
 11 12  2  0  0  0  0
 11 13  1  0  0  0  0
 13 14  1  0  0  0  0
 13 37  1  0  0  0  0
 14 18  1  0  0  0  0
 14 15  2  0  0  0  0
 15 16  1  0  0  0  0
 16 17  2  0  0  0  0
 16 38  1  0  0  0  0
 17 18  1  0  0  0  0
 17 39  1  0  0  0  0
 19 20  1  0  0  0  0
 19 40  1  0  0  0  0
 19 41  1  0  0  0  0
 20 42  1  0  0  0  0
 20 43  1  0  0  0  0
M  END
> <s_m_source_file>
AV-unprocessed.smi

> <i_m_source_file_index>
2024

> <i_lp_mmshare_version>
43012

> <i_f3d_flags>
0

> <s_epik_input>
W0NIM11OMVtDSDJdW0NIMl1OKFtDSDJdW0NIMl0xKUMoW0NIM10pKFtDSDNdKVtDSDJdW05IXUMoPU8pW05IXWMybltjSF1bY0hdczI=

> <s_epik_cmdline>
J2VwaWtfcHl0aG9uJywgJy1waCcsICc3LjAnLCAnLXRuJywgJzgnLCAnLW1hJywgJzIwMCcsICctbWV0YWxfYmluZGluZycsICctaW1hZScsICc8aW5maWxlLm1hZT4nLCAnLW9tYWUnLCAnPG91dGZpbGUubWFlPic=

> <r_lp_tautomer_probability>
0.999

> <r_epik_Ionization_Penalty>
3.01774

> <r_epik_Ionization_Penalty_Charging>
0

> <r_epik_Ionization_Penalty_Neutral>
3.01774

> <r_epik_State_Penalty>
2.1369

> <r_epik_Charging_Adjusted_Penalty>
2.1369

> <i_epik_Tot_Q>
0

> <i_epik_Tot_abs_Q>
0

> <r_epik_Metal_State_Penalty>
2.1694

> <b_epik_Metal_Only>
0

> <s_lp_Force_Field>
OPLS_2005

> <r_lp_Energy>
47.9803

> <b_lp_Chiralities_Consistent>
1

> <s_lp_Variant>
AV-unprocessed.smi:2024-3

> <Gold.Version>
5.8.1

> <Gold.Id.Protein>
6NUR|6NUR_protein|mol2

> <Gold.PLP.Fitness>
38.4457

> <Gold.PLP.PLP>
-27.7221

> <Gold.PLP.part.hbond>
-2.0000

> <Gold.PLP.part.metal>
0.0000

> <Gold.PLP.part.buried>
-3.6629

> <Gold.PLP.part.nonpolar>
-23.0514

> <Gold.PLP.part.repulsive>
0.1117

> <Gold.PLP.ligand.clash>
0.0000

> <Gold.PLP.ligand.torsion>
0.3382

> <Gold.PLP.Chemscore.Hbond>
1.7855

> <Gold.PLP.Chemscore.CHOScore>
1.9997

> <Gold.PLP.Chemscore.Metal>
0.0000

> <Gold.Chemscore.Hbonds>
donor molecule, donor type, donor heavy atom, donor atom, acceptor molecule, acceptor atom, score
      L1  H    10    36       P1  7948  0.77
      L1  H    13    37       P1  7948  0.99
      L1  C    16    38       P1 10957  0.93
      L1  C    17    39       P1 10186  1.00

> <Gold.PLP.Chemscore.Internal.Correction>
0.0445

> <Gold.Rescore>
     Score         DG    S(hbond)    S(metal)    S(lipo)     H(rot)  DE(clash)    DE(int)     intcor
     14.66     -16.31       1.90        0.00      72.51       1.56       0.04       1.60       ----

> <Gold.Chemscore.Fitness>
14.6621

> <Gold.Chemscore.DG>
-16.3065

> <Gold.Chemscore.ZeroCoef>
-5.4800

> <Gold.Chemscore.Hbond>
1.8991

> <Gold.Chemscore.Metal>
0.0000

> <Gold.Chemscore.Lipo>
72.5079

> <Gold.Chemscore.Internal_Hbond>
0.0000

> <Gold.Chemscore.DEClash>
0.0447

> <Gold.Chemscore.DEInternal>
1.5997

> <Gold.Chemscore.Rot>
1.5624

> <Gold.Chemscore.Internal.Correction>
   9.000000E+99

> <Gold.Chemscore.Hbonds>
donor molecule, donor type, donor heavy atom, donor atom, acceptor molecule, acceptor atom, score
      L1  H    10    36       P1  7948  0.74
      L1  H    13    37       P1  7948  0.92

> <Gold.Chemscore.Hbond.Weighted>
-6.3428

> <Gold.Chemscore.Metal.Weighted>
-0.0000

> <Gold.Chemscore.Lipo.Weighted>
-8.4834

> <Gold.Chemscore.Internal_Hbond.Weighted>
0.0000

> <Gold.Chemscore.DEClash.Weighted>
0.0447

> <Gold.Chemscore.DEInternal.Weighted>
1.5997

> <Gold.Chemscore.Rot.Weighted>
3.9998

> <Gold.Chemscore.Internal.Correction.Weighted>
   9.000000E+99

> <Gold.Protein.RotatedTorsions>
[ 6907 6896 6895 6894 ] final  -71.64 input  -60.11 | X-H torsion
[ 7974 7965 7964 7962 ] final  -17.85 input  175.53 | X-H torsion
[ 8008 7997 7996 7995 ] final   52.95 input   59.86 | X-H torsion
[ 10167 10162 10161 10158 ] final -106.54 input  -65.29 | X-H torsion
[ 10718 10713 10712 10709 ] final   55.81 input   66.30 | X-H torsion
[ 10763 10752 10751 10750 ] final  154.06 input  -60.55 | X-H torsion
[ 11005 11000 10999 10996 ] final  -36.99 input  -57.11 | X-H torsion

> <Gold.Protein.ActiveResidues>
 VAL166  LYS551  ARG553  GLY616  TRP617  ASP618  TYR619  PRO620  LYS621  CYS622 
 ASP623  PHE694  ASN695  SER759  ASP760  ASP761  ALA762  ILE779  LEU786  VAL792 
 PHE793  MET794  SER795  GLU796  ALA797  LYS798  CYS799  TRP800  GLU811  SER814 

> <Gold.Protein.RotatedAtoms>
  150.7203  134.5279  159.5685 H   0  0  0  0  0  0  0  0  0  0  0  0  # atno 6907 bound_to 6896
  152.2819  134.7816  160.0404 H   0  0  0  0  0  0  0  0  0  0  0  0  # atno 6908 bound_to 6896
  151.8460  133.3396  159.3695 H   0  0  0  0  0  0  0  0  0  0  0  0  # atno 6909 bound_to 6896
  146.1921  140.3837  142.8454 H   0  0  0  0  0  0  0  0  0  0  0  0  # atno 7974 bound_to 7965
  155.4602  140.3461  155.4312 H   0  0  0  0  0  0  0  0  0  0  0  0  # atno 8008 bound_to 7997
  156.1165  140.1475  156.9294 H   0  0  0  0  0  0  0  0  0  0  0  0  # atno 8009 bound_to 7997
  154.4793  140.0875  156.7318 H   0  0  0  0  0  0  0  0  0  0  0  0  # atno 8010 bound_to 7997
  140.1866  143.3924  152.1239 H   0  0  0  0  0  0  0  0  0  0  0  0  # atno 10167 bound_to 10162
  157.5377  130.8675  149.8777 H   0  0  0  0  0  0  0  0  0  0  0  0  # atno 10718 bound_to 10713
  154.1462  135.2818  155.3147 H   0  0  0  0  0  0  0  0  0  0  0  0  # atno 10763 bound_to 10752
  154.6251  135.5454  153.7621 H   0  0  0  0  0  0  0  0  0  0  0  0  # atno 10764 bound_to 10752
  153.0235  135.6448  154.1607 H   0  0  0  0  0  0  0  0  0  0  0  0  # atno 10765 bound_to 10752
  140.9917  133.7001  156.1862 H   0  0  0  0  0  0  0  0  0  0  0  0  # atno 11005 bound_to 11000
  144.8507  140.6997  143.6170 LP  0  0  0  0  0  0  0  0  0  0  0  0  # atno 17320 bound_to 7965
  145.3759  139.1648  143.4306 LP  0  0  0  0  0  0  0  0  0  0  0  0  # atno 17321 bound_to 7965
  139.5273  144.7118  151.5182 LP  0  0  0  0  0  0  0  0  0  0  0  0  # atno 17342 bound_to 10162
  140.6484  143.8748  150.6760 LP  0  0  0  0  0  0  0  0  0  0  0  0  # atno 17343 bound_to 10162
  156.0472  130.3725  150.1289 LP  0  0  0  0  0  0  0  0  0  0  0  0  # atno 17370 bound_to 10713
  156.9470  130.9763  151.3505 LP  0  0  0  0  0  0  0  0  0  0  0  0  # atno 17371 bound_to 10713
  140.7029  134.4545  157.5585 LP  0  0  0  0  0  0  0  0  0  0  0  0  # atno 17394 bound_to 11000
  139.8995  134.8588  156.1955 LP  0  0  0  0  0  0  0  0  0  0  0  0  # atno 17395 bound_to 11000

$$$$
