AV-unprocessed.smi:1974|AV-procd|sdf|7981|dock6
  -GOLD-   2272010163D 1   1.00000     0.00000
 Structure written by MMmdl.
 34 35  0  0  0  0  0  0  0  0  1 V2000
  151.1421  144.0003  156.8799 C   0  0  0  0  0  0  0  0  0  0  0  0
  150.8881  142.4861  156.8182 C   0  0  1  0  0  0  0  0  0  0  0  0
  150.5502  141.9142  158.2086 C   0  0  0  0  0  0  0  0  0  0  0  0
  151.4620  142.3864  159.2358 N   0  0  0  0  0  0  0  0  0  0  0  0
  152.8195  142.1680  159.3397 C   0  0  0  0  0  0  0  0  0  0  0  0
  153.2468  142.7995  160.4725 C   0  0  0  0  0  0  0  0  0  0  0  0
  152.0622  143.3848  161.0007 C   0  0  0  0  0  0  0  0  0  0  0  0
  150.9955  143.1362  160.2581 N   0  0  0  0  0  0  0  0  0  0  0  0
  149.8032  142.2028  155.8810 N   0  0  0  0  0  0  0  0  0  0  0  0
  149.7471  141.1537  155.0472 C   0  0  0  0  0  0  0  0  0  0  0  0
  150.6230  140.2897  154.9873 O   0  0  0  0  0  0  0  0  0  0  0  0
  148.4953  141.0638  154.1654 C   0  0  0  0  0  0  0  0  0  0  0  0
  147.2884  141.5569  154.8317 N   0  0  0  0  0  0  0  0  0  0  0  0
  146.4049  142.4726  154.1206 C   0  0  0  0  0  0  0  0  0  0  0  0
  145.0827  142.5421  154.8875 C   0  0  0  0  0  0  0  0  0  0  0  0
  145.4123  142.0565  156.5931 S   0  0  0  0  0  0  0  0  0  0  0  0
  146.9625  141.2659  156.1504 C   0  0  0  0  0  0  0  0  0  0  0  0
  147.6002  140.5790  156.9468 O   0  0  0  0  0  0  0  0  0  0  0  0
  151.9598  144.2330  157.5625 H   0  0  0  0  0  0  0  0  0  0  0  0
  150.2579  144.5378  157.2244 H   0  0  0  0  0  0  0  0  0  0  0  0
  151.4118  144.3963  155.9000 H   0  0  0  0  0  0  0  0  0  0  0  0
  151.8027  142.0029  156.4686 H   0  0  0  0  0  0  0  0  0  0  0  0
  149.5413  142.2102  158.4989 H   0  0  0  0  0  0  0  0  0  0  0  0
  150.5603  140.8230  158.1919 H   0  0  0  0  0  0  0  0  0  0  0  0
  153.3610  141.5860  158.6084 H   0  0  0  0  0  0  0  0  0  0  0  0
  154.2525  142.8372  160.8643 H   0  0  0  0  0  0  0  0  0  0  0  0
  151.9466  143.9787  161.8954 H   0  0  0  0  0  0  0  0  0  0  0  0
  149.0315  142.8542  155.8725 H   0  0  0  0  0  0  0  0  0  0  0  0
  148.6766  141.6329  153.2530 H   0  0  0  0  0  0  0  0  0  0  0  0
  148.3359  140.0293  153.8554 H   0  0  0  0  0  0  0  0  0  0  0  0
  146.8781  143.4550  154.0935 H   0  0  0  0  0  0  0  0  0  0  0  0
  146.2430  142.1552  153.0898 H   0  0  0  0  0  0  0  0  0  0  0  0
  144.6295  143.5324  154.8397 H   0  0  0  0  0  0  0  0  0  0  0  0
  144.3716  141.8300  154.4679 H   0  0  0  0  0  0  0  0  0  0  0  0
  1  2  1  0  0  0  0
  1 19  1  0  0  0  0
  1 20  1  0  0  0  0
  1 21  1  0  0  0  0
  2  3  1  0  0  0  0
  2  9  1  0  0  0  0
  2 22  1  0  0  0  0
  3  4  1  0  0  0  0
  3 23  1  0  0  0  0
  3 24  1  0  0  0  0
  4  8  1  0  0  0  0
  4  5  1  0  0  0  0
  5  6  2  0  0  0  0
  5 25  1  0  0  0  0
  6  7  1  0  0  0  0
  6 26  1  0  0  0  0
  7  8  2  0  0  0  0
  7 27  1  0  0  0  0
  9 10  1  0  0  0  0
  9 28  1  0  0  0  0
 10 11  2  0  0  0  0
 10 12  1  0  0  0  0
 12 13  1  0  0  0  0
 12 29  1  0  0  0  0
 12 30  1  0  0  0  0
 13 17  1  0  0  0  0
 13 14  1  0  0  0  0
 14 15  1  0  0  0  0
 14 31  1  0  0  0  0
 14 32  1  0  0  0  0
 15 16  1  0  0  0  0
 15 33  1  0  0  0  0
 15 34  1  0  0  0  0
 16 17  1  0  0  0  0
 17 18  2  0  0  0  0
M  END
> <s_m_source_file>
AV-unprocessed.smi

> <i_m_source_file_index>
1974

> <i_lp_mmshare_version>
43012

> <i_f3d_flags>
0

> <s_epik_input>
bjFbY0hdW2NIXVtjSF1uMVtDSDJdW0NAQEhdKFtDSDNdKVtOSF1DKD1PKVtDSDJdTjJbQ0gyXVtDSDJdU0MyPU8=

> <s_epik_cmdline>
J2VwaWtfcHl0aG9uJywgJy1waCcsICc3LjAnLCAnLXRuJywgJzgnLCAnLW1hJywgJzIwMCcsICctbWV0YWxfYmluZGluZycsICctaW1hZScsICc8aW5maWxlLm1hZT4nLCAnLW9tYWUnLCAnPG91dGZpbGUubWFlPic=

> <r_lp_tautomer_probability>
1

> <r_epik_Ionization_Penalty>
0.000283364

> <r_epik_Ionization_Penalty_Charging>
0

> <r_epik_Ionization_Penalty_Neutral>
0.000283364

> <r_epik_State_Penalty>
-0

> <r_epik_Charging_Adjusted_Penalty>
0

> <i_epik_Tot_Q>
0

> <i_epik_Tot_abs_Q>
0

> <r_epik_Metal_State_Penalty>
-0

> <b_epik_Metal_Only>
0

> <s_lp_Force_Field>
OPLS_2005

> <r_lp_Energy>
3.37474

> <b_lp_Chiralities_Consistent>
1

> <s_lp_Variant>
AV-unprocessed.smi:1974-2

> <Gold.Version>
5.8.1

> <Gold.Id.Protein>
6NUR|6NUR_protein|mol2

> <Gold.PLP.Fitness>
43.0902

> <Gold.PLP.PLP>
-39.1296

> <Gold.PLP.part.hbond>
-3.0000

> <Gold.PLP.part.metal>
0.0000

> <Gold.PLP.part.buried>
-2.7344

> <Gold.PLP.part.nonpolar>
-33.4501

> <Gold.PLP.part.repulsive>
0.2991

> <Gold.PLP.ligand.clash>
0.0000

> <Gold.PLP.ligand.torsion>
0.9574

> <Gold.PLP.Chemscore.Hbond>
1.9440

> <Gold.PLP.Chemscore.CHOScore>
0.0000

> <Gold.PLP.Chemscore.Metal>
0.0000

> <Gold.Chemscore.Hbonds>
donor molecule, donor type, donor heavy atom, donor atom, acceptor molecule, acceptor atom, score
      L1  H     9    28       P1  8028  0.70
      P1  H  7989  7998       L1    11  1.00

> <Gold.PLP.Chemscore.Internal.Correction>
0.0435

> <Gold.Rescore>
     Score         DG    S(hbond)    S(metal)    S(lipo)     H(rot)  DE(clash)    DE(int)     intcor
     12.72     -15.16       1.56        0.00      82.86       2.04       1.46       0.98       ----

> <Gold.Chemscore.Fitness>
12.7244

> <Gold.Chemscore.DG>
-15.1560

> <Gold.Chemscore.ZeroCoef>
-5.4800

> <Gold.Chemscore.Hbond>
1.5585

> <Gold.Chemscore.Metal>
0.0000

> <Gold.Chemscore.Lipo>
82.8570

> <Gold.Chemscore.Internal_Hbond>
0.0000

> <Gold.Chemscore.DEClash>
1.4558

> <Gold.Chemscore.DEInternal>
0.9757

> <Gold.Chemscore.Rot>
2.0405

> <Gold.Chemscore.Internal.Correction>
   9.000000E+99

> <Gold.Chemscore.Hbonds>
donor molecule, donor type, donor heavy atom, donor atom, acceptor molecule, acceptor atom, score
      L1  H     9    28       P1  8028  0.70
      P1  H  7989  7998       L1    11  0.30

> <Gold.Chemscore.Hbond.Weighted>
-5.2055

> <Gold.Chemscore.Metal.Weighted>
-0.0000

> <Gold.Chemscore.Lipo.Weighted>
-9.6943

> <Gold.Chemscore.Internal_Hbond.Weighted>
0.0000

> <Gold.Chemscore.DEClash.Weighted>
1.4558

> <Gold.Chemscore.DEInternal.Weighted>
0.9757

> <Gold.Chemscore.Rot.Weighted>
5.2237

> <Gold.Chemscore.Internal.Correction.Weighted>
   9.000000E+99

> <Gold.Protein.RotatedTorsions>
[ 6907 6896 6895 6894 ] final   38.81 input  -60.11 | X-H torsion
[ 7974 7965 7964 7962 ] final  -89.02 input  175.53 | X-H torsion
[ 8008 7997 7996 7995 ] final  -53.49 input   59.86 | X-H torsion
[ 10167 10162 10161 10158 ] final -113.63 input  -65.29 | X-H torsion
[ 10718 10713 10712 10709 ] final  121.93 input   66.30 | X-H torsion
[ 10763 10752 10751 10750 ] final -175.76 input  -60.55 | X-H torsion
[ 11005 11000 10999 10996 ] final  -82.88 input  -57.11 | X-H torsion

> <Gold.Protein.ActiveResidues>
 VAL166  LYS551  ARG553  GLY616  TRP617  ASP618  TYR619  PRO620  LYS621  CYS622 
 ASP623  PHE694  ASN695  SER759  ASP760  ASP761  ALA762  ILE779  LEU786  VAL792 
 PHE793  MET794  SER795  GLU796  ALA797  LYS798  CYS799  TRP800  GLU811  SER814 

> <Gold.Protein.RotatedAtoms>
  152.1614  134.8909  160.0541 H   0  0  0  0  0  0  0  0  0  0  0  0  # atno 6907 bound_to 6896
  151.9903  133.3784  159.4150 H   0  0  0  0  0  0  0  0  0  0  0  0  # atno 6908 bound_to 6896
  150.6888  134.3866  159.5101 H   0  0  0  0  0  0  0  0  0  0  0  0  # atno 6909 bound_to 6896
  145.4454  140.9560  143.2052 H   0  0  0  0  0  0  0  0  0  0  0  0  # atno 7974 bound_to 7965
  154.4135  140.1199  156.5162 H   0  0  0  0  0  0  0  0  0  0  0  0  # atno 8008 bound_to 7997
  155.6749  140.3496  155.4813 H   0  0  0  0  0  0  0  0  0  0  0  0  # atno 8009 bound_to 7997
  155.9601  140.1121  157.0893 H   0  0  0  0  0  0  0  0  0  0  0  0  # atno 8010 bound_to 7997
  140.1098  143.4538  152.1760 H   0  0  0  0  0  0  0  0  0  0  0  0  # atno 10167 bound_to 10162
  157.5780  131.1077  150.8241 H   0  0  0  0  0  0  0  0  0  0  0  0  # atno 10718 bound_to 10713
  154.5805  135.2836  155.0737 H   0  0  0  0  0  0  0  0  0  0  0  0  # atno 10763 bound_to 10752
  154.2075  135.6414  153.5109 H   0  0  0  0  0  0  0  0  0  0  0  0  # atno 10764 bound_to 10752
  153.0087  135.5483  154.6458 H   0  0  0  0  0  0  0  0  0  0  0  0  # atno 10765 bound_to 10752
  141.1661  133.7266  156.8637 H   0  0  0  0  0  0  0  0  0  0  0  0  # atno 11005 bound_to 11000
  144.8095  139.5989  143.7036 LP  0  0  0  0  0  0  0  0  0  0  0  0  # atno 17320 bound_to 7965
  146.2533  139.6248  142.9412 LP  0  0  0  0  0  0  0  0  0  0  0  0  # atno 17321 bound_to 7965
  139.5625  144.7415  151.4113 LP  0  0  0  0  0  0  0  0  0  0  0  0  # atno 17342 bound_to 10162
  140.6932  143.7812  150.7286 LP  0  0  0  0  0  0  0  0  0  0  0  0  # atno 17343 bound_to 10162
  156.8695  130.5141  149.5298 LP  0  0  0  0  0  0  0  0  0  0  0  0  # atno 17370 bound_to 10713
  156.0825  130.5832  150.9590 LP  0  0  0  0  0  0  0  0  0  0  0  0  # atno 17371 bound_to 10713
  140.1830  134.9019  157.2971 LP  0  0  0  0  0  0  0  0  0  0  0  0  # atno 17394 bound_to 11000
  140.2373  134.3837  155.7495 LP  0  0  0  0  0  0  0  0  0  0  0  0  # atno 17395 bound_to 11000

$$$$
