AV-unprocessed.smi:967|AV-procd|sdf|4286|dock5
  -GOLD-   22720 2193D 1   1.00000     0.00000
 Structure written by MMmdl.
 43 44  0  0  0  0  0  0  0  0  2 V2000
  145.9573  138.1298  151.7127 C   0  0  0  0  0  0  0  0  0  0  0  0
  145.6045  138.2651  153.1177 N   0  0  0  0  0  0  0  0  0  0  0  0
  145.4512  137.0215  153.8579 C   0  0  0  0  0  0  0  0  0  0  0  0
  146.3958  139.2065  153.7903 C   0  0  0  0  0  0  0  0  0  0  0  0
  147.7259  138.9166  154.1588 C   0  0  0  0  0  0  0  0  0  0  0  0
  148.4854  139.8944  154.8334 C   0  0  0  0  0  0  0  0  0  0  0  0
  147.9119  141.1520  155.1220 C   0  0  0  0  0  0  0  0  0  0  0  0
  148.7117  142.1023  155.8126 N   0  0  0  0  0  0  0  0  0  0  0  0
  149.8242  141.8899  156.5370 C   0  0  0  0  0  0  0  0  0  0  0  0
  150.3359  140.7901  156.7449 O   0  0  0  0  0  0  0  0  0  0  0  0
  150.3046  143.0404  157.0301 N   0  0  0  0  0  0  0  0  0  0  0  0
  151.4844  143.1833  157.8793 C   0  0  2  0  0  0  0  0  0  0  0  0
  151.5416  142.0226  158.8896 C   0  0  0  0  0  0  0  0  0  0  0  0
  152.7267  142.1746  159.8594 C   0  0  0  0  0  0  0  0  0  0  0  0
  152.7253  143.5388  160.5750 C   0  0  2  0  0  0  0  0  0  0  0  0
  151.6556  143.6011  161.4979 O   0  0  0  0  0  0  0  0  0  0  0  0
  152.6260  144.7038  159.5719 C   0  0  0  0  0  0  0  0  0  0  0  0
  151.4404  144.5407  158.6046 C   0  0  0  0  0  0  0  0  0  0  0  0
  146.5674  141.3823  154.7400 C   0  0  0  0  0  0  0  0  0  0  0  0
  145.8737  140.4175  154.0976 N   0  3  0  0  0  0  0  0  0  0  0  0
  146.0411  139.1078  151.2364 H   0  0  0  0  0  0  0  0  0  0  0  0
  145.1900  137.5630  151.1847 H   0  0  0  0  0  0  0  0  0  0  0  0
  146.9074  137.6067  151.5974 H   0  0  0  0  0  0  0  0  0  0  0  0
  145.1842  137.2169  154.8971 H   0  0  0  0  0  0  0  0  0  0  0  0
  146.3741  136.4406  153.8415 H   0  0  0  0  0  0  0  0  0  0  0  0
  144.6597  136.4158  153.4160 H   0  0  0  0  0  0  0  0  0  0  0  0
  148.1617  137.9550  153.9290 H   0  0  0  0  0  0  0  0  0  0  0  0
  149.5042  139.6783  155.1207 H   0  0  0  0  0  0  0  0  0  0  0  0
  148.3693  143.0519  155.7972 H   0  0  0  0  0  0  0  0  0  0  0  0
  149.8089  143.8915  156.8082 H   0  0  0  0  0  0  0  0  0  0  0  0
  152.3931  143.1541  157.2753 H   0  0  0  0  0  0  0  0  0  0  0  0
  150.6109  141.9792  159.4573 H   0  0  0  0  0  0  0  0  0  0  0  0
  151.6227  141.0720  158.3609 H   0  0  0  0  0  0  0  0  0  0  0  0
  152.7206  141.3643  160.5894 H   0  0  0  0  0  0  0  0  0  0  0  0
  153.6559  142.0697  159.2979 H   0  0  0  0  0  0  0  0  0  0  0  0
  153.6465  143.6402  161.1496 H   0  0  0  0  0  0  0  0  0  0  0  0
  151.2040  142.7710  161.4907 H   0  0  0  0  0  0  0  0  0  0  0  0
  152.5506  145.6545  160.1011 H   0  0  0  0  0  0  0  0  0  0  0  0
  153.5489  144.7520  158.9924 H   0  0  0  0  0  0  0  0  0  0  0  0
  151.4494  145.3524  157.8762 H   0  0  0  0  0  0  0  0  0  0  0  0
  150.5045  144.6351  159.1577 H   0  0  0  0  0  0  0  0  0  0  0  0
  146.0126  142.2887  154.9298 H   0  0  0  0  0  0  0  0  0  0  0  0
  144.9075  140.6113  153.8338 H   0  0  0  0  0  0  0  0  0  0  0  0
  1  2  1  0  0  0  0
  1 21  1  0  0  0  0
  1 22  1  0  0  0  0
  1 23  1  0  0  0  0
  2  3  1  0  0  0  0
  2  4  1  0  0  0  0
  3 24  1  0  0  0  0
  3 25  1  0  0  0  0
  3 26  1  0  0  0  0
  4 20  1  0  0  0  0
  4  5  2  0  0  0  0
  5  6  1  0  0  0  0
  5 27  1  0  0  0  0
  6  7  2  0  0  0  0
  6 28  1  0  0  0  0
  7  8  1  0  0  0  0
  7 19  1  0  0  0  0
  8  9  1  0  0  0  0
  8 29  1  0  0  0  0
  9 10  2  0  0  0  0
  9 11  1  0  0  0  0
 11 12  1  0  0  0  0
 11 30  1  0  0  0  0
 12 18  1  0  0  0  0
 12 13  1  0  0  0  0
 12 31  1  0  0  0  0
 13 14  1  0  0  0  0
 13 32  1  0  0  0  0
 13 33  1  0  0  0  0
 14 15  1  0  0  0  0
 14 34  1  0  0  0  0
 14 35  1  0  0  0  0
 15 16  1  0  0  0  0
 15 17  1  0  0  0  0
 15 36  1  0  0  0  0
 16 37  1  0  0  0  0
 17 18  1  0  0  0  0
 17 38  1  0  0  0  0
 17 39  1  0  0  0  0
 18 40  1  0  0  0  0
 18 41  1  0  0  0  0
 19 20  2  0  0  0  0
 19 42  1  0  0  0  0
 20 43  1  0  0  0  0
M  CHG  1  20   1
M  END
> <s_m_source_file>
AV-unprocessed.smi

> <i_m_source_file_index>
967

> <i_lp_mmshare_version>
43012

> <i_f3d_flags>
0

> <s_epik_input>
W0NIM11OKFtDSDNdKWMxW2NIXVtjSF1jKFtjSF1uMSlbTkhdQyg9TylbTkhdW0NAQEhdMltDSDJdW0NIMl1bQ0BASF0oW09IXSlbQ0gyXVtDSDJdMg==

> <s_epik_cmdline>
J2VwaWtfcHl0aG9uJywgJy1waCcsICc3LjAnLCAnLXRuJywgJzgnLCAnLW1hJywgJzIwMCcsICctbWV0YWxfYmluZGluZycsICctaW1hZScsICc8aW5maWxlLm1hZT4nLCAnLW9tYWUnLCAnPG91dGZpbGUubWFlPic=

> <r_lp_tautomer_probability>
0.999994

> <r_epik_Ionization_Penalty>
0.251848

> <r_epik_Ionization_Penalty_Charging>
0.251826

> <r_epik_Ionization_Penalty_Neutral>
2.16844e-05

> <r_epik_State_Penalty>
0.243201

> <r_epik_Charging_Adjusted_Penalty>
0.495027

> <i_epik_Tot_Q>
1

> <i_epik_Tot_abs_Q>
1

> <r_epik_Metal_State_Penalty>
0.534113

> <b_epik_Metal_Only>
0

> <s_lp_Force_Field>
OPLS_2005

> <r_lp_Energy>
23.5814

> <b_lp_Chiralities_Consistent>
1

> <s_lp_Variant>
AV-unprocessed.smi:967-2

> <Gold.Version>
5.8.1

> <Gold.Id.Protein>
6NUR|6NUR_protein|mol2

> <Gold.PLP.Fitness>
50.8147

> <Gold.PLP.PLP>
-39.7528

> <Gold.PLP.part.hbond>
-4.6000

> <Gold.PLP.part.metal>
0.0000

> <Gold.PLP.part.buried>
-0.5882

> <Gold.PLP.part.nonpolar>
-36.1310

> <Gold.PLP.part.repulsive>
0.5430

> <Gold.PLP.ligand.clash>
0.0000

> <Gold.PLP.ligand.torsion>
0.5541

> <Gold.PLP.Chemscore.Hbond>
3.9920

> <Gold.PLP.Chemscore.CHOScore>
0.0000

> <Gold.PLP.Chemscore.Metal>
0.0000

> <Gold.Chemscore.Hbonds>
donor molecule, donor type, donor heavy atom, donor atom, acceptor molecule, acceptor atom, score
      L1  H     8    29       P1  8028  0.88
      L1  H    11    30       P1  8028  0.94
      L1  H    20    43       P1 10175  1.79

> <Gold.PLP.Chemscore.Internal.Correction>
0.1941

> <Gold.Rescore>
     Score         DG    S(hbond)    S(metal)    S(lipo)     H(rot)  DE(clash)    DE(int)     intcor
     16.91     -20.82       2.71        0.00      91.61       1.73       0.61       3.30       ----

> <Gold.Chemscore.Fitness>
16.9126

> <Gold.Chemscore.DG>
-20.8219

> <Gold.Chemscore.ZeroCoef>
-5.4800

> <Gold.Chemscore.Hbond>
2.7101

> <Gold.Chemscore.Metal>
0.0000

> <Gold.Chemscore.Lipo>
91.6123

> <Gold.Chemscore.Internal_Hbond>
0.0000

> <Gold.Chemscore.DEClash>
0.6109

> <Gold.Chemscore.DEInternal>
3.2984

> <Gold.Chemscore.Rot>
1.7299

> <Gold.Chemscore.Internal.Correction>
   9.000000E+99

> <Gold.Chemscore.Hbonds>
donor molecule, donor type, donor heavy atom, donor atom, acceptor molecule, acceptor atom, score
      L1  H     8    29       P1  8028  0.83
      L1  H    11    30       P1  8028  0.90
      L1  H    20    43       P1 10175  0.87

> <Gold.Chemscore.Hbond.Weighted>
-9.0518

> <Gold.Chemscore.Metal.Weighted>
-0.0000

> <Gold.Chemscore.Lipo.Weighted>
-10.7186

> <Gold.Chemscore.Internal_Hbond.Weighted>
0.0000

> <Gold.Chemscore.DEClash.Weighted>
0.6109

> <Gold.Chemscore.DEInternal.Weighted>
3.2984

> <Gold.Chemscore.Rot.Weighted>
4.4285

> <Gold.Chemscore.Internal.Correction.Weighted>
   9.000000E+99

> <Gold.Protein.RotatedTorsions>
[ 6907 6896 6895 6894 ] final  132.24 input  -60.11 | X-H torsion
[ 7974 7965 7964 7962 ] final  161.59 input  175.53 | X-H torsion
[ 8008 7997 7996 7995 ] final   -0.79 input   59.86 | X-H torsion
[ 10167 10162 10161 10158 ] final  -32.67 input  -65.29 | X-H torsion
[ 10718 10713 10712 10709 ] final  -41.08 input   66.30 | X-H torsion
[ 10763 10752 10751 10750 ] final  -54.94 input  -60.55 | X-H torsion
[ 11005 11000 10999 10996 ] final  -89.79 input  -57.11 | X-H torsion

> <Gold.Protein.ActiveResidues>
 VAL166  LYS551  ARG553  GLY616  TRP617  ASP618  TYR619  PRO620  LYS621  CYS622 
 ASP623  PHE694  ASN695  SER759  ASP760  ASP761  ALA762  ILE779  LEU786  VAL792 
 PHE793  MET794  SER795  GLU796  ALA797  LYS798  CYS799  TRP800  GLU811  SER814 

> <Gold.Protein.RotatedAtoms>
  152.3344  133.5995  159.5831 H   0  0  0  0  0  0  0  0  0  0  0  0  # atno 6907 bound_to 6896
  150.7441  133.9819  159.3588 H   0  0  0  0  0  0  0  0  0  0  0  0  # atno 6908 bound_to 6896
  151.7690  135.0792  160.0408 H   0  0  0  0  0  0  0  0  0  0  0  0  # atno 6909 bound_to 6896
  144.7678  139.7919  143.6308 H   0  0  0  0  0  0  0  0  0  0  0  0  # atno 7974 bound_to 7965
  154.6541  140.2575  155.7181 H   0  0  0  0  0  0  0  0  0  0  0  0  # atno 8008 bound_to 7997
  156.2588  140.2862  156.0908 H   0  0  0  0  0  0  0  0  0  0  0  0  # atno 8009 bound_to 7997
  155.1407  140.0380  157.2788 H   0  0  0  0  0  0  0  0  0  0  0  0  # atno 8010 bound_to 7997
  140.7217  143.3677  151.1838 H   0  0  0  0  0  0  0  0  0  0  0  0  # atno 10167 bound_to 10162
  156.2743  130.4210  149.8404 H   0  0  0  0  0  0  0  0  0  0  0  0  # atno 10718 bound_to 10713
  154.1829  135.6440  153.5039 H   0  0  0  0  0  0  0  0  0  0  0  0  # atno 10763 bound_to 10752
  153.0054  135.5410  154.6496 H   0  0  0  0  0  0  0  0  0  0  0  0  # atno 10764 bound_to 10752
  154.5864  135.2930  155.0653 H   0  0  0  0  0  0  0  0  0  0  0  0  # atno 10765 bound_to 10752
  141.1578  133.7652  156.9645 H   0  0  0  0  0  0  0  0  0  0  0  0  # atno 11005 bound_to 11000
  146.1800  139.4989  142.9872 LP  0  0  0  0  0  0  0  0  0  0  0  0  # atno 17320 bound_to 7965
  145.6416  141.0283  143.1809 LP  0  0  0  0  0  0  0  0  0  0  0  0  # atno 17321 bound_to 7965
  139.7242  143.9174  152.2997 LP  0  0  0  0  0  0  0  0  0  0  0  0  # atno 17342 bound_to 10162
  139.8942  144.6949  150.8737 LP  0  0  0  0  0  0  0  0  0  0  0  0  # atno 17343 bound_to 10162
  156.5874  130.8492  151.3399 LP  0  0  0  0  0  0  0  0  0  0  0  0  # atno 17370 bound_to 10713
  157.7294  130.9671  150.1786 LP  0  0  0  0  0  0  0  0  0  0  0  0  # atno 17371 bound_to 10713
  140.1171  134.9440  157.2149 LP  0  0  0  0  0  0  0  0  0  0  0  0  # atno 17394 bound_to 11000
  140.3120  134.3013  155.7265 LP  0  0  0  0  0  0  0  0  0  0  0  0  # atno 17395 bound_to 11000

$$$$
