AV-unprocessed.smi:112|AV-procd|sdf|1086|dock4
  -GOLD-   2262018183D 1   1.00000     0.00000
 Structure written by MMmdl.
 54 57  0  0  0  0  0  0  0  0  3 V2000
  151.6960  143.3211  158.7626 C   0  0  0  0  0  0  0  0  0  0  0  0
  151.8484  141.8933  158.2633 C   0  0  0  0  0  0  0  0  0  0  0  0
  151.2723  141.4674  157.1163 C   0  0  0  0  0  0  0  0  0  0  0  0
  151.3919  140.1780  156.6345 N   0  0  0  0  0  0  0  0  0  0  0  0
  150.7261  139.7869  155.3379 C   0  0  1  0  0  0  0  0  0  0  0  0
  149.5716  138.8183  155.5788 C   0  0  0  0  0  0  0  0  0  0  0  0
  148.6741  139.1076  154.3886 C   0  0  2  0  0  0  0  0  0  0  0  0
  148.9833  138.2345  153.3190 O   0  0  0  0  0  0  0  0  0  0  0  0
  149.0236  140.5624  154.0113 C   0  0  1  0  0  0  0  0  0  0  0  0
  147.9168  141.6006  154.2727 C   0  0  0  0  0  0  0  0  0  0  0  0
  148.4217  142.9209  154.2691 O   0  0  0  0  0  0  0  0  0  0  0  0
  150.1822  140.9280  154.7573 O   0  0  0  0  0  0  0  0  0  0  0  0
  152.1332  139.2240  157.3607 C   0  0  0  0  0  0  0  0  0  0  0  0
  152.2463  138.0647  156.9564 O   0  0  0  0  0  0  0  0  0  0  0  0
  152.7390  139.6340  158.5703 N   0  0  0  0  0  0  0  0  0  0  0  0
  153.5159  138.6422  159.3491 C   0  0  0  0  0  0  0  0  0  0  0  0
  155.0082  139.0035  159.5176 C   0  0  0  0  0  0  0  0  0  0  0  0
  155.7302  139.0320  158.5204 O   0  0  0  0  0  0  0  0  0  0  0  0
  155.4566  139.2718  160.7696 N   0  0  0  0  0  0  0  0  0  0  0  0
  154.5961  139.2367  161.9653 C   0  0  0  0  0  0  0  0  0  0  0  0
  155.5004  139.6010  163.1626 C   0  0  0  0  0  0  0  0  0  0  0  0
  156.8393  139.8181  162.5226 C   0  0  0  0  0  0  0  0  0  0  0  0
  158.0320  140.1745  163.1742 C   0  0  0  0  0  0  0  0  0  0  0  0
  159.2104  140.3365  162.4043 C   0  0  0  0  0  0  0  0  0  0  0  0
  160.4822  140.7096  163.0550 N   0  3  0  0  0  0  0  0  0  0  0  0
  160.4906  140.8598  164.2725 O   0  0  0  0  0  0  0  0  0  0  0  0
  161.4753  140.8532  162.3491 O   0  5  0  0  0  0  0  0  0  0  0  0
  159.1502  140.1352  160.9995 C   0  0  0  0  0  0  0  0  0  0  0  0
  157.9423  139.7785  160.3608 C   0  0  0  0  0  0  0  0  0  0  0  0
  156.7806  139.6214  161.1476 C   0  0  0  0  0  0  0  0  0  0  0  0
  152.6440  140.9593  159.0636 C   0  0  0  0  0  0  0  0  0  0  0  0
  153.2113  141.2818  160.1093 O   0  0  0  0  0  0  0  0  0  0  0  0
  151.0823  143.9218  158.0908 H   0  0  0  0  0  0  0  0  0  0  0  0
  152.6710  143.8027  158.8440 H   0  0  0  0  0  0  0  0  0  0  0  0
  151.2238  143.3330  159.7456 H   0  0  0  0  0  0  0  0  0  0  0  0
  150.6840  142.1722  156.5459 H   0  0  0  0  0  0  0  0  0  0  0  0
  151.4847  139.3896  154.6624 H   0  0  0  0  0  0  0  0  0  0  0  0
  149.9208  137.7876  155.6518 H   0  0  0  0  0  0  0  0  0  0  0  0
  149.0578  139.0848  156.5034 H   0  0  0  0  0  0  0  0  0  0  0  0
  147.6210  138.9738  154.6389 H   0  0  0  0  0  0  0  0  0  0  0  0
  149.0900  138.7467  152.5321 H   0  0  0  0  0  0  0  0  0  0  0  0
  149.2952  140.6207  152.9557 H   0  0  0  0  0  0  0  0  0  0  0  0
  147.1218  141.5109  153.5320 H   0  0  0  0  0  0  0  0  0  0  0  0
  147.4661  141.4187  155.2485 H   0  0  0  0  0  0  0  0  0  0  0  0
  148.7269  143.1279  155.1392 H   0  0  0  0  0  0  0  0  0  0  0  0
  153.0670  138.5099  160.3340 H   0  0  0  0  0  0  0  0  0  0  0  0
  153.4453  137.6548  158.8909 H   0  0  0  0  0  0  0  0  0  0  0  0
  153.7811  139.9564  161.8776 H   0  0  0  0  0  0  0  0  0  0  0  0
  154.1646  138.2443  162.1031 H   0  0  0  0  0  0  0  0  0  0  0  0
  155.1655  140.5103  163.6625 H   0  0  0  0  0  0  0  0  0  0  0  0
  155.5528  138.7939  163.8941 H   0  0  0  0  0  0  0  0  0  0  0  0
  158.0348  140.3189  164.2448 H   0  0  0  0  0  0  0  0  0  0  0  0
  160.0363  140.2530  160.3932 H   0  0  0  0  0  0  0  0  0  0  0  0
  157.9398  139.6360  159.2918 H   0  0  0  0  0  0  0  0  0  0  0  0
  1  2  1  0  0  0  0
  1 33  1  0  0  0  0
  1 34  1  0  0  0  0
  1 35  1  0  0  0  0
  2 31  1  0  0  0  0
  2  3  2  0  0  0  0
  3  4  1  0  0  0  0
  3 36  1  0  0  0  0
  4  5  1  0  0  0  0
  4 13  1  0  0  0  0
  5 12  1  0  0  0  0
  5  6  1  0  0  0  0
  5 37  1  0  0  0  0
  6  7  1  0  0  0  0
  6 38  1  0  0  0  0
  6 39  1  0  0  0  0
  7  8  1  0  0  0  0
  7  9  1  0  0  0  0
  7 40  1  0  0  0  0
  8 41  1  0  0  0  0
  9 10  1  0  0  0  0
  9 12  1  0  0  0  0
  9 42  1  0  0  0  0
 10 11  1  0  0  0  0
 10 43  1  0  0  0  0
 10 44  1  0  0  0  0
 11 45  1  0  0  0  0
 13 14  2  0  0  0  0
 13 15  1  0  0  0  0
 15 16  1  0  0  0  0
 15 31  1  0  0  0  0
 16 17  1  0  0  0  0
 16 46  1  0  0  0  0
 16 47  1  0  0  0  0
 17 18  2  0  0  0  0
 17 19  1  0  0  0  0
 19 30  1  0  0  0  0
 19 20  1  0  0  0  0
 20 21  1  0  0  0  0
 20 48  1  0  0  0  0
 20 49  1  0  0  0  0
 21 22  1  0  0  0  0
 21 50  1  0  0  0  0
 21 51  1  0  0  0  0
 22 30  2  0  0  0  0
 22 23  1  0  0  0  0
 23 24  2  0  0  0  0
 23 52  1  0  0  0  0
 24 25  1  0  0  0  0
 24 28  1  0  0  0  0
 25 26  2  0  0  0  0
 25 27  1  0  0  0  0
 28 29  2  0  0  0  0
 28 53  1  0  0  0  0
 29 30  1  0  0  0  0
 29 54  1  0  0  0  0
 31 32  2  0  0  0  0
M  CHG  1  25   1
M  CHG  1  27  -1
M  END
> <s_m_source_file>
AV-unprocessed.smi

> <i_m_source_file_index>
112

> <i_lp_mmshare_version>
43012

> <i_f3d_flags>
0

> <s_epik_input>
W09IXVtDSDJdW0NAQEhdKE8xKVtDQEhdKFtPSF0pW0NIMl1bQ0BIXTFuKFtjSF1jMltDSDNdKWMoPU8pbihjMj1PKVtDSDJdQyg9TylOKFtDSDJdW0NIMl0zKWMoYzM0KVtjSF1bY0hdYyhbY0hdNClbTitdKD1PKVtPLV0=

> <s_epik_cmdline>
J2VwaWtfcHl0aG9uJywgJy1waCcsICc3LjAnLCAnLXRuJywgJzgnLCAnLW1hJywgJzIwMCcsICctbWV0YWxfYmluZGluZycsICctaW1hZScsICc8aW5maWxlLm1hZT4nLCAnLW9tYWUnLCAnPG91dGZpbGUubWFlPic=

> <r_lp_tautomer_probability>
1

> <r_epik_Ionization_Penalty>
2.5696e-07

> <r_epik_Ionization_Penalty_Charging>
1.04886e-08

> <r_epik_Ionization_Penalty_Neutral>
2.46472e-07

> <r_epik_State_Penalty>
-0

> <r_epik_Charging_Adjusted_Penalty>
1.04886e-08

> <i_epik_Tot_Q>
0

> <i_epik_Tot_abs_Q>
2

> <r_epik_Metal_State_Penalty>
-0

> <b_epik_Metal_Only>
0

> <s_epik_Chemistry_Notes>
This compound contains an acetal/aminal-like group ( X-CH(R)-Y where X, Y are N, S, or O) that may be acid/base labile, releasing an aldehyde.

> <s_lp_Force_Field>
OPLS_2005

> <r_lp_Energy>
61.0713

> <b_lp_Chiralities_Consistent>
1

> <s_lp_Variant>
AV-unprocessed.smi:112-4

> <Gold.Version>
5.8.1

> <Gold.Id.Protein>
6NUR|6NUR_protein|mol2

> <Gold.PLP.Fitness>
49.5739

> <Gold.PLP.PLP>
-39.6857

> <Gold.PLP.part.hbond>
-5.9269

> <Gold.PLP.part.metal>
0.0000

> <Gold.PLP.part.buried>
-2.8068

> <Gold.PLP.part.nonpolar>
-31.7920

> <Gold.PLP.part.repulsive>
0.1360

> <Gold.PLP.ligand.clash>
0.0000

> <Gold.PLP.ligand.torsion>
0.2856

> <Gold.PLP.Chemscore.Hbond>
3.4740

> <Gold.PLP.Chemscore.CHOScore>
0.0000

> <Gold.PLP.Chemscore.Metal>
0.0000

> <Gold.Chemscore.Hbonds>
donor molecule, donor type, donor heavy atom, donor atom, acceptor molecule, acceptor atom, score
      L1  H     8    41       P1  7957  1.00
      L1  H    11    45       P1  8028  0.40
      P1  H  7989  7998       L1    12  0.29
      P1  H  7997  8009       L1    18  1.00
      P1  H  8022  8030       L1    11  0.75

> <Gold.PLP.Chemscore.Internal.Correction>
0.0373

> <Gold.Rescore>
     Score         DG    S(hbond)    S(metal)    S(lipo)     H(rot)  DE(clash)    DE(int)     intcor
     12.73     -15.55       2.55        0.00      85.33       3.29       0.30       2.53       ----

> <Gold.Chemscore.Fitness>
12.7280

> <Gold.Chemscore.DG>
-15.5508

> <Gold.Chemscore.ZeroCoef>
-5.4800

> <Gold.Chemscore.Hbond>
2.5491

> <Gold.Chemscore.Metal>
0.0000

> <Gold.Chemscore.Lipo>
85.3270

> <Gold.Chemscore.Internal_Hbond>
0.0000

> <Gold.Chemscore.DEClash>
0.2968

> <Gold.Chemscore.DEInternal>
2.5260

> <Gold.Chemscore.Rot>
3.2916

> <Gold.Chemscore.Internal.Correction>
   9.000000E+99

> <Gold.Chemscore.Hbonds>
donor molecule, donor type, donor heavy atom, donor atom, acceptor molecule, acceptor atom, score
      L1  H     8    41       P1  7957  0.92
      L1  H    11    45       P1  8028  0.40
      P1  H  7997  8009       L1    18  0.89
      P1  H  8022  8030       L1    11  0.09

> <Gold.Chemscore.Hbond.Weighted>
-8.5141

> <Gold.Chemscore.Metal.Weighted>
-0.0000

> <Gold.Chemscore.Lipo.Weighted>
-9.9833

> <Gold.Chemscore.Internal_Hbond.Weighted>
0.0000

> <Gold.Chemscore.DEClash.Weighted>
0.2968

> <Gold.Chemscore.DEInternal.Weighted>
2.5260

> <Gold.Chemscore.Rot.Weighted>
8.4265

> <Gold.Chemscore.Internal.Correction.Weighted>
   9.000000E+99

> <Gold.Protein.RotatedTorsions>
[ 6907 6896 6895 6894 ] final    6.87 input  -60.11 | X-H torsion
[ 7974 7965 7964 7962 ] final  136.03 input  175.53 | X-H torsion
[ 8008 7997 7996 7995 ] final  112.62 input   59.86 | X-H torsion
[ 10167 10162 10161 10158 ] final  -60.81 input  -65.29 | X-H torsion
[ 10718 10713 10712 10709 ] final  145.37 input   66.30 | X-H torsion
[ 10763 10752 10751 10750 ] final  135.88 input  -60.55 | X-H torsion
[ 11005 11000 10999 10996 ] final  174.20 input  -57.11 | X-H torsion

> <Gold.Protein.ActiveResidues>
 VAL166  LYS551  ARG553  GLY616  TRP617  ASP618  TYR619  PRO620  LYS621  CYS622 
 ASP623  PHE694  ASN695  SER759  ASP760  ASP761  ALA762  ILE779  LEU786  VAL792 
 PHE793  MET794  SER795  GLU796  ALA797  LYS798  CYS799  TRP800  GLU811  SER814 

> <Gold.Protein.RotatedAtoms>
  151.6807  135.0962  160.0215 H   0  0  0  0  0  0  0  0  0  0  0  0  # atno 6907 bound_to 6896
  152.3837  133.6577  159.6190 H   0  0  0  0  0  0  0  0  0  0  0  0  # atno 6908 bound_to 6896
  150.7767  133.8988  159.3376 H   0  0  0  0  0  0  0  0  0  0  0  0  # atno 6909 bound_to 6896
  144.9605  139.4716  143.5482 H   0  0  0  0  0  0  0  0  0  0  0  0  # atno 7974 bound_to 7965
  156.2204  140.2996  155.9939 H   0  0  0  0  0  0  0  0  0  0  0  0  # atno 8008 bound_to 7997
  155.2496  140.0425  157.3002 H   0  0  0  0  0  0  0  0  0  0  0  0  # atno 8009 bound_to 7997
  154.5832  140.2381  155.8032 H   0  0  0  0  0  0  0  0  0  0  0  0  # atno 8010 bound_to 7997
  140.6047  143.2370  151.5848 H   0  0  0  0  0  0  0  0  0  0  0  0  # atno 10167 bound_to 10162
  157.3461  131.0943  151.1041 H   0  0  0  0  0  0  0  0  0  0  0  0  # atno 10718 bound_to 10713
  153.8473  135.3084  155.3430 H   0  0  0  0  0  0  0  0  0  0  0  0  # atno 10763 bound_to 10752
  154.7907  135.4784  154.0048 H   0  0  0  0  0  0  0  0  0  0  0  0  # atno 10764 bound_to 10752
  153.1539  135.6848  153.8933 H   0  0  0  0  0  0  0  0  0  0  0  0  # atno 10765 bound_to 10752
  140.3487  134.7214  157.4253 H   0  0  0  0  0  0  0  0  0  0  0  0  # atno 11005 bound_to 11000
  146.3351  139.8751  142.8833 LP  0  0  0  0  0  0  0  0  0  0  0  0  # atno 17320 bound_to 7965
  145.2707  141.0108  143.3773 LP  0  0  0  0  0  0  0  0  0  0  0  0  # atno 17321 bound_to 7965
  139.5316  144.2899  152.1160 LP  0  0  0  0  0  0  0  0  0  0  0  0  # atno 17342 bound_to 10162
  140.2087  144.4585  150.6396 LP  0  0  0  0  0  0  0  0  0  0  0  0  # atno 17343 bound_to 10162
  157.2234  130.6492  149.5820 LP  0  0  0  0  0  0  0  0  0  0  0  0  # atno 17370 bound_to 10713
  155.9714  130.4622  150.6136 LP  0  0  0  0  0  0  0  0  0  0  0  0  # atno 17371 bound_to 10713
  140.0721  134.5848  155.8631 LP  0  0  0  0  0  0  0  0  0  0  0  0  # atno 17394 bound_to 11000
  141.2018  133.6621  156.5972 LP  0  0  0  0  0  0  0  0  0  0  0  0  # atno 17395 bound_to 11000

$$$$
