AV-unprocessed.smi:157|AV-procd|sdf|1312|dock6
  -GOLD-   2262019 03D 1   1.00000     0.00000
 Structure written by MMmdl.
 36 38  0  0  0  0  0  0  0  0  2 V2000
  142.7528  132.2411  148.8352 O   0  0  0  0  0  0  0  0  0  0  0  0
  144.0471  131.9814  149.3354 C   0  0  0  0  0  0  0  0  0  0  0  0
  144.3463  132.8930  150.5385 C   0  0  2  0  0  0  0  0  0  0  0  0
  144.3736  134.2640  150.1489 O   0  0  0  0  0  0  0  0  0  0  0  0
  145.3028  134.9696  150.9184 C   0  0  1  0  0  0  0  0  0  0  0  0
  144.5950  136.0913  151.6065 N   0  0  0  0  0  0  0  0  0  0  0  0
  144.9744  137.3866  151.6186 C   0  0  0  0  0  0  0  0  0  0  0  0
  144.1690  138.1839  152.2997 N   0  3  0  0  0  0  0  0  0  0  0  0
  143.1583  137.3876  152.7953 C   0  0  0  0  0  0  0  0  0  0  0  0
  143.4332  136.0940  152.3439 C   0  0  0  0  0  0  0  0  0  0  0  0
  142.7209  134.9013  152.5432 N   0  0  0  0  0  0  0  0  0  0  0  0
  141.5012  134.8722  152.9727 C   0  0  0  0  0  0  0  0  0  0  0  0
  140.6985  135.9182  153.3965 N   0  0  0  0  0  0  0  0  0  0  0  0
  141.1575  136.9546  154.3040 C   0  0  0  0  0  0  0  0  0  0  0  0
  142.0798  137.9872  153.6428 C   0  0  2  0  0  0  0  0  0  0  0  0
  141.2846  138.9149  152.9336 O   0  0  0  0  0  0  0  0  0  0  0  0
  145.8866  133.9990  151.9484 C   0  0  0  0  0  0  0  0  0  0  0  0
  145.6762  132.6611  151.2711 C   0  0  2  0  0  0  0  0  0  0  0  0
  146.7414  132.3761  150.3842 O   0  0  0  0  0  0  0  0  0  0  0  0
  143.5361  132.7998  151.2642 H   0  0  0  0  0  0  0  0  0  0  0  0
  146.0507  135.4315  150.2732 H   0  0  0  0  0  0  0  0  0  0  0  0
  142.5633  138.5545  154.4389 H   0  0  0  0  0  0  0  0  0  0  0  0
  145.6025  131.8478  151.9939 H   0  0  0  0  0  0  0  0  0  0  0  0
  142.2198  131.4717  148.9673 H   0  0  0  0  0  0  0  0  0  0  0  0
  144.1375  130.9271  149.5978 H   0  0  0  0  0  0  0  0  0  0  0  0
  144.7661  132.1714  148.5382 H   0  0  0  0  0  0  0  0  0  0  0  0
  145.8590  137.7346  151.1160 H   0  0  0  0  0  0  0  0  0  0  0  0
  140.9873  133.9120  153.0363 H   0  0  0  0  0  0  0  0  0  0  0  0
  139.7055  135.7576  153.4907 H   0  0  0  0  0  0  0  0  0  0  0  0
  140.2990  137.4423  154.7674 H   0  0  0  0  0  0  0  0  0  0  0  0
  141.6997  136.4632  155.1134 H   0  0  0  0  0  0  0  0  0  0  0  0
  141.8499  139.5598  152.5373 H   0  0  0  0  0  0  0  0  0  0  0  0
  146.9271  134.2350  152.1756 H   0  0  0  0  0  0  0  0  0  0  0  0
  145.3055  134.0431  152.8711 H   0  0  0  0  0  0  0  0  0  0  0  0
  147.2094  131.6225  150.7109 H   0  0  0  0  0  0  0  0  0  0  0  0
  144.2820  139.1809  152.4330 H   0  0  0  0  0  0  0  0  0  0  0  0
  1  2  1  0  0  0  0
  1 24  1  0  0  0  0
  2  3  1  0  0  0  0
  2 25  1  0  0  0  0
  2 26  1  0  0  0  0
  3 20  1  0  0  0  0
  3 18  1  0  0  0  0
  3  4  1  0  0  0  0
  4  5  1  0  0  0  0
  5 21  1  0  0  0  0
  5  6  1  0  0  0  0
  5 17  1  0  0  0  0
  6 10  1  0  0  0  0
  6  7  1  0  0  0  0
  7  8  2  0  0  0  0
  7 27  1  0  0  0  0
  8  9  1  0  0  0  0
  8 36  1  0  0  0  0
  9 15  1  0  0  0  0
  9 10  2  0  0  0  0
 10 11  1  0  0  0  0
 11 12  2  0  0  0  0
 12 13  1  0  0  0  0
 12 28  1  0  0  0  0
 13 14  1  0  0  0  0
 13 29  1  0  0  0  0
 14 15  1  0  0  0  0
 14 30  1  0  0  0  0
 14 31  1  0  0  0  0
 15 22  1  0  0  0  0
 15 16  1  0  0  0  0
 16 32  1  0  0  0  0
 17 18  1  0  0  0  0
 17 33  1  0  0  0  0
 17 34  1  0  0  0  0
 18 23  1  0  0  0  0
 18 19  1  0  0  0  0
 19 35  1  0  0  0  0
M  CHG  1   8   1
M  END
> <s_m_source_file>
AV-unprocessed.smi

> <i_m_source_file_index>
157

> <i_lp_mmshare_version>
43012

> <i_f3d_flags>
0

> <s_epik_input>
W09IXVtDSDJdW0NASF0xT1tDQEhdKFtDSDJdW0NAQEhdMVtPSF0pbihbY0hdbjIpYyhjMjMpTj1bQ0hdW05IXVtDSDJdW0NASF0zW09IXQ==

> <s_epik_cmdline>
J2VwaWtfcHl0aG9uJywgJy1waCcsICc3LjAnLCAnLXRuJywgJzgnLCAnLW1hJywgJzIwMCcsICctbWV0YWxfYmluZGluZycsICctaW1hZScsICc8aW5maWxlLm1hZT4nLCAnLW9tYWUnLCAnPG91dGZpbGUubWFlPic=

> <r_epik_Ionization_Penalty>
1.68594

> <r_epik_Ionization_Penalty_Charging>
0

> <r_epik_Ionization_Penalty_Neutral>
1.68594

> <r_epik_State_Penalty>
1.79006

> <r_epik_Charging_Adjusted_Penalty>
1.79006

> <i_epik_Tot_Q>
1

> <i_epik_Tot_abs_Q>
1

> <r_epik_Metal_State_Penalty>
5.85324

> <b_epik_Metal_Only>
0

> <s_epik_Chemistry_Notes>
This compound has an imine and may undergo hydrolysis. This compound contains an acetal/aminal-like group ( X-CH(R)-Y where X, Y are N, S, or O) that may be acid/base labile, releasing an aldehyde.

> <s_lp_Force_Field>
OPLS_2005

> <r_lp_Energy>
55.0153

> <b_lp_Chiralities_Consistent>
1

> <s_lp_Variant>
AV-unprocessed.smi:157-22

> <Gold.Version>
5.8.1

> <Gold.Id.Protein>
6NUR|6NUR_protein|mol2

> <Gold.PLP.Fitness>
49.0113

> <Gold.PLP.PLP>
-34.0571

> <Gold.PLP.part.hbond>
-7.3572

> <Gold.PLP.part.metal>
0.0000

> <Gold.PLP.part.buried>
-2.4869

> <Gold.PLP.part.nonpolar>
-25.7875

> <Gold.PLP.part.repulsive>
0.6874

> <Gold.PLP.ligand.clash>
0.0000

> <Gold.PLP.ligand.torsion>
0.1706

> <Gold.PLP.Chemscore.Hbond>
4.7200

> <Gold.PLP.Chemscore.CHOScore>
0.3763

> <Gold.PLP.Chemscore.Metal>
0.0000

> <Gold.Chemscore.Hbonds>
donor molecule, donor type, donor heavy atom, donor atom, acceptor molecule, acceptor atom, score
      L1  H     1    24       P1 10952  1.00
      L1  H     8    36       P1 10175  1.27
      L1  H    16    32       P1 10175  1.00
      L1  H    19    35       P1 10747  0.64

> <Gold.PLP.Chemscore.Internal.Correction>
0.0063

> <Gold.Rescore>
     Score         DG    S(hbond)    S(metal)    S(lipo)     H(rot)  DE(clash)    DE(int)     intcor
     10.48     -12.21       3.41        0.00      40.48       3.67       1.72       0.00       ----

> <Gold.Chemscore.Fitness>
10.4830

> <Gold.Chemscore.DG>
-12.2067

> <Gold.Chemscore.ZeroCoef>
-5.4800

> <Gold.Chemscore.Hbond>
3.4057

> <Gold.Chemscore.Metal>
0.0000

> <Gold.Chemscore.Lipo>
40.4830

> <Gold.Chemscore.Internal_Hbond>
0.0000

> <Gold.Chemscore.DEClash>
1.7187

> <Gold.Chemscore.DEInternal>
0.0050

> <Gold.Chemscore.Rot>
3.6659

> <Gold.Chemscore.Internal.Correction>
   9.000000E+99

> <Gold.Chemscore.Hbonds>
donor molecule, donor type, donor heavy atom, donor atom, acceptor molecule, acceptor atom, score
      L1  H     1    24       P1 10952  1.00
      L1  H     8    36       P1 10175  0.62
      L1  H    16    32       P1 10175  0.24
      L1  H    19    35       P1 10747  0.63

> <Gold.Chemscore.Hbond.Weighted>
-11.3750

> <Gold.Chemscore.Metal.Weighted>
-0.0000

> <Gold.Chemscore.Lipo.Weighted>
-4.7365

> <Gold.Chemscore.Internal_Hbond.Weighted>
0.0000

> <Gold.Chemscore.DEClash.Weighted>
1.7187

> <Gold.Chemscore.DEInternal.Weighted>
0.0050

> <Gold.Chemscore.Rot.Weighted>
9.3848

> <Gold.Chemscore.Internal.Correction.Weighted>
   9.000000E+99

> <Gold.Protein.RotatedTorsions>
[ 6907 6896 6895 6894 ] final   16.63 input  -60.11 | X-H torsion
[ 7974 7965 7964 7962 ] final -176.94 input  175.53 | X-H torsion
[ 8008 7997 7996 7995 ] final  168.02 input   59.86 | X-H torsion
[ 10167 10162 10161 10158 ] final  102.45 input  -65.29 | X-H torsion
[ 10718 10713 10712 10709 ] final   84.90 input   66.30 | X-H torsion
[ 10763 10752 10751 10750 ] final  168.25 input  -60.55 | X-H torsion
[ 11005 11000 10999 10996 ] final  -55.51 input  -57.11 | X-H torsion

> <Gold.Protein.ActiveResidues>
 VAL166  LYS551  ARG553  GLY616  TRP617  ASP618  TYR619  PRO620  LYS621  CYS622 
 ASP623  PHE694  ASN695  SER759  ASP760  ASP761  ALA762  ILE779  LEU786  VAL792 
 PHE793  MET794  SER795  GLU796  ALA797  LYS798  CYS799  TRP800  GLU811  SER814 

> <Gold.Protein.RotatedAtoms>
  151.8370  135.0603  160.0443 H   0  0  0  0  0  0  0  0  0  0  0  0  # atno 6907 bound_to 6896
  152.2838  133.5491  159.5522 H   0  0  0  0  0  0  0  0  0  0  0  0  # atno 6908 bound_to 6896
  150.7200  134.0443  159.3818 H   0  0  0  0  0  0  0  0  0  0  0  0  # atno 6909 bound_to 6896
  144.7127  140.1095  143.6412 H   0  0  0  0  0  0  0  0  0  0  0  0  # atno 7974 bound_to 7965
  156.1583  140.1601  156.8654 H   0  0  0  0  0  0  0  0  0  0  0  0  # atno 8008 bound_to 7997
  154.5136  140.0795  156.8074 H   0  0  0  0  0  0  0  0  0  0  0  0  # atno 8009 bound_to 7997
  155.3758  140.3402  155.4247 H   0  0  0  0  0  0  0  0  0  0  0  0  # atno 8010 bound_to 7997
  139.7349  144.7026  151.0665 H   0  0  0  0  0  0  0  0  0  0  0  0  # atno 10167 bound_to 10162
  157.6906  131.0152  150.2742 H   0  0  0  0  0  0  0  0  0  0  0  0  # atno 10718 bound_to 10713
  154.3659  135.2753  155.2294 H   0  0  0  0  0  0  0  0  0  0  0  0  # atno 10763 bound_to 10752
  154.4462  135.5942  153.6165 H   0  0  0  0  0  0  0  0  0  0  0  0  # atno 10764 bound_to 10752
  152.9841  135.6031  154.3884 H   0  0  0  0  0  0  0  0  0  0  0  0  # atno 10765 bound_to 10752
  141.1077  133.6612  156.4481 H   0  0  0  0  0  0  0  0  0  0  0  0  # atno 11005 bound_to 11000
  145.9467  139.2705  143.1236 LP  0  0  0  0  0  0  0  0  0  0  0  0  # atno 17320 bound_to 7965
  145.9366  140.9010  143.0329 LP  0  0  0  0  0  0  0  0  0  0  0  0  # atno 17321 bound_to 7965
  140.7777  143.4997  150.9787 LP  0  0  0  0  0  0  0  0  0  0  0  0  # atno 17342 bound_to 10162
  139.8685  143.7223  152.3168 LP  0  0  0  0  0  0  0  0  0  0  0  0  # atno 17343 bound_to 10162
  156.3300  130.3799  149.7500 LP  0  0  0  0  0  0  0  0  0  0  0  0  # atno 17370 bound_to 10713
  156.5042  130.8143  151.3144 LP  0  0  0  0  0  0  0  0  0  0  0  0  # atno 17371 bound_to 10713
  140.4858  134.6622  157.5190 LP  0  0  0  0  0  0  0  0  0  0  0  0  # atno 17394 bound_to 11000
  139.9955  134.6918  155.9617 LP  0  0  0  0  0  0  0  0  0  0  0  0  # atno 17395 bound_to 11000

$$$$
