#       Name:                AV-unprocessed.smi:2124
#       Creating user name   scv26
#       Creation time:       Fri Mar 27 11:40:31 2020


#       File generated by GOLD software.
#

@<TRIPOS>MOLECULE
AV-unprocessed.smi:2124
    52    54     1
SMALL
NO_CHARGES


@<TRIPOS>ATOM
      1 ****        -2.7682   3.8310   1.0144 C.3            1 S1                 0.0000
      2 ****        -2.5792   2.5975   0.1572 C.2            1 S1                 0.0000
      3 ****        -1.9728   2.5988  -0.9838 N.2            1 S1                 0.0000
      4 ****        -1.8515   1.3907  -1.6840 C.2            1 S1                 0.0000
      5 ****        -1.1031   1.4725  -3.0033 C.3            1 S1                 0.0000
      6 ****        -2.3622   0.2235  -1.1926 C.2            1 S1                 0.0000
      7 ****        -2.2071  -1.1177  -1.9114 C.3            1 S1                 0.0000
      8 ****        -0.8374  -1.7745  -1.7390 C.2            1 S1                 0.0000
      9 ****        -0.1700  -2.0868  -2.7244 O.2            1 S1                 0.0000
     10 ****        -0.4190  -1.9316  -0.4744 N.am           1 S1                 0.0000
     11 ****         0.9387  -2.2661  -0.0598 C.3            1 S1                 0.0000
     12 ****         1.0307  -3.7687   0.2477 C.3            1 S1                 0.0000
     13 ****         1.3259  -1.3908   1.1559 C.3            1 S1                 0.0000
     14 ****         2.8276  -1.4117   1.5176 C.3            1 S1                 0.0000
     15 ****         3.1784   0.0847   1.6241 C.3            1 S1                 0.0000
     16 ****         3.2279   0.6942   0.2106 C.3            1 S1                 0.0000
     17 ****         1.7417   0.7496  -0.1866 C.3            1 S1                 0.0000
     18 ****         1.0393   0.1295   1.0385 C.3            1 S1                 0.0000
     19 ****         1.8892   0.6805   2.1780 C.3            1 S1                 0.0000
     20 ****        -3.0588   0.2357   0.1087 C.2            1 S1                 0.0000
     21 ****        -3.5456  -0.7566   0.6481 O.2            1 S1                 0.0000
     22 ****        -3.1236   1.4421   0.7147 N.am           1 S1                 0.0000
     23 ****        -3.5863   1.5017   1.6102 H              1 S1                 0.0000
     24 ****        -1.7997   4.2602   1.2717 H              1 S1                 0.0000
     25 ****        -3.2967   3.6016   1.9407 H              1 S1                 0.0000
     26 ****        -3.3423   4.5814   0.4705 H              1 S1                 0.0000
     27 ****        -0.2102   0.8479  -2.9788 H              1 S1                 0.0000
     28 ****        -0.7869   2.4943  -3.2163 H              1 S1                 0.0000
     29 ****        -1.7370   1.1422  -3.8262 H              1 S1                 0.0000
     30 ****        -2.9732  -1.8243  -1.5901 H              1 S1                 0.0000
     31 ****        -2.3923  -0.9704  -2.9758 H              1 S1                 0.0000
     32 ****        -1.0597  -1.6718   0.2617 H              1 S1                 0.0000
     33 ****         1.6304  -2.0496  -0.8755 H              1 S1                 0.0000
     34 ****         2.0413  -4.0506   0.5433 H              1 S1                 0.0000
     35 ****         0.7683  -4.3644  -0.6272 H              1 S1                 0.0000
     36 ****         0.3564  -4.0513   1.0568 H              1 S1                 0.0000
     37 ****         0.7642  -1.7550   2.0183 H              1 S1                 0.0000
     38 ****         2.9827  -1.9185   2.4708 H              1 S1                 0.0000
     39 ****         3.4409  -1.9182   0.7715 H              1 S1                 0.0000
     40 ****         4.0717   0.2829   2.2167 H              1 S1                 0.0000
     41 ****         3.6559   1.6970   0.2326 H              1 S1                 0.0000
     42 ****         3.8203   0.0920  -0.4792 H              1 S1                 0.0000
     43 ****         1.4237   1.7841  -0.3232 H              1 S1                 0.0000
     44 ****         1.5339   0.2237  -1.1176 H              1 S1                 0.0000
     45 ****        -0.0192   0.3832   1.1060 H              1 S1                 0.0000
     46 ****         1.6141   0.2848   3.1572 H              1 S1                 0.0000
     47 ****         1.8999   1.7711   2.2236 H              1 S1                 0.0000
     48 ****        -1.5972   3.4457  -1.3601 LP             1 S1                 0.0000
     49 ****        -0.5230  -1.9112  -3.6434 LP             1 S1                 0.0000
     50 ****         0.7253  -2.5162  -2.6062 LP             1 S1                 0.0000
     51 ****        -3.4833  -1.6494   0.2020 LP             1 S1                 0.0000
     52 ****        -4.0038  -0.6706   1.5328 LP             1 S1                 0.0000
@<TRIPOS>BOND
    1    1    2 1     
    2    1   24 1     
    3    1   25 1     
    4    1   26 1     
    5    2   22 1     
    6    2    3 2     
    7    3    4 1     
    8    4    5 1     
    9    4    6 2     
   10    5   27 1     
   11    5   28 1     
   12    5   29 1     
   13    6    7 1     
   14    6   20 1     
   15    7    8 1     
   16    7   30 1     
   17    7   31 1     
   18    8    9 2     
   19    8   10 am    
   20   10   11 1     
   21   10   32 1     
   22   11   12 1     
   23   11   13 1     
   24   11   33 1     
   25   12   34 1     
   26   12   35 1     
   27   12   36 1     
   28   13   18 1     
   29   13   14 1     
   30   13   37 1     
   31   14   15 1     
   32   14   38 1     
   33   14   39 1     
   34   15   19 1     
   35   15   16 1     
   36   15   40 1     
   37   16   17 1     
   38   16   41 1     
   39   16   42 1     
   40   17   18 1     
   41   17   43 1     
   42   17   44 1     
   43   18   19 1     
   44   18   45 1     
   45   19   46 1     
   46   19   47 1     
   47   20   21 2     
   48   20   22 am    
   49   22   23 1     
   50    3   48 1     
   51    9   49 1     
   52    9   50 1     
   53   21   51 1     
   54   21   52 1     
@<TRIPOS>SUBSTRUCTURE
      1 S1             1
@<TRIPOS>SET
LONE_PAIRS      STATIC     ATOMS    <user>   **** ""
5 48 49 50 51 52
DONOR_HYDROGENS      STATIC     ATOMS    <user>   **** ""
2 32 23
ATOM$BLUE        STATIC     ATOMS    COLORGROUP SYSTEM
5 48 49 50 51 52
ATOM$RED        STATIC     ATOMS    COLORGROUP SYSTEM
2 32 23
