#       Name:                AV-unprocessed.smi:601
#       Creating user name   scv26
#       Creation time:       Thu Mar 26 23:54:51 2020


#       File generated by GOLD software.
#

@<TRIPOS>MOLECULE
AV-unprocessed.smi:601
    58    59     1
SMALL
NO_CHARGES


@<TRIPOS>ATOM
      1 ****        -4.0320  -3.2106  -0.5697 C.3            1 S1                 0.0000
      2 ****        -2.6753  -3.2873  -1.2827 C.3            1 S1                 0.0000
      3 ****        -1.9994  -1.9202  -1.4737 C.3            1 S1                 0.0000
      4 ****        -1.4881  -1.2944  -0.1613 C.3            1 S1                 0.0000
      5 ****        -0.8342   0.0031  -0.3900 N.am           1 S1                 0.0000
      6 ****        -1.5672   1.1406  -0.5218 C.2            1 S1                 0.0000
      7 ****        -2.8000   1.1171  -0.5458 O.2            1 S1                 0.0000
      8 ****        -0.8433   2.5105  -0.6007 C.3            1 S1                 0.0000
      9 ****        -1.7570   3.7312  -0.4264 C.3            1 S1                 0.0000
     10 ****        -2.2808   4.0214  -1.8279 C.3            1 S1                 0.0000
     11 ****        -1.3730   3.2015  -2.7492 C.3            1 S1                 0.0000
     12 ****        -0.3282   2.7245  -1.9095 O.3            1 S1                 0.0000
     13 ****         0.5727   0.0098  -0.4002 C.2            1 S1                 0.0000
     14 ****         1.2999  -0.0097   0.7480 C.2            1 S1                 0.0000
     15 ****         0.6727  -0.0103   1.9860 N.pl3          1 S1                 0.0000
     16 ****         2.7192  -0.0278   0.6889 N.am           1 S1                 0.0000
     17 ****         3.4919  -0.0131   1.9493 C.3            1 S1                 0.0000
     18 ****         3.7425  -1.4380   2.4725 C.3            1 S1                 0.0000
     19 ****         4.5214  -1.4485   3.7919 C.3            1 S1                 0.0000
     20 ****         3.3681  -0.0811  -0.5150 C.2            1 S1                 0.0000
     21 ****         4.5986  -0.1373  -0.5350 O.2            1 S1                 0.0000
     22 ****         2.6339  -0.0743  -1.6644 N.pl3          1 S1                -1.0000
     23 ****         1.2755  -0.0320  -1.6879 C.2            1 S1                 0.0000
     24 ****         0.6384  -0.0366  -2.7416 O.2            1 S1                 0.0000
     25 ****        -4.4987  -4.1947  -0.5230 H              1 S1                 0.0000
     26 ****        -4.7162  -2.5443  -1.0958 H              1 S1                 0.0000
     27 ****        -3.9295  -2.8483   0.4529 H              1 S1                 0.0000
     28 ****        -2.0088  -3.9586  -0.7401 H              1 S1                 0.0000
     29 ****        -2.8268  -3.7399  -2.2631 H              1 S1                 0.0000
     30 ****        -1.1556  -2.0470  -2.1526 H              1 S1                 0.0000
     31 ****        -2.6894  -1.2417  -1.9764 H              1 S1                 0.0000
     32 ****        -2.3027  -1.1748   0.5542 H              1 S1                 0.0000
     33 ****        -0.7862  -1.9836   0.3111 H              1 S1                 0.0000
     34 ****        -0.0384   2.5453   0.1339 H              1 S1                 0.0000
     35 ****        -2.5568   3.5806   0.2998 H              1 S1                 0.0000
     36 ****        -1.1631   4.5768  -0.0776 H              1 S1                 0.0000
     37 ****        -3.3196   3.7083  -1.9377 H              1 S1                 0.0000
     38 ****        -2.2264   5.0873  -2.0509 H              1 S1                 0.0000
     39 ****        -1.9146   2.3550  -3.1737 H              1 S1                 0.0000
     40 ****        -0.9702   3.7914  -3.5723 H              1 S1                 0.0000
     41 ****        -0.3332   0.0036   2.0729 H              1 S1                 0.0000
     42 ****         1.1953  -0.1142   2.8437 H              1 S1                 0.0000
     43 ****         4.4465   0.4993   1.8191 H              1 S1                 0.0000
     44 ****         2.9880   0.5830   2.7101 H              1 S1                 0.0000
     45 ****         2.7919  -1.9532   2.6141 H              1 S1                 0.0000
     46 ****         4.2940  -2.0109   1.7261 H              1 S1                 0.0000
     47 ****         4.6947  -2.4691   4.1335 H              1 S1                 0.0000
     48 ****         3.9739  -0.9231   4.5749 H              1 S1                 0.0000
     49 ****         5.4925  -0.9659   3.6790 H              1 S1                 0.0000
     50 ****        -3.2851   0.2462  -0.4673 LP             1 S1                 0.0000
     51 ****        -3.3146   1.9690  -0.6437 LP             1 S1                 0.0000
     52 ****         0.0278   1.8640  -2.2740 LP             1 S1                 0.0000
     53 ****         0.4074   3.4009  -1.8733 LP             1 S1                 0.0000
     54 ****         5.1128  -0.1436   0.3227 LP             1 S1                 0.0000
     55 ****         5.0832  -0.1766  -1.4088 LP             1 S1                 0.0000
     56 ****         3.1213  -0.1019  -2.5371 LP             1 S1                 0.0000
     57 ****        -0.3611  -0.0118  -2.7216 LP             1 S1                 0.0000
     58 ****         1.1205  -0.0651  -3.6172 LP             1 S1                 0.0000
@<TRIPOS>BOND
    1    1    2 1     
    2    1   25 1     
    3    1   26 1     
    4    1   27 1     
    5    2    3 1     
    6    2   28 1     
    7    2   29 1     
    8    3    4 1     
    9    3   30 1     
   10    3   31 1     
   11    4    5 1     
   12    4   32 1     
   13    4   33 1     
   14    5    6 am    
   15    5   13 1     
   16    6    7 2     
   17    6    8 1     
   18    8   12 1     
   19    8    9 1     
   20    8   34 1     
   21    9   10 1     
   22    9   35 1     
   23    9   36 1     
   24   10   11 1     
   25   10   37 1     
   26   10   38 1     
   27   11   12 1     
   28   11   39 1     
   29   11   40 1     
   30   13   23 1     
   31   13   14 2     
   32   14   15 1     
   33   14   16 1     
   34   15   41 1     
   35   15   42 1     
   36   16   17 1     
   37   16   20 am    
   38   17   18 1     
   39   17   43 1     
   40   17   44 1     
   41   18   19 1     
   42   18   45 1     
   43   18   46 1     
   44   19   47 1     
   45   19   48 1     
   46   19   49 1     
   47   20   21 2     
   48   20   22 1     
   49   22   23 1     
   50   23   24 2     
   51    7   50 1     
   52    7   51 1     
   53   12   52 1     
   54   12   53 1     
   55   21   54 1     
   56   21   55 1     
   57   22   56 1     
   58   24   57 1     
   59   24   58 1     
@<TRIPOS>SUBSTRUCTURE
      1 S1             1
@<TRIPOS>SET
LONE_PAIRS      STATIC     ATOMS    <user>   **** ""
9 50 51 52 53 54 55 56 57 58
DONOR_HYDROGENS      STATIC     ATOMS    <user>   **** ""
2 41 42
ATOM$BLUE        STATIC     ATOMS    COLORGROUP SYSTEM
9 50 51 52 53 54 55 56 57 58
ATOM$RED        STATIC     ATOMS    COLORGROUP SYSTEM
2 41 42
