AV-unprocessed.smi:3216|AV-procd|sdf|12287|dock8
  -GOLD-   2272018123D 1   1.00000     0.00000
 Structure written by MMmdl.
 37 37  0  0  0  0  0  0  0  0  2 V2000
  144.3857  135.0195  150.6393 C   0  0  0  0  0  0  0  0  0  0  0  0
  143.6266  135.3297  151.9411 C   0  0  0  0  0  0  0  0  0  0  0  0
  142.3552  134.4744  152.0442 C   0  0  0  0  0  0  0  0  0  0  0  0
  143.2882  136.8293  152.0804 C   0  0  0  0  0  0  0  0  0  0  0  0
  144.4067  137.6934  151.7145 N   0  0  0  0  0  0  0  0  0  0  0  0
  145.6011  137.7074  152.3250 C   0  0  0  0  0  0  0  0  0  0  0  0
  145.8830  136.9754  153.2747 O   0  0  0  0  0  0  0  0  0  0  0  0
  146.6301  138.6913  151.7655 C   0  0  0  0  0  0  0  0  0  0  0  0
  147.9210  138.6161  152.4799 N   0  3  0  0  0  0  0  0  0  0  0  0
  147.8726  139.1208  153.8651 C   0  0  0  0  0  0  0  0  0  0  0  0
  148.2118  140.6177  153.9186 C   0  0  0  0  0  0  0  0  0  0  0  0
  149.1175  140.9267  155.0083 N   0  0  0  0  0  0  0  0  0  0  0  0
  148.9569  141.8452  156.0244 C   0  0  0  0  0  0  0  0  0  0  0  0
  150.0740  141.7835  156.8073 C   0  0  0  0  0  0  0  0  0  0  0  0
  150.8737  140.7886  156.1783 C   0  0  0  0  0  0  0  0  0  0  0  0
  150.2991  140.2791  155.1004 N   0  0  0  0  0  0  0  0  0  0  0  0
  143.7962  135.2926  149.7635 H   0  0  0  0  0  0  0  0  0  0  0  0
  144.6163  133.9564  150.5647 H   0  0  0  0  0  0  0  0  0  0  0  0
  145.3314  135.5591  150.5864 H   0  0  0  0  0  0  0  0  0  0  0  0
  144.2714  135.0471  152.7744 H   0  0  0  0  0  0  0  0  0  0  0  0
  141.6516  134.7114  151.2454 H   0  0  0  0  0  0  0  0  0  0  0  0
  141.8471  134.6385  152.9950 H   0  0  0  0  0  0  0  0  0  0  0  0
  142.5891  133.4114  151.9776 H   0  0  0  0  0  0  0  0  0  0  0  0
  142.4440  137.0801  151.4372 H   0  0  0  0  0  0  0  0  0  0  0  0
  142.9698  137.0541  153.1000 H   0  0  0  0  0  0  0  0  0  0  0  0
  144.2583  138.3228  150.9385 H   0  0  0  0  0  0  0  0  0  0  0  0
  146.7857  138.4738  150.7080 H   0  0  0  0  0  0  0  0  0  0  0  0
  146.2359  139.7060  151.8376 H   0  0  0  0  0  0  0  0  0  0  0  0
  148.2186  137.6511  152.4966 H   0  0  0  0  0  0  0  0  0  0  0  0
  146.8768  138.9487  154.2763 H   0  0  0  0  0  0  0  0  0  0  0  0
  148.5770  138.5525  154.4744 H   0  0  0  0  0  0  0  0  0  0  0  0
  148.6729  140.9407  152.9839 H   0  0  0  0  0  0  0  0  0  0  0  0
  147.3034  141.2084  154.0451 H   0  0  0  0  0  0  0  0  0  0  0  0
  148.0719  142.4589  156.1062 H   0  0  0  0  0  0  0  0  0  0  0  0
  150.2890  142.3626  157.6931 H   0  0  0  0  0  0  0  0  0  0  0  0
  151.8479  140.4248  156.4706 H   0  0  0  0  0  0  0  0  0  0  0  0
  148.6024  139.1522  151.9613 H   0  0  0  0  0  0  0  0  0  0  0  0
  1  2  1  0  0  0  0
  1 17  1  0  0  0  0
  1 18  1  0  0  0  0
  1 19  1  0  0  0  0
  2  3  1  0  0  0  0
  2  4  1  0  0  0  0
  2 20  1  0  0  0  0
  3 21  1  0  0  0  0
  3 22  1  0  0  0  0
  3 23  1  0  0  0  0
  4  5  1  0  0  0  0
  4 24  1  0  0  0  0
  4 25  1  0  0  0  0
  5  6  1  0  0  0  0
  5 26  1  0  0  0  0
  6  7  2  0  0  0  0
  6  8  1  0  0  0  0
  8  9  1  0  0  0  0
  8 27  1  0  0  0  0
  8 28  1  0  0  0  0
  9 10  1  0  0  0  0
  9 29  1  0  0  0  0
  9 37  1  0  0  0  0
 10 11  1  0  0  0  0
 10 30  1  0  0  0  0
 10 31  1  0  0  0  0
 11 12  1  0  0  0  0
 11 32  1  0  0  0  0
 11 33  1  0  0  0  0
 12 16  1  0  0  0  0
 12 13  1  0  0  0  0
 13 14  2  0  0  0  0
 13 34  1  0  0  0  0
 14 15  1  0  0  0  0
 14 35  1  0  0  0  0
 15 16  2  0  0  0  0
 15 36  1  0  0  0  0
M  CHG  1   9   1
M  END
> <s_m_source_file>
AV-unprocessed.smi

> <i_m_source_file_index>
3216

> <i_lp_mmshare_version>
43012

> <i_f3d_flags>
0

> <s_epik_input>
W0NIM11bQ0hdKFtDSDNdKVtDSDJdW05IXUMoPU8pW0NIMl1bTkhdW0NIMl1bQ0gyXW4xW2NIXVtjSF1bY0hdbjE=

> <s_epik_cmdline>
J2VwaWtfcHl0aG9uJywgJy1waCcsICc3LjAnLCAnLXRuJywgJzgnLCAnLW1hJywgJzIwMCcsICctbWV0YWxfYmluZGluZycsICctaW1hZScsICc8aW5maWxlLm1hZT4nLCAnLW9tYWUnLCAnPG91dGZpbGUubWFlPic=

> <r_lp_tautomer_probability>
1

> <r_epik_Ionization_Penalty>
0.20724

> <r_epik_Ionization_Penalty_Charging>
0.207237

> <r_epik_Ionization_Penalty_Neutral>
3.19342e-06

> <r_epik_State_Penalty>
0.197611

> <r_epik_Charging_Adjusted_Penalty>
0.404848

> <i_epik_Tot_Q>
1

> <i_epik_Tot_abs_Q>
1

> <r_epik_Metal_State_Penalty>
0.197786

> <b_epik_Metal_Only>
0

> <s_lp_Force_Field>
OPLS_2005

> <r_lp_Energy>
2.0828

> <b_lp_Chiralities_Consistent>
1

> <s_lp_Variant>
AV-unprocessed.smi:3216-1

> <Gold.Version>
5.8.1

> <Gold.Id.Protein>
6NUR|6NUR_protein|mol2

> <Gold.PLP.Fitness>
50.3517

> <Gold.PLP.PLP>
-34.3241

> <Gold.PLP.part.hbond>
-5.0000

> <Gold.PLP.part.metal>
0.0000

> <Gold.PLP.part.buried>
-2.3678

> <Gold.PLP.part.nonpolar>
-26.9241

> <Gold.PLP.part.repulsive>
0.2840

> <Gold.PLP.ligand.clash>
0.0000

> <Gold.PLP.ligand.torsion>
0.6561

> <Gold.PLP.Chemscore.Hbond>
4.8480

> <Gold.PLP.Chemscore.CHOScore>
0.9029

> <Gold.PLP.Chemscore.Metal>
0.0000

> <Gold.Chemscore.Hbonds>
donor molecule, donor type, donor heavy atom, donor atom, acceptor molecule, acceptor atom, score
      L1  H     5    26       P1 10171  0.21
      L1  H     9    29       P1  7948  2.00
      L1  H     9    37       P1  7957  1.00
      P1  H  7989  7998       L1    16  0.67
      L1  C    13    34       P1  8028  0.50

> <Gold.PLP.Chemscore.Internal.Correction>
0.0870

> <Gold.Rescore>
     Score         DG    S(hbond)    S(metal)    S(lipo)     H(rot)  DE(clash)    DE(int)     intcor
     16.85     -18.61       3.75        0.00      55.83       2.32       0.05       1.71       ----

> <Gold.Chemscore.Fitness>
16.8517

> <Gold.Chemscore.DG>
-18.6076

> <Gold.Chemscore.ZeroCoef>
-5.4800

> <Gold.Chemscore.Hbond>
3.7522

> <Gold.Chemscore.Metal>
0.0000

> <Gold.Chemscore.Lipo>
55.8261

> <Gold.Chemscore.Internal_Hbond>
0.0000

> <Gold.Chemscore.DEClash>
0.0500

> <Gold.Chemscore.DEInternal>
1.7059

> <Gold.Chemscore.Rot>
2.3189

> <Gold.Chemscore.Internal.Correction>
   9.000000E+99

> <Gold.Chemscore.Hbonds>
donor molecule, donor type, donor heavy atom, donor atom, acceptor molecule, acceptor atom, score
      L1  H     5    26       P1 10171  0.22
      L1  H     9    29       P1  7948  0.98
      L1  H     9    37       P1  7957  0.93
      P1  H  7989  7998       L1    16  0.19

> <Gold.Chemscore.Hbond.Weighted>
-12.5323

> <Gold.Chemscore.Metal.Weighted>
-0.0000

> <Gold.Chemscore.Lipo.Weighted>
-6.5317

> <Gold.Chemscore.Internal_Hbond.Weighted>
0.0000

> <Gold.Chemscore.DEClash.Weighted>
0.0500

> <Gold.Chemscore.DEInternal.Weighted>
1.7059

> <Gold.Chemscore.Rot.Weighted>
5.9363

> <Gold.Chemscore.Internal.Correction.Weighted>
   9.000000E+99

> <Gold.Protein.RotatedTorsions>
[ 6907 6896 6895 6894 ] final -167.29 input  -60.11 | X-H torsion
[ 7974 7965 7964 7962 ] final -171.96 input  175.53 | X-H torsion
[ 8008 7997 7996 7995 ] final  101.18 input   59.86 | X-H torsion
[ 10167 10162 10161 10158 ] final  -18.04 input  -65.29 | X-H torsion
[ 10718 10713 10712 10709 ] final  -15.05 input   66.30 | X-H torsion
[ 10763 10752 10751 10750 ] final  168.19 input  -60.55 | X-H torsion
[ 11005 11000 10999 10996 ] final   88.41 input  -57.11 | X-H torsion

> <Gold.Protein.ActiveResidues>
 VAL166  LYS551  ARG553  GLY616  TRP617  ASP618  TYR619  PRO620  LYS621  CYS622 
 ASP623  PHE694  ASN695  SER759  ASP760  ASP761  ALA762  ILE779  LEU786  VAL792 
 PHE793  MET794  SER795  GLU796  ALA797  LYS798  CYS799  TRP800  GLU811  SER814 

> <Gold.Protein.RotatedAtoms>
  151.4573  133.3602  159.2803 H   0  0  0  0  0  0  0  0  0  0  0  0  # atno 6907 bound_to 6896
  150.9050  134.8466  159.7397 H   0  0  0  0  0  0  0  0  0  0  0  0  # atno 6908 bound_to 6896
  152.4901  134.4497  159.9622 H   0  0  0  0  0  0  0  0  0  0  0  0  # atno 6909 bound_to 6896
  144.7151  140.1843  143.6355 H   0  0  0  0  0  0  0  0  0  0  0  0  # atno 7974 bound_to 7965
  156.1275  140.3201  155.8299 H   0  0  0  0  0  0  0  0  0  0  0  0  # atno 8008 bound_to 7997
  155.4393  140.0524  157.3029 H   0  0  0  0  0  0  0  0  0  0  0  0  # atno 8009 bound_to 7997
  154.4873  140.2078  155.9639 H   0  0  0  0  0  0  0  0  0  0  0  0  # atno 8010 bound_to 7997
  140.7254  143.4955  150.9936 H   0  0  0  0  0  0  0  0  0  0  0  0  # atno 10167 bound_to 10162
  156.6073  130.4840  149.6215 H   0  0  0  0  0  0  0  0  0  0  0  0  # atno 10718 bound_to 10713
  154.3649  135.2753  155.2299 H   0  0  0  0  0  0  0  0  0  0  0  0  # atno 10763 bound_to 10752
  154.4472  135.5940  153.6171 H   0  0  0  0  0  0  0  0  0  0  0  0  # atno 10764 bound_to 10752
  152.9841  135.6033  154.3873 H   0  0  0  0  0  0  0  0  0  0  0  0  # atno 10765 bound_to 10752
  139.8897  134.8485  156.2996 H   0  0  0  0  0  0  0  0  0  0  0  0  # atno 11005 bound_to 11000
  145.8827  139.2332  143.1596 LP  0  0  0  0  0  0  0  0  0  0  0  0  # atno 17320 bound_to 7965
  145.9979  140.8546  143.0033 LP  0  0  0  0  0  0  0  0  0  0  0  0  # atno 17321 bound_to 7965
  139.8662  143.7251  152.3170 LP  0  0  0  0  0  0  0  0  0  0  0  0  # atno 17342 bound_to 10162
  139.7484  144.7541  151.0544 LP  0  0  0  0  0  0  0  0  0  0  0  0  # atno 17343 bound_to 10162
  156.2419  130.6856  151.1563 LP  0  0  0  0  0  0  0  0  0  0  0  0  # atno 17370 bound_to 10713
  157.7263  131.0647  150.5913 LP  0  0  0  0  0  0  0  0  0  0  0  0  # atno 17371 bound_to 10713
  140.9922  133.7202  156.0831 LP  0  0  0  0  0  0  0  0  0  0  0  0  # atno 17394 bound_to 11000
  140.7610  134.3939  157.5525 LP  0  0  0  0  0  0  0  0  0  0  0  0  # atno 17395 bound_to 11000

$$$$
