AV-unprocessed.smi:1239|AV-procd|sdf|5194|dock7
  -GOLD-   22720 4283D 1   1.00000     0.00000
 Structure written by MMmdl.
 48 49  0  0  0  0  0  0  0  0  4 V2000
  150.3819  134.6611  154.9029 C   0  0  0  0  0  0  0  0  0  0  0  0
  149.6868  136.0410  155.0173 C   0  0  1  0  0  0  0  0  0  0  0  0
  150.5038  137.2224  154.4253 C   0  0  0  0  0  0  0  0  0  0  0  0
  151.8370  137.3270  155.0288 N   0  5  0  0  0  0  0  0  0  0  0  0
  152.2597  138.3481  155.8223 C   0  0  0  0  0  0  0  0  0  0  0  0
  153.3624  138.4656  156.3687 O   0  0  0  0  0  0  0  0  0  0  0  0
  151.2979  139.2666  156.0210 N   0  0  0  0  0  0  0  0  0  0  0  0
  151.3522  140.4870  156.7474 C   0  0  0  0  0  0  0  0  0  0  0  0
  152.1593  140.5275  157.9025 C   0  0  0  0  0  0  0  0  0  0  0  0
  152.2298  141.7089  158.6688 C   0  0  0  0  0  0  0  0  0  0  0  0
  151.4800  142.8464  158.2808 C   0  0  0  0  0  0  0  0  0  0  0  0
  151.4962  144.0639  158.9953 N   0  0  0  0  0  0  0  0  0  0  0  0
  152.2222  144.1524  160.2575 C   0  0  0  0  0  0  0  0  0  0  0  0
  150.9072  145.2575  158.4025 C   0  0  0  0  0  0  0  0  0  0  0  0
  150.7076  142.7542  157.1707 N   0  3  0  0  0  0  0  0  0  0  0  0
  150.6111  141.6436  156.4085 C   0  0  0  0  0  0  0  0  0  0  0  0
  148.2701  136.0658  154.5319 N   0  3  0  0  0  0  0  0  0  0  0  0
  147.4143  134.9042  154.8950 C   0  0  0  0  0  0  0  0  0  0  0  0
  146.0744  134.9910  154.1490 C   0  0  0  0  0  0  0  0  0  0  0  0
  145.4299  136.2153  154.4795 O   0  0  0  0  0  0  0  0  0  0  0  0
  146.1981  137.3464  154.0862 C   0  0  0  0  0  0  0  0  0  0  0  0
  147.5562  137.3357  154.8088 C   0  0  0  0  0  0  0  0  0  0  0  0
  151.3624  134.6632  155.3826 H   0  0  0  0  0  0  0  0  0  0  0  0
  150.5292  134.3438  153.8693 H   0  0  0  0  0  0  0  0  0  0  0  0
  149.7952  133.8904  155.4037 H   0  0  0  0  0  0  0  0  0  0  0  0
  149.6575  136.2477  156.0881 H   0  0  0  0  0  0  0  0  0  0  0  0
  150.5557  137.1005  153.3421 H   0  0  0  0  0  0  0  0  0  0  0  0
  149.9398  138.1429  154.5757 H   0  0  0  0  0  0  0  0  0  0  0  0
  150.3989  139.0394  155.6210 H   0  0  0  0  0  0  0  0  0  0  0  0
  152.7279  139.6587  158.2011 H   0  0  0  0  0  0  0  0  0  0  0  0
  152.8599  141.7205  159.5452 H   0  0  0  0  0  0  0  0  0  0  0  0
  153.2821  143.9467  160.1038 H   0  0  0  0  0  0  0  0  0  0  0  0
  151.8297  143.4336  160.9776 H   0  0  0  0  0  0  0  0  0  0  0  0
  152.1341  145.1457  160.6980 H   0  0  0  0  0  0  0  0  0  0  0  0
  149.8414  145.1119  158.2244 H   0  0  0  0  0  0  0  0  0  0  0  0
  151.3916  145.4927  157.4541 H   0  0  0  0  0  0  0  0  0  0  0  0
  151.0193  146.1215  159.0574 H   0  0  0  0  0  0  0  0  0  0  0  0
  149.9345  141.7258  155.5714 H   0  0  0  0  0  0  0  0  0  0  0  0
  147.9102  133.9684  154.6375 H   0  0  0  0  0  0  0  0  0  0  0  0
  147.2310  134.8896  155.9700 H   0  0  0  0  0  0  0  0  0  0  0  0
  146.2234  134.9195  153.0702 H   0  0  0  0  0  0  0  0  0  0  0  0
  145.4285  134.1619  154.4382 H   0  0  0  0  0  0  0  0  0  0  0  0
  146.3357  137.3460  153.0037 H   0  0  0  0  0  0  0  0  0  0  0  0
  145.6467  138.2526  154.3367 H   0  0  0  0  0  0  0  0  0  0  0  0
  147.4178  137.4517  155.8847 H   0  0  0  0  0  0  0  0  0  0  0  0
  148.1516  138.1824  154.4646 H   0  0  0  0  0  0  0  0  0  0  0  0
  150.1607  143.5703  156.8962 H   0  0  0  0  0  0  0  0  0  0  0  0
  148.3599  136.0267  153.5257 H   0  0  0  0  0  0  0  0  0  0  0  0
  1  2  1  0  0  0  0
  1 23  1  0  0  0  0
  1 24  1  0  0  0  0
  1 25  1  0  0  0  0
  2  3  1  0  0  0  0
  2 17  1  0  0  0  0
  2 26  1  0  0  0  0
  3  4  1  0  0  0  0
  3 27  1  0  0  0  0
  3 28  1  0  0  0  0
  4  5  1  0  0  0  0
  5  6  2  0  0  0  0
  5  7  1  0  0  0  0
  7  8  1  0  0  0  0
  7 29  1  0  0  0  0
  8 16  1  0  0  0  0
  8  9  2  0  0  0  0
  9 10  1  0  0  0  0
  9 30  1  0  0  0  0
 10 11  2  0  0  0  0
 10 31  1  0  0  0  0
 11 12  1  0  0  0  0
 11 15  1  0  0  0  0
 12 13  1  0  0  0  0
 12 14  1  0  0  0  0
 13 32  1  0  0  0  0
 13 33  1  0  0  0  0
 13 34  1  0  0  0  0
 14 35  1  0  0  0  0
 14 36  1  0  0  0  0
 14 37  1  0  0  0  0
 15 16  2  0  0  0  0
 15 47  1  0  0  0  0
 16 38  1  0  0  0  0
 17 22  1  0  0  0  0
 17 18  1  0  0  0  0
 17 48  1  0  0  0  0
 18 19  1  0  0  0  0
 18 39  1  0  0  0  0
 18 40  1  0  0  0  0
 19 20  1  0  0  0  0
 19 41  1  0  0  0  0
 19 42  1  0  0  0  0
 20 21  1  0  0  0  0
 21 22  1  0  0  0  0
 21 43  1  0  0  0  0
 21 44  1  0  0  0  0
 22 45  1  0  0  0  0
 22 46  1  0  0  0  0
M  CHG  1   4  -1
M  CHG  1  15   1
M  CHG  1  17   1
M  END
> <s_m_source_file>
AV-unprocessed.smi

> <i_m_source_file_index>
1239

> <i_lp_mmshare_version>
43012

> <i_f3d_flags>
0

> <s_epik_input>
W0NIMl0xW0NIMl1PW0NIMl1bQ0gyXU4xW0NASF0oW0NIM10pW0NIMl1bTkhdQyg9TylbTkhdYzJbY0hdW2NIXWMoTihbQ0gzXSlbQ0gzXSluW2NIXTI=

> <s_epik_cmdline>
J2VwaWtfcHl0aG9uJywgJy1waCcsICc3LjAnLCAnLXRuJywgJzgnLCAnLW1hJywgJzIwMCcsICctbWV0YWxfYmluZGluZycsICctaW1hZScsICc8aW5maWxlLm1hZT4nLCAnLW9tYWUnLCAnPG91dGZpbGUubWFlPic=

> <r_lp_tautomer_probability>
0.999994

> <r_epik_Ionization_Penalty>
7.43905

> <r_epik_Ionization_Penalty_Charging>
7.43905

> <r_epik_Ionization_Penalty_Neutral>
3.43851e-06

> <r_epik_State_Penalty>
7.63789

> <r_epik_Charging_Adjusted_Penalty>
15.0769

> <i_epik_Tot_Q>
1

> <i_epik_Tot_abs_Q>
3

> <r_epik_Metal_State_Penalty>
3.83826

> <b_epik_Metal_Only>
1

> <s_lp_Force_Field>
OPLS_2005

> <r_lp_Energy>
25.3923

> <b_lp_Chiralities_Consistent>
1

> <s_lp_Variant>
AV-unprocessed.smi:1239-10

> <Gold.Version>
5.8.1

> <Gold.Id.Protein>
6NUR|6NUR_protein|mol2

> <Gold.PLP.Fitness>
49.7855

> <Gold.PLP.PLP>
-32.1072

> <Gold.PLP.part.hbond>
-3.9271

> <Gold.PLP.part.metal>
0.0000

> <Gold.PLP.part.buried>
-3.0696

> <Gold.PLP.part.nonpolar>
-25.7842

> <Gold.PLP.part.repulsive>
0.2494

> <Gold.PLP.ligand.clash>
1.3675

> <Gold.PLP.ligand.torsion>
0.4202

> <Gold.PLP.Chemscore.Hbond>
6.5555

> <Gold.PLP.Chemscore.CHOScore>
0.0000

> <Gold.PLP.Chemscore.Metal>
0.0000

> <Gold.Chemscore.Hbonds>
donor molecule, donor type, donor heavy atom, donor atom, acceptor molecule, acceptor atom, score
      L1  H    15    47       P1  8028  1.62
      L1  H    17    48       P1  7948  2.00
      P1  H  7997  8009       L1     6  0.90
      P1  H 10752 10764       L1     4  1.60

> <Gold.PLP.Chemscore.Internal.Correction>
0.2197

> <Gold.Rescore>
     Score         DG    S(hbond)    S(metal)    S(lipo)     H(rot)  DE(clash)    DE(int)     intcor
     20.13     -22.39       3.53        0.00      76.30       1.48       0.51       1.75       ----

> <Gold.Chemscore.Fitness>
20.1300

> <Gold.Chemscore.DG>
-22.3895

> <Gold.Chemscore.ZeroCoef>
-5.4800

> <Gold.Chemscore.Hbond>
3.5264

> <Gold.Chemscore.Metal>
0.0000

> <Gold.Chemscore.Lipo>
76.3047

> <Gold.Chemscore.Internal_Hbond>
0.0000

> <Gold.Chemscore.DEClash>
0.5088

> <Gold.Chemscore.DEInternal>
1.7507

> <Gold.Chemscore.Rot>
1.4830

> <Gold.Chemscore.Internal.Correction>
   9.000000E+99

> <Gold.Chemscore.Hbonds>
donor molecule, donor type, donor heavy atom, donor atom, acceptor molecule, acceptor atom, score
      L1  H    15    47       P1  8028  0.79
      L1  H    17    48       P1  7948  1.00
      P1  H  7997  8009       L1     6  0.86
      P1  H 10752 10764       L1     4  0.57

> <Gold.Chemscore.Hbond.Weighted>
-11.7783

> <Gold.Chemscore.Metal.Weighted>
-0.0000

> <Gold.Chemscore.Lipo.Weighted>
-8.9276

> <Gold.Chemscore.Internal_Hbond.Weighted>
0.0000

> <Gold.Chemscore.DEClash.Weighted>
0.5088

> <Gold.Chemscore.DEInternal.Weighted>
1.7507

> <Gold.Chemscore.Rot.Weighted>
3.7964

> <Gold.Chemscore.Internal.Correction.Weighted>
   9.000000E+99

> <Gold.Protein.RotatedTorsions>
[ 6907 6896 6895 6894 ] final  141.52 input  -60.11 | X-H torsion
[ 7974 7965 7964 7962 ] final  -49.56 input  175.53 | X-H torsion
[ 8008 7997 7996 7995 ] final -175.89 input   59.86 | X-H torsion
[ 10167 10162 10161 10158 ] final  169.98 input  -65.29 | X-H torsion
[ 10718 10713 10712 10709 ] final   26.69 input   66.30 | X-H torsion
[ 10763 10752 10751 10750 ] final  -60.40 input  -60.55 | X-H torsion
[ 11005 11000 10999 10996 ] final  -78.77 input  -57.11 | X-H torsion

> <Gold.Protein.ActiveResidues>
 VAL166  LYS551  ARG553  GLY616  TRP617  ASP618  TYR619  PRO620  LYS621  CYS622 
 ASP623  PHE694  ASN695  SER759  ASP760  ASP761  ALA762  ILE779  LEU786  VAL792 
 PHE793  MET794  SER795  GLU796  ALA797  LYS798  CYS799  TRP800  GLU811  SER814 

> <Gold.Protein.RotatedAtoms>
  152.2300  133.5050  159.5210 H   0  0  0  0  0  0  0  0  0  0  0  0  # atno 6907 bound_to 6896
  150.7035  134.1229  159.4050 H   0  0  0  0  0  0  0  0  0  0  0  0  # atno 6908 bound_to 6896
  151.9150  135.0322  160.0568 H   0  0  0  0  0  0  0  0  0  0  0  0  # atno 6909 bound_to 6896
  145.9393  140.7677  142.9560 H   0  0  0  0  0  0  0  0  0  0  0  0  # atno 7974 bound_to 7965
  155.9882  140.1195  157.0663 H   0  0  0  0  0  0  0  0  0  0  0  0  # atno 8008 bound_to 7997
  154.4203  140.1131  156.5596 H   0  0  0  0  0  0  0  0  0  0  0  0  # atno 8009 bound_to 7997
  155.6379  140.3473  155.4707 H   0  0  0  0  0  0  0  0  0  0  0  0  # atno 8010 bound_to 7997
  139.5006  144.3647  151.9788 H   0  0  0  0  0  0  0  0  0  0  0  0  # atno 10167 bound_to 10162
  157.2103  130.6931  149.6225 H   0  0  0  0  0  0  0  0  0  0  0  0  # atno 10718 bound_to 10713
  154.2687  135.6294  153.5302 H   0  0  0  0  0  0  0  0  0  0  0  0  # atno 10763 bound_to 10752
  152.9883  135.5605  154.5624 H   0  0  0  0  0  0  0  0  0  0  0  0  # atno 10764 bound_to 10752
  154.5189  135.2881  155.1254 H   0  0  0  0  0  0  0  0  0  0  0  0  # atno 10765 bound_to 10752
  141.1666  133.7077  156.8022 H   0  0  0  0  0  0  0  0  0  0  0  0  # atno 11005 bound_to 11000
  144.6776  140.2254  143.7361 LP  0  0  0  0  0  0  0  0  0  0  0  0  # atno 17320 bound_to 7965
  145.8321  139.2091  143.1876 LP  0  0  0  0  0  0  0  0  0  0  0  0  # atno 17321 bound_to 7965
  140.3083  144.3567  150.6041 LP  0  0  0  0  0  0  0  0  0  0  0  0  # atno 17342 bound_to 10162
  140.5819  143.2172  151.7413 LP  0  0  0  0  0  0  0  0  0  0  0  0  # atno 17343 bound_to 10162
  155.9691  130.4553  150.5884 LP  0  0  0  0  0  0  0  0  0  0  0  0  # atno 17370 bound_to 10713
  157.3679  131.0761  151.1582 LP  0  0  0  0  0  0  0  0  0  0  0  0  # atno 17371 bound_to 10713
  140.2248  134.8730  157.3415 LP  0  0  0  0  0  0  0  0  0  0  0  0  # atno 17394 bound_to 11000
  140.1951  134.4324  155.7694 LP  0  0  0  0  0  0  0  0  0  0  0  0  # atno 17395 bound_to 11000

$$$$
