#       Name:                AV-unprocessed.smi:1443
#       Creating user name   scv26
#       Creation time:       Fri Mar 27 05:55:44 2020


#       File generated by GOLD software.
#

@<TRIPOS>MOLECULE
AV-unprocessed.smi:1443
    31    32     1
SMALL
NO_CHARGES


@<TRIPOS>ATOM
      1 ****         5.3425  -4.0652  -4.2480 C.3            1 S1                 0.0000
      2 ****         4.0146  -5.2877  -4.4124 S.3            1 S1                 0.0000
      3 ****         2.5896  -4.5725  -3.6575 C.2            1 S1                 0.0000
      4 ****         1.3979  -5.1914  -3.7371 N.2            1 S1                 0.0000
      5 ****         0.2526  -4.2639  -2.9108 S.3            1 S1                 0.0000
      6 ****         1.4614  -3.0847  -2.4970 C.2            1 S1                 0.0000
      7 ****         1.1589  -1.9287  -1.7204 N.am           1 S1                 0.0000
      8 ****         1.9440  -0.9298  -1.2638 C.2            1 S1                 0.0000
      9 ****         3.1505  -0.9145  -1.5018 O.2            1 S1                 0.0000
     10 ****         1.3306   0.0253  -0.5476 N.am           1 S1                 0.0000
     11 ****         1.9543   1.1833   0.0078 C.3            1 S1                 0.0000
     12 ****         1.0763   2.3935   0.2427 C.3            1 S1                 0.0000
     13 ****         1.5931   1.6088   1.4191 C.3            1 S1                 0.0000
     14 ****         0.6482   0.8013   2.2865 C.3            1 S1                 0.0000
     15 ****         2.6594  -3.4093  -2.9846 N.2            1 S1                 0.0000
     16 ****         6.2733  -4.4655  -4.6493 H              1 S1                 0.0000
     17 ****         5.4997  -3.8061  -3.2008 H              1 S1                 0.0000
     18 ****         5.0906  -3.1606  -4.8001 H              1 S1                 0.0000
     19 ****         0.1922  -1.8603  -1.4368 H              1 S1                 0.0000
     20 ****         0.3363  -0.0701  -0.3971 H              1 S1                 0.0000
     21 ****         2.9745   1.3955  -0.3088 H              1 S1                 0.0000
     22 ****         1.5140   3.3731   0.0616 H              1 S1                 0.0000
     23 ****         0.0184   2.3071   0.0013 H              1 S1                 0.0000
     24 ****         2.3987   2.0743   1.9838 H              1 S1                 0.0000
     25 ****        -0.1771   0.4001   1.6996 H              1 S1                 0.0000
     26 ****         0.2357   1.4309   3.0750 H              1 S1                 0.0000
     27 ****         1.1820  -0.0294   2.7479 H              1 S1                 0.0000
     28 ****         1.2196  -6.0560  -4.2069 LP             1 S1                 0.0000
     29 ****         3.5632  -1.6490  -2.0406 LP             1 S1                 0.0000
     30 ****         3.7188  -0.1677  -1.1566 LP             1 S1                 0.0000
     31 ****         3.4907  -2.8661  -2.8670 LP             1 S1                 0.0000
@<TRIPOS>BOND
    1    1    2 1     
    2    1   16 1     
    3    1   17 1     
    4    1   18 1     
    5    2    3 1     
    6    3   15 1     
    7    3    4 2     
    8    4    5 1     
    9    5    6 1     
   10    6    7 1     
   11    6   15 2     
   12    7    8 am    
   13    7   19 1     
   14    8    9 2     
   15    8   10 am    
   16   10   11 1     
   17   10   20 1     
   18   11   13 1     
   19   11   12 1     
   20   11   21 1     
   21   12   13 1     
   22   12   22 1     
   23   12   23 1     
   24   13   14 1     
   25   13   24 1     
   26   14   25 1     
   27   14   26 1     
   28   14   27 1     
   29    4   28 1     
   30    9   29 1     
   31    9   30 1     
   32   15   31 1     
@<TRIPOS>SUBSTRUCTURE
      1 S1             1
@<TRIPOS>SET
LONE_PAIRS      STATIC     ATOMS    <user>   **** ""
4 28 29 30 31
DONOR_HYDROGENS      STATIC     ATOMS    <user>   **** ""
2 19 20
ATOM$BLUE        STATIC     ATOMS    COLORGROUP SYSTEM
4 28 29 30 31
ATOM$RED        STATIC     ATOMS    COLORGROUP SYSTEM
2 19 20
