AV-unprocessed.smi:2110|AV-procd|sdf|8611|dock10
  -GOLD-   2272011353D 1   1.00000     0.00000
 Structure written by MMmdl.
 46 47  0  0  0  0  0  0  0  0  3 V2000
  148.3803  133.5627  157.8476 C   0  0  0  0  0  0  0  0  0  0  0  0
  148.2284  134.3201  156.5197 C   0  0  0  0  0  0  0  0  0  0  0  0
  149.5283  134.6802  155.9188 N   0  0  0  0  0  0  0  0  0  0  0  0
  149.7852  134.2221  154.5378 C   0  0  0  0  0  0  0  0  0  0  0  0
  149.7698  132.6916  154.3985 C   0  0  0  0  0  0  0  0  0  0  0  0
  150.5960  135.8149  156.7087 S   0  0  0  0  0  0  0  0  0  0  0  0
  150.1186  135.8975  158.0977 O   0  0  0  0  0  0  0  0  0  0  0  0
  151.9662  135.3188  156.4887 O   0  0  0  0  0  0  0  0  0  0  0  0
  150.2001  137.1457  155.8563 N   0  5  0  0  0  0  0  0  0  0  0  0
  151.2071  138.0840  155.3873 C   0  0  0  0  0  0  0  0  0  0  0  0
  150.7402  139.5211  155.5618 C   0  0  0  0  0  0  0  0  0  0  0  0
  149.7968  140.0826  154.6717 C   0  0  0  0  0  0  0  0  0  0  0  0
  149.3931  141.4175  154.8573 C   0  0  0  0  0  0  0  0  0  0  0  0
  149.9074  142.1412  155.8736 N   0  3  0  0  0  0  0  0  0  0  0  0
  150.8185  141.6654  156.7580 C   0  0  0  0  0  0  0  0  0  0  0  0
  151.2739  142.5335  157.7775 N   0  0  0  0  0  0  0  0  0  0  0  0
  152.1411  141.9832  158.8169 C   0  0  0  0  0  0  0  0  0  0  0  0
  152.2836  142.9700  159.9883 C   0  0  0  0  0  0  0  0  0  0  0  0
  152.7189  144.2347  159.5043 O   0  0  0  0  0  0  0  0  0  0  0  0
  151.7736  144.8052  158.6077 C   0  0  0  0  0  0  0  0  0  0  0  0
  151.6134  143.8990  157.3759 C   0  0  0  0  0  0  0  0  0  0  0  0
  151.2529  140.3227  156.6107 C   0  0  0  0  0  0  0  0  0  0  0  0
  147.4044  133.3794  158.2970 H   0  0  0  0  0  0  0  0  0  0  0  0
  148.9758  134.1221  158.5684 H   0  0  0  0  0  0  0  0  0  0  0  0
  148.8561  132.5932  157.7008 H   0  0  0  0  0  0  0  0  0  0  0  0
  147.6702  133.7079  155.8115 H   0  0  0  0  0  0  0  0  0  0  0  0
  147.6305  135.2193  156.6697 H   0  0  0  0  0  0  0  0  0  0  0  0
  149.0432  134.6525  153.8660 H   0  0  0  0  0  0  0  0  0  0  0  0
  150.7502  134.6122  154.2137 H   0  0  0  0  0  0  0  0  0  0  0  0
  149.8812  132.4025  153.3536 H   0  0  0  0  0  0  0  0  0  0  0  0
  148.8345  132.2665  154.7585 H   0  0  0  0  0  0  0  0  0  0  0  0
  150.5854  132.2257  154.9510 H   0  0  0  0  0  0  0  0  0  0  0  0
  152.1513  137.9635  155.9194 H   0  0  0  0  0  0  0  0  0  0  0  0
  151.4431  137.9315  154.3337 H   0  0  0  0  0  0  0  0  0  0  0  0
  149.3830  139.5126  153.8504 H   0  0  0  0  0  0  0  0  0  0  0  0
  148.6794  141.9259  154.2258 H   0  0  0  0  0  0  0  0  0  0  0  0
  151.7301  141.0510  159.2042 H   0  0  0  0  0  0  0  0  0  0  0  0
  153.1193  141.7615  158.3881 H   0  0  0  0  0  0  0  0  0  0  0  0
  151.3385  143.0787  160.5228 H   0  0  0  0  0  0  0  0  0  0  0  0
  153.0125  142.5950  160.7066 H   0  0  0  0  0  0  0  0  0  0  0  0
  150.8168  144.9493  159.1124 H   0  0  0  0  0  0  0  0  0  0  0  0
  152.1237  145.7918  158.3041 H   0  0  0  0  0  0  0  0  0  0  0  0
  152.5422  143.8760  156.8043 H   0  0  0  0  0  0  0  0  0  0  0  0
  150.8491  144.3297  156.7294 H   0  0  0  0  0  0  0  0  0  0  0  0
  151.9866  139.9048  157.2847 H   0  0  0  0  0  0  0  0  0  0  0  0
  149.5924  143.1052  155.9805 H   0  0  0  0  0  0  0  0  0  0  0  0
  1  2  1  0  0  0  0
  1 23  1  0  0  0  0
  1 24  1  0  0  0  0
  1 25  1  0  0  0  0
  2  3  1  0  0  0  0
  2 26  1  0  0  0  0
  2 27  1  0  0  0  0
  3  4  1  0  0  0  0
  3  6  1  0  0  0  0
  4  5  1  0  0  0  0
  4 28  1  0  0  0  0
  4 29  1  0  0  0  0
  5 30  1  0  0  0  0
  5 31  1  0  0  0  0
  5 32  1  0  0  0  0
  6  7  2  0  0  0  0
  6  8  2  0  0  0  0
  6  9  1  0  0  0  0
  9 10  1  0  0  0  0
 10 11  1  0  0  0  0
 10 33  1  0  0  0  0
 10 34  1  0  0  0  0
 11 22  1  0  0  0  0
 11 12  2  0  0  0  0
 12 13  1  0  0  0  0
 12 35  1  0  0  0  0
 13 14  2  0  0  0  0
 13 36  1  0  0  0  0
 14 15  1  0  0  0  0
 14 46  1  0  0  0  0
 15 16  1  0  0  0  0
 15 22  2  0  0  0  0
 16 21  1  0  0  0  0
 16 17  1  0  0  0  0
 17 18  1  0  0  0  0
 17 37  1  0  0  0  0
 17 38  1  0  0  0  0
 18 19  1  0  0  0  0
 18 39  1  0  0  0  0
 18 40  1  0  0  0  0
 19 20  1  0  0  0  0
 20 21  1  0  0  0  0
 20 41  1  0  0  0  0
 20 42  1  0  0  0  0
 21 43  1  0  0  0  0
 21 44  1  0  0  0  0
 22 45  1  0  0  0  0
M  CHG  1   9  -1
M  CHG  1  14   1
M  END
> <s_m_source_file>
AV-unprocessed.smi

> <i_m_source_file_index>
2110

> <i_lp_mmshare_version>
43012

> <i_f3d_flags>
0

> <s_epik_input>
W0NIM11bQ0gyXU4oW0NIMl1bQ0gzXSlTKD1PKSg9TylbTkhdW0NIMl1jMVtjSF1bY0hdbmMoW2NIXTEpTjJbQ0gyXVtDSDJdT1tDSDJdW0NIMl0y

> <s_epik_cmdline>
J2VwaWtfcHl0aG9uJywgJy1waCcsICc3LjAnLCAnLXRuJywgJzgnLCAnLW1hJywgJzIwMCcsICctbWV0YWxfYmluZGluZycsICctaW1hZScsICc8aW5maWxlLm1hZT4nLCAnLW9tYWUnLCAnPG91dGZpbGUubWFlPic=

> <r_lp_tautomer_probability>
0.999994

> <r_epik_Ionization_Penalty>
2.03784

> <r_epik_Ionization_Penalty_Charging>
2.03784

> <r_epik_Ionization_Penalty_Neutral>
4.07977e-08

> <r_epik_State_Penalty>
3.04665

> <r_epik_Charging_Adjusted_Penalty>
5.08449

> <i_epik_Tot_Q>
0

> <i_epik_Tot_abs_Q>
2

> <r_epik_Metal_State_Penalty>
1.92951

> <b_epik_Metal_Only>
1

> <s_lp_Force_Field>
OPLS_2005

> <r_lp_Energy>
13.8127

> <b_lp_Chiralities_Consistent>
1

> <s_lp_Variant>
AV-unprocessed.smi:2110-4

> <Gold.Version>
5.8.1

> <Gold.Id.Protein>
6NUR|6NUR_protein|mol2

> <Gold.PLP.Fitness>
50.9050

> <Gold.PLP.PLP>
-40.0988

> <Gold.PLP.part.hbond>
-3.0000

> <Gold.PLP.part.metal>
0.0000

> <Gold.PLP.part.buried>
-5.7051

> <Gold.PLP.part.nonpolar>
-32.9290

> <Gold.PLP.part.repulsive>
0.2594

> <Gold.PLP.ligand.clash>
0.0000

> <Gold.PLP.ligand.torsion>
2.2904

> <Gold.PLP.Chemscore.Hbond>
3.8960

> <Gold.PLP.Chemscore.CHOScore>
0.0000

> <Gold.PLP.Chemscore.Metal>
0.0000

> <Gold.Chemscore.Hbonds>
donor molecule, donor type, donor heavy atom, donor atom, acceptor molecule, acceptor atom, score
      L1  H    14    46       P1  8028  2.00
      P1  H  6896  6909       L1     7  0.88
      P1  H 10752 10765       L1     8  1.00

> <Gold.PLP.Chemscore.Internal.Correction>
3.6989

> <Gold.Rescore>
     Score         DG    S(hbond)    S(metal)    S(lipo)     H(rot)  DE(clash)    DE(int)     intcor
     19.40     -21.79       2.87        0.00      95.12       1.72       0.01       2.38       ----

> <Gold.Chemscore.Fitness>
19.3962

> <Gold.Chemscore.DG>
-21.7887

> <Gold.Chemscore.ZeroCoef>
-5.4800

> <Gold.Chemscore.Hbond>
2.8658

> <Gold.Chemscore.Metal>
0.0000

> <Gold.Chemscore.Lipo>
95.1228

> <Gold.Chemscore.Internal_Hbond>
0.0000

> <Gold.Chemscore.DEClash>
0.0110

> <Gold.Chemscore.DEInternal>
2.3815

> <Gold.Chemscore.Rot>
1.7159

> <Gold.Chemscore.Internal.Correction>
   9.000000E+99

> <Gold.Chemscore.Hbonds>
donor molecule, donor type, donor heavy atom, donor atom, acceptor molecule, acceptor atom, score
      L1  H    14    46       P1  8028  1.00
      P1  H  6896  6909       L1     7  0.82
      P1  H 10752 10765       L1     8  0.98

> <Gold.Chemscore.Hbond.Weighted>
-9.5719

> <Gold.Chemscore.Metal.Weighted>
-0.0000

> <Gold.Chemscore.Lipo.Weighted>
-11.1294

> <Gold.Chemscore.Internal_Hbond.Weighted>
0.0000

> <Gold.Chemscore.DEClash.Weighted>
0.0110

> <Gold.Chemscore.DEInternal.Weighted>
2.3815

> <Gold.Chemscore.Rot.Weighted>
4.3926

> <Gold.Chemscore.Internal.Correction.Weighted>
   9.000000E+99

> <Gold.Protein.RotatedTorsions>
[ 6907 6896 6895 6894 ] final   56.92 input  -60.11 | X-H torsion
[ 7974 7965 7964 7962 ] final   65.69 input  175.53 | X-H torsion
[ 8008 7997 7996 7995 ] final  -18.82 input   59.86 | X-H torsion
[ 10167 10162 10161 10158 ] final   42.35 input  -65.29 | X-H torsion
[ 10718 10713 10712 10709 ] final  -13.60 input   66.30 | X-H torsion
[ 10763 10752 10751 10750 ] final -152.67 input  -60.55 | X-H torsion
[ 11005 11000 10999 10996 ] final -134.69 input  -57.11 | X-H torsion

> <Gold.Protein.ActiveResidues>
 VAL166  LYS551  ARG553  GLY616  TRP617  ASP618  TYR619  PRO620  LYS621  CYS622 
 ASP623  PHE694  ASN695  SER759  ASP760  ASP761  ALA762  ILE779  LEU786  VAL792 
 PHE793  MET794  SER795  GLU796  ALA797  LYS798  CYS799  TRP800  GLU811  SER814 

> <Gold.Protein.RotatedAtoms>
  152.3683  134.6772  160.0184 H   0  0  0  0  0  0  0  0  0  0  0  0  # atno 6907 bound_to 6896
  151.7073  133.3306  159.3290 H   0  0  0  0  0  0  0  0  0  0  0  0  # atno 6908 bound_to 6896
  150.7654  134.6497  159.6326 H   0  0  0  0  0  0  0  0  0  0  0  0  # atno 6909 bound_to 6896
  145.8354  139.3164  143.0962 H   0  0  0  0  0  0  0  0  0  0  0  0  # atno 7974 bound_to 7965
  154.4880  140.2105  155.9613 H   0  0  0  0  0  0  0  0  0  0  0  0  # atno 8008 bound_to 7997
  156.1264  140.3204  155.8252 H   0  0  0  0  0  0  0  0  0  0  0  0  # atno 8009 bound_to 7997
  155.4376  140.0508  157.3004 H   0  0  0  0  0  0  0  0  0  0  0  0  # atno 8010 bound_to 7997
  140.3553  144.2298  150.6142 H   0  0  0  0  0  0  0  0  0  0  0  0  # atno 10167 bound_to 10162
  156.6279  130.4893  149.6140 H   0  0  0  0  0  0  0  0  0  0  0  0  # atno 10718 bound_to 10713
  154.7979  135.3230  154.7623 H   0  0  0  0  0  0  0  0  0  0  0  0  # atno 10763 bound_to 10752
  153.8297  135.6880  153.4820 H   0  0  0  0  0  0  0  0  0  0  0  0  # atno 10764 bound_to 10752
  153.1679  135.4635  154.9805 H   0  0  0  0  0  0  0  0  0  0  0  0  # atno 10765 bound_to 10752
  140.8967  134.1743  157.4490 H   0  0  0  0  0  0  0  0  0  0  0  0  # atno 11005 bound_to 11000
  145.9524  140.8898  143.0252 LP  0  0  0  0  0  0  0  0  0  0  0  0  # atno 17320 bound_to 7965
  144.6737  140.1699  143.7415 LP  0  0  0  0  0  0  0  0  0  0  0  0  # atno 17321 bound_to 7965
  140.5179  143.2273  151.8434 LP  0  0  0  0  0  0  0  0  0  0  0  0  # atno 17342 bound_to 10162
  139.4821  144.4871  151.9232 LP  0  0  0  0  0  0  0  0  0  0  0  0  # atno 17343 bound_to 10162
  156.2258  130.6765  151.1414 LP  0  0  0  0  0  0  0  0  0  0  0  0  # atno 17370 bound_to 10713
  157.7208  131.0682  150.6141 LP  0  0  0  0  0  0  0  0  0  0  0  0  # atno 17371 bound_to 10713
  139.8736  134.9881  156.5397 LP  0  0  0  0  0  0  0  0  0  0  0  0  # atno 17394 bound_to 11000
  140.8280  133.8301  155.8958 LP  0  0  0  0  0  0  0  0  0  0  0  0  # atno 17395 bound_to 11000

$$$$
