#       Name:                AV-unprocessed.smi:862
#       Creating user name   scv26
#       Creation time:       Fri Mar 27 01:45:35 2020


#       File generated by GOLD software.
#

@<TRIPOS>MOLECULE
AV-unprocessed.smi:862
    47    49     1
SMALL
NO_CHARGES


@<TRIPOS>ATOM
      1 ****        -4.7649  -2.8014   0.9324 N.am           1 S1                 0.0000
      2 ****        -4.2735  -2.4047  -0.2453 C.2            1 S1                 0.0000
      3 ****        -4.3688  -3.1175  -1.2427 O.2            1 S1                 0.0000
      4 ****        -3.7149  -1.1681  -0.2536 N.am           1 S1                 0.0000
      5 ****        -3.3355  -0.3789   0.9300 C.3            1 S1                 0.0000
      6 ****        -1.8040  -0.4206   1.0855 C.3            1 S1                 0.0000
      7 ****        -1.0968   0.0880  -0.1928 C.3            1 S1                 0.0000
      8 ****         0.3689  -0.1014  -0.1174 N.4            1 S1                 1.0000
      9 ****         1.1092   0.8482   0.7478 C.3            1 S1                 0.0000
     10 ****         1.1743   2.2720   0.1829 C.3            1 S1                 0.0000
     11 ****         2.3938   2.9154   0.8569 C.3            1 S1                 0.0000
     12 ****         3.2348   1.7662   1.4403 C.3            1 S1                 0.0000
     13 ****         2.5818   0.4555   0.9696 C.3            1 S1                 0.0000
     14 ****         3.2249  -0.0895  -0.2251 N.pl3          1 S1                 0.0000
     15 ****         3.6958   0.5887  -1.3461 C.2            1 S1                 0.0000
     16 ****         4.1799  -0.3642  -2.2131 C.2            1 S1                 0.0000
     17 ****         4.0078  -1.6295  -1.6602 N.2            1 S1                 0.0000
     18 ****         3.4397  -1.3873  -0.4869 C.2            1 S1                 0.0000
     19 ****        -1.6505  -0.6231  -1.4453 C.3            1 S1                 0.0000
     20 ****        -3.1880  -0.5654  -1.4837 C.3            1 S1                 0.0000
     21 ****        -5.2068  -3.7062   1.0091 H              1 S1                 0.0000
     22 ****        -4.7053  -2.1942   1.7362 H              1 S1                 0.0000
     23 ****        -3.6678   0.6512   0.7939 H              1 S1                 0.0000
     24 ****        -3.8080  -0.7139   1.8533 H              1 S1                 0.0000
     25 ****        -1.5162   0.1787   1.9491 H              1 S1                 0.0000
     26 ****        -1.4916  -1.4438   1.3003 H              1 S1                 0.0000
     27 ****        -1.3074   1.1519  -0.3067 H              1 S1                 0.0000
     28 ****         0.5442  -1.0414   0.2079 H              1 S1                 0.0000
     29 ****         0.6332   0.8865   1.7280 H              1 S1                 0.0000
     30 ****         1.3250   2.2438  -0.8970 H              1 S1                 0.0000
     31 ****         0.2605   2.8370   0.3692 H              1 S1                 0.0000
     32 ****         2.9658   3.5050   0.1397 H              1 S1                 0.0000
     33 ****         2.0817   3.5915   1.6538 H              1 S1                 0.0000
     34 ****         4.2874   1.8392   1.1640 H              1 S1                 0.0000
     35 ****         3.1941   1.8162   2.5291 H              1 S1                 0.0000
     36 ****         2.6568  -0.3000   1.7536 H              1 S1                 0.0000
     37 ****         3.6554   1.6637  -1.4379 H              1 S1                 0.0000
     38 ****         4.6296  -0.2375  -3.1869 H              1 S1                 0.0000
     39 ****         3.1643  -2.1770   0.1967 H              1 S1                 0.0000
     40 ****        -1.2409  -0.1659  -2.3469 H              1 S1                 0.0000
     41 ****        -1.3302  -1.6663  -1.4545 H              1 S1                 0.0000
     42 ****        -3.5593  -1.0571  -2.3841 H              1 S1                 0.0000
     43 ****        -3.5247   0.4700  -1.5538 H              1 S1                 0.0000
     44 ****         0.7468  -0.0151  -1.0503 H              1 S1                 0.0000
     45 ****        -4.8191  -4.0081  -1.1796 LP             1 S1                 0.0000
     46 ****        -3.9960  -2.8065  -2.1169 LP             1 S1                 0.0000
     47 ****         4.2548  -2.5143  -2.0553 LP             1 S1                 0.0000
@<TRIPOS>BOND
    1    1    2 am    
    2    1   21 1     
    3    1   22 1     
    4    2    3 2     
    5    2    4 am    
    6    4   20 1     
    7    4    5 1     
    8    5    6 1     
    9    5   23 1     
   10    5   24 1     
   11    6    7 1     
   12    6   25 1     
   13    6   26 1     
   14    7    8 1     
   15    7   19 1     
   16    7   27 1     
   17    8    9 1     
   18    8   28 1     
   19    8   44 1     
   20    9   13 1     
   21    9   10 1     
   22    9   29 1     
   23   10   11 1     
   24   10   30 1     
   25   10   31 1     
   26   11   12 1     
   27   11   32 1     
   28   11   33 1     
   29   12   13 1     
   30   12   34 1     
   31   12   35 1     
   32   13   14 1     
   33   13   36 1     
   34   14   18 1     
   35   14   15 1     
   36   15   16 2     
   37   15   37 1     
   38   16   17 1     
   39   16   38 1     
   40   17   18 2     
   41   18   39 1     
   42   19   20 1     
   43   19   40 1     
   44   19   41 1     
   45   20   42 1     
   46   20   43 1     
   47    3   45 1     
   48    3   46 1     
   49   17   47 1     
@<TRIPOS>SUBSTRUCTURE
      1 S1             1
@<TRIPOS>SET
LONE_PAIRS      STATIC     ATOMS    <user>   **** ""
3 45 46 47
DONOR_HYDROGENS      STATIC     ATOMS    <user>   **** ""
4 21 22 28 44
ATOM$BLUE        STATIC     ATOMS    COLORGROUP SYSTEM
3 45 46 47
ATOM$RED        STATIC     ATOMS    COLORGROUP SYSTEM
4 21 22 28 44
