#       Name:                AV-unprocessed.smi:2978
#       Creating user name   scv26
#       Creation time:       Fri Mar 27 16:28:46 2020


#       File generated by GOLD software.
#

@<TRIPOS>MOLECULE
AV-unprocessed.smi:2978
    39    40     1
SMALL
NO_CHARGES


@<TRIPOS>ATOM
      1 ****        -0.4663   1.4656  -0.8445 O.2            1 S1                 0.0000
      2 ****         0.3202   0.6135  -1.2604 C.2            1 S1                 0.0000
      3 ****         1.8184   0.9246  -1.3927 C.3            1 S1                 0.0000
      4 ****         2.2732   1.9887  -0.4856 N.am           1 S1                 0.0000
      5 ****         2.4282   3.2218  -1.0946 N.2            1 S1                 0.0000
      6 ****         2.8075   4.2329  -0.3920 C.2            1 S1                 0.0000
      7 ****         3.0847   4.1273   1.0234 C.2            1 S1                 0.0000
      8 ****         3.5904   5.5195   1.9143 Cl             1 S1                 0.0000
      9 ****         2.9361   2.9127   1.6095 C.2            1 S1                 0.0000
     10 ****         3.2511   2.7073   3.2986 Cl             1 S1                 0.0000
     11 ****         2.5058   1.7371   0.8398 C.2            1 S1                 0.0000
     12 ****         2.3618   0.6181   1.3339 O.2            1 S1                 0.0000
     13 ****        -0.0611  -0.6167  -1.6347 N.am           1 S1                 0.0000
     14 ****        -1.4248  -1.1281  -1.5669 C.3            1 S1                 0.0000
     15 ****        -1.7834  -1.5821  -0.1423 C.3            1 S1                 0.0000
     16 ****        -3.2107  -2.0986   0.0010 C.3            1 S1                 0.0000
     17 ****        -3.1242  -2.9118   1.2769 C.3            1 S1                 0.0000
     18 ****        -1.6726  -3.4008   1.2908 C.3            1 S1                 0.0000
     19 ****        -1.0073  -2.7096   0.2373 O.3            1 S1                 0.0000
     20 ****         2.3989   0.0166  -1.2174 H              1 S1                 0.0000
     21 ****         2.0144   1.2012  -2.4301 H              1 S1                 0.0000
     22 ****         2.9402   5.2233  -0.8277 H              1 S1                 0.0000
     23 ****         0.6482  -1.2547  -1.9655 H              1 S1                 0.0000
     24 ****        -2.1247  -0.3635  -1.9079 H              1 S1                 0.0000
     25 ****        -1.5157  -1.9633  -2.2617 H              1 S1                 0.0000
     26 ****        -1.6147  -0.7779   0.5766 H              1 S1                 0.0000
     27 ****        -3.9498  -1.2986   0.0545 H              1 S1                 0.0000
     28 ****        -3.4677  -2.7475  -0.8378 H              1 S1                 0.0000
     29 ****        -3.3084  -2.2714   2.1403 H              1 S1                 0.0000
     30 ****        -3.8462  -3.7286   1.3021 H              1 S1                 0.0000
     31 ****        -1.1948  -3.1811   2.2462 H              1 S1                 0.0000
     32 ****        -1.6060  -4.4752   1.1180 H              1 S1                 0.0000
     33 ****        -0.1316   2.3724  -0.5884 LP             1 S1                 0.0000
     34 ****        -1.4395   1.2504  -0.7631 LP             1 S1                 0.0000
     35 ****         2.2472   3.3271  -2.0725 LP             1 S1                 0.0000
     36 ****         2.0649  -0.1466   0.7619 LP             1 S1                 0.0000
     37 ****         2.5418   0.4742   2.3070 LP             1 S1                 0.0000
     38 ****        -0.1077  -2.4064   0.5515 LP             1 S1                 0.0000
     39 ****        -0.8980  -3.3202  -0.5471 LP             1 S1                 0.0000
@<TRIPOS>BOND
    1    1    2 2     
    2    2    3 1     
    3    2   13 am    
    4    3    4 1     
    5    3   20 1     
    6    3   21 1     
    7    4   11 am    
    8    4    5 1     
    9    5    6 2     
   10    6    7 1     
   11    6   22 1     
   12    7    8 1     
   13    7    9 2     
   14    9   10 1     
   15    9   11 1     
   16   11   12 2     
   17   13   14 1     
   18   13   23 1     
   19   14   15 1     
   20   14   24 1     
   21   14   25 1     
   22   15   19 1     
   23   15   16 1     
   24   15   26 1     
   25   16   17 1     
   26   16   27 1     
   27   16   28 1     
   28   17   18 1     
   29   17   29 1     
   30   17   30 1     
   31   18   19 1     
   32   18   31 1     
   33   18   32 1     
   34    1   33 1     
   35    1   34 1     
   36    5   35 1     
   37   12   36 1     
   38   12   37 1     
   39   19   38 1     
   40   19   39 1     
@<TRIPOS>SUBSTRUCTURE
      1 S1             1
@<TRIPOS>SET
LONE_PAIRS      STATIC     ATOMS    <user>   **** ""
7 33 34 35 36 37 38 39
DONOR_HYDROGENS      STATIC     ATOMS    <user>   **** ""
1 23
ATOM$BLUE        STATIC     ATOMS    COLORGROUP SYSTEM
7 33 34 35 36 37 38 39
ATOM$RED        STATIC     ATOMS    COLORGROUP SYSTEM
1 23
