AV-unprocessed.smi:3228|AV-procd|sdf|12320|dock8
  -GOLD-   2272018173D 1   1.00000     0.00000
 Structure written by MMmdl.
 31 32  0  0  0  0  0  0  0  0  1 V2000
  150.7449  140.6063  156.0204 O   0  0  0  0  0  0  0  0  0  0  0  0
  150.2258  141.6986  155.7882 C   0  0  0  0  0  0  0  0  0  0  0  0
  150.6603  142.8503  156.3197 N   0  0  0  0  0  0  0  0  0  0  0  0
  151.7883  142.9751  157.2369 C   0  0  0  0  0  0  0  0  0  0  0  0
  151.6075  144.1500  158.2215 C   0  0  1  0  0  0  0  0  0  0  0  0
  150.1950  144.3008  158.8023 C   0  0  0  0  0  0  0  0  0  0  0  0
  150.3639  145.0812  160.1150 C   0  0  0  0  0  0  0  0  0  0  0  0
  151.8728  145.1372  160.4024 C   0  0  0  0  0  0  0  0  0  0  0  0
  152.5210  144.1216  159.4559 C   0  0  1  0  0  0  0  0  0  0  0  0
  152.5193  142.8487  160.0756 O   0  0  0  0  0  0  0  0  0  0  0  0
  149.1693  141.9018  154.9817 N   0  0  0  0  0  0  0  0  0  0  0  0
  148.4276  140.9389  154.2479 C   0  0  0  0  0  0  0  0  0  0  0  0
  147.3221  141.2125  153.5447 N   0  0  0  0  0  0  0  0  0  0  0  0
  146.8019  140.0755  152.9214 C   0  0  0  0  0  0  0  0  0  0  0  0
  147.5298  138.9366  153.1617 C   0  0  0  0  0  0  0  0  0  0  0  0
  148.9052  139.2485  154.1869 S   0  0  0  0  0  0  0  0  0  0  0  0
  150.1764  143.7020  156.0754 H   0  0  0  0  0  0  0  0  0  0  0  0
  151.8768  142.0331  157.7786 H   0  0  0  0  0  0  0  0  0  0  0  0
  152.7145  143.0942  156.6726 H   0  0  0  0  0  0  0  0  0  0  0  0
  151.8368  145.0749  157.6888 H   0  0  0  0  0  0  0  0  0  0  0  0
  149.5182  144.8016  158.1092 H   0  0  0  0  0  0  0  0  0  0  0  0
  149.7733  143.3181  159.0174 H   0  0  0  0  0  0  0  0  0  0  0  0
  149.9527  146.0878  160.0329 H   0  0  0  0  0  0  0  0  0  0  0  0
  149.8325  144.5778  160.9234 H   0  0  0  0  0  0  0  0  0  0  0  0
  152.2419  146.1348  160.1600 H   0  0  0  0  0  0  0  0  0  0  0  0
  152.1092  144.9550  161.4516 H   0  0  0  0  0  0  0  0  0  0  0  0
  153.5483  144.3927  159.2103 H   0  0  0  0  0  0  0  0  0  0  0  0
  151.6363  142.6481  160.3457 H   0  0  0  0  0  0  0  0  0  0  0  0
  148.8576  142.8565  154.8818 H   0  0  0  0  0  0  0  0  0  0  0  0
  145.9072  140.1675  152.3235 H   0  0  0  0  0  0  0  0  0  0  0  0
  147.3403  137.9373  152.7990 H   0  0  0  0  0  0  0  0  0  0  0  0
  1  2  2  0  0  0  0
  2  3  1  0  0  0  0
  2 11  1  0  0  0  0
  3  4  1  0  0  0  0
  3 17  1  0  0  0  0
  4  5  1  0  0  0  0
  4 18  1  0  0  0  0
  4 19  1  0  0  0  0
  5  9  1  0  0  0  0
  5  6  1  0  0  0  0
  5 20  1  0  0  0  0
  6  7  1  0  0  0  0
  6 21  1  0  0  0  0
  6 22  1  0  0  0  0
  7  8  1  0  0  0  0
  7 23  1  0  0  0  0
  7 24  1  0  0  0  0
  8  9  1  0  0  0  0
  8 25  1  0  0  0  0
  8 26  1  0  0  0  0
  9 10  1  0  0  0  0
  9 27  1  0  0  0  0
 10 28  1  0  0  0  0
 11 12  1  0  0  0  0
 11 29  1  0  0  0  0
 12 16  1  0  0  0  0
 12 13  2  0  0  0  0
 13 14  1  0  0  0  0
 14 15  2  0  0  0  0
 14 30  1  0  0  0  0
 15 16  1  0  0  0  0
 15 31  1  0  0  0  0
M  END
> <s_m_source_file>
AV-unprocessed.smi

> <i_m_source_file_index>
3228

> <i_lp_mmshare_version>
43012

> <i_f3d_flags>
0

> <s_epik_input>
czFbY0hdW2NIXW5jMVtOSF1DKD1PKVtOSF1bQ0gyXVtDQEBIXTJbQ0gyXVtDSDJdW0NIMl1bQ0BIXTJbT0hd

> <s_epik_cmdline>
J2VwaWtfcHl0aG9uJywgJy1waCcsICc3LjAnLCAnLXRuJywgJzgnLCAnLW1hJywgJzIwMCcsICctbWV0YWxfYmluZGluZycsICctaW1hZScsICc8aW5maWxlLm1hZT4nLCAnLW9tYWUnLCAnPG91dGZpbGUubWFlPic=

> <r_lp_tautomer_probability>
0.999

> <r_epik_Ionization_Penalty>
0.000399498

> <r_epik_Ionization_Penalty_Charging>
0

> <r_epik_Ionization_Penalty_Neutral>
0.000399498

> <r_epik_State_Penalty>
0.000177984

> <r_epik_Charging_Adjusted_Penalty>
0.000177984

> <i_epik_Tot_Q>
0

> <i_epik_Tot_abs_Q>
0

> <r_epik_Metal_State_Penalty>
0.0060793

> <b_epik_Metal_Only>
0

> <s_lp_Force_Field>
OPLS_2005

> <r_lp_Energy>
23.3764

> <b_lp_Chiralities_Consistent>
1

> <s_lp_Variant>
AV-unprocessed.smi:3228-2

> <Gold.Version>
5.8.1

> <Gold.Id.Protein>
6NUR|6NUR_protein|mol2

> <Gold.PLP.Fitness>
43.0743

> <Gold.PLP.PLP>
-31.9051

> <Gold.PLP.part.hbond>
-2.0000

> <Gold.PLP.part.metal>
0.0000

> <Gold.PLP.part.buried>
-3.7015

> <Gold.PLP.part.nonpolar>
-27.0386

> <Gold.PLP.part.repulsive>
0.4962

> <Gold.PLP.ligand.clash>
0.0000

> <Gold.PLP.ligand.torsion>
0.3390

> <Gold.PLP.Chemscore.Hbond>
1.9600

> <Gold.PLP.Chemscore.CHOScore>
1.9885

> <Gold.PLP.Chemscore.Metal>
0.0000

> <Gold.Chemscore.Hbonds>
donor molecule, donor type, donor heavy atom, donor atom, acceptor molecule, acceptor atom, score
      L1  H     3    17       P1  8028  1.00
      L1  H    11    29       P1  8028  0.94
      L1  C    14    30       P1 10175  1.00
      L1  C    15    31       P1  7948  0.98

> <Gold.PLP.Chemscore.Internal.Correction>
0.0018

> <Gold.Rescore>
     Score         DG    S(hbond)    S(metal)    S(lipo)     H(rot)  DE(clash)    DE(int)     intcor
     14.62     -17.43       1.97        0.00      87.13       1.88       1.30       1.51       ----

> <Gold.Chemscore.Fitness>
14.6200

> <Gold.Chemscore.DG>
-17.4294

> <Gold.Chemscore.ZeroCoef>
-5.4800

> <Gold.Chemscore.Hbond>
1.9653

> <Gold.Chemscore.Metal>
0.0000

> <Gold.Chemscore.Lipo>
87.1332

> <Gold.Chemscore.Internal_Hbond>
0.0000

> <Gold.Chemscore.DEClash>
1.2953

> <Gold.Chemscore.DEInternal>
1.5141

> <Gold.Chemscore.Rot>
1.8786

> <Gold.Chemscore.Internal.Correction>
   9.000000E+99

> <Gold.Chemscore.Hbonds>
donor molecule, donor type, donor heavy atom, donor atom, acceptor molecule, acceptor atom, score
      L1  H     3    17       P1  8028  1.00
      L1  H    11    29       P1  8028  0.87

> <Gold.Chemscore.Hbond.Weighted>
-6.5640

> <Gold.Chemscore.Metal.Weighted>
-0.0000

> <Gold.Chemscore.Lipo.Weighted>
-10.1946

> <Gold.Chemscore.Internal_Hbond.Weighted>
0.0000

> <Gold.Chemscore.DEClash.Weighted>
1.2953

> <Gold.Chemscore.DEInternal.Weighted>
1.5141

> <Gold.Chemscore.Rot.Weighted>
4.8091

> <Gold.Chemscore.Internal.Correction.Weighted>
   9.000000E+99

> <Gold.Protein.RotatedTorsions>
[ 6907 6896 6895 6894 ] final  170.79 input  -60.11 | X-H torsion
[ 7974 7965 7964 7962 ] final    2.79 input  175.53 | X-H torsion
[ 8008 7997 7996 7995 ] final -168.11 input   59.86 | X-H torsion
[ 10167 10162 10161 10158 ] final  109.81 input  -65.29 | X-H torsion
[ 10718 10713 10712 10709 ] final  178.85 input   66.30 | X-H torsion
[ 10763 10752 10751 10750 ] final  -70.86 input  -60.55 | X-H torsion
[ 11005 11000 10999 10996 ] final   58.08 input  -57.11 | X-H torsion

> <Gold.Protein.ActiveResidues>
 VAL166  LYS551  ARG553  GLY616  TRP617  ASP618  TYR619  PRO620  LYS621  CYS622 
 ASP623  PHE694  ASN695  SER759  ASP760  ASP761  ALA762  ILE779  LEU786  VAL792 
 PHE793  MET794  SER795  GLU796  ALA797  LYS798  CYS799  TRP800  GLU811  SER814 

> <Gold.Protein.RotatedAtoms>
  151.8106  133.3381  159.3553 H   0  0  0  0  0  0  0  0  0  0  0  0  # atno 6907 bound_to 6896
  150.7327  134.5668  159.5879 H   0  0  0  0  0  0  0  0  0  0  0  0  # atno 6908 bound_to 6896
  152.3078  134.7535  160.0394 H   0  0  0  0  0  0  0  0  0  0  0  0  # atno 6909 bound_to 6896
  146.2444  140.0783  142.8358 H   0  0  0  0  0  0  0  0  0  0  0  0  # atno 7974 bound_to 7965
  155.8869  140.1018  157.1446 H   0  0  0  0  0  0  0  0  0  0  0  0  # atno 8008 bound_to 7997
  154.4011  140.1318  156.4331 H   0  0  0  0  0  0  0  0  0  0  0  0  # atno 8009 bound_to 7997
  155.7578  140.3464  155.5185 H   0  0  0  0  0  0  0  0  0  0  0  0  # atno 8010 bound_to 7997
  139.6737  144.7123  151.1641 H   0  0  0  0  0  0  0  0  0  0  0  0  # atno 10167 bound_to 10162
  156.8845  130.9827  151.3057 H   0  0  0  0  0  0  0  0  0  0  0  0  # atno 10718 bound_to 10713
  154.4236  135.5980  153.6025 H   0  0  0  0  0  0  0  0  0  0  0  0  # atno 10763 bound_to 10752
  152.9795  135.5958  154.3924 H   0  0  0  0  0  0  0  0  0  0  0  0  # atno 10764 bound_to 10752
  154.3753  135.2841  155.2221 H   0  0  0  0  0  0  0  0  0  0  0  0  # atno 10765 bound_to 10752
  140.0404  134.5882  155.9389 H   0  0  0  0  0  0  0  0  0  0  0  0  # atno 11005 bound_to 11000
  145.0755  140.9185  143.4856 LP  0  0  0  0  0  0  0  0  0  0  0  0  # atno 17320 bound_to 7965
  145.0925  139.2880  143.5727 LP  0  0  0  0  0  0  0  0  0  0  0  0  # atno 17321 bound_to 7965
  140.7627  143.5805  150.8900 LP  0  0  0  0  0  0  0  0  0  0  0  0  # atno 17342 bound_to 10162
  139.9472  143.6314  152.3038 LP  0  0  0  0  0  0  0  0  0  0  0  0  # atno 17343 bound_to 10162
  157.6120  130.8590  149.8968 LP  0  0  0  0  0  0  0  0  0  0  0  0  # atno 17370 bound_to 10713
  156.0660  130.3692  150.0877 LP  0  0  0  0  0  0  0  0  0  0  0  0  # atno 17371 bound_to 10713
  141.1880  133.6561  156.5305 LP  0  0  0  0  0  0  0  0  0  0  0  0  # atno 17394 bound_to 11000
  140.4078  134.7299  157.4818 LP  0  0  0  0  0  0  0  0  0  0  0  0  # atno 17395 bound_to 11000

$$$$
