AV-unprocessed.smi:91|AV-procd|sdf|836|dock5
  -GOLD-   2262017263D 1   1.00000     0.00000
 Structure written by MMmdl.
 60 63  0  0  0  0  0  0  0  0  1 V2000
  145.3663  142.7599  159.6796 C   0  0  0  0  0  0  0  0  0  0  0  0
  145.5734  141.4035  159.3270 O   0  0  0  0  0  0  0  0  0  0  0  0
  145.9877  141.2491  157.9793 C   0  0  0  0  0  0  0  0  0  0  0  0
  145.2785  140.0353  157.3649 C   0  0  1  0  0  0  0  0  0  0  0  0
  145.9567  139.5638  156.0671 C   0  0  0  0  0  0  0  0  0  0  0  0
  145.3468  138.3228  155.6008 N   0  0  0  0  0  0  0  0  0  0  0  0
  145.5692  137.9993  154.2998 C   0  0  0  0  0  0  0  0  0  0  0  0
  146.4392  138.7812  153.6078 N   0  0  0  0  0  0  0  0  0  0  0  0
  146.7088  138.5306  152.3241 C   0  0  0  0  0  0  0  0  0  0  0  0
  146.2293  137.5598  151.5463 N   0  0  0  0  0  0  0  0  0  0  0  0
  145.3560  136.7674  152.2298 C   0  0  0  0  0  0  0  0  0  0  0  0
  144.9672  136.9125  153.5937 C   0  0  0  0  0  0  0  0  0  0  0  0
  144.0654  135.9052  153.9250 N   0  0  0  0  0  0  0  0  0  0  0  0
  143.9266  135.2147  152.8271 C   0  0  0  0  0  0  0  0  0  0  0  0
  144.6743  135.6588  151.7620 N   0  0  0  0  0  0  0  0  0  0  0  0
  144.7275  135.0773  150.4325 C   0  0  0  0  0  0  0  0  0  0  0  0
  144.3298  133.5803  150.4046 C   0  0  1  0  0  0  0  0  0  0  0  0
  143.8265  133.1190  149.0149 C   0  0  0  0  0  0  0  0  0  0  0  0
  142.7632  132.1955  149.1309 O   0  0  0  0  0  0  0  0  0  0  0  0
  145.4688  132.6818  150.9486 C   0  0  2  0  0  0  0  0  0  0  0  0
  145.0855  131.2317  151.1865 C   0  0  0  0  0  0  0  0  0  0  0  0
  146.1932  130.7548  152.1191 C   0  0  0  0  0  0  0  0  0  0  0  0
  146.5571  131.8903  152.8961 O   0  0  0  0  0  0  0  0  0  0  0  0
  145.9726  133.0659  152.3439 C   0  0  0  0  0  0  0  0  0  0  0  0
  145.3345  137.2680  156.6071 C   0  0  0  0  0  0  0  0  0  0  0  0
  144.6842  137.7543  157.9211 C   0  0  0  0  0  0  0  0  0  0  0  0
  143.1556  137.9162  157.7821 C   0  0  0  0  0  0  0  0  0  0  0  0
  144.9839  136.7535  159.0479 C   0  0  0  0  0  0  0  0  0  0  0  0
  145.3002  138.9812  158.3280 O   0  0  0  0  0  0  0  0  0  0  0  0
  145.0542  142.8237  160.7220 H   0  0  0  0  0  0  0  0  0  0  0  0
  144.5857  143.2117  159.0663 H   0  0  0  0  0  0  0  0  0  0  0  0
  146.2819  143.3417  159.5662 H   0  0  0  0  0  0  0  0  0  0  0  0
  145.7729  142.1499  157.4019 H   0  0  0  0  0  0  0  0  0  0  0  0
  147.0675  141.0943  157.9524 H   0  0  0  0  0  0  0  0  0  0  0  0
  144.2454  140.3174  157.1618 H   0  0  0  0  0  0  0  0  0  0  0  0
  145.8878  140.3535  155.3186 H   0  0  0  0  0  0  0  0  0  0  0  0
  147.0185  139.3850  156.2408 H   0  0  0  0  0  0  0  0  0  0  0  0
  147.4106  139.2033  151.8540 H   0  0  0  0  0  0  0  0  0  0  0  0
  143.2812  134.3503  152.7669 H   0  0  0  0  0  0  0  0  0  0  0  0
  144.0725  135.6537  149.7779 H   0  0  0  0  0  0  0  0  0  0  0  0
  145.7401  135.2140  150.0521 H   0  0  0  0  0  0  0  0  0  0  0  0
  143.4835  133.4675  151.0841 H   0  0  0  0  0  0  0  0  0  0  0  0
  143.4890  133.9686  148.4219 H   0  0  0  0  0  0  0  0  0  0  0  0
  144.6300  132.6580  148.4404 H   0  0  0  0  0  0  0  0  0  0  0  0
  141.9768  132.6697  149.3539 H   0  0  0  0  0  0  0  0  0  0  0  0
  146.3144  132.7056  150.2590 H   0  0  0  0  0  0  0  0  0  0  0  0
  144.1193  131.1695  151.6899 H   0  0  0  0  0  0  0  0  0  0  0  0
  145.0328  130.6431  150.2703 H   0  0  0  0  0  0  0  0  0  0  0  0
  145.8792  129.9224  152.7491 H   0  0  0  0  0  0  0  0  0  0  0  0
  147.0629  130.4354  151.5438 H   0  0  0  0  0  0  0  0  0  0  0  0
  146.6926  133.8840  152.3174 H   0  0  0  0  0  0  0  0  0  0  0  0
  145.1436  133.3679  152.9855 H   0  0  0  0  0  0  0  0  0  0  0  0
  144.7967  136.3948  156.2358 H   0  0  0  0  0  0  0  0  0  0  0  0
  146.3641  136.9610  156.7962 H   0  0  0  0  0  0  0  0  0  0  0  0
  142.6773  136.9532  157.5993 H   0  0  0  0  0  0  0  0  0  0  0  0
  142.8783  138.5668  156.9534 H   0  0  0  0  0  0  0  0  0  0  0  0
  142.7201  138.3329  158.6906 H   0  0  0  0  0  0  0  0  0  0  0  0
  144.5686  135.7699  158.8263 H   0  0  0  0  0  0  0  0  0  0  0  0
  144.5597  137.0875  159.9953 H   0  0  0  0  0  0  0  0  0  0  0  0
  146.0579  136.6334  159.1944 H   0  0  0  0  0  0  0  0  0  0  0  0
  1  2  1  0  0  0  0
  1 30  1  0  0  0  0
  1 31  1  0  0  0  0
  1 32  1  0  0  0  0
  2  3  1  0  0  0  0
  3  4  1  0  0  0  0
  3 33  1  0  0  0  0
  3 34  1  0  0  0  0
  4 29  1  0  0  0  0
  4  5  1  0  0  0  0
  4 35  1  0  0  0  0
  5  6  1  0  0  0  0
  5 36  1  0  0  0  0
  5 37  1  0  0  0  0
  6  7  1  0  0  0  0
  6 25  1  0  0  0  0
  7 12  1  0  0  0  0
  7  8  2  0  0  0  0
  8  9  1  0  0  0  0
  9 10  2  0  0  0  0
  9 38  1  0  0  0  0
 10 11  1  0  0  0  0
 11 15  1  0  0  0  0
 11 12  2  0  0  0  0
 12 13  1  0  0  0  0
 13 14  2  0  0  0  0
 14 15  1  0  0  0  0
 14 39  1  0  0  0  0
 15 16  1  0  0  0  0
 16 17  1  0  0  0  0
 16 40  1  0  0  0  0
 16 41  1  0  0  0  0
 17 18  1  0  0  0  0
 17 20  1  0  0  0  0
 17 42  1  0  0  0  0
 18 19  1  0  0  0  0
 18 43  1  0  0  0  0
 18 44  1  0  0  0  0
 19 45  1  0  0  0  0
 20 24  1  0  0  0  0
 20 21  1  0  0  0  0
 20 46  1  0  0  0  0
 21 22  1  0  0  0  0
 21 47  1  0  0  0  0
 21 48  1  0  0  0  0
 22 23  1  0  0  0  0
 22 49  1  0  0  0  0
 22 50  1  0  0  0  0
 23 24  1  0  0  0  0
 24 51  1  0  0  0  0
 24 52  1  0  0  0  0
 25 26  1  0  0  0  0
 25 53  1  0  0  0  0
 25 54  1  0  0  0  0
 26 27  1  0  0  0  0
 26 28  1  0  0  0  0
 26 29  1  0  0  0  0
 27 55  1  0  0  0  0
 27 56  1  0  0  0  0
 27 57  1  0  0  0  0
 28 58  1  0  0  0  0
 28 59  1  0  0  0  0
 28 60  1  0  0  0  0
M  END
> <s_m_source_file>
AV-unprocessed.smi

> <i_m_source_file_index>
91

> <i_lp_mmshare_version>
43012

> <i_f3d_flags>
0

> <s_epik_input>
W0NIM11PW0NIMl1bQ0BASF0oTzEpW0NIMl1OKFtDSDJdQzEoW0NIM10pW0NIM10pYyhuW2NIXW4yKWMoYzIzKW5bY0hdbjNbQ0gyXVtDQEhdKFtDSDJdW09IXSlbQ0BASF00W0NIMl1bQ0gyXU9bQ0gyXTQ=

> <s_epik_cmdline>
J2VwaWtfcHl0aG9uJywgJy1waCcsICc3LjAnLCAnLXRuJywgJzgnLCAnLW1hJywgJzIwMCcsICctbWV0YWxfYmluZGluZycsICctaW1hZScsICc8aW5maWxlLm1hZT4nLCAnLW9tYWUnLCAnPG91dGZpbGUubWFlPic=

> <r_lp_tautomer_probability>
1

> <r_epik_Ionization_Penalty>
8.63591e-05

> <r_epik_Ionization_Penalty_Charging>
0

> <r_epik_Ionization_Penalty_Neutral>
8.63591e-05

> <r_epik_State_Penalty>
-0

> <r_epik_Charging_Adjusted_Penalty>
0

> <i_epik_Tot_Q>
0

> <i_epik_Tot_abs_Q>
0

> <r_epik_Metal_State_Penalty>
-0

> <b_epik_Metal_Only>
0

> <s_lp_Force_Field>
OPLS_2005

> <r_lp_Energy>
46.7978

> <b_lp_Chiralities_Consistent>
1

> <s_lp_Variant>
AV-unprocessed.smi:91-4

> <Gold.Version>
5.8.1

> <Gold.Id.Protein>
6NUR|6NUR_protein|mol2

> <Gold.PLP.Fitness>
41.4647

> <Gold.PLP.PLP>
-33.0447

> <Gold.PLP.part.hbond>
-3.9252

> <Gold.PLP.part.metal>
0.0000

> <Gold.PLP.part.buried>
-5.5204

> <Gold.PLP.part.nonpolar>
-26.0708

> <Gold.PLP.part.repulsive>
1.7214

> <Gold.PLP.ligand.clash>
0.0000

> <Gold.PLP.ligand.torsion>
1.6622

> <Gold.PLP.Chemscore.Hbond>
2.7248

> <Gold.PLP.Chemscore.CHOScore>
1.0000

> <Gold.PLP.Chemscore.Metal>
0.0000

> <Gold.Chemscore.Hbonds>
donor molecule, donor type, donor heavy atom, donor atom, acceptor molecule, acceptor atom, score
      L1  H    19    45       P1 10186  1.00
      P1  H  6934  6946       L1     2  0.90
      P1  H 10785 10796       L1    19  0.75
      L1  C     9    38       P1  7957  1.00

> <Gold.PLP.Chemscore.Internal.Correction>
0.5700

> <Gold.Rescore>
     Score         DG    S(hbond)    S(metal)    S(lipo)     H(rot)  DE(clash)    DE(int)     intcor
      7.57     -11.03       1.78        0.00      62.96       3.03       0.71       2.75       ----

> <Gold.Chemscore.Fitness>
7.5741

> <Gold.Chemscore.DG>
-11.0267

> <Gold.Chemscore.ZeroCoef>
-5.4800

> <Gold.Chemscore.Hbond>
1.7765

> <Gold.Chemscore.Metal>
0.0000

> <Gold.Chemscore.Lipo>
62.9572

> <Gold.Chemscore.Internal_Hbond>
0.0000

> <Gold.Chemscore.DEClash>
0.7072

> <Gold.Chemscore.DEInternal>
2.7454

> <Gold.Chemscore.Rot>
3.0284

> <Gold.Chemscore.Internal.Correction>
   9.000000E+99

> <Gold.Chemscore.Hbonds>
donor molecule, donor type, donor heavy atom, donor atom, acceptor molecule, acceptor atom, score
      L1  H    19    45       P1 10186  0.91
      P1  H  6934  6946       L1     2  0.27
      P1  H 10785 10796       L1    19  0.71

> <Gold.Chemscore.Hbond.Weighted>
-5.9335

> <Gold.Chemscore.Metal.Weighted>
-0.0000

> <Gold.Chemscore.Lipo.Weighted>
-7.3660

> <Gold.Chemscore.Internal_Hbond.Weighted>
0.0000

> <Gold.Chemscore.DEClash.Weighted>
0.7072

> <Gold.Chemscore.DEInternal.Weighted>
2.7454

> <Gold.Chemscore.Rot.Weighted>
7.7528

> <Gold.Chemscore.Internal.Correction.Weighted>
   9.000000E+99

> <Gold.Protein.RotatedTorsions>
[ 6907 6896 6895 6894 ] final -124.50 input  -60.11 | X-H torsion
[ 7974 7965 7964 7962 ] final  161.64 input  175.53 | X-H torsion
[ 8008 7997 7996 7995 ] final   91.87 input   59.86 | X-H torsion
[ 10167 10162 10161 10158 ] final   18.42 input  -65.29 | X-H torsion
[ 10718 10713 10712 10709 ] final -131.77 input   66.30 | X-H torsion
[ 10763 10752 10751 10750 ] final -144.93 input  -60.55 | X-H torsion
[ 11005 11000 10999 10996 ] final  -71.76 input  -57.11 | X-H torsion

> <Gold.Protein.ActiveResidues>
 VAL166  LYS551  ARG553  GLY616  TRP617  ASP618  TYR619  PRO620  LYS621  CYS622 
 ASP623  PHE694  ASN695  SER759  ASP760  ASP761  ALA762  ILE779  LEU786  VAL792 
 PHE793  MET794  SER795  GLU796  ALA797  LYS798  CYS799  TRP800  GLU811  SER814 

> <Gold.Protein.RotatedAtoms>
  150.8774  133.7419  159.2942 H   0  0  0  0  0  0  0  0  0  0  0  0  # atno 6907 bound_to 6896
  151.5011  135.1060  159.9839 H   0  0  0  0  0  0  0  0  0  0  0  0  # atno 6908 bound_to 6896
  152.4737  133.8043  159.7025 H   0  0  0  0  0  0  0  0  0  0  0  0  # atno 6909 bound_to 6896
  144.7675  139.7927  143.6309 H   0  0  0  0  0  0  0  0  0  0  0  0  # atno 7974 bound_to 7965
  156.0288  140.3332  155.7117 H   0  0  0  0  0  0  0  0  0  0  0  0  # atno 8008 bound_to 7997
  155.5916  140.0647  157.2775 H   0  0  0  0  0  0  0  0  0  0  0  0  # atno 8009 bound_to 7997
  154.4344  140.1826  156.1068 H   0  0  0  0  0  0  0  0  0  0  0  0  # atno 8010 bound_to 7997
  140.5655  143.9259  150.6673 H   0  0  0  0  0  0  0  0  0  0  0  0  # atno 10167 bound_to 10162
  156.2277  130.7018  151.0825 H   0  0  0  0  0  0  0  0  0  0  0  0  # atno 10718 bound_to 10713
  154.8406  135.3427  154.6423 H   0  0  0  0  0  0  0  0  0  0  0  0  # atno 10763 bound_to 10752
  153.7035  135.6968  153.5061 H   0  0  0  0  0  0  0  0  0  0  0  0  # atno 10764 bound_to 10752
  153.2505  135.4355  155.0747 H   0  0  0  0  0  0  0  0  0  0  0  0  # atno 10765 bound_to 10752
  141.1597  133.6827  156.6955 H   0  0  0  0  0  0  0  0  0  0  0  0  # atno 11005 bound_to 11000
  146.1796  139.4982  142.9875 LP  0  0  0  0  0  0  0  0  0  0  0  0  # atno 17320 bound_to 7965
  145.6423  141.0281  143.1805 LP  0  0  0  0  0  0  0  0  0  0  0  0  # atno 17321 bound_to 7965
  140.2721  143.3449  152.1229 LP  0  0  0  0  0  0  0  0  0  0  0  0  # atno 17342 bound_to 10162
  139.5091  144.6861  151.5884 LP  0  0  0  0  0  0  0  0  0  0  0  0  # atno 17343 bound_to 10162
  157.7118  131.0730  150.6472 LP  0  0  0  0  0  0  0  0  0  0  0  0  # atno 17370 bound_to 10713
  156.6538  130.4492  149.5710 LP  0  0  0  0  0  0  0  0  0  0  0  0  # atno 17371 bound_to 10713
  140.2998  134.8173  157.4088 LP  0  0  0  0  0  0  0  0  0  0  0  0  # atno 17394 bound_to 11000
  140.1272  134.5143  155.8135 LP  0  0  0  0  0  0  0  0  0  0  0  0  # atno 17395 bound_to 11000

$$$$
