AV-unprocessed.smi:72|AV-procd|sdf|672|dock1
  -GOLD-   2262016573D 1   1.00000     0.00000
 Structure written by MMmdl.
 29 30  0  0  0  0  0  0  0  0  1 V2000
  152.6878  136.4841  159.4713 N   0  0  0  0  0  0  0  0  0  0  0  0
  152.2901  137.5370  158.8504 C   0  0  0  0  0  0  0  0  0  0  0  0
  151.2709  138.3975  159.2828 N   0  0  0  0  0  0  0  0  0  0  0  0
  150.9967  139.4454  158.5692 C   0  0  0  0  0  0  0  0  0  0  0  0
  151.7395  139.7873  157.3609 N   0  0  0  0  0  0  0  0  0  0  0  0
  151.3924  140.9871  156.4874 C   0  0  1  0  0  0  0  0  0  0  0  0
  150.7488  140.5253  155.3425 O   0  0  0  0  0  0  0  0  0  0  0  0
  149.3469  140.5759  155.5586 C   0  0  2  0  0  0  0  0  0  0  0  0
  148.5880  140.5440  154.2193 C   0  0  0  0  0  0  0  0  0  0  0  0
  149.3253  141.1444  153.1740 O   0  0  0  0  0  0  0  0  0  0  0  0
  149.1115  141.7999  156.4642 C   0  0  1  0  0  0  0  0  0  0  0  0
  148.1151  141.5037  157.4225 O   0  0  0  0  0  0  0  0  0  0  0  0
  150.4646  142.0298  157.1500 C   0  0  2  0  0  0  0  0  0  0  0  0
  150.9217  143.3432  156.8974 O   0  0  0  0  0  0  0  0  0  0  0  0
  152.7078  138.8747  156.8678 C   0  0  0  0  0  0  0  0  0  0  0  0
  153.3011  139.0460  155.8030 O   0  0  0  0  0  0  0  0  0  0  0  0
  152.9539  137.7984  157.6459 N   0  0  0  0  0  0  0  0  0  0  0  0
  152.3532  141.4320  156.2242 H   0  0  0  0  0  0  0  0  0  0  0  0
  149.0956  139.6643  156.1038 H   0  0  0  0  0  0  0  0  0  0  0  0
  148.8093  142.6782  155.8930 H   0  0  0  0  0  0  0  0  0  0  0  0
  150.4379  141.9120  158.2330 H   0  0  0  0  0  0  0  0  0  0  0  0
  153.4281  136.0272  158.9589 H   0  0  0  0  0  0  0  0  0  0  0  0
  150.1872  140.1250  158.8311 H   0  0  0  0  0  0  0  0  0  0  0  0
  148.3378  139.5187  153.9461 H   0  0  0  0  0  0  0  0  0  0  0  0
  147.6472  141.0859  154.3187 H   0  0  0  0  0  0  0  0  0  0  0  0
  149.7241  140.4617  152.6561 H   0  0  0  0  0  0  0  0  0  0  0  0
  147.8763  140.5937  157.3322 H   0  0  0  0  0  0  0  0  0  0  0  0
  150.3803  143.7260  156.2240 H   0  0  0  0  0  0  0  0  0  0  0  0
  153.6531  137.1444  157.3262 H   0  0  0  0  0  0  0  0  0  0  0  0
  1  2  2  0  0  0  0
  1 22  1  0  0  0  0
  2 17  1  0  0  0  0
  2  3  1  0  0  0  0
  3  4  2  0  0  0  0
  4  5  1  0  0  0  0
  4 23  1  0  0  0  0
  5  6  1  0  0  0  0
  5 15  1  0  0  0  0
  6 18  1  0  0  0  0
  6 13  1  0  0  0  0
  6  7  1  0  0  0  0
  7  8  1  0  0  0  0
  8 19  1  0  0  0  0
  8  9  1  0  0  0  0
  8 11  1  0  0  0  0
  9 10  1  0  0  0  0
  9 24  1  0  0  0  0
  9 25  1  0  0  0  0
 10 26  1  0  0  0  0
 11 20  1  0  0  0  0
 11 12  1  0  0  0  0
 11 13  1  0  0  0  0
 12 27  1  0  0  0  0
 13 21  1  0  0  0  0
 13 14  1  0  0  0  0
 14 28  1  0  0  0  0
 15 16  2  0  0  0  0
 15 17  1  0  0  0  0
 17 29  1  0  0  0  0
M  END
> <s_m_source_file>
AV-unprocessed.smi

> <i_m_source_file_index>
72

> <i_lp_mmshare_version>
43012

> <i_f3d_flags>
0

> <s_epik_input>
W05IMl1jMW5bY0hdbihjKD1PKW4xKVtDQEBIXTJPW0NASF0oW0NIMl1bT0hdKVtDQEBIXShbT0hdKVtDQEhdMltPSF0=

> <s_epik_cmdline>
J2VwaWtfcHl0aG9uJywgJy1waCcsICc3LjAnLCAnLXRuJywgJzgnLCAnLW1hJywgJzIwMCcsICctbWV0YWxfYmluZGluZycsICctaW1hZScsICc8aW5maWxlLm1hZT4nLCAnLW9tYWUnLCAnPG91dGZpbGUubWFlPic=

> <r_lp_tautomer_probability>
7.17554e-07

> <r_epik_Ionization_Penalty>
0.0066451

> <r_epik_Ionization_Penalty_Charging>
0.00663793

> <r_epik_Ionization_Penalty_Neutral>
7.17052e-06

> <r_epik_State_Penalty>
0.419231

> <r_epik_Charging_Adjusted_Penalty>
0.425868

> <i_epik_Tot_Q>
0

> <i_epik_Tot_abs_Q>
0

> <r_epik_Metal_State_Penalty>
1.44144

> <b_epik_Metal_Only>
0

> <s_epik_Chemistry_Notes>
This compound contains an acetal/aminal-like group ( X-CH(R)-Y where X, Y are N, S, or O) that may be acid/base labile, releasing an aldehyde.

> <s_lp_Force_Field>
OPLS_2005

> <r_lp_Energy>
39.4446

> <b_lp_Chiralities_Consistent>
1

> <s_lp_Variant>
AV-unprocessed.smi:72-10

> <Gold.Version>
5.8.1

> <Gold.Id.Protein>
6NUR|6NUR_protein|mol2

> <Gold.PLP.Fitness>
38.3011

> <Gold.PLP.PLP>
-22.4880

> <Gold.PLP.part.hbond>
-6.2333

> <Gold.PLP.part.metal>
0.0000

> <Gold.PLP.part.buried>
-2.9166

> <Gold.PLP.part.nonpolar>
-13.1024

> <Gold.PLP.part.repulsive>
0.1845

> <Gold.PLP.ligand.clash>
0.0000

> <Gold.PLP.ligand.torsion>
0.6272

> <Gold.PLP.Chemscore.Hbond>
5.6629

> <Gold.PLP.Chemscore.CHOScore>
0.0000

> <Gold.PLP.Chemscore.Metal>
0.0000

> <Gold.Chemscore.Hbonds>
donor molecule, donor type, donor heavy atom, donor atom, acceptor molecule, acceptor atom, score
      L1  H    10    26       P1  7957  0.67
      L1  H    14    28       P1  8028  1.00
      P1  H  6896  6908       L1     1  0.85
      P1  H  7989  7998       L1     7  0.89
      P1  H  7997  8010       L1    16  1.00
      P1  H  8011  8017       L1    10  0.95

> <Gold.PLP.Chemscore.Internal.Correction>
0.0789

> <Gold.Rescore>
     Score         DG    S(hbond)    S(metal)    S(lipo)     H(rot)  DE(clash)    DE(int)     intcor
      9.82     -11.71       4.14        0.00      23.89       4.06       0.37       1.53       ----

> <Gold.Chemscore.Fitness>
9.8180

> <Gold.Chemscore.DG>
-11.7132

> <Gold.Chemscore.ZeroCoef>
-5.4800

> <Gold.Chemscore.Hbond>
4.1412

> <Gold.Chemscore.Metal>
0.0000

> <Gold.Chemscore.Lipo>
23.8907

> <Gold.Chemscore.Internal_Hbond>
0.0000

> <Gold.Chemscore.DEClash>
0.3671

> <Gold.Chemscore.DEInternal>
1.5282

> <Gold.Chemscore.Rot>
4.0600

> <Gold.Chemscore.Internal.Correction>
   9.000000E+99

> <Gold.Chemscore.Hbonds>
donor molecule, donor type, donor heavy atom, donor atom, acceptor molecule, acceptor atom, score
      L1  H    10    26       P1  7957  0.65
      L1  H    14    28       P1  8028  0.96
      P1  H  6896  6908       L1     1  0.14
      P1  H  7989  7998       L1     7  0.76
      P1  H  7997  8010       L1    16  0.52
      P1  H  8011  8017       L1    10  0.21

> <Gold.Chemscore.Hbond.Weighted>
-13.8316

> <Gold.Chemscore.Metal.Weighted>
-0.0000

> <Gold.Chemscore.Lipo.Weighted>
-2.7952

> <Gold.Chemscore.Internal_Hbond.Weighted>
0.0000

> <Gold.Chemscore.DEClash.Weighted>
0.3671

> <Gold.Chemscore.DEInternal.Weighted>
1.5282

> <Gold.Chemscore.Rot.Weighted>
10.3936

> <Gold.Chemscore.Internal.Correction.Weighted>
   9.000000E+99

> <Gold.Protein.RotatedTorsions>
[ 6907 6896 6895 6894 ] final  -99.83 input  -60.11 | X-H torsion
[ 7974 7965 7964 7962 ] final  142.55 input  175.53 | X-H torsion
[ 8008 7997 7996 7995 ] final   92.47 input   59.86 | X-H torsion
[ 10167 10162 10161 10158 ] final -166.19 input  -65.29 | X-H torsion
[ 10718 10713 10712 10709 ] final -135.79 input   66.30 | X-H torsion
[ 10763 10752 10751 10750 ] final -167.62 input  -60.55 | X-H torsion
[ 11005 11000 10999 10996 ] final  119.52 input  -57.11 | X-H torsion

> <Gold.Protein.ActiveResidues>
 VAL166  LYS551  ARG553  GLY616  TRP617  ASP618  TYR619  PRO620  LYS621  CYS622 
 ASP623  PHE694  ASN695  SER759  ASP760  ASP761  ALA762  ILE779  LEU786  VAL792 
 PHE793  MET794  SER795  GLU796  ALA797  LYS798  CYS799  TRP800  GLU811  SER814 

> <Gold.Protein.RotatedAtoms>
  150.7094  134.0981  159.3955 H   0  0  0  0  0  0  0  0  0  0  0  0  # atno 6907 bound_to 6896
  151.8967  135.0393  160.0512 H   0  0  0  0  0  0  0  0  0  0  0  0  # atno 6908 bound_to 6896
  152.2448  133.5130  159.5327 H   0  0  0  0  0  0  0  0  0  0  0  0  # atno 6909 bound_to 6896
  144.8998  139.5440  143.5759 H   0  0  0  0  0  0  0  0  0  0  0  0  # atno 7974 bound_to 7965
  156.0357  140.3325  155.7188 H   0  0  0  0  0  0  0  0  0  0  0  0  # atno 8008 bound_to 7997
  155.5819  140.0638  157.2798 H   0  0  0  0  0  0  0  0  0  0  0  0  # atno 8009 bound_to 7997
  154.4372  140.1842  156.0973 H   0  0  0  0  0  0  0  0  0  0  0  0  # atno 8010 bound_to 7997
  139.6131  144.0774  152.1862 H   0  0  0  0  0  0  0  0  0  0  0  0  # atno 10167 bound_to 10162
  156.2700  130.7260  151.1223 H   0  0  0  0  0  0  0  0  0  0  0  0  # atno 10718 bound_to 10713
  154.6713  135.2940  154.9738 H   0  0  0  0  0  0  0  0  0  0  0  0  # atno 10763 bound_to 10752
  154.0764  135.6611  153.4835 H   0  0  0  0  0  0  0  0  0  0  0  0  # atno 10764 bound_to 10752
  153.0488  135.5187  154.7710 H   0  0  0  0  0  0  0  0  0  0  0  0  # atno 10765 bound_to 10752
  139.9149  134.9629  156.7667 H   0  0  0  0  0  0  0  0  0  0  0  0  # atno 11005 bound_to 11000
  146.3102  139.7718  142.9026 LP  0  0  0  0  0  0  0  0  0  0  0  0  # atno 17320 bound_to 7965
  145.3637  141.0330  143.3270 LP  0  0  0  0  0  0  0  0  0  0  0  0  # atno 17321 bound_to 7965
  140.0397  144.6017  150.7421 LP  0  0  0  0  0  0  0  0  0  0  0  0  # atno 17342 bound_to 10162
  140.7333  143.2715  151.3873 LP  0  0  0  0  0  0  0  0  0  0  0  0  # atno 17343 bound_to 10162
  157.7280  131.0635  150.5838 LP  0  0  0  0  0  0  0  0  0  0  0  0  # atno 17370 bound_to 10713
  156.5934  130.4335  149.5927 LP  0  0  0  0  0  0  0  0  0  0  0  0  # atno 17371 bound_to 10713
  140.6653  133.9608  155.7827 LP  0  0  0  0  0  0  0  0  0  0  0  0  # atno 17394 bound_to 11000
  141.0615  134.0339  157.3652 LP  0  0  0  0  0  0  0  0  0  0  0  0  # atno 17395 bound_to 11000

$$$$
