#       Name:                AV-unprocessed.smi:753
#       Creating user name   scv26
#       Creation time:       Fri Mar 27 00:59:30 2020


#       File generated by GOLD software.
#

@<TRIPOS>MOLECULE
AV-unprocessed.smi:753
    46    48     1
SMALL
NO_CHARGES


@<TRIPOS>ATOM
      1 ****        -3.0433   6.9396   0.1068 C.3            1 S1                 0.0000
      2 ****        -2.4963   5.5324   0.2247 C.ar           1 S1                 0.0000
      3 ****        -2.2217   4.9655   1.4872 C.ar           1 S1                 0.0000
      4 ****        -1.7120   3.6538   1.5366 C.ar           1 S1                 0.0000
      5 ****        -1.4996   2.9612   0.3270 C.ar           1 S1                 0.0000
      6 ****        -0.9488   1.5492   0.3261 C.3            1 S1                 0.0000
      7 ****         0.5736   1.5238   0.1195 C.3            1 S1                 0.0000
      8 ****         1.0865   0.1601   0.1118 N.am           1 S1                 0.0000
      9 ****         1.3599  -0.5681   1.2073 C.2            1 S1                 0.0000
     10 ****         1.2157  -0.1485   2.3540 O.2            1 S1                 0.0000
     11 ****         1.8059  -1.8115   0.9570 N.am           1 S1                 0.0000
     12 ****         2.1869  -2.8414   1.9273 C.3            1 S1                 0.0000
     13 ****         2.3868  -4.2104   1.2401 C.3            1 S1                 0.0000
     14 ****         3.8364  -4.5779   1.6072 C.3            1 S1                 0.0000
     15 ****         4.8106  -3.6755   0.8263 C.3            1 S1                 0.0000
     16 ****         4.6576  -2.3161   1.5339 C.3            1 S1                 0.0000
     17 ****         3.5693  -2.6061   2.5901 C.3            1 S1                 0.0000
     18 ****         3.9503  -4.0191   3.0192 C.3            1 S1                 0.0000
     19 ****        -1.8067   3.6189  -0.8826 C.ar           1 S1                 0.0000
     20 ****        -2.2940   4.8771  -0.9398 N.ar           1 S1                 0.0000
     21 ****        -3.2146   7.3810   1.0890 H              1 S1                 0.0000
     22 ****        -3.9904   6.9350  -0.4332 H              1 S1                 0.0000
     23 ****        -2.3415   7.5748  -0.4342 H              1 S1                 0.0000
     24 ****        -2.3952   5.5200   2.3978 H              1 S1                 0.0000
     25 ****        -1.4878   3.1903   2.4863 H              1 S1                 0.0000
     26 ****        -1.2114   1.0666   1.2686 H              1 S1                 0.0000
     27 ****        -1.4435   0.9775  -0.4604 H              1 S1                 0.0000
     28 ****         0.8275   1.9853  -0.8352 H              1 S1                 0.0000
     29 ****         1.0753   2.1093   0.8920 H              1 S1                 0.0000
     30 ****         1.2356  -0.2671  -0.7908 H              1 S1                 0.0000
     31 ****         1.8992  -2.0685  -0.0150 H              1 S1                 0.0000
     32 ****         1.4129  -2.9388   2.6908 H              1 S1                 0.0000
     33 ****         1.6889  -4.9438   1.6462 H              1 S1                 0.0000
     34 ****         2.2370  -4.1794   0.1597 H              1 S1                 0.0000
     35 ****         4.0543  -5.6421   1.5132 H              1 S1                 0.0000
     36 ****         5.8351  -4.0394   0.9127 H              1 S1                 0.0000
     37 ****         4.5621  -3.6221  -0.2343 H              1 S1                 0.0000
     38 ****         5.5931  -2.0368   2.0204 H              1 S1                 0.0000
     39 ****         4.3985  -1.5103   0.8472 H              1 S1                 0.0000
     40 ****         3.5476  -1.8768   3.4004 H              1 S1                 0.0000
     41 ****         3.2420  -4.4648   3.7200 H              1 S1                 0.0000
     42 ****         4.9573  -4.0916   3.4342 H              1 S1                 0.0000
     43 ****        -1.6544   3.1244  -1.8308 H              1 S1                 0.0000
     44 ****         0.8786   0.7803   2.5078 LP             1 S1                 0.0000
     45 ****         1.4355  -0.7361   3.1327 LP             1 S1                 0.0000
     46 ****        -2.4989   5.3107  -1.8173 LP             1 S1                 0.0000
@<TRIPOS>BOND
    1    1    2 1     
    2    1   21 1     
    3    1   22 1     
    4    1   23 1     
    5    2   20 ar    
    6    2    3 ar    
    7    3    4 ar    
    8    3   24 1     
    9    4    5 ar    
   10    4   25 1     
   11    5    6 1     
   12    5   19 ar    
   13    6    7 1     
   14    6   26 1     
   15    6   27 1     
   16    7    8 1     
   17    7   28 1     
   18    7   29 1     
   19    8    9 am    
   20    8   30 1     
   21    9   10 2     
   22    9   11 am    
   23   11   12 1     
   24   11   31 1     
   25   12   17 1     
   26   12   13 1     
   27   12   32 1     
   28   13   14 1     
   29   13   33 1     
   30   13   34 1     
   31   14   18 1     
   32   14   15 1     
   33   14   35 1     
   34   15   16 1     
   35   15   36 1     
   36   15   37 1     
   37   16   17 1     
   38   16   38 1     
   39   16   39 1     
   40   17   18 1     
   41   17   40 1     
   42   18   41 1     
   43   18   42 1     
   44   19   20 ar    
   45   19   43 1     
   46   10   44 1     
   47   10   45 1     
   48   20   46 1     
@<TRIPOS>SUBSTRUCTURE
      1 S1             1
@<TRIPOS>SET
LONE_PAIRS      STATIC     ATOMS    <user>   **** ""
3 44 45 46
DONOR_HYDROGENS      STATIC     ATOMS    <user>   **** ""
2 30 31
ATOM$BLUE        STATIC     ATOMS    COLORGROUP SYSTEM
3 44 45 46
ATOM$RED        STATIC     ATOMS    COLORGROUP SYSTEM
2 30 31
