AV-unprocessed.smi:1062|AV-procd|sdf|4661|dock6
  -GOLD-   22720 3173D 1   1.00000     0.00000
 Structure written by MMmdl.
 38 40  0  0  0  0  0  0  0  0  1 V2000
  153.5968  142.3426  160.6156 C   0  0  0  0  0  0  0  0  0  0  0  0
  152.3394  141.6628  160.0490 C   0  0  0  0  0  0  0  0  0  0  0  0
  152.0280  142.1206  158.6856 N   0  0  0  0  0  0  0  0  0  0  0  0
  152.1544  141.2763  157.6305 C   0  0  0  0  0  0  0  0  0  0  0  0
  152.7294  140.1900  157.7320 O   0  0  0  0  0  0  0  0  0  0  0  0
  151.5484  141.6752  156.2694 C   0  0  0  0  0  0  0  0  0  0  0  0
  150.9821  140.4882  155.5416 C   0  0  0  0  0  0  0  0  0  0  0  0
  151.6107  139.2907  155.3017 C   0  0  0  0  0  0  0  0  0  0  0  0
  150.5915  138.1816  154.4263 S   0  0  0  0  0  0  0  0  0  0  0  0
  149.3246  139.4120  154.4098 C   0  0  0  0  0  0  0  0  0  0  0  0
  148.0287  139.2859  153.8271 N   0  0  0  0  0  0  0  0  0  0  0  0
  147.6062  138.0604  153.1561 C   0  0  0  0  0  0  0  0  0  0  0  0
  146.1854  138.3675  152.6934 C   0  0  0  0  0  0  0  0  0  0  0  0
  145.9978  139.7188  153.1661 N   0  0  0  0  0  0  0  0  0  0  0  0
  147.0577  140.2202  153.8042 C   0  0  0  0  0  0  0  0  0  0  0  0
  147.1008  141.3535  154.2793 O   0  0  0  0  0  0  0  0  0  0  0  0
  149.6845  140.5452  155.0217 N   0  0  0  0  0  0  0  0  0  0  0  0
  151.3834  143.4058  158.6239 C   0  0  0  0  0  0  0  0  0  0  0  0
  152.2114  144.6696  158.4760 C   0  0  0  0  0  0  0  0  0  0  0  0
  151.5272  144.3729  159.7832 C   0  0  0  0  0  0  0  0  0  0  0  0
  153.8309  141.9545  161.6070 H   0  0  0  0  0  0  0  0  0  0  0  0
  153.4675  143.4210  160.7085 H   0  0  0  0  0  0  0  0  0  0  0  0
  154.4623  142.1625  159.9773 H   0  0  0  0  0  0  0  0  0  0  0  0
  152.4904  140.5834  160.0699 H   0  0  0  0  0  0  0  0  0  0  0  0
  151.4886  141.8459  160.7074 H   0  0  0  0  0  0  0  0  0  0  0  0
  150.7619  142.4181  156.4043 H   0  0  0  0  0  0  0  0  0  0  0  0
  152.3259  142.1472  155.6685 H   0  0  0  0  0  0  0  0  0  0  0  0
  152.6071  138.9926  155.5924 H   0  0  0  0  0  0  0  0  0  0  0  0
  148.2610  137.8374  152.3126 H   0  0  0  0  0  0  0  0  0  0  0  0
  147.6268  137.2158  153.8463 H   0  0  0  0  0  0  0  0  0  0  0  0
  146.0886  138.3235  151.6081 H   0  0  0  0  0  0  0  0  0  0  0  0
  145.4529  137.6968  153.1441 H   0  0  0  0  0  0  0  0  0  0  0  0
  145.1389  140.2288  153.0185 H   0  0  0  0  0  0  0  0  0  0  0  0
  150.4167  143.4127  158.1236 H   0  0  0  0  0  0  0  0  0  0  0  0
  153.2961  144.5835  158.4614 H   0  0  0  0  0  0  0  0  0  0  0  0
  151.8002  145.4684  157.8624 H   0  0  0  0  0  0  0  0  0  0  0  0
  150.6594  144.9751  160.0444 H   0  0  0  0  0  0  0  0  0  0  0  0
  152.1641  144.0885  160.6189 H   0  0  0  0  0  0  0  0  0  0  0  0
  1  2  1  0  0  0  0
  1 21  1  0  0  0  0
  1 22  1  0  0  0  0
  1 23  1  0  0  0  0
  2  3  1  0  0  0  0
  2 24  1  0  0  0  0
  2 25  1  0  0  0  0
  3  4  1  0  0  0  0
  3 18  1  0  0  0  0
  4  5  2  0  0  0  0
  4  6  1  0  0  0  0
  6  7  1  0  0  0  0
  6 26  1  0  0  0  0
  6 27  1  0  0  0  0
  7 17  1  0  0  0  0
  7  8  2  0  0  0  0
  8  9  1  0  0  0  0
  8 28  1  0  0  0  0
  9 10  1  0  0  0  0
 10 11  1  0  0  0  0
 10 17  2  0  0  0  0
 11 15  1  0  0  0  0
 11 12  1  0  0  0  0
 12 13  1  0  0  0  0
 12 29  1  0  0  0  0
 12 30  1  0  0  0  0
 13 14  1  0  0  0  0
 13 31  1  0  0  0  0
 13 32  1  0  0  0  0
 14 15  1  0  0  0  0
 14 33  1  0  0  0  0
 15 16  2  0  0  0  0
 18 20  1  0  0  0  0
 18 19  1  0  0  0  0
 18 34  1  0  0  0  0
 19 20  1  0  0  0  0
 19 35  1  0  0  0  0
 19 36  1  0  0  0  0
 20 37  1  0  0  0  0
 20 38  1  0  0  0  0
M  END
> <s_m_source_file>
AV-unprocessed.smi

> <i_m_source_file_index>
1062

> <i_lp_mmshare_version>
43012

> <i_f3d_flags>
0

> <s_epik_input>
W0NIMl0xW0NIMl1bQ0hdMU4oW0NIMl1bQ0gzXSlDKD1PKVtDSDJdYzJbY0hdc2MobjIpTjNbQ0gyXVtDSDJdW05IXUMzPU8=

> <s_epik_cmdline>
J2VwaWtfcHl0aG9uJywgJy1waCcsICc3LjAnLCAnLXRuJywgJzgnLCAnLW1hJywgJzIwMCcsICctbWV0YWxfYmluZGluZycsICctaW1hZScsICc8aW5maWxlLm1hZT4nLCAnLW9tYWUnLCAnPG91dGZpbGUubWFlPic=

> <r_lp_tautomer_probability>
1

> <r_epik_Ionization_Penalty>
0.000125669

> <r_epik_Ionization_Penalty_Charging>
0

> <r_epik_Ionization_Penalty_Neutral>
0.000125669

> <r_epik_State_Penalty>
-0

> <r_epik_Charging_Adjusted_Penalty>
0

> <i_epik_Tot_Q>
0

> <i_epik_Tot_abs_Q>
0

> <r_epik_Metal_State_Penalty>
-0

> <b_epik_Metal_Only>
0

> <s_lp_Force_Field>
OPLS_2005

> <r_lp_Energy>
60.5217

> <b_lp_Chiralities_Consistent>
1

> <s_lp_Variant>
AV-unprocessed.smi:1062-1

> <Gold.Version>
5.8.1

> <Gold.Id.Protein>
6NUR|6NUR_protein|mol2

> <Gold.PLP.Fitness>
40.9210

> <Gold.PLP.PLP>
-37.3090

> <Gold.PLP.part.hbond>
-2.4607

> <Gold.PLP.part.metal>
0.0000

> <Gold.PLP.part.buried>
0.6469

> <Gold.PLP.part.nonpolar>
-35.6061

> <Gold.PLP.part.repulsive>
0.2543

> <Gold.PLP.ligand.clash>
0.0000

> <Gold.PLP.ligand.torsion>
1.1767

> <Gold.PLP.Chemscore.Hbond>
1.8703

> <Gold.PLP.Chemscore.CHOScore>
0.0000

> <Gold.PLP.Chemscore.Metal>
0.0000

> <Gold.Chemscore.Hbonds>
donor molecule, donor type, donor heavy atom, donor atom, acceptor molecule, acceptor atom, score
      L1  H    14    33       P1 10175  1.00
      P1  H  7997  8008       L1     5  0.99

> <Gold.PLP.Chemscore.Internal.Correction>
0.3545

> <Gold.Rescore>
     Score         DG    S(hbond)    S(metal)    S(lipo)     H(rot)  DE(clash)    DE(int)     intcor
     11.31     -17.80       1.53        0.00      97.70       1.65       2.98       3.51       ----

> <Gold.Chemscore.Fitness>
11.3116

> <Gold.Chemscore.DG>
-17.7958

> <Gold.Chemscore.ZeroCoef>
-5.4800

> <Gold.Chemscore.Hbond>
1.5278

> <Gold.Chemscore.Metal>
0.0000

> <Gold.Chemscore.Lipo>
97.7014

> <Gold.Chemscore.Internal_Hbond>
0.0000

> <Gold.Chemscore.DEClash>
2.9754

> <Gold.Chemscore.DEInternal>
3.5088

> <Gold.Chemscore.Rot>
1.6477

> <Gold.Chemscore.Internal.Correction>
   9.000000E+99

> <Gold.Chemscore.Hbonds>
donor molecule, donor type, donor heavy atom, donor atom, acceptor molecule, acceptor atom, score
      L1  H    14    33       P1 10175  0.96
      P1  H  7997  8008       L1     5  0.87

> <Gold.Chemscore.Hbond.Weighted>
-5.1028

> <Gold.Chemscore.Metal.Weighted>
-0.0000

> <Gold.Chemscore.Lipo.Weighted>
-11.4311

> <Gold.Chemscore.Internal_Hbond.Weighted>
0.0000

> <Gold.Chemscore.DEClash.Weighted>
2.9754

> <Gold.Chemscore.DEInternal.Weighted>
3.5088

> <Gold.Chemscore.Rot.Weighted>
4.2181

> <Gold.Chemscore.Internal.Correction.Weighted>
   9.000000E+99

> <Gold.Protein.RotatedTorsions>
[ 6907 6896 6895 6894 ] final   59.76 input  -60.11 | X-H torsion
[ 7974 7965 7964 7962 ] final   96.94 input  175.53 | X-H torsion
[ 8008 7997 7996 7995 ] final  -75.70 input   59.86 | X-H torsion
[ 10167 10162 10161 10158 ] final -129.09 input  -65.29 | X-H torsion
[ 10718 10713 10712 10709 ] final   20.23 input   66.30 | X-H torsion
[ 10763 10752 10751 10750 ] final  -85.62 input  -60.55 | X-H torsion
[ 11005 11000 10999 10996 ] final   69.55 input  -57.11 | X-H torsion

> <Gold.Protein.ActiveResidues>
 VAL166  LYS551  ARG553  GLY616  TRP617  ASP618  TYR619  PRO620  LYS621  CYS622 
 ASP623  PHE694  ASN695  SER759  ASP760  ASP761  ALA762  ILE779  LEU786  VAL792 
 PHE793  MET794  SER795  GLU796  ALA797  LYS798  CYS799  TRP800  GLU811  SER814 

> <Gold.Protein.RotatedAtoms>
  152.3943  134.6390  160.0094 H   0  0  0  0  0  0  0  0  0  0  0  0  # atno 6907 bound_to 6896
  151.6615  133.3311  159.3183 H   0  0  0  0  0  0  0  0  0  0  0  0  # atno 6908 bound_to 6896
  150.7854  134.6877  159.6524 H   0  0  0  0  0  0  0  0  0  0  0  0  # atno 6909 bound_to 6896
  145.4322  139.2309  143.3138 H   0  0  0  0  0  0  0  0  0  0  0  0  # atno 7974 bound_to 7965
  154.5440  140.0739  156.8557 H   0  0  0  0  0  0  0  0  0  0  0  0  # atno 8008 bound_to 7997
  155.3124  140.3391  155.4225 H   0  0  0  0  0  0  0  0  0  0  0  0  # atno 8009 bound_to 7997
  156.1901  140.1683  156.8095 H   0  0  0  0  0  0  0  0  0  0  0  0  # atno 8010 bound_to 7997
  139.9434  143.6137  152.2497 H   0  0  0  0  0  0  0  0  0  0  0  0  # atno 10167 bound_to 10162
  157.1216  130.6552  149.5925 H   0  0  0  0  0  0  0  0  0  0  0  0  # atno 10718 bound_to 10713
  154.6131  135.5478  153.7495 H   0  0  0  0  0  0  0  0  0  0  0  0  # atno 10763 bound_to 10752
  153.0204  135.6394  154.1549 H   0  0  0  0  0  0  0  0  0  0  0  0  # atno 10764 bound_to 10752
  154.1486  135.2904  155.3121 H   0  0  0  0  0  0  0  0  0  0  0  0  # atno 10765 bound_to 10752
  139.9647  134.7001  156.0571 H   0  0  0  0  0  0  0  0  0  0  0  0  # atno 11005 bound_to 11000
  146.2601  140.5060  142.8857 LP  0  0  0  0  0  0  0  0  0  0  0  0  # atno 17320 bound_to 7965
  144.8176  140.6494  143.6374 LP  0  0  0  0  0  0  0  0  0  0  0  0  # atno 17321 bound_to 7965
  139.6686  144.7661  151.1826 LP  0  0  0  0  0  0  0  0  0  0  0  0  # atno 17342 bound_to 10162
  140.7604  143.5900  150.8806 LP  0  0  0  0  0  0  0  0  0  0  0  0  # atno 17343 bound_to 10162
  155.9827  130.4842  150.6896 LP  0  0  0  0  0  0  0  0  0  0  0  0  # atno 17370 bound_to 10713
  157.4471  131.0868  151.0884 LP  0  0  0  0  0  0  0  0  0  0  0  0  # atno 17371 bound_to 10713
  141.1326  133.6582  156.3506 LP  0  0  0  0  0  0  0  0  0  0  0  0  # atno 17394 bound_to 11000
  140.5423  134.6109  157.5383 LP  0  0  0  0  0  0  0  0  0  0  0  0  # atno 17395 bound_to 11000

$$$$
