AV-unprocessed.smi:1604|AV-procd|sdf|6449|dock5
  -GOLD-   22720 7103D 1   1.00000     0.00000
 Structure written by MMmdl.
 47 49  0  0  0  0  0  0  0  0  2 V2000
  149.7673  135.1875  156.0920 O   0  0  0  0  0  0  0  0  0  0  0  0
  149.3132  135.5400  155.0033 C   0  0  0  0  0  0  0  0  0  0  0  0
  148.8401  134.7082  154.0618 N   0  0  0  0  0  0  0  0  0  0  0  0
  148.8665  133.2870  154.0821 C   0  0  0  0  0  0  0  0  0  0  0  0
  149.8231  132.5920  154.8645 C   0  0  0  0  0  0  0  0  0  0  0  0
  149.7873  131.1866  154.9309 C   0  0  0  0  0  0  0  0  0  0  0  0
  148.7852  130.4982  154.2257 C   0  0  0  0  0  0  0  0  0  0  0  0
  147.8833  131.1893  153.4982 N   0  3  0  0  0  0  0  0  0  0  0  0
  147.8744  132.5412  153.3819 C   0  0  0  0  0  0  0  0  0  0  0  0
  146.8777  133.1290  152.5696 N   0  0  0  0  0  0  0  0  0  0  0  0
  146.0430  134.2061  153.0887 C   0  0  0  0  0  0  0  0  0  0  0  0
  144.8932  134.3305  152.0928 C   0  0  0  0  0  0  0  0  0  0  0  0
  144.6713  132.8825  151.6666 C   0  0  0  0  0  0  0  0  0  0  0  0
  146.0774  132.2740  151.6973 C   0  0  0  0  0  0  0  0  0  0  0  0
  149.2570  136.8167  154.5961 N   0  0  0  0  0  0  0  0  0  0  0  0
  149.7849  137.9662  155.3344 C   0  0  2  0  0  0  0  0  0  0  0  0
  149.4201  139.2404  154.5386 C   0  0  0  0  0  0  0  0  0  0  0  0
  149.4157  140.5228  155.3885 C   0  0  0  0  0  0  0  0  0  0  0  0
  150.7848  140.9334  155.9519 C   0  0  0  0  0  0  0  0  0  0  0  0
  151.3910  139.9016  156.9185 C   0  0  0  0  0  0  0  0  0  0  0  0
  151.9731  138.7665  156.2146 N   0  0  0  0  0  0  0  0  0  0  0  0
  151.3237  137.8678  155.4591 C   0  0  0  0  0  0  0  0  0  0  0  0
  151.9463  136.9827  154.8713 O   0  0  0  0  0  0  0  0  0  0  0  0
  148.5845  135.1304  153.1811 H   0  0  0  0  0  0  0  0  0  0  0  0
  150.5731  133.1224  155.4326 H   0  0  0  0  0  0  0  0  0  0  0  0
  150.5108  130.6468  155.5243 H   0  0  0  0  0  0  0  0  0  0  0  0
  148.6757  129.4233  154.2230 H   0  0  0  0  0  0  0  0  0  0  0  0
  145.6487  133.9417  154.0706 H   0  0  0  0  0  0  0  0  0  0  0  0
  146.6021  135.1377  153.1801 H   0  0  0  0  0  0  0  0  0  0  0  0
  144.0042  134.7908  152.5246 H   0  0  0  0  0  0  0  0  0  0  0  0
  145.2036  134.9281  151.2344 H   0  0  0  0  0  0  0  0  0  0  0  0
  144.0376  132.3799  152.3987 H   0  0  0  0  0  0  0  0  0  0  0  0
  144.1921  132.7933  150.6910 H   0  0  0  0  0  0  0  0  0  0  0  0
  146.5104  132.2893  150.6967 H   0  0  0  0  0  0  0  0  0  0  0  0
  146.0535  131.2393  152.0426 H   0  0  0  0  0  0  0  0  0  0  0  0
  148.8699  137.0087  153.6840 H   0  0  0  0  0  0  0  0  0  0  0  0
  149.3276  137.9964  156.3252 H   0  0  0  0  0  0  0  0  0  0  0  0
  150.0751  139.3633  153.6739 H   0  0  0  0  0  0  0  0  0  0  0  0
  148.4154  139.1277  154.1279 H   0  0  0  0  0  0  0  0  0  0  0  0
  149.0343  141.3415  154.7774 H   0  0  0  0  0  0  0  0  0  0  0  0
  148.7055  140.4107  156.2087 H   0  0  0  0  0  0  0  0  0  0  0  0
  151.4808  141.1422  155.1383 H   0  0  0  0  0  0  0  0  0  0  0  0
  150.6612  141.8756  156.4872 H   0  0  0  0  0  0  0  0  0  0  0  0
  152.1934  140.3717  157.4872 H   0  0  0  0  0  0  0  0  0  0  0  0
  150.6550  139.5633  157.6491 H   0  0  0  0  0  0  0  0  0  0  0  0
  152.9757  138.6677  156.2836 H   0  0  0  0  0  0  0  0  0  0  0  0
  147.1693  130.6605  152.9972 H   0  0  0  0  0  0  0  0  0  0  0  0
  1  2  2  0  0  0  0
  2  3  1  0  0  0  0
  2 15  1  0  0  0  0
  3  4  1  0  0  0  0
  3 24  1  0  0  0  0
  4  9  1  0  0  0  0
  4  5  2  0  0  0  0
  5  6  1  0  0  0  0
  5 25  1  0  0  0  0
  6  7  2  0  0  0  0
  6 26  1  0  0  0  0
  7  8  1  0  0  0  0
  7 27  1  0  0  0  0
  8  9  2  0  0  0  0
  8 47  1  0  0  0  0
  9 10  1  0  0  0  0
 10 14  1  0  0  0  0
 10 11  1  0  0  0  0
 11 12  1  0  0  0  0
 11 28  1  0  0  0  0
 11 29  1  0  0  0  0
 12 13  1  0  0  0  0
 12 30  1  0  0  0  0
 12 31  1  0  0  0  0
 13 14  1  0  0  0  0
 13 32  1  0  0  0  0
 13 33  1  0  0  0  0
 14 34  1  0  0  0  0
 14 35  1  0  0  0  0
 15 16  1  0  0  0  0
 15 36  1  0  0  0  0
 16 22  1  0  0  0  0
 16 17  1  0  0  0  0
 16 37  1  0  0  0  0
 17 18  1  0  0  0  0
 17 38  1  0  0  0  0
 17 39  1  0  0  0  0
 18 19  1  0  0  0  0
 18 40  1  0  0  0  0
 18 41  1  0  0  0  0
 19 20  1  0  0  0  0
 19 42  1  0  0  0  0
 19 43  1  0  0  0  0
 20 21  1  0  0  0  0
 20 44  1  0  0  0  0
 20 45  1  0  0  0  0
 21 22  1  0  0  0  0
 21 46  1  0  0  0  0
 22 23  2  0  0  0  0
M  CHG  1   8   1
M  END
> <s_m_source_file>
AV-unprocessed.smi

> <i_m_source_file_index>
1604

> <i_lp_mmshare_version>
43012

> <i_f3d_flags>
0

> <s_epik_input>
Tz1DMVtOSF1bQ0gyXVtDSDJdW0NIMl1bQ0gyXVtDQEhdMVtOSF1DKD1PKVtOSF1jMltjSF1bY0hdW2NIXW5jMk4zW0NIMl1bQ0gyXVtDSDJdW0NIMl0z

> <s_epik_cmdline>
J2VwaWtfcHl0aG9uJywgJy1waCcsICc3LjAnLCAnLXRuJywgJzgnLCAnLW1hJywgJzIwMCcsICctbWV0YWxfYmluZGluZycsICctaW1hZScsICc8aW5maWxlLm1hZT4nLCAnLW9tYWUnLCAnPG91dGZpbGUubWFlPic=

> <r_lp_tautomer_probability>
0.999994

> <r_epik_Ionization_Penalty>
1.20452

> <r_epik_Ionization_Penalty_Charging>
1.2045

> <r_epik_Ionization_Penalty_Neutral>
1.88134e-05

> <r_epik_State_Penalty>
1.2704

> <r_epik_Charging_Adjusted_Penalty>
2.4749

> <i_epik_Tot_Q>
1

> <i_epik_Tot_abs_Q>
1

> <r_epik_Metal_State_Penalty>
1.34433

> <b_epik_Metal_Only>
0

> <s_lp_Force_Field>
OPLS_2005

> <r_lp_Energy>
45.117

> <b_lp_Chiralities_Consistent>
1

> <s_lp_Variant>
AV-unprocessed.smi:1604-3

> <Gold.Version>
5.8.1

> <Gold.Id.Protein>
6NUR|6NUR_protein|mol2

> <Gold.PLP.Fitness>
43.7420

> <Gold.PLP.PLP>
-35.5398

> <Gold.PLP.part.hbond>
-3.1102

> <Gold.PLP.part.metal>
0.0000

> <Gold.PLP.part.buried>
-3.8553

> <Gold.PLP.part.nonpolar>
-30.0423

> <Gold.PLP.part.repulsive>
0.4432

> <Gold.PLP.ligand.clash>
0.0000

> <Gold.PLP.ligand.torsion>
0.3482

> <Gold.PLP.Chemscore.Hbond>
2.8400

> <Gold.PLP.Chemscore.CHOScore>
0.0000

> <Gold.PLP.Chemscore.Metal>
0.0000

> <Gold.Chemscore.Hbonds>
donor molecule, donor type, donor heavy atom, donor atom, acceptor molecule, acceptor atom, score
      L1  H     3    24       P1  7948  0.99
      L1  H    15    36       P1  7948  0.74
      P1  H 10752 10764       L1    23  1.00

> <Gold.PLP.Chemscore.Internal.Correction>
0.3788

> <Gold.Rescore>
     Score         DG    S(hbond)    S(metal)    S(lipo)     H(rot)  DE(clash)    DE(int)     intcor
     16.09     -18.16       2.47        0.00      65.23       1.26       0.00       2.06       ----

> <Gold.Chemscore.Fitness>
16.0900

> <Gold.Chemscore.DG>
-18.1571

> <Gold.Chemscore.ZeroCoef>
-5.4800

> <Gold.Chemscore.Hbond>
2.4736

> <Gold.Chemscore.Metal>
0.0000

> <Gold.Chemscore.Lipo>
65.2322

> <Gold.Chemscore.Internal_Hbond>
0.0000

> <Gold.Chemscore.DEClash>
0.0029

> <Gold.Chemscore.DEInternal>
2.0642

> <Gold.Chemscore.Rot>
1.2566

> <Gold.Chemscore.Internal.Correction>
   9.000000E+99

> <Gold.Chemscore.Hbonds>
donor molecule, donor type, donor heavy atom, donor atom, acceptor molecule, acceptor atom, score
      L1  H     3    24       P1  7948  0.73
      L1  H    15    36       P1  7948  0.73
      P1  H 10752 10764       L1    23  0.95

> <Gold.Chemscore.Hbond.Weighted>
-8.2618

> <Gold.Chemscore.Metal.Weighted>
-0.0000

> <Gold.Chemscore.Lipo.Weighted>
-7.6322

> <Gold.Chemscore.Internal_Hbond.Weighted>
0.0000

> <Gold.Chemscore.DEClash.Weighted>
0.0029

> <Gold.Chemscore.DEInternal.Weighted>
2.0642

> <Gold.Chemscore.Rot.Weighted>
3.2168

> <Gold.Chemscore.Internal.Correction.Weighted>
   9.000000E+99

> <Gold.Protein.RotatedTorsions>
[ 6907 6896 6895 6894 ] final  -68.42 input  -60.11 | X-H torsion
[ 7974 7965 7964 7962 ] final   36.95 input  175.53 | X-H torsion
[ 8008 7997 7996 7995 ] final  -57.45 input   59.86 | X-H torsion
[ 10167 10162 10161 10158 ] final -105.47 input  -65.29 | X-H torsion
[ 10718 10713 10712 10709 ] final -172.21 input   66.30 | X-H torsion
[ 10763 10752 10751 10750 ] final  -63.80 input  -60.55 | X-H torsion
[ 11005 11000 10999 10996 ] final   81.90 input  -57.11 | X-H torsion

> <Gold.Protein.ActiveResidues>
 VAL166  LYS551  ARG553  GLY616  TRP617  ASP618  TYR619  PRO620  LYS621  CYS622 
 ASP623  PHE694  ASN695  SER759  ASP760  ASP761  ALA762  ILE779  LEU786  VAL792 
 PHE793  MET794  SER795  GLU796  ALA797  LYS798  CYS799  TRP800  GLU811  SER814 

> <Gold.Protein.RotatedAtoms>
  150.7357  134.5742  159.5905 H   0  0  0  0  0  0  0  0  0  0  0  0  # atno 6907 bound_to 6896
  152.3173  134.7421  160.0331 H   0  0  0  0  0  0  0  0  0  0  0  0  # atno 6908 bound_to 6896
  151.7949  133.3327  159.3546 H   0  0  0  0  0  0  0  0  0  0  0  0  # atno 6909 bound_to 6896
  146.1173  139.5954  142.9312 H   0  0  0  0  0  0  0  0  0  0  0  0  # atno 7974 bound_to 7965
  154.4268  140.1106  156.5799 H   0  0  0  0  0  0  0  0  0  0  0  0  # atno 8008 bound_to 7997
  155.6123  140.3494  155.4607 H   0  0  0  0  0  0  0  0  0  0  0  0  # atno 8009 bound_to 7997
  156.0090  140.1215  157.0463 H   0  0  0  0  0  0  0  0  0  0  0  0  # atno 8010 bound_to 7997
  140.1981  143.3839  152.1151 H   0  0  0  0  0  0  0  0  0  0  0  0  # atno 10167 bound_to 10162
  156.7522  130.9382  151.3115 H   0  0  0  0  0  0  0  0  0  0  0  0  # atno 10718 bound_to 10713
  154.3205  135.6197  153.5506 H   0  0  0  0  0  0  0  0  0  0  0  0  # atno 10763 bound_to 10752
  152.9820  135.5723  154.5075 H   0  0  0  0  0  0  0  0  0  0  0  0  # atno 10764 bound_to 10752
  154.4742  135.2860  155.1596 H   0  0  0  0  0  0  0  0  0  0  0  0  # atno 10765 bound_to 10752
  139.9082  134.8031  156.2103 H   0  0  0  0  0  0  0  0  0  0  0  0  # atno 11005 bound_to 11000
  145.5539  141.0411  143.2263 LP  0  0  0  0  0  0  0  0  0  0  0  0  # atno 17320 bound_to 7965
  144.7565  139.7062  143.7252 LP  0  0  0  0  0  0  0  0  0  0  0  0  # atno 17321 bound_to 7965
  139.5228  144.7063  151.5342 LP  0  0  0  0  0  0  0  0  0  0  0  0  # atno 17342 bound_to 10162
  140.6409  143.8891  150.6691 LP  0  0  0  0  0  0  0  0  0  0  0  0  # atno 17343 bound_to 10162
  157.6772  130.9105  150.0178 LP  0  0  0  0  0  0  0  0  0  0  0  0  # atno 17370 bound_to 10713
  156.1393  130.3642  149.9607 LP  0  0  0  0  0  0  0  0  0  0  0  0  # atno 17371 bound_to 10713
  141.0469  133.6908  156.1701 LP  0  0  0  0  0  0  0  0  0  0  0  0  # atno 17394 bound_to 11000
  140.6869  134.4707  157.5589 LP  0  0  0  0  0  0  0  0  0  0  0  0  # atno 17395 bound_to 11000

$$$$
