AV-unprocessed.smi:92|AV-procd|sdf|846|dock1
  -GOLD-   2262017283D 1   1.00000     0.00000
 Structure written by MMmdl.
 61 64  0  0  0  0  0  0  0  0  2 V2000
  142.4826  135.4093  154.1385 C   0  0  0  0  0  0  0  0  0  0  0  0
  142.6461  134.7365  152.7682 C   0  0  0  0  0  0  0  0  0  0  0  0
  143.9273  135.0986  152.1049 N   0  3  1  0  0  0  0  0  0  0  0  0
  145.1135  134.9418  152.9843 C   0  0  0  0  0  0  0  0  0  0  0  0
  145.4891  133.4635  153.1724 C   0  0  0  0  0  0  0  0  0  0  0  0
  145.7396  132.7790  151.8129 C   0  0  1  0  0  0  0  0  0  0  0  0
  146.1116  131.3662  151.9777 N   0  0  0  0  0  0  0  0  0  0  0  0
  145.1813  130.3063  151.5958 C   0  0  0  0  0  0  0  0  0  0  0  0
  147.1291  131.0218  152.8153 C   0  0  0  0  0  0  0  0  0  0  0  0
  147.2586  129.7264  153.2092 N   0  0  0  0  0  0  0  0  0  0  0  0
  148.2523  129.3577  154.0217 C   0  0  0  0  0  0  0  0  0  0  0  0
  149.2137  130.1105  154.5558 N   0  0  0  0  0  0  0  0  0  0  0  0
  149.0922  131.4147  154.1775 C   0  0  0  0  0  0  0  0  0  0  0  0
  148.0889  131.9505  153.3181 C   0  0  0  0  0  0  0  0  0  0  0  0
  148.2805  133.3201  153.1751 N   0  0  0  0  0  0  0  0  0  0  0  0
  149.3370  133.5762  153.8960 C   0  0  0  0  0  0  0  0  0  0  0  0
  149.8915  132.4900  154.5338 N   0  0  0  0  0  0  0  0  0  0  0  0
  151.0500  132.5040  155.3844 C   0  0  0  0  0  0  0  0  0  0  0  0
  151.6929  131.2045  155.8805 C   0  0  0  0  0  0  0  0  0  0  0  0
  151.9990  131.8716  157.2427 C   0  0  0  0  0  0  0  0  0  0  0  0
  151.6772  131.0393  158.4983 C   0  0  0  0  0  0  0  0  0  0  0  0
  150.3684  130.5051  158.4840 O   0  0  0  0  0  0  0  0  0  0  0  0
  153.4474  132.3635  157.4502 C   0  0  0  0  0  0  0  0  0  0  0  0
  153.6506  133.0138  158.6887 O   0  0  0  0  0  0  0  0  0  0  0  0
  150.9614  132.9496  156.8480 C   0  0  0  0  0  0  0  0  0  0  0  0
  144.5210  132.9677  150.8745 C   0  0  2  0  0  0  0  0  0  0  0  0
  144.7840  132.3980  149.4693 C   0  0  0  0  0  0  0  0  0  0  0  0
  144.1471  134.4656  150.7760 C   0  0  0  0  0  0  0  0  0  0  0  0
  141.5834  135.0464  154.6368 H   0  0  0  0  0  0  0  0  0  0  0  0
  142.3897  136.4916  154.0569 H   0  0  0  0  0  0  0  0  0  0  0  0
  143.3300  135.1904  154.7887 H   0  0  0  0  0  0  0  0  0  0  0  0
  142.6235  133.6579  152.9278 H   0  0  0  0  0  0  0  0  0  0  0  0
  141.7944  134.9649  152.1278 H   0  0  0  0  0  0  0  0  0  0  0  0
  145.9517  135.4748  152.5332 H   0  0  0  0  0  0  0  0  0  0  0  0
  144.9365  135.4184  153.9491 H   0  0  0  0  0  0  0  0  0  0  0  0
  146.3814  133.3956  153.7952 H   0  0  0  0  0  0  0  0  0  0  0  0
  144.6981  132.9527  153.7218 H   0  0  0  0  0  0  0  0  0  0  0  0
  146.5667  133.3004  151.3292 H   0  0  0  0  0  0  0  0  0  0  0  0
  145.0701  129.5709  152.3936 H   0  0  0  0  0  0  0  0  0  0  0  0
  145.5399  129.7953  150.7022 H   0  0  0  0  0  0  0  0  0  0  0  0
  144.1893  130.6989  151.3764 H   0  0  0  0  0  0  0  0  0  0  0  0
  148.2822  128.3097  154.2807 H   0  0  0  0  0  0  0  0  0  0  0  0
  149.7408  134.5745  153.9826 H   0  0  0  0  0  0  0  0  0  0  0  0
  151.7978  133.1046  154.8645 H   0  0  0  0  0  0  0  0  0  0  0  0
  150.9811  130.3811  155.9467 H   0  0  0  0  0  0  0  0  0  0  0  0
  152.5740  130.9009  155.3146 H   0  0  0  0  0  0  0  0  0  0  0  0
  152.3731  130.2056  158.5990 H   0  0  0  0  0  0  0  0  0  0  0  0
  151.7781  131.6436  159.4005 H   0  0  0  0  0  0  0  0  0  0  0  0
  150.0017  130.5828  159.3514 H   0  0  0  0  0  0  0  0  0  0  0  0
  154.1493  131.5304  157.3979 H   0  0  0  0  0  0  0  0  0  0  0  0
  153.7336  133.0616  156.6627 H   0  0  0  0  0  0  0  0  0  0  0  0
  153.9568  132.3770  159.3163 H   0  0  0  0  0  0  0  0  0  0  0  0
  151.2850  133.9768  157.0193 H   0  0  0  0  0  0  0  0  0  0  0  0
  149.9736  132.7851  157.2791 H   0  0  0  0  0  0  0  0  0  0  0  0
  143.6652  132.4322  151.2842 H   0  0  0  0  0  0  0  0  0  0  0  0
  145.6507  132.8699  149.0052 H   0  0  0  0  0  0  0  0  0  0  0  0
  143.9274  132.5588  148.8141 H   0  0  0  0  0  0  0  0  0  0  0  0
  144.9685  131.3240  149.5000 H   0  0  0  0  0  0  0  0  0  0  0  0
  143.2719  134.5993  150.1414 H   0  0  0  0  0  0  0  0  0  0  0  0
  144.9550  135.0060  150.2806 H   0  0  0  0  0  0  0  0  0  0  0  0
  143.8554  136.0910  151.9314 H   0  0  0  0  0  0  0  0  0  0  0  0
  1  2  1  0  0  0  0
  1 29  1  0  0  0  0
  1 30  1  0  0  0  0
  1 31  1  0  0  0  0
  2  3  1  0  0  0  0
  2 32  1  0  0  0  0
  2 33  1  0  0  0  0
  3 28  1  0  0  0  0
  3  4  1  0  0  0  0
  3 61  1  0  0  0  0
  4  5  1  0  0  0  0
  4 34  1  0  0  0  0
  4 35  1  0  0  0  0
  5  6  1  0  0  0  0
  5 36  1  0  0  0  0
  5 37  1  0  0  0  0
  6  7  1  0  0  0  0
  6 26  1  0  0  0  0
  6 38  1  0  0  0  0
  7  8  1  0  0  0  0
  7  9  1  0  0  0  0
  8 39  1  0  0  0  0
  8 40  1  0  0  0  0
  8 41  1  0  0  0  0
  9 14  1  0  0  0  0
  9 10  2  0  0  0  0
 10 11  1  0  0  0  0
 11 12  2  0  0  0  0
 11 42  1  0  0  0  0
 12 13  1  0  0  0  0
 13 17  1  0  0  0  0
 13 14  2  0  0  0  0
 14 15  1  0  0  0  0
 15 16  2  0  0  0  0
 16 17  1  0  0  0  0
 16 43  1  0  0  0  0
 17 18  1  0  0  0  0
 18 25  1  0  0  0  0
 18 19  1  0  0  0  0
 18 44  1  0  0  0  0
 19 20  1  0  0  0  0
 19 45  1  0  0  0  0
 19 46  1  0  0  0  0
 20 21  1  0  0  0  0
 20 23  1  0  0  0  0
 20 25  1  0  0  0  0
 21 22  1  0  0  0  0
 21 47  1  0  0  0  0
 21 48  1  0  0  0  0
 22 49  1  0  0  0  0
 23 24  1  0  0  0  0
 23 50  1  0  0  0  0
 23 51  1  0  0  0  0
 24 52  1  0  0  0  0
 25 53  1  0  0  0  0
 25 54  1  0  0  0  0
 26 27  1  0  0  0  0
 26 28  1  0  0  0  0
 26 55  1  0  0  0  0
 27 56  1  0  0  0  0
 27 57  1  0  0  0  0
 27 58  1  0  0  0  0
 28 59  1  0  0  0  0
 28 60  1  0  0  0  0
M  CHG  1   3   1
M  END
> <s_m_source_file>
AV-unprocessed.smi

> <i_m_source_file_index>
92

> <i_lp_mmshare_version>
43012

> <i_f3d_flags>
0

> <s_epik_input>
W0NIM11bQ0gyXU4xW0NIMl1bQ0gyXVtDQEhdKFtDQEBIXShbQ0gzXSlbQ0gyXTEpTihbQ0gzXSljKG5bY0hdbjIpYyhjMjMpbltjSF1uM1tDSF0oW0NIMl00KVtDSDJdQzQoW0NIMl1bT0hdKVtDSDJdW09IXQ==

> <s_epik_cmdline>
J2VwaWtfcHl0aG9uJywgJy1waCcsICc3LjAnLCAnLXRuJywgJzgnLCAnLW1hJywgJzIwMCcsICctbWV0YWxfYmluZGluZycsICctaW1hZScsICc8aW5maWxlLm1hZT4nLCAnLW9tYWUnLCAnPG91dGZpbGUubWFlPic=

> <r_lp_tautomer_probability>
1

> <r_epik_Ionization_Penalty>
0.00235514

> <r_epik_Ionization_Penalty_Charging>
0.00137877

> <r_epik_Ionization_Penalty_Neutral>
0.000976366

> <r_epik_State_Penalty>
-0

> <r_epik_Charging_Adjusted_Penalty>
0.00137877

> <i_epik_Tot_Q>
1

> <i_epik_Tot_abs_Q>
1

> <r_epik_Metal_State_Penalty>
-0

> <b_epik_Metal_Only>
0

> <s_lp_Force_Field>
OPLS_2005

> <r_lp_Energy>
55.2069

> <b_lp_Chiralities_Consistent>
1

> <s_lp_Variant>
AV-unprocessed.smi:92-6

> <Gold.Version>
5.8.1

> <Gold.Id.Protein>
6NUR|6NUR_protein|mol2

> <Gold.PLP.Fitness>
44.8729

> <Gold.PLP.PLP>
-42.0189

> <Gold.PLP.part.hbond>
-1.0000

> <Gold.PLP.part.metal>
0.0000

> <Gold.PLP.part.buried>
-6.5574

> <Gold.PLP.part.nonpolar>
-33.7372

> <Gold.PLP.part.repulsive>
0.3661

> <Gold.PLP.ligand.clash>
0.0000

> <Gold.PLP.ligand.torsion>
0.7722

> <Gold.PLP.Chemscore.Hbond>
1.0000

> <Gold.PLP.Chemscore.CHOScore>
0.1174

> <Gold.PLP.Chemscore.Metal>
0.0000

> <Gold.Chemscore.Hbonds>
donor molecule, donor type, donor heavy atom, donor atom, acceptor molecule, acceptor atom, score
      P1  H  6896  6908       L1    24  0.90
      L1  C    16    43       P1  7948  0.13

> <Gold.PLP.Chemscore.Internal.Correction>
1.0463

> <Gold.Rescore>
     Score         DG    S(hbond)    S(metal)    S(lipo)     H(rot)  DE(clash)    DE(int)     intcor
      7.76     -11.13       0.95        0.00      91.65       3.22       0.25       3.13       ----

> <Gold.Chemscore.Fitness>
7.7569

> <Gold.Chemscore.DG>
-11.1307

> <Gold.Chemscore.ZeroCoef>
-5.4800

> <Gold.Chemscore.Hbond>
0.9507

> <Gold.Chemscore.Metal>
0.0000

> <Gold.Chemscore.Lipo>
91.6535

> <Gold.Chemscore.Internal_Hbond>
0.0000

> <Gold.Chemscore.DEClash>
0.2482

> <Gold.Chemscore.DEInternal>
3.1256

> <Gold.Chemscore.Rot>
3.2219

> <Gold.Chemscore.Internal.Correction>
   9.000000E+99

> <Gold.Chemscore.Hbonds>
donor molecule, donor type, donor heavy atom, donor atom, acceptor molecule, acceptor atom, score
      P1  H  6896  6908       L1    24  0.18

> <Gold.Chemscore.Hbond.Weighted>
-3.1754

> <Gold.Chemscore.Metal.Weighted>
-0.0000

> <Gold.Chemscore.Lipo.Weighted>
-10.7235

> <Gold.Chemscore.Internal_Hbond.Weighted>
0.0000

> <Gold.Chemscore.DEClash.Weighted>
0.2482

> <Gold.Chemscore.DEInternal.Weighted>
3.1256

> <Gold.Chemscore.Rot.Weighted>
8.2482

> <Gold.Chemscore.Internal.Correction.Weighted>
   9.000000E+99

> <Gold.Protein.RotatedTorsions>
[ 6907 6896 6895 6894 ] final    9.83 input  -60.11 | X-H torsion
[ 7974 7965 7964 7962 ] final   55.55 input  175.53 | X-H torsion
[ 8008 7997 7996 7995 ] final   24.25 input   59.86 | X-H torsion
[ 10167 10162 10161 10158 ] final  -16.19 input  -65.29 | X-H torsion
[ 10718 10713 10712 10709 ] final -169.19 input   66.30 | X-H torsion
[ 10763 10752 10751 10750 ] final  -34.75 input  -60.55 | X-H torsion
[ 11005 11000 10999 10996 ] final -133.13 input  -57.11 | X-H torsion

> <Gold.Protein.ActiveResidues>
 VAL166  LYS551  ARG553  GLY616  TRP617  ASP618  TYR619  PRO620  LYS621  CYS622 
 ASP623  PHE694  ASN695  SER759  ASP760  ASP761  ALA762  ILE779  LEU786  VAL792 
 PHE793  MET794  SER795  GLU796  ALA797  LYS798  CYS799  TRP800  GLU811  SER814 

> <Gold.Protein.RotatedAtoms>
  151.7285  135.0879  160.0295 H   0  0  0  0  0  0  0  0  0  0  0  0  # atno 6907 bound_to 6896
  152.3556  133.6229  159.5985 H   0  0  0  0  0  0  0  0  0  0  0  0  # atno 6908 bound_to 6896
  150.7569  133.9421  159.3501 H   0  0  0  0  0  0  0  0  0  0  0  0  # atno 6909 bound_to 6896
  145.9492  139.3957  143.0316 H   0  0  0  0  0  0  0  0  0  0  0  0  # atno 7974 bound_to 7965
  154.9934  140.3116  155.4897 H   0  0  0  0  0  0  0  0  0  0  0  0  # atno 8008 bound_to 7997
  156.2936  140.2245  156.4980 H   0  0  0  0  0  0  0  0  0  0  0  0  # atno 8009 bound_to 7997
  154.7683  140.0454  157.1018 H   0  0  0  0  0  0  0  0  0  0  0  0  # atno 8010 bound_to 7997
  140.7230  143.5141  150.9713 H   0  0  0  0  0  0  0  0  0  0  0  0  # atno 10167 bound_to 10162
  156.7080  130.9222  151.3086 H   0  0  0  0  0  0  0  0  0  0  0  0  # atno 10718 bound_to 10713
  153.8519  135.6848  153.4791 H   0  0  0  0  0  0  0  0  0  0  0  0  # atno 10763 bound_to 10752
  153.1392  135.4664  154.9467 H   0  0  0  0  0  0  0  0  0  0  0  0  # atno 10764 bound_to 10752
  154.7798  135.3265  154.7962 H   0  0  0  0  0  0  0  0  0  0  0  0  # atno 10765 bound_to 10752
  140.9108  134.1570  157.4390 H   0  0  0  0  0  0  0  0  0  0  0  0  # atno 11005 bound_to 11000
  145.8194  140.9686  143.0907 LP  0  0  0  0  0  0  0  0  0  0  0  0  # atno 17320 bound_to 7965
  144.6792  140.0022  143.7484 LP  0  0  0  0  0  0  0  0  0  0  0  0  # atno 17321 bound_to 7965
  139.8856  143.7017  152.3152 LP  0  0  0  0  0  0  0  0  0  0  0  0  # atno 17342 bound_to 10162
  139.7315  144.7581  151.0795 LP  0  0  0  0  0  0  0  0  0  0  0  0  # atno 17343 bound_to 10162
  157.6947  130.9270  150.0612 LP  0  0  0  0  0  0  0  0  0  0  0  0  # atno 17370 bound_to 10713
  156.1681  130.3645  149.9203 LP  0  0  0  0  0  0  0  0  0  0  0  0  # atno 17371 bound_to 10713
  139.8757  134.9935  156.5647 LP  0  0  0  0  0  0  0  0  0  0  0  0  # atno 17394 bound_to 11000
  140.8112  133.8428  155.8811 LP  0  0  0  0  0  0  0  0  0  0  0  0  # atno 17395 bound_to 11000

$$$$
