AV-unprocessed.smi:40|AV-procd|sdf|381|dock7
  -GOLD-   2262016233D 1   1.00000     0.00000
 Structure written by MMmdl.
 47 48  0  0  0  0  0  0  0  0  1 V2000
  151.8456  144.0650  158.3517 C   0  0  0  0  0  0  0  0  0  0  0  0
  152.9378  143.2579  159.0656 C   0  0  0  0  0  0  0  0  0  0  0  0
  152.5920  141.7713  159.2496 C   0  0  0  0  0  0  0  0  0  0  0  0
  153.6678  140.9729  160.0075 C   0  0  0  0  0  0  0  0  0  0  0  0
  153.4582  139.4551  159.9231 C   0  0  0  0  0  0  0  0  0  0  0  0
  152.6225  139.1580  158.8169 O   0  0  0  0  0  0  0  0  0  0  0  0
  152.1699  137.9068  158.6195 C   0  0  0  0  0  0  0  0  0  0  0  0
  152.4167  136.9600  159.3665 O   0  0  0  0  0  0  0  0  0  0  0  0
  151.3264  137.8240  157.4381 N   0  0  0  0  0  0  0  0  0  0  0  0
  150.6910  136.7459  156.9157 C   0  0  0  0  0  0  0  0  0  0  0  0
  150.3189  135.7112  157.6534 N   0  0  0  0  0  0  0  0  0  0  0  0
  149.6589  134.6179  157.1616 C   0  0  0  0  0  0  0  0  0  0  0  0
  149.3384  133.6894  157.9027 O   0  0  0  0  0  0  0  0  0  0  0  0
  149.3580  134.6072  155.7798 N   0  0  0  0  0  0  0  0  0  0  0  0
  148.6225  133.4096  155.2137 C   0  0  2  0  0  0  0  0  0  0  0  0
  148.5032  133.5490  153.8260 O   0  0  0  0  0  0  0  0  0  0  0  0
  147.1366  133.7246  153.4653 C   0  0  1  0  0  0  0  0  0  0  0  0
  146.9037  133.2280  152.0340 C   0  0  0  0  0  0  0  0  0  0  0  0
  146.3927  132.9297  154.5358 C   0  0  2  0  0  0  0  0  0  0  0  0
  145.0264  133.2845  154.6370 O   0  0  0  0  0  0  0  0  0  0  0  0
  147.1982  133.2394  155.7934 C   0  0  2  0  0  0  0  0  0  0  0  0
  146.7164  134.3929  156.4675 O   0  0  0  0  0  0  0  0  0  0  0  0
  149.7164  135.6920  154.9922 C   0  0  0  0  0  0  0  0  0  0  0  0
  150.3668  136.7587  155.5051 C   0  0  0  0  0  0  0  0  0  0  0  0
  150.7014  137.7995  154.7226 F   0  0  0  0  0  0  0  0  0  0  0  0
  149.2647  132.5460  155.3942 H   0  0  0  0  0  0  0  0  0  0  0  0
  146.8833  134.7831  153.5419 H   0  0  0  0  0  0  0  0  0  0  0  0
  146.4686  131.8632  154.3183 H   0  0  0  0  0  0  0  0  0  0  0  0
  147.1864  132.4036  156.4938 H   0  0  0  0  0  0  0  0  0  0  0  0
  152.1145  145.1205  158.3051 H   0  0  0  0  0  0  0  0  0  0  0  0
  150.8929  143.9888  158.8761 H   0  0  0  0  0  0  0  0  0  0  0  0
  151.6961  143.7211  157.3284 H   0  0  0  0  0  0  0  0  0  0  0  0
  153.8803  143.3541  158.5251 H   0  0  0  0  0  0  0  0  0  0  0  0
  153.1081  143.7000  160.0477 H   0  0  0  0  0  0  0  0  0  0  0  0
  151.6506  141.7084  159.7965 H   0  0  0  0  0  0  0  0  0  0  0  0
  152.4062  141.3126  158.2776 H   0  0  0  0  0  0  0  0  0  0  0  0
  154.6507  141.2079  159.5992 H   0  0  0  0  0  0  0  0  0  0  0  0
  153.6891  141.2783  161.0542 H   0  0  0  0  0  0  0  0  0  0  0  0
  154.4156  138.9426  159.8192 H   0  0  0  0  0  0  0  0  0  0  0  0
  152.9901  139.0941  160.8398 H   0  0  0  0  0  0  0  0  0  0  0  0
  151.2297  138.6962  156.9389 H   0  0  0  0  0  0  0  0  0  0  0  0
  145.8561  133.3302  151.7499 H   0  0  0  0  0  0  0  0  0  0  0  0
  147.1785  132.1780  151.9297 H   0  0  0  0  0  0  0  0  0  0  0  0
  147.4992  133.8007  151.3226 H   0  0  0  0  0  0  0  0  0  0  0  0
  144.5136  132.4918  154.6834 H   0  0  0  0  0  0  0  0  0  0  0  0
  146.4097  134.1319  157.3223 H   0  0  0  0  0  0  0  0  0  0  0  0
  149.4751  135.7093  153.9406 H   0  0  0  0  0  0  0  0  0  0  0  0
  1  2  1  0  0  0  0
  1 30  1  0  0  0  0
  1 31  1  0  0  0  0
  1 32  1  0  0  0  0
  2  3  1  0  0  0  0
  2 33  1  0  0  0  0
  2 34  1  0  0  0  0
  3  4  1  0  0  0  0
  3 35  1  0  0  0  0
  3 36  1  0  0  0  0
  4  5  1  0  0  0  0
  4 37  1  0  0  0  0
  4 38  1  0  0  0  0
  5  6  1  0  0  0  0
  5 39  1  0  0  0  0
  5 40  1  0  0  0  0
  6  7  1  0  0  0  0
  7  8  2  0  0  0  0
  7  9  1  0  0  0  0
  9 10  1  0  0  0  0
  9 41  1  0  0  0  0
 10 24  1  0  0  0  0
 10 11  2  0  0  0  0
 11 12  1  0  0  0  0
 12 13  2  0  0  0  0
 12 14  1  0  0  0  0
 14 15  1  0  0  0  0
 14 23  1  0  0  0  0
 15 26  1  0  0  0  0
 15 21  1  0  0  0  0
 15 16  1  0  0  0  0
 16 17  1  0  0  0  0
 17 27  1  0  0  0  0
 17 18  1  0  0  0  0
 17 19  1  0  0  0  0
 18 42  1  0  0  0  0
 18 43  1  0  0  0  0
 18 44  1  0  0  0  0
 19 28  1  0  0  0  0
 19 20  1  0  0  0  0
 19 21  1  0  0  0  0
 20 45  1  0  0  0  0
 21 29  1  0  0  0  0
 21 22  1  0  0  0  0
 22 46  1  0  0  0  0
 23 24  2  0  0  0  0
 23 47  1  0  0  0  0
 24 25  1  0  0  0  0
M  END
> <s_m_source_file>
AV-unprocessed.smi

> <i_m_source_file_index>
40

> <i_lp_mmshare_version>
43012

> <i_f3d_flags>
0

> <s_epik_input>
W0NIM11bQ0gyXVtDSDJdW0NIMl1bQ0gyXU9DKD1PKVtOSF1jMW5jKD1PKW4oW2NIXWMxRilbQ0BASF0yT1tDQEhdKFtDSDNdKVtDQEBIXShbT0hdKVtDQEhdMltPSF0=

> <s_epik_cmdline>
J2VwaWtfcHl0aG9uJywgJy1waCcsICc3LjAnLCAnLXRuJywgJzgnLCAnLW1hJywgJzIwMCcsICctbWV0YWxfYmluZGluZycsICctaW1hZScsICc8aW5maWxlLm1hZT4nLCAnLW9tYWUnLCAnPG91dGZpbGUubWFlPic=

> <r_lp_tautomer_probability>
1

> <r_epik_Ionization_Penalty>
2.29506e-06

> <r_epik_Ionization_Penalty_Charging>
8.26867e-09

> <r_epik_Ionization_Penalty_Neutral>
2.2868e-06

> <r_epik_State_Penalty>
-0

> <r_epik_Charging_Adjusted_Penalty>
8.26867e-09

> <i_epik_Tot_Q>
0

> <i_epik_Tot_abs_Q>
0

> <r_epik_Metal_State_Penalty>
-0

> <b_epik_Metal_Only>
0

> <s_epik_Chemistry_Notes>
This compound has an ester and may undergo hydrolysis at high or low pH. This compound contains an acetal/aminal-like group ( X-CH(R)-Y where X, Y are N, S, or O) that may be acid/base labile, releasing an aldehyde.

> <s_lp_Force_Field>
OPLS_2005

> <r_lp_Energy>
41.7027

> <b_lp_Chiralities_Consistent>
1

> <s_lp_Variant>
AV-unprocessed.smi:40-15

> <Gold.Version>
5.8.1

> <Gold.Id.Protein>
6NUR|6NUR_protein|mol2

> <Gold.PLP.Fitness>
45.5126

> <Gold.PLP.PLP>
-34.8862

> <Gold.PLP.part.hbond>
-3.9797

> <Gold.PLP.part.metal>
0.0000

> <Gold.PLP.part.buried>
-5.6748

> <Gold.PLP.part.nonpolar>
-27.3147

> <Gold.PLP.part.repulsive>
0.1959

> <Gold.PLP.ligand.clash>
0.0000

> <Gold.PLP.ligand.torsion>
0.5183

> <Gold.PLP.Chemscore.Hbond>
2.8260

> <Gold.PLP.Chemscore.CHOScore>
1.0000

> <Gold.PLP.Chemscore.Metal>
0.0000

> <Gold.Chemscore.Hbonds>
donor molecule, donor type, donor heavy atom, donor atom, acceptor molecule, acceptor atom, score
      L1  H    20    45       P1 10957  0.91
      P1  H  6896  6907       L1    13  0.90
      P1  H  6896  6908       L1     8  1.00
      L1  C    23    47       P1  7948  1.00

> <Gold.PLP.Chemscore.Internal.Correction>
0.1852

> <Gold.Rescore>
     Score         DG    S(hbond)    S(metal)    S(lipo)     H(rot)  DE(clash)    DE(int)     intcor
      9.53     -11.21       2.00        0.00      72.75       3.70       0.02       1.66       ----

> <Gold.Chemscore.Fitness>
9.5264

> <Gold.Chemscore.DG>
-11.2100

> <Gold.Chemscore.ZeroCoef>
-5.4800

> <Gold.Chemscore.Hbond>
1.9998

> <Gold.Chemscore.Metal>
0.0000

> <Gold.Chemscore.Lipo>
72.7493

> <Gold.Chemscore.Internal_Hbond>
0.0000

> <Gold.Chemscore.DEClash>
0.0234

> <Gold.Chemscore.DEInternal>
1.6602

> <Gold.Chemscore.Rot>
3.6957

> <Gold.Chemscore.Internal.Correction>
   9.000000E+99

> <Gold.Chemscore.Hbonds>
donor molecule, donor type, donor heavy atom, donor atom, acceptor molecule, acceptor atom, score
      L1  H    20    45       P1 10957  0.78
      P1  H  6896  6907       L1    13  0.17
      P1  H  6896  6908       L1     8  0.92

> <Gold.Chemscore.Hbond.Weighted>
-6.6793

> <Gold.Chemscore.Metal.Weighted>
-0.0000

> <Gold.Chemscore.Lipo.Weighted>
-8.5117

> <Gold.Chemscore.Internal_Hbond.Weighted>
0.0000

> <Gold.Chemscore.DEClash.Weighted>
0.0234

> <Gold.Chemscore.DEInternal.Weighted>
1.6602

> <Gold.Chemscore.Rot.Weighted>
9.4610

> <Gold.Chemscore.Internal.Correction.Weighted>
   9.000000E+99

> <Gold.Protein.RotatedTorsions>
[ 6907 6896 6895 6894 ] final -107.54 input  -60.11 | X-H torsion
[ 7974 7965 7964 7962 ] final  133.21 input  175.53 | X-H torsion
[ 8008 7997 7996 7995 ] final   12.81 input   59.86 | X-H torsion
[ 10167 10162 10161 10158 ] final   31.64 input  -65.29 | X-H torsion
[ 10718 10713 10712 10709 ] final -124.08 input   66.30 | X-H torsion
[ 10763 10752 10751 10750 ] final   72.31 input  -60.55 | X-H torsion
[ 11005 11000 10999 10996 ] final   84.30 input  -57.11 | X-H torsion

> <Gold.Protein.ActiveResidues>
 VAL166  LYS551  ARG553  GLY616  TRP617  ASP618  TYR619  PRO620  LYS621  CYS622 
 ASP623  PHE694  ASN695  SER759  ASP760  ASP761  ALA762  ILE779  LEU786  VAL792 
 PHE793  MET794  SER795  GLU796  ALA797  LYS798  CYS799  TRP800  GLU811  SER814 

> <Gold.Protein.RotatedAtoms>
  150.7450  133.9812  159.3576 H   0  0  0  0  0  0  0  0  0  0  0  0  # atno 6907 bound_to 6896
  151.7753  135.0774  160.0375 H   0  0  0  0  0  0  0  0  0  0  0  0  # atno 6908 bound_to 6896
  152.3311  133.5923  159.5846 H   0  0  0  0  0  0  0  0  0  0  0  0  # atno 6909 bound_to 6896
  144.9889  139.4427  143.5349 H   0  0  0  0  0  0  0  0  0  0  0  0  # atno 7974 bound_to 7965
  154.8257  140.2891  155.5756 H   0  0  0  0  0  0  0  0  0  0  0  0  # atno 8008 bound_to 7997
  156.3001  140.2541  156.3104 H   0  0  0  0  0  0  0  0  0  0  0  0  # atno 8009 bound_to 7997
  154.9288  140.0384  157.2026 H   0  0  0  0  0  0  0  0  0  0  0  0  # atno 8010 bound_to 7997
  140.4571  144.0962  150.6204 H   0  0  0  0  0  0  0  0  0  0  0  0  # atno 10167 bound_to 10162
  156.1557  130.6566  150.9978 H   0  0  0  0  0  0  0  0  0  0  0  0  # atno 10718 bound_to 10713
  153.0451  135.5105  154.7724 H   0  0  0  0  0  0  0  0  0  0  0  0  # atno 10763 bound_to 10752
  154.6631  135.2941  154.9843 H   0  0  0  0  0  0  0  0  0  0  0  0  # atno 10764 bound_to 10752
  154.0687  135.6680  153.4874 H   0  0  0  0  0  0  0  0  0  0  0  0  # atno 10765 bound_to 10752
  139.9004  134.8206  156.2426 H   0  0  0  0  0  0  0  0  0  0  0  0  # atno 11005 bound_to 11000
  146.3426  139.9208  142.8767 LP  0  0  0  0  0  0  0  0  0  0  0  0  # atno 17320 bound_to 7965
  145.2314  140.9974  143.3988 LP  0  0  0  0  0  0  0  0  0  0  0  0  # atno 17321 bound_to 7965
  140.4138  143.2644  151.9800 LP  0  0  0  0  0  0  0  0  0  0  0  0  # atno 17342 bound_to 10162
  139.4802  144.5892  151.7801 LP  0  0  0  0  0  0  0  0  0  0  0  0  # atno 17343 bound_to 10162
  157.6693  131.0865  150.7652 LP  0  0  0  0  0  0  0  0  0  0  0  0  # atno 17370 bound_to 10713
  156.7717  130.4831  149.5417 LP  0  0  0  0  0  0  0  0  0  0  0  0  # atno 17371 bound_to 10713
  141.0275  133.7007  156.1373 LP  0  0  0  0  0  0  0  0  0  0  0  0  # atno 17394 bound_to 11000
  140.7145  134.4426  157.5579 LP  0  0  0  0  0  0  0  0  0  0  0  0  # atno 17395 bound_to 11000

$$$$
