AV-unprocessed.smi:2899|AV-procd|sdf|11144|dock2
  -GOLD-   2272016 23D 1   1.00000     0.00000
 Structure written by MMmdl.
 30 32  0  0  0  0  0  0  0  0  1 V2000
  151.8031  144.9052  158.9274 C   0  0  0  0  0  0  0  0  0  0  0  0
  152.2234  143.4639  159.1216 C   0  0  0  0  0  0  0  0  0  0  0  0
  153.0832  143.0793  160.1712 C   0  0  0  0  0  0  0  0  0  0  0  0
  153.3990  141.7074  160.2436 C   0  0  0  0  0  0  0  0  0  0  0  0
  152.9033  140.8150  159.3585 N   0  0  0  0  0  0  0  0  0  0  0  0
  152.0969  141.2883  158.4051 C   0  0  0  0  0  0  0  0  0  0  0  0
  151.6071  140.3454  157.5203 N   0  0  0  0  0  0  0  0  0  0  0  0
  151.4076  140.5724  156.0934 C   0  0  1  0  0  0  0  0  0  0  0  0
  152.0923  139.5231  155.2146 C   0  0  0  0  0  0  0  0  0  0  0  0
  150.9305  139.0482  154.3296 C   0  0  1  0  0  0  0  0  0  0  0  0
  149.9690  138.1377  155.1042 C   0  0  0  0  0  0  0  0  0  0  0  0
  149.2638  139.1380  156.0181 C   0  0  0  0  0  0  0  0  0  0  0  0
  149.9427  140.4618  155.6268 C   0  0  2  0  0  0  0  0  0  0  0  0
  150.1525  140.2309  154.2437 O   0  0  0  0  0  0  0  0  0  0  0  0
  151.7323  142.5658  158.2399 N   0  0  0  0  0  0  0  0  0  0  0  0
  152.2931  145.5592  159.6493 H   0  0  0  0  0  0  0  0  0  0  0  0
  150.7246  145.0055  159.0527 H   0  0  0  0  0  0  0  0  0  0  0  0
  152.0667  145.2457  157.9258 H   0  0  0  0  0  0  0  0  0  0  0  0
  153.4797  143.7907  160.8804 H   0  0  0  0  0  0  0  0  0  0  0  0
  154.0515  141.3245  161.0142 H   0  0  0  0  0  0  0  0  0  0  0  0
  151.2651  139.4814  157.9148 H   0  0  0  0  0  0  0  0  0  0  0  0
  151.7980  141.5571  155.8320 H   0  0  0  0  0  0  0  0  0  0  0  0
  152.8759  139.9870  154.6146 H   0  0  0  0  0  0  0  0  0  0  0  0
  152.5391  138.7013  155.7762 H   0  0  0  0  0  0  0  0  0  0  0  0
  151.2434  138.6436  153.3669 H   0  0  0  0  0  0  0  0  0  0  0  0
  149.2532  137.6645  154.4311 H   0  0  0  0  0  0  0  0  0  0  0  0
  150.4909  137.3545  155.6553 H   0  0  0  0  0  0  0  0  0  0  0  0
  148.1983  139.1734  155.7884 H   0  0  0  0  0  0  0  0  0  0  0  0
  149.3705  138.8986  157.0763 H   0  0  0  0  0  0  0  0  0  0  0  0
  149.3411  141.3452  155.8420 H   0  0  0  0  0  0  0  0  0  0  0  0
  1  2  1  0  0  0  0
  1 16  1  0  0  0  0
  1 17  1  0  0  0  0
  1 18  1  0  0  0  0
  2 15  1  0  0  0  0
  2  3  2  0  0  0  0
  3  4  1  0  0  0  0
  3 19  1  0  0  0  0
  4  5  2  0  0  0  0
  4 20  1  0  0  0  0
  5  6  1  0  0  0  0
  6  7  1  0  0  0  0
  6 15  2  0  0  0  0
  7  8  1  0  0  0  0
  7 21  1  0  0  0  0
  8 13  1  0  0  0  0
  8  9  1  0  0  0  0
  8 22  1  0  0  0  0
  9 10  1  0  0  0  0
  9 23  1  0  0  0  0
  9 24  1  0  0  0  0
 10 14  1  0  0  0  0
 10 11  1  0  0  0  0
 10 25  1  0  0  0  0
 11 12  1  0  0  0  0
 11 26  1  0  0  0  0
 11 27  1  0  0  0  0
 12 13  1  0  0  0  0
 12 28  1  0  0  0  0
 12 29  1  0  0  0  0
 13 14  1  0  0  0  0
 13 30  1  0  0  0  0
M  END
> <s_m_source_file>
AV-unprocessed.smi

> <i_m_source_file_index>
2899

> <i_lp_mmshare_version>
43012

> <i_f3d_flags>
0

> <s_epik_input>
W0NIM11jMVtjSF1bY0hdbmMobjEpW05IXVtDQEhdKFtDSDJdW0NAQEhdMjMpW0NAQEhdKE8zKVtDSDJdW0NIMl0y

> <s_epik_cmdline>
J2VwaWtfcHl0aG9uJywgJy1waCcsICc3LjAnLCAnLXRuJywgJzgnLCAnLW1hJywgJzIwMCcsICctbWV0YWxfYmluZGluZycsICctaW1hZScsICc8aW5maWxlLm1hZT4nLCAnLW9tYWUnLCAnPG91dGZpbGUubWFlPic=

> <r_lp_tautomer_probability>
1

> <r_epik_Ionization_Penalty>
0.00589655

> <r_epik_Ionization_Penalty_Charging>
0

> <r_epik_Ionization_Penalty_Neutral>
0.00589655

> <r_epik_State_Penalty>
0.00375391

> <r_epik_Charging_Adjusted_Penalty>
0.00375391

> <i_epik_Tot_Q>
0

> <i_epik_Tot_abs_Q>
0

> <r_epik_Metal_State_Penalty>
-0

> <b_epik_Metal_Only>
0

> <s_lp_Force_Field>
OPLS_2005

> <r_lp_Energy>
31.8412

> <b_lp_Chiralities_Consistent>
1

> <s_lp_Variant>
AV-unprocessed.smi:2899-2

> <Gold.Version>
5.8.1

> <Gold.Id.Protein>
6NUR|6NUR_protein|mol2

> <Gold.PLP.Fitness>
36.6073

> <Gold.PLP.PLP>
-34.2271

> <Gold.PLP.part.hbond>
-0.7719

> <Gold.PLP.part.metal>
0.0000

> <Gold.PLP.part.buried>
-4.0271

> <Gold.PLP.part.nonpolar>
-28.8624

> <Gold.PLP.part.repulsive>
0.6633

> <Gold.PLP.ligand.clash>
0.0000

> <Gold.PLP.ligand.torsion>
0.3012

> <Gold.PLP.Chemscore.Hbond>
0.9913

> <Gold.PLP.Chemscore.CHOScore>
0.0000

> <Gold.PLP.Chemscore.Metal>
0.0000

> <Gold.Chemscore.Hbonds>
donor molecule, donor type, donor heavy atom, donor atom, acceptor molecule, acceptor atom, score
      P1  H  7989  7998       L1    14  0.14

> <Gold.PLP.Chemscore.Internal.Correction>
0.0088

> <Gold.Rescore>
     Score         DG    S(hbond)    S(metal)    S(lipo)     H(rot)  DE(clash)    DE(int)     intcor
     15.19     -15.62       0.87        0.00      83.77       1.00       0.00       0.43       ----

> <Gold.Chemscore.Fitness>
15.1919

> <Gold.Chemscore.DG>
-15.6211

> <Gold.Chemscore.ZeroCoef>
-5.4800

> <Gold.Chemscore.Hbond>
0.8684

> <Gold.Chemscore.Metal>
0.0000

> <Gold.Chemscore.Lipo>
83.7653

> <Gold.Chemscore.Internal_Hbond>
0.0000

> <Gold.Chemscore.DEClash>
0.0000

> <Gold.Chemscore.DEInternal>
0.4292

> <Gold.Chemscore.Rot>
1.0000

> <Gold.Chemscore.Internal.Correction>
   9.000000E+99

> <Gold.Chemscore.Hbond.Weighted>
-2.9006

> <Gold.Chemscore.Metal.Weighted>
-0.0000

> <Gold.Chemscore.Lipo.Weighted>
-9.8005

> <Gold.Chemscore.Internal_Hbond.Weighted>
0.0000

> <Gold.Chemscore.DEClash.Weighted>
0.0000

> <Gold.Chemscore.DEInternal.Weighted>
0.4292

> <Gold.Chemscore.Rot.Weighted>
2.5600

> <Gold.Chemscore.Internal.Correction.Weighted>
   9.000000E+99

> <Gold.Protein.RotatedTorsions>
[ 6907 6896 6895 6894 ] final  -20.88 input  -60.11 | X-H torsion
[ 7974 7965 7964 7962 ] final -111.78 input  175.53 | X-H torsion
[ 8008 7997 7996 7995 ] final  146.94 input   59.86 | X-H torsion
[ 10167 10162 10161 10158 ] final  -94.63 input  -65.29 | X-H torsion
[ 10718 10713 10712 10709 ] final  101.19 input   66.30 | X-H torsion
[ 10763 10752 10751 10750 ] final   -0.87 input  -60.55 | X-H torsion
[ 11005 11000 10999 10996 ] final  137.87 input  -57.11 | X-H torsion

> <Gold.Protein.ActiveResidues>
 VAL166  LYS551  ARG553  GLY616  TRP617  ASP618  TYR619  PRO620  LYS621  CYS622 
 ASP623  PHE694  ASN695  SER759  ASP760  ASP761  ALA762  ILE779  LEU786  VAL792 
 PHE793  MET794  SER795  GLU796  ALA797  LYS798  CYS799  TRP800  GLU811  SER814 

> <Gold.Protein.RotatedAtoms>
  151.2416  135.0591  159.9027 H   0  0  0  0  0  0  0  0  0  0  0  0  # atno 6907 bound_to 6896
  152.5392  134.0428  159.8085 H   0  0  0  0  0  0  0  0  0  0  0  0  # atno 6908 bound_to 6896
  151.0622  133.5485  159.2665 H   0  0  0  0  0  0  0  0  0  0  0  0  # atno 6909 bound_to 6896
  145.1519  140.8833  143.3641 H   0  0  0  0  0  0  0  0  0  0  0  0  # atno 7974 bound_to 7965
  156.2840  140.2169  156.5457 H   0  0  0  0  0  0  0  0  0  0  0  0  # atno 8008 bound_to 7997
  154.7333  140.0493  157.0768 H   0  0  0  0  0  0  0  0  0  0  0  0  # atno 8009 bound_to 7997
  155.0326  140.3136  155.4756 H   0  0  0  0  0  0  0  0  0  0  0  0  # atno 8010 bound_to 7997
  140.3124  143.3097  152.0134 H   0  0  0  0  0  0  0  0  0  0  0  0  # atno 10167 bound_to 10162
  157.6835  131.0719  150.5215 H   0  0  0  0  0  0  0  0  0  0  0  0  # atno 10718 bound_to 10713
  153.3375  135.6978  153.6895 H   0  0  0  0  0  0  0  0  0  0  0  0  # atno 10763 bound_to 10752
  153.5673  135.3523  155.2824 H   0  0  0  0  0  0  0  0  0  0  0  0  # atno 10764 bound_to 10752
  154.8630  135.4264  154.2579 H   0  0  0  0  0  0  0  0  0  0  0  0  # atno 10765 bound_to 10752
  140.0144  134.9425  157.0344 H   0  0  0  0  0  0  0  0  0  0  0  0  # atno 11005 bound_to 11000
  145.0422  139.3251  143.5971 LP  0  0  0  0  0  0  0  0  0  0  0  0  # atno 17320 bound_to 7965
  146.3493  139.9799  142.8697 LP  0  0  0  0  0  0  0  0  0  0  0  0  # atno 17321 bound_to 7965
  139.4891  144.6374  151.6947 LP  0  0  0  0  0  0  0  0  0  0  0  0  # atno 17342 bound_to 10162
  140.5556  144.0353  150.6146 LP  0  0  0  0  0  0  0  0  0  0  0  0  # atno 17343 bound_to 10162
  156.5528  130.4236  149.6100 LP  0  0  0  0  0  0  0  0  0  0  0  0  # atno 17370 bound_to 10713
  156.2888  130.7112  151.1956 LP  0  0  0  0  0  0  0  0  0  0  0  0  # atno 17371 bound_to 10713
  140.4498  134.1594  155.7180 LP  0  0  0  0  0  0  0  0  0  0  0  0  # atno 17394 bound_to 11000
  141.1732  133.8566  157.1503 LP  0  0  0  0  0  0  0  0  0  0  0  0  # atno 17395 bound_to 11000

$$$$
