#       Name:                AV-unprocessed.smi:3271
#       Creating user name   scv26
#       Creation time:       Fri Mar 27 18:42:43 2020


#       File generated by GOLD software.
#

@<TRIPOS>MOLECULE
AV-unprocessed.smi:3271
    46    46     1
SMALL
NO_CHARGES


@<TRIPOS>ATOM
      1 ****        -2.0282   2.5831  -2.8628 C.3            1 S1                 0.0000
      2 ****        -2.6153   2.3827  -1.4566 C.3            1 S1                 0.0000
      3 ****        -1.9437   1.2561  -0.6386 C.3            1 S1                 0.0000
      4 ****        -2.7216   0.9993   0.6725 C.3            1 S1                 0.0000
      5 ****        -2.1991  -0.1822   1.5045 C.3            1 S1                 0.0000
      6 ****        -0.4631   1.5720  -0.3651 C.2            1 S1                 0.0000
      7 ****        -0.1508   2.5354   0.3346 O.2            1 S1                 0.0000
      8 ****         0.4343   0.7454  -0.9221 N.am           1 S1                 0.0000
      9 ****         1.8848   0.8509  -0.7823 C.3            1 S1                 0.0000
     10 ****         2.4490   0.1789   0.4991 C.3            1 S1                 0.0000
     11 ****         3.9446  -0.1327   0.3180 C.3            1 S1                 0.0000
     12 ****         2.4080   1.1539   1.5234 O.3            1 S1                 0.0000
     13 ****         1.7077  -1.0841   0.8909 C.2            1 S1                 0.0000
     14 ****         1.1870  -1.4425   2.1693 C.2            1 S1                 0.0000
     15 ****         0.5796  -2.6176   2.1717 N.2            1 S1                 0.0000
     16 ****         0.7023  -3.0598   0.9046 N.pl3          1 S1                 0.0000
     17 ****         0.1387  -4.3410   0.5374 C.3            1 S1                 0.0000
     18 ****         1.3842  -2.1622   0.1132 C.2            1 S1                 0.0000
     19 ****        -2.5901   3.3405  -3.4098 H              1 S1                 0.0000
     20 ****        -2.0683   1.6596  -3.4409 H              1 S1                 0.0000
     21 ****        -0.9895   2.9120  -2.8250 H              1 S1                 0.0000
     22 ****        -2.5662   3.3240  -0.9072 H              1 S1                 0.0000
     23 ****        -3.6772   2.1583  -1.5636 H              1 S1                 0.0000
     24 ****        -1.9954   0.3413  -1.2320 H              1 S1                 0.0000
     25 ****        -2.7259   1.8993   1.2889 H              1 S1                 0.0000
     26 ****        -3.7662   0.8029   0.4283 H              1 S1                 0.0000
     27 ****        -2.8539  -0.3752   2.3544 H              1 S1                 0.0000
     28 ****        -1.2051   0.0197   1.9020 H              1 S1                 0.0000
     29 ****        -2.1467  -1.0953   0.9110 H              1 S1                 0.0000
     30 ****         0.0866  -0.0213  -1.4792 H              1 S1                 0.0000
     31 ****         2.2835   0.3292  -1.6530 H              1 S1                 0.0000
     32 ****         2.2224   1.8845  -0.8821 H              1 S1                 0.0000
     33 ****         4.1024  -0.8728  -0.4674 H              1 S1                 0.0000
     34 ****         4.3817  -0.5312   1.2347 H              1 S1                 0.0000
     35 ****         4.5088   0.7598   0.0442 H              1 S1                 0.0000
     36 ****         1.5206   1.4722   1.5972 H              1 S1                 0.0000
     37 ****         1.2228  -0.8795   3.0903 H              1 S1                 0.0000
     38 ****         0.5474  -4.6680  -0.4191 H              1 S1                 0.0000
     39 ****        -0.9446  -4.2531   0.4505 H              1 S1                 0.0000
     40 ****         0.3787  -5.0861   1.2968 H              1 S1                 0.0000
     41 ****         1.5740  -2.3558  -0.9322 H              1 S1                 0.0000
     42 ****        -0.8613   3.1181   0.7291 LP             1 S1                 0.0000
     43 ****         0.8135   2.7353   0.5086 LP             1 S1                 0.0000
     44 ****         3.0203   1.9106   1.2941 LP             1 S1                 0.0000
     45 ****         2.6934   0.7452   2.3903 LP             1 S1                 0.0000
     46 ****         0.1310  -3.0744   2.9399 LP             1 S1                 0.0000
@<TRIPOS>BOND
    1    1    2 1     
    2    1   19 1     
    3    1   20 1     
    4    1   21 1     
    5    2    3 1     
    6    2   22 1     
    7    2   23 1     
    8    3    4 1     
    9    3    6 1     
   10    3   24 1     
   11    4    5 1     
   12    4   25 1     
   13    4   26 1     
   14    5   27 1     
   15    5   28 1     
   16    5   29 1     
   17    6    7 2     
   18    6    8 am    
   19    8    9 1     
   20    8   30 1     
   21    9   10 1     
   22    9   31 1     
   23    9   32 1     
   24   10   11 1     
   25   10   12 1     
   26   10   13 1     
   27   11   33 1     
   28   11   34 1     
   29   11   35 1     
   30   12   36 1     
   31   13   18 2     
   32   13   14 1     
   33   14   15 2     
   34   14   37 1     
   35   15   16 1     
   36   16   17 1     
   37   16   18 1     
   38   17   38 1     
   39   17   39 1     
   40   17   40 1     
   41   18   41 1     
   42    7   42 1     
   43    7   43 1     
   44   12   44 1     
   45   12   45 1     
   46   15   46 1     
@<TRIPOS>SUBSTRUCTURE
      1 S1             1
@<TRIPOS>SET
LONE_PAIRS      STATIC     ATOMS    <user>   **** ""
5 42 43 44 45 46
DONOR_HYDROGENS      STATIC     ATOMS    <user>   **** ""
2 30 36
ATOM$BLUE        STATIC     ATOMS    COLORGROUP SYSTEM
5 42 43 44 45 46
ATOM$RED        STATIC     ATOMS    COLORGROUP SYSTEM
2 30 36
