AV-unprocessed.smi:559|AV-procd|sdf|2925|dock6
  -GOLD-   2262023413D 1   1.00000     0.00000
 Structure written by MMmdl.
 41 42  0  0  0  0  0  0  0  0  1 V2000
  152.9717  140.4408  159.4802 C   0  0  0  0  0  0  0  0  0  0  0  0
  152.7790  141.7434  160.2026 C   0  0  0  0  0  0  0  0  0  0  0  0
  152.9798  141.7980  161.5082 N   0  0  0  0  0  0  0  0  0  0  0  0
  152.7280  143.0786  161.8439 N   0  0  0  0  0  0  0  0  0  0  0  0
  152.8635  143.4698  163.2341 C   0  0  0  0  0  0  0  0  0  0  0  0
  152.3692  143.8376  160.7447 C   0  0  0  0  0  0  0  0  0  0  0  0
  152.0373  145.2923  160.8459 C   0  0  0  0  0  0  0  0  0  0  0  0
  152.3907  143.0025  159.6585 C   0  0  0  0  0  0  0  0  0  0  0  0
  152.0810  143.3152  158.2156 C   0  0  0  0  0  0  0  0  0  0  0  0
  150.8791  142.4939  157.7463 C   0  0  0  0  0  0  0  0  0  0  0  0
  149.8299  142.5172  158.3887 O   0  0  0  0  0  0  0  0  0  0  0  0
  151.0495  141.7658  156.6314 N   0  0  0  0  0  0  0  0  0  0  0  0
  150.0389  140.9213  156.0029 C   0  0  0  0  0  0  0  0  0  0  0  0
  150.2664  139.4261  156.2983 C   0  0  1  0  0  0  0  0  0  0  0  0
  149.5508  138.4765  155.3134 C   0  0  0  0  0  0  0  0  0  0  0  0
  150.0828  137.0554  155.5241 C   0  0  0  0  0  0  0  0  0  0  0  0
  151.8406  137.2498  155.9973 S   0  0  0  0  0  0  0  0  0  0  0  0
  152.0736  136.5500  157.2697 O   0  0  0  0  0  0  0  0  0  0  0  0
  152.6958  136.9991  154.8273 O   0  0  0  0  0  0  0  0  0  0  0  0
  151.7579  139.0561  156.2977 C   0  0  0  0  0  0  0  0  0  0  0  0
  152.1323  140.2346  158.8163 H   0  0  0  0  0  0  0  0  0  0  0  0
  153.0564  139.6023  160.1724 H   0  0  0  0  0  0  0  0  0  0  0  0
  153.8768  140.4636  158.8734 H   0  0  0  0  0  0  0  0  0  0  0  0
  152.4877  144.4803  163.3917 H   0  0  0  0  0  0  0  0  0  0  0  0
  153.9141  143.4350  163.5230 H   0  0  0  0  0  0  0  0  0  0  0  0
  152.2975  142.7855  163.8672 H   0  0  0  0  0  0  0  0  0  0  0  0
  151.7664  145.7072  159.8756 H   0  0  0  0  0  0  0  0  0  0  0  0
  152.8883  145.8584  161.2247 H   0  0  0  0  0  0  0  0  0  0  0  0
  151.1953  145.4516  161.5198 H   0  0  0  0  0  0  0  0  0  0  0  0
  151.8661  144.3737  158.0676 H   0  0  0  0  0  0  0  0  0  0  0  0
  152.9350  143.0929  157.5746 H   0  0  0  0  0  0  0  0  0  0  0  0
  151.9484  141.8130  156.1740 H   0  0  0  0  0  0  0  0  0  0  0  0
  149.0340  141.2233  156.3036 H   0  0  0  0  0  0  0  0  0  0  0  0
  150.0964  141.0921  154.9275 H   0  0  0  0  0  0  0  0  0  0  0  0
  149.8814  139.2090  157.2959 H   0  0  0  0  0  0  0  0  0  0  0  0
  148.4673  138.5084  155.4285 H   0  0  0  0  0  0  0  0  0  0  0  0
  149.7718  138.7884  154.2917 H   0  0  0  0  0  0  0  0  0  0  0  0
  149.5636  136.5658  156.3482 H   0  0  0  0  0  0  0  0  0  0  0  0
  149.9964  136.4305  154.6351 H   0  0  0  0  0  0  0  0  0  0  0  0
  152.2856  139.5514  155.4819 H   0  0  0  0  0  0  0  0  0  0  0  0
  152.2579  139.3044  157.2340 H   0  0  0  0  0  0  0  0  0  0  0  0
  1  2  1  0  0  0  0
  1 21  1  0  0  0  0
  1 22  1  0  0  0  0
  1 23  1  0  0  0  0
  2  8  1  0  0  0  0
  2  3  2  0  0  0  0
  3  4  1  0  0  0  0
  4  5  1  0  0  0  0
  4  6  1  0  0  0  0
  5 24  1  0  0  0  0
  5 25  1  0  0  0  0
  5 26  1  0  0  0  0
  6  7  1  0  0  0  0
  6  8  2  0  0  0  0
  7 27  1  0  0  0  0
  7 28  1  0  0  0  0
  7 29  1  0  0  0  0
  8  9  1  0  0  0  0
  9 10  1  0  0  0  0
  9 30  1  0  0  0  0
  9 31  1  0  0  0  0
 10 11  2  0  0  0  0
 10 12  1  0  0  0  0
 12 13  1  0  0  0  0
 12 32  1  0  0  0  0
 13 14  1  0  0  0  0
 13 33  1  0  0  0  0
 13 34  1  0  0  0  0
 14 20  1  0  0  0  0
 14 15  1  0  0  0  0
 14 35  1  0  0  0  0
 15 16  1  0  0  0  0
 15 36  1  0  0  0  0
 15 37  1  0  0  0  0
 16 17  1  0  0  0  0
 16 38  1  0  0  0  0
 16 39  1  0  0  0  0
 17 18  2  0  0  0  0
 17 19  2  0  0  0  0
 17 20  1  0  0  0  0
 20 40  1  0  0  0  0
 20 41  1  0  0  0  0
M  END
> <s_m_source_file>
AV-unprocessed.smi

> <i_m_source_file_index>
559

> <i_lp_mmshare_version>
43012

> <i_f3d_flags>
0

> <s_epik_input>
W0NIM11jMW5uKFtDSDNdKWMoW0NIM10pYzFbQ0gyXUMoPU8pW05IXVtDSDJdW0NAQEhdKFtDSDJdMilbQ0gyXVtDSDJdUzIoPU8pPU8=

> <s_epik_cmdline>
J2VwaWtfcHl0aG9uJywgJy1waCcsICc3LjAnLCAnLXRuJywgJzgnLCAnLW1hJywgJzIwMCcsICctbWV0YWxfYmluZGluZycsICctaW1hZScsICc8aW5maWxlLm1hZT4nLCAnLW9tYWUnLCAnPG91dGZpbGUubWFlPic=

> <r_lp_tautomer_probability>
1

> <r_epik_Ionization_Penalty>
0.00301269

> <r_epik_Ionization_Penalty_Charging>
0

> <r_epik_Ionization_Penalty_Neutral>
0.00301269

> <r_epik_State_Penalty>
0.00211587

> <r_epik_Charging_Adjusted_Penalty>
0.00211587

> <i_epik_Tot_Q>
0

> <i_epik_Tot_abs_Q>
0

> <r_epik_Metal_State_Penalty>
-0

> <b_epik_Metal_Only>
0

> <s_lp_Force_Field>
OPLS_2005

> <r_lp_Energy>
-1.18315

> <b_lp_Chiralities_Consistent>
1

> <s_lp_Variant>
AV-unprocessed.smi:559-2

> <Gold.Version>
5.8.1

> <Gold.Id.Protein>
6NUR|6NUR_protein|mol2

> <Gold.PLP.Fitness>
43.8529

> <Gold.PLP.PLP>
-40.6407

> <Gold.PLP.part.hbond>
-2.0000

> <Gold.PLP.part.metal>
0.0000

> <Gold.PLP.part.buried>
-1.9539

> <Gold.PLP.part.nonpolar>
-36.0421

> <Gold.PLP.part.repulsive>
0.3178

> <Gold.PLP.ligand.clash>
0.0000

> <Gold.PLP.ligand.torsion>
0.3642

> <Gold.PLP.Chemscore.Hbond>
1.3120

> <Gold.PLP.Chemscore.CHOScore>
0.0000

> <Gold.PLP.Chemscore.Metal>
0.0000

> <Gold.PLP.Chemscore.Internal.Correction>
0.0047

> <Gold.Rescore>
     Score         DG    S(hbond)    S(metal)    S(lipo)     H(rot)  DE(clash)    DE(int)     intcor
     14.32     -15.18       0.59        0.00     101.92       1.64       0.36       0.50       ----

> <Gold.Chemscore.Fitness>
14.3226

> <Gold.Chemscore.DG>
-15.1827

> <Gold.Chemscore.ZeroCoef>
-5.4800

> <Gold.Chemscore.Hbond>
0.5916

> <Gold.Chemscore.Metal>
0.0000

> <Gold.Chemscore.Lipo>
101.9162

> <Gold.Chemscore.Internal_Hbond>
0.0000

> <Gold.Chemscore.DEClash>
0.3600

> <Gold.Chemscore.DEInternal>
0.5001

> <Gold.Chemscore.Rot>
1.6396

> <Gold.Chemscore.Internal.Correction>
   9.000000E+99

> <Gold.Chemscore.Hbonds>
donor molecule, donor type, donor heavy atom, donor atom, acceptor molecule, acceptor atom, score
      P1  H 10752 10763       L1    19  0.06
      P1  H 10752 10764       L1    19  0.01

> <Gold.Chemscore.Hbond.Weighted>
-1.9759

> <Gold.Chemscore.Metal.Weighted>
-0.0000

> <Gold.Chemscore.Lipo.Weighted>
-11.9242

> <Gold.Chemscore.Internal_Hbond.Weighted>
0.0000

> <Gold.Chemscore.DEClash.Weighted>
0.3600

> <Gold.Chemscore.DEInternal.Weighted>
0.5001

> <Gold.Chemscore.Rot.Weighted>
4.1974

> <Gold.Chemscore.Internal.Correction.Weighted>
   9.000000E+99

> <Gold.Protein.RotatedTorsions>
[ 6907 6896 6895 6894 ] final  -77.17 input  -60.11 | X-H torsion
[ 7974 7965 7964 7962 ] final    0.58 input  175.53 | X-H torsion
[ 8008 7997 7996 7995 ] final   90.65 input   59.86 | X-H torsion
[ 10167 10162 10161 10158 ] final  -36.46 input  -65.29 | X-H torsion
[ 10718 10713 10712 10709 ] final   82.26 input   66.30 | X-H torsion
[ 10763 10752 10751 10750 ] final    0.13 input  -60.55 | X-H torsion
[ 11005 11000 10999 10996 ] final  176.25 input  -57.11 | X-H torsion

> <Gold.Protein.ActiveResidues>
 VAL166  LYS551  ARG553  GLY616  TRP617  ASP618  TYR619  PRO620  LYS621  CYS622 
 ASP623  PHE694  ASN695  SER759  ASP760  ASP761  ALA762  ILE779  LEU786  VAL792 
 PHE793  MET794  SER795  GLU796  ALA797  LYS798  CYS799  TRP800  GLU811  SER814 

> <Gold.Protein.RotatedAtoms>
  150.7006  134.4463  159.5315 H   0  0  0  0  0  0  0  0  0  0  0  0  # atno 6907 bound_to 6896
  152.2163  134.8452  160.0500 H   0  0  0  0  0  0  0  0  0  0  0  0  # atno 6908 bound_to 6896
  151.9318  133.3578  159.3970 H   0  0  0  0  0  0  0  0  0  0  0  0  # atno 6909 bound_to 6896
  146.2435  140.1116  142.8343 H   0  0  0  0  0  0  0  0  0  0  0  0  # atno 7974 bound_to 7965
  156.0145  140.3347  155.6974 H   0  0  0  0  0  0  0  0  0  0  0  0  # atno 8008 bound_to 7997
  155.6111  140.0665  157.2723 H   0  0  0  0  0  0  0  0  0  0  0  0  # atno 8009 bound_to 7997
  154.4293  140.1793  156.1261 H   0  0  0  0  0  0  0  0  0  0  0  0  # atno 8010 bound_to 7997
  140.7142  143.3407  151.2364 H   0  0  0  0  0  0  0  0  0  0  0  0  # atno 10167 bound_to 10162
  157.6853  131.0040  150.2348 H   0  0  0  0  0  0  0  0  0  0  0  0  # atno 10718 bound_to 10713
  153.3247  135.6971  153.7000 H   0  0  0  0  0  0  0  0  0  0  0  0  # atno 10763 bound_to 10752
  153.5826  135.3495  155.2881 H   0  0  0  0  0  0  0  0  0  0  0  0  # atno 10764 bound_to 10752
  154.8605  135.4299  154.2420 H   0  0  0  0  0  0  0  0  0  0  0  0  # atno 10765 bound_to 10752
  140.3711  134.7029  157.4393 H   0  0  0  0  0  0  0  0  0  0  0  0  # atno 11005 bound_to 11000
  145.0482  140.8997  143.5011 LP  0  0  0  0  0  0  0  0  0  0  0  0  # atno 17320 bound_to 7965
  145.1209  139.2694  143.5589 LP  0  0  0  0  0  0  0  0  0  0  0  0  # atno 17321 bound_to 7965
  139.6914  143.9686  152.2861 LP  0  0  0  0  0  0  0  0  0  0  0  0  # atno 17342 bound_to 10162
  139.9349  144.6718  150.8325 LP  0  0  0  0  0  0  0  0  0  0  0  0  # atno 17343 bound_to 10162
  156.2974  130.3754  149.7783 LP  0  0  0  0  0  0  0  0  0  0  0  0  # atno 17370 bound_to 10713
  156.5423  130.8305  151.3273 LP  0  0  0  0  0  0  0  0  0  0  0  0  # atno 17371 bound_to 10713
  140.0551  134.6075  155.8815 LP  0  0  0  0  0  0  0  0  0  0  0  0  # atno 17394 bound_to 11000
  141.1954  133.6587  156.5641 LP  0  0  0  0  0  0  0  0  0  0  0  0  # atno 17395 bound_to 11000

$$$$
