AV-unprocessed.smi:2203|AV-procd|sdf|8935|dock6
  -GOLD-   2272012153D 1   1.00000     0.00000
 Structure written by MMmdl.
 48 49  0  0  0  0  0  0  0  0  1 V2000
  152.5448  138.9601  155.8207 C   0  0  0  0  0  0  0  0  0  0  0  0
  151.0791  138.9317  155.4935 C   0  0  0  0  0  0  0  0  0  0  0  0
  150.6234  139.6795  154.5033 N   0  0  0  0  0  0  0  0  0  0  0  0
  149.2982  139.4300  154.4602 N   0  0  0  0  0  0  0  0  0  0  0  0
  148.4814  140.1067  153.4635 C   0  0  0  0  0  0  0  0  0  0  0  0
  147.4752  141.1046  154.0763 C   0  0  0  0  0  0  0  0  0  0  0  0
  146.9244  142.0510  153.0000 C   0  0  0  0  0  0  0  0  0  0  0  0
  148.0637  141.9000  155.2544 C   0  0  0  0  0  0  0  0  0  0  0  0
  148.9194  138.5113  155.4226 C   0  0  0  0  0  0  0  0  0  0  0  0
  147.5068  138.0469  155.5838 C   0  0  0  0  0  0  0  0  0  0  0  0
  150.0488  138.1686  156.1171 C   0  0  0  0  0  0  0  0  0  0  0  0
  150.1870  137.2051  157.2683 C   0  0  0  0  0  0  0  0  0  0  0  0
  149.2300  137.6088  158.3895 C   0  0  0  0  0  0  0  0  0  0  0  0
  149.2942  138.7368  158.8779 O   0  0  0  0  0  0  0  0  0  0  0  0
  148.3426  136.6835  158.7812 N   0  0  0  0  0  0  0  0  0  0  0  0
  147.3412  136.8882  159.8178 C   0  0  0  0  0  0  0  0  0  0  0  0
  147.9616  136.7136  161.2105 C   0  0  2  0  0  0  0  0  0  0  0  0
  147.2030  135.7290  162.1004 C   0  0  0  0  0  0  0  0  0  0  0  0
  147.5360  136.2410  163.4827 C   0  0  0  0  0  0  0  0  0  0  0  0
  147.5062  137.7492  163.2618 C   0  0  0  0  0  0  0  0  0  0  0  0
  147.9502  137.9503  161.9230 O   0  0  0  0  0  0  0  0  0  0  0  0
  153.0549  138.0984  155.3897 H   0  0  0  0  0  0  0  0  0  0  0  0
  152.7080  138.9387  156.8980 H   0  0  0  0  0  0  0  0  0  0  0  0
  153.0259  139.8594  155.4341 H   0  0  0  0  0  0  0  0  0  0  0  0
  149.1389  140.6235  152.7621 H   0  0  0  0  0  0  0  0  0  0  0  0
  147.9559  139.3496  152.8812 H   0  0  0  0  0  0  0  0  0  0  0  0
  146.6300  140.5342  154.4621 H   0  0  0  0  0  0  0  0  0  0  0  0
  147.7161  142.6640  152.5681 H   0  0  0  0  0  0  0  0  0  0  0  0
  146.1714  142.7226  153.4139 H   0  0  0  0  0  0  0  0  0  0  0  0
  146.4551  141.4929  152.1892 H   0  0  0  0  0  0  0  0  0  0  0  0
  148.9416  142.4689  154.9467 H   0  0  0  0  0  0  0  0  0  0  0  0
  148.3606  141.2451  156.0736 H   0  0  0  0  0  0  0  0  0  0  0  0
  147.3343  142.6047  155.6544 H   0  0  0  0  0  0  0  0  0  0  0  0
  147.4516  137.1714  156.2307 H   0  0  0  0  0  0  0  0  0  0  0  0
  147.0706  137.7712  154.6240 H   0  0  0  0  0  0  0  0  0  0  0  0
  146.8905  138.8285  156.0277 H   0  0  0  0  0  0  0  0  0  0  0  0
  149.9777  136.1799  156.9604 H   0  0  0  0  0  0  0  0  0  0  0  0
  151.2044  137.1951  157.6602 H   0  0  0  0  0  0  0  0  0  0  0  0
  148.3605  135.7799  158.3312 H   0  0  0  0  0  0  0  0  0  0  0  0
  146.9023  137.8829  159.7242 H   0  0  0  0  0  0  0  0  0  0  0  0
  146.5370  136.1651  159.6750 H   0  0  0  0  0  0  0  0  0  0  0  0
  148.9993  136.3867  161.1250 H   0  0  0  0  0  0  0  0  0  0  0  0
  146.1279  135.8013  161.9285 H   0  0  0  0  0  0  0  0  0  0  0  0
  147.5049  134.6934  161.9422 H   0  0  0  0  0  0  0  0  0  0  0  0
  146.8338  135.9069  164.2470 H   0  0  0  0  0  0  0  0  0  0  0  0
  148.5380  135.9206  163.7714 H   0  0  0  0  0  0  0  0  0  0  0  0
  146.4861  138.1257  163.3481 H   0  0  0  0  0  0  0  0  0  0  0  0
  148.1282  138.2894  163.9757 H   0  0  0  0  0  0  0  0  0  0  0  0
  1  2  1  0  0  0  0
  1 22  1  0  0  0  0
  1 23  1  0  0  0  0
  1 24  1  0  0  0  0
  2 11  1  0  0  0  0
  2  3  2  0  0  0  0
  3  4  1  0  0  0  0
  4  5  1  0  0  0  0
  4  9  1  0  0  0  0
  5  6  1  0  0  0  0
  5 25  1  0  0  0  0
  5 26  1  0  0  0  0
  6  7  1  0  0  0  0
  6  8  1  0  0  0  0
  6 27  1  0  0  0  0
  7 28  1  0  0  0  0
  7 29  1  0  0  0  0
  7 30  1  0  0  0  0
  8 31  1  0  0  0  0
  8 32  1  0  0  0  0
  8 33  1  0  0  0  0
  9 10  1  0  0  0  0
  9 11  2  0  0  0  0
 10 34  1  0  0  0  0
 10 35  1  0  0  0  0
 10 36  1  0  0  0  0
 11 12  1  0  0  0  0
 12 13  1  0  0  0  0
 12 37  1  0  0  0  0
 12 38  1  0  0  0  0
 13 14  2  0  0  0  0
 13 15  1  0  0  0  0
 15 16  1  0  0  0  0
 15 39  1  0  0  0  0
 16 17  1  0  0  0  0
 16 40  1  0  0  0  0
 16 41  1  0  0  0  0
 17 21  1  0  0  0  0
 17 18  1  0  0  0  0
 17 42  1  0  0  0  0
 18 19  1  0  0  0  0
 18 43  1  0  0  0  0
 18 44  1  0  0  0  0
 19 20  1  0  0  0  0
 19 45  1  0  0  0  0
 19 46  1  0  0  0  0
 20 21  1  0  0  0  0
 20 47  1  0  0  0  0
 20 48  1  0  0  0  0
M  END
> <s_m_source_file>
AV-unprocessed.smi

> <i_m_source_file_index>
2203

> <i_lp_mmshare_version>
43012

> <i_f3d_flags>
0

> <s_epik_input>
W0NIM11jMW5uKFtDSDJdW0NIXShbQ0gzXSlbQ0gzXSljKFtDSDNdKWMxW0NIMl1DKD1PKVtOSF1bQ0gyXVtDQEBIXTJbQ0gyXVtDSDJdW0NIMl1PMg==

> <s_epik_cmdline>
J2VwaWtfcHl0aG9uJywgJy1waCcsICc3LjAnLCAnLXRuJywgJzgnLCAnLW1hJywgJzIwMCcsICctbWV0YWxfYmluZGluZycsICctaW1hZScsICc8aW5maWxlLm1hZT4nLCAnLW9tYWUnLCAnPG91dGZpbGUubWFlPic=

> <r_lp_tautomer_probability>
1

> <r_epik_Ionization_Penalty>
0.00306713

> <r_epik_Ionization_Penalty_Charging>
0

> <r_epik_Ionization_Penalty_Neutral>
0.00306713

> <r_epik_State_Penalty>
0.00215672

> <r_epik_Charging_Adjusted_Penalty>
0.00215672

> <i_epik_Tot_Q>
0

> <i_epik_Tot_abs_Q>
0

> <r_epik_Metal_State_Penalty>
-0

> <b_epik_Metal_Only>
0

> <s_lp_Force_Field>
OPLS_2005

> <r_lp_Energy>
15.5636

> <b_lp_Chiralities_Consistent>
1

> <s_lp_Variant>
AV-unprocessed.smi:2203-1

> <Gold.Version>
5.8.1

> <Gold.Id.Protein>
6NUR|6NUR_protein|mol2

> <Gold.PLP.Fitness>
37.5403

> <Gold.PLP.PLP>
-31.5925

> <Gold.PLP.part.hbond>
-3.2106

> <Gold.PLP.part.metal>
0.0000

> <Gold.PLP.part.buried>
0.0216

> <Gold.PLP.part.nonpolar>
-27.8611

> <Gold.PLP.part.repulsive>
0.1809

> <Gold.PLP.ligand.clash>
0.0000

> <Gold.PLP.ligand.torsion>
1.1082

> <Gold.PLP.Chemscore.Hbond>
2.6978

> <Gold.PLP.Chemscore.CHOScore>
0.0000

> <Gold.PLP.Chemscore.Metal>
0.0000

> <Gold.Chemscore.Hbonds>
donor molecule, donor type, donor heavy atom, donor atom, acceptor molecule, acceptor atom, score
      P1  H  6934  6947       L1    21  0.27
      P1  H  7989  7998       L1     3  1.00

> <Gold.PLP.Chemscore.Internal.Correction>
0.0707

> <Gold.Rescore>
     Score         DG    S(hbond)    S(metal)    S(lipo)     H(rot)  DE(clash)    DE(int)     intcor
     15.42     -19.45       2.25        0.00      90.81       1.63       2.99       1.04       ----

> <Gold.Chemscore.Fitness>
15.4215

> <Gold.Chemscore.DG>
-19.4542

> <Gold.Chemscore.ZeroCoef>
-5.4800

> <Gold.Chemscore.Hbond>
2.2543

> <Gold.Chemscore.Metal>
0.0000

> <Gold.Chemscore.Lipo>
90.8135

> <Gold.Chemscore.Internal_Hbond>
0.0000

> <Gold.Chemscore.DEClash>
2.9936

> <Gold.Chemscore.DEInternal>
1.0391

> <Gold.Chemscore.Rot>
1.6329

> <Gold.Chemscore.Internal.Correction>
   9.000000E+99

> <Gold.Chemscore.Hbonds>
donor molecule, donor type, donor heavy atom, donor atom, acceptor molecule, acceptor atom, score
      P1  H  6931  6943       L1    21  0.01
      P1  H  6934  6947       L1    21  0.16
      P1  H  7989  7998       L1     3  1.00

> <Gold.Chemscore.Hbond.Weighted>
-7.5293

> <Gold.Chemscore.Metal.Weighted>
-0.0000

> <Gold.Chemscore.Lipo.Weighted>
-10.6252

> <Gold.Chemscore.Internal_Hbond.Weighted>
0.0000

> <Gold.Chemscore.DEClash.Weighted>
2.9936

> <Gold.Chemscore.DEInternal.Weighted>
1.0391

> <Gold.Chemscore.Rot.Weighted>
4.1803

> <Gold.Chemscore.Internal.Correction.Weighted>
   9.000000E+99

> <Gold.Protein.RotatedTorsions>
[ 6907 6896 6895 6894 ] final   37.79 input  -60.11 | X-H torsion
[ 7974 7965 7964 7962 ] final  -75.51 input  175.53 | X-H torsion
[ 8008 7997 7996 7995 ] final    4.52 input   59.86 | X-H torsion
[ 10167 10162 10161 10158 ] final  -61.91 input  -65.29 | X-H torsion
[ 10718 10713 10712 10709 ] final   69.74 input   66.30 | X-H torsion
[ 10763 10752 10751 10750 ] final -164.97 input  -60.55 | X-H torsion
[ 11005 11000 10999 10996 ] final  144.14 input  -57.11 | X-H torsion

> <Gold.Protein.ActiveResidues>
 VAL166  LYS551  ARG553  GLY616  TRP617  ASP618  TYR619  PRO620  LYS621  CYS622 
 ASP623  PHE694  ASN695  SER759  ASP760  ASP761  ALA762  ILE779  LEU786  VAL792 
 PHE793  MET794  SER795  GLU796  ALA797  LYS798  CYS799  TRP800  GLU811  SER814 

> <Gold.Protein.RotatedAtoms>
  152.1479  134.9011  160.0549 H   0  0  0  0  0  0  0  0  0  0  0  0  # atno 6907 bound_to 6896
  152.0055  133.3836  159.4207 H   0  0  0  0  0  0  0  0  0  0  0  0  # atno 6908 bound_to 6896
  150.6872  134.3710  159.5036 H   0  0  0  0  0  0  0  0  0  0  0  0  # atno 6909 bound_to 6896
  145.6250  140.9353  143.1117 H   0  0  0  0  0  0  0  0  0  0  0  0  # atno 7974 bound_to 7965
  154.7169  140.2704  155.6577 H   0  0  0  0  0  0  0  0  0  0  0  0  # atno 8008 bound_to 7997
  156.2812  140.2742  156.1753 H   0  0  0  0  0  0  0  0  0  0  0  0  # atno 8009 bound_to 7997
  155.0559  140.0371  157.2550 H   0  0  0  0  0  0  0  0  0  0  0  0  # atno 8010 bound_to 7997
  140.5974  143.2354  151.6005 H   0  0  0  0  0  0  0  0  0  0  0  0  # atno 10167 bound_to 10162
  157.6362  130.9441  150.0555 H   0  0  0  0  0  0  0  0  0  0  0  0  # atno 10718 bound_to 10713
  154.6977  135.2982  154.9387 H   0  0  0  0  0  0  0  0  0  0  0  0  # atno 10763 bound_to 10752
  154.0329  135.6667  153.4786 H   0  0  0  0  0  0  0  0  0  0  0  0  # atno 10764 bound_to 10752
  153.0658  135.5089  154.8104 H   0  0  0  0  0  0  0  0  0  0  0  0  # atno 10765 bound_to 10752
  140.0609  134.9205  157.1182 H   0  0  0  0  0  0  0  0  0  0  0  0  # atno 11005 bound_to 11000
  144.7216  139.8012  143.7380 LP  0  0  0  0  0  0  0  0  0  0  0  0  # atno 17320 bound_to 7965
  146.1401  139.4456  143.0114 LP  0  0  0  0  0  0  0  0  0  0  0  0  # atno 17321 bound_to 7965
  139.5267  144.3037  152.1052 LP  0  0  0  0  0  0  0  0  0  0  0  0  # atno 17342 bound_to 10162
  140.2211  144.4465  150.6341 LP  0  0  0  0  0  0  0  0  0  0  0  0  # atno 17343 bound_to 10162
  156.1604  130.3644  149.9308 LP  0  0  0  0  0  0  0  0  0  0  0  0  # atno 17370 bound_to 10713
  156.7307  130.9042  151.3625 LP  0  0  0  0  0  0  0  0  0  0  0  0  # atno 17371 bound_to 10713
  140.3772  134.2326  155.7173 LP  0  0  0  0  0  0  0  0  0  0  0  0  # atno 17394 bound_to 11000
  141.1972  133.8063  157.0636 LP  0  0  0  0  0  0  0  0  0  0  0  0  # atno 17395 bound_to 11000

$$$$
