AV-unprocessed.smi:338|AV-procd|sdf|2377|dock5
  -GOLD-   2262022303D 1   1.00000     0.00000
 Structure written by MMmdl.
 42 44  0  0  0  0  0  0  0  0  2 V2000
  153.1023  138.9528  153.8013 C   0  0  0  0  0  0  0  0  0  0  0  0
  152.3246  139.7438  154.8517 C   0  0  0  0  0  0  0  0  0  0  0  0
  152.9149  140.1177  155.8647 O   0  0  0  0  0  0  0  0  0  0  0  0
  150.8838  140.0232  154.5871 C   0  0  0  0  0  0  0  0  0  0  0  0
  150.3147  141.2921  154.8448 C   0  0  0  0  0  0  0  0  0  0  0  0
  148.9526  141.5260  154.5826 C   0  0  0  0  0  0  0  0  0  0  0  0
  148.1469  140.4975  154.0620 C   0  0  0  0  0  0  0  0  0  0  0  0
  148.6890  139.2250  153.7962 C   0  0  0  0  0  0  0  0  0  0  0  0
  147.8290  138.2758  153.2870 O   0  0  0  0  0  0  0  0  0  0  0  0
  146.4724  138.6407  153.0688 C   0  0  0  0  0  0  0  0  0  0  0  0
  145.8562  137.6661  152.0553 C   0  0  1  0  0  0  0  0  0  0  0  0
  146.4863  137.8532  150.8033 O   0  0  0  0  0  0  0  0  0  0  0  0
  145.9993  136.1943  152.4919 C   0  0  0  0  0  0  0  0  0  0  0  0
  145.1206  135.2907  151.7390 N   0  0  0  0  0  0  0  0  0  0  0  0
  143.9139  135.5262  151.1563 C   0  0  0  0  0  0  0  0  0  0  0  0
  143.5012  134.3619  150.5820 N   0  3  0  0  0  0  0  0  0  0  0  0
  144.4585  133.3686  150.8014 C   0  0  0  0  0  0  0  0  0  0  0  0
  144.4910  132.0314  150.4179 C   0  0  0  0  0  0  0  0  0  0  0  0
  145.6246  131.2884  150.8086 C   0  0  0  0  0  0  0  0  0  0  0  0
  146.6695  131.8768  151.5509 C   0  0  0  0  0  0  0  0  0  0  0  0
  146.6264  133.2336  151.9344 C   0  0  0  0  0  0  0  0  0  0  0  0
  145.5023  133.9599  151.5439 C   0  0  0  0  0  0  0  0  0  0  0  0
  150.0632  138.9974  154.0618 C   0  0  0  0  0  0  0  0  0  0  0  0
  152.6762  137.9567  153.6800 H   0  0  0  0  0  0  0  0  0  0  0  0
  154.1449  138.8428  154.1011 H   0  0  0  0  0  0  0  0  0  0  0  0
  153.0776  139.4660  152.8400 H   0  0  0  0  0  0  0  0  0  0  0  0
  150.9048  142.1037  155.2433 H   0  0  0  0  0  0  0  0  0  0  0  0
  148.5244  142.4974  154.7815 H   0  0  0  0  0  0  0  0  0  0  0  0
  147.1019  140.6870  153.8649 H   0  0  0  0  0  0  0  0  0  0  0  0
  145.9265  138.5815  154.0121 H   0  0  0  0  0  0  0  0  0  0  0  0
  146.4000  139.6644  152.6972 H   0  0  0  0  0  0  0  0  0  0  0  0
  144.8014  137.9120  151.9285 H   0  0  0  0  0  0  0  0  0  0  0  0
  147.3770  137.5431  150.8667 H   0  0  0  0  0  0  0  0  0  0  0  0
  147.0250  135.8527  152.3452 H   0  0  0  0  0  0  0  0  0  0  0  0
  145.7826  136.0759  153.5544 H   0  0  0  0  0  0  0  0  0  0  0  0
  143.3794  136.4653  151.1538 H   0  0  0  0  0  0  0  0  0  0  0  0
  143.6921  131.5777  149.8499 H   0  0  0  0  0  0  0  0  0  0  0  0
  145.6937  130.2458  150.5339 H   0  0  0  0  0  0  0  0  0  0  0  0
  147.5217  131.2754  151.8325 H   0  0  0  0  0  0  0  0  0  0  0  0
  147.4302  133.6767  152.5037 H   0  0  0  0  0  0  0  0  0  0  0  0
  150.5038  138.0317  153.8658 H   0  0  0  0  0  0  0  0  0  0  0  0
  142.6294  134.2560  150.0793 H   0  0  0  0  0  0  0  0  0  0  0  0
  1  2  1  0  0  0  0
  1 24  1  0  0  0  0
  1 25  1  0  0  0  0
  1 26  1  0  0  0  0
  2  3  2  0  0  0  0
  2  4  1  0  0  0  0
  4 23  1  0  0  0  0
  4  5  2  0  0  0  0
  5  6  1  0  0  0  0
  5 27  1  0  0  0  0
  6  7  2  0  0  0  0
  6 28  1  0  0  0  0
  7  8  1  0  0  0  0
  7 29  1  0  0  0  0
  8  9  1  0  0  0  0
  8 23  2  0  0  0  0
  9 10  1  0  0  0  0
 10 11  1  0  0  0  0
 10 30  1  0  0  0  0
 10 31  1  0  0  0  0
 11 12  1  0  0  0  0
 11 13  1  0  0  0  0
 11 32  1  0  0  0  0
 12 33  1  0  0  0  0
 13 14  1  0  0  0  0
 13 34  1  0  0  0  0
 13 35  1  0  0  0  0
 14 22  1  0  0  0  0
 14 15  1  0  0  0  0
 15 16  2  0  0  0  0
 15 36  1  0  0  0  0
 16 17  1  0  0  0  0
 16 42  1  0  0  0  0
 17 22  2  0  0  0  0
 17 18  1  0  0  0  0
 18 19  2  0  0  0  0
 18 37  1  0  0  0  0
 19 20  1  0  0  0  0
 19 38  1  0  0  0  0
 20 21  2  0  0  0  0
 20 39  1  0  0  0  0
 21 22  1  0  0  0  0
 21 40  1  0  0  0  0
 23 41  1  0  0  0  0
M  CHG  1  16   1
M  END
> <s_m_source_file>
AV-unprocessed.smi

> <i_m_source_file_index>
338

> <i_lp_mmshare_version>
43012

> <i_f3d_flags>
0

> <s_epik_input>
W0NIM11DKD1PKWMxW2NIXVtjSF1bY0hdYyhbY0hdMSlPW0NIMl1bQ0BIXShbT0hdKVtDSDJdbihbY0hdbjIpYyhjMjMpW2NIXVtjSF1bY0hdW2NIXTM=

> <s_epik_cmdline>
J2VwaWtfcHl0aG9uJywgJy1waCcsICc3LjAnLCAnLXRuJywgJzgnLCAnLW1hJywgJzIwMCcsICctbWV0YWxfYmluZGluZycsICctaW1hZScsICc8aW5maWxlLm1hZT4nLCAnLW9tYWUnLCAnPG91dGZpbGUubWFlPic=

> <r_lp_tautomer_probability>
0.99995

> <r_epik_Ionization_Penalty>
1.35015

> <r_epik_Ionization_Penalty_Charging>
1.35015

> <r_epik_Ionization_Penalty_Neutral>
2.3993e-06

> <r_epik_State_Penalty>
1.42814

> <r_epik_Charging_Adjusted_Penalty>
2.77829

> <i_epik_Tot_Q>
1

> <i_epik_Tot_abs_Q>
1

> <r_epik_Metal_State_Penalty>
5.46522

> <b_epik_Metal_Only>
0

> <s_lp_Force_Field>
OPLS_2005

> <r_lp_Energy>
25.8652

> <b_lp_Chiralities_Consistent>
1

> <s_lp_Variant>
AV-unprocessed.smi:338-4

> <Gold.Version>
5.8.1

> <Gold.Id.Protein>
6NUR|6NUR_protein|mol2

> <Gold.PLP.Fitness>
56.6757

> <Gold.PLP.PLP>
-46.3523

> <Gold.PLP.part.hbond>
-4.5589

> <Gold.PLP.part.metal>
0.0000

> <Gold.PLP.part.buried>
-2.8480

> <Gold.PLP.part.nonpolar>
-40.9564

> <Gold.PLP.part.repulsive>
1.9180

> <Gold.PLP.ligand.clash>
2.1441

> <Gold.PLP.ligand.torsion>
1.2963

> <Gold.PLP.Chemscore.Hbond>
3.9840

> <Gold.PLP.Chemscore.CHOScore>
1.0000

> <Gold.PLP.Chemscore.Metal>
0.0000

> <Gold.Chemscore.Hbonds>
donor molecule, donor type, donor heavy atom, donor atom, acceptor molecule, acceptor atom, score
      L1  H    12    33       P1  7948  0.50
      L1  H    16    42       P1 10186  2.00
      P1  H  7997  8008       L1     3  0.59
      L1  C    15    36       P1 10171  0.96

> <Gold.PLP.Chemscore.Internal.Correction>
0.1079

> <Gold.Rescore>
     Score         DG    S(hbond)    S(metal)    S(lipo)     H(rot)  DE(clash)    DE(int)     intcor
     19.07     -21.48       2.82        0.00     110.49       2.48       1.42       1.00       ----

> <Gold.Chemscore.Fitness>
19.0678

> <Gold.Chemscore.DG>
-21.4825

> <Gold.Chemscore.ZeroCoef>
-5.4800

> <Gold.Chemscore.Hbond>
2.8248

> <Gold.Chemscore.Metal>
0.0000

> <Gold.Chemscore.Lipo>
110.4883

> <Gold.Chemscore.Internal_Hbond>
0.0000

> <Gold.Chemscore.DEClash>
1.4196

> <Gold.Chemscore.DEInternal>
0.9952

> <Gold.Chemscore.Rot>
2.4842

> <Gold.Chemscore.Internal.Correction>
   9.000000E+99

> <Gold.Chemscore.Hbonds>
donor molecule, donor type, donor heavy atom, donor atom, acceptor molecule, acceptor atom, score
      L1  H    12    33       P1  7948  0.50
      L1  H    16    42       P1 10186  0.94
      P1  H  7997  8008       L1     3  0.60

> <Gold.Chemscore.Hbond.Weighted>
-9.4349

> <Gold.Chemscore.Metal.Weighted>
-0.0000

> <Gold.Chemscore.Lipo.Weighted>
-12.9271

> <Gold.Chemscore.Internal_Hbond.Weighted>
0.0000

> <Gold.Chemscore.DEClash.Weighted>
1.4196

> <Gold.Chemscore.DEInternal.Weighted>
0.9952

> <Gold.Chemscore.Rot.Weighted>
6.3594

> <Gold.Chemscore.Internal.Correction.Weighted>
   9.000000E+99

> <Gold.Protein.RotatedTorsions>
[ 6907 6896 6895 6894 ] final  116.03 input  -60.11 | X-H torsion
[ 7974 7965 7964 7962 ] final   30.78 input  175.53 | X-H torsion
[ 8008 7997 7996 7995 ] final  -63.79 input   59.86 | X-H torsion
[ 10167 10162 10161 10158 ] final  -64.13 input  -65.29 | X-H torsion
[ 10718 10713 10712 10709 ] final  170.79 input   66.30 | X-H torsion
[ 10763 10752 10751 10750 ] final  163.76 input  -60.55 | X-H torsion
[ 11005 11000 10999 10996 ] final -111.50 input  -57.11 | X-H torsion

> <Gold.Protein.ActiveResidues>
 VAL166  LYS551  ARG553  GLY616  TRP617  ASP618  TYR619  PRO620  LYS621  CYS622 
 ASP623  PHE694  ASN695  SER759  ASP760  ASP761  ALA762  ILE779  LEU786  VAL792 
 PHE793  MET794  SER795  GLU796  ALA797  LYS798  CYS799  TRP800  GLU811  SER814 

> <Gold.Protein.RotatedAtoms>
  152.4704  133.8016  159.6955 H   0  0  0  0  0  0  0  0  0  0  0  0  # atno 6907 bound_to 6896
  150.8690  133.7524  159.2974 H   0  0  0  0  0  0  0  0  0  0  0  0  # atno 6908 bound_to 6896
  151.5065  135.1067  159.9894 H   0  0  0  0  0  0  0  0  0  0  0  0  # atno 6909 bound_to 6896
  146.1591  139.6744  142.9046 H   0  0  0  0  0  0  0  0  0  0  0  0  # atno 7974 bound_to 7965
  154.4574  140.0967  156.6797 H   0  0  0  0  0  0  0  0  0  0  0  0  # atno 8008 bound_to 7997
  155.5096  140.3476  155.4367 H   0  0  0  0  0  0  0  0  0  0  0  0  # atno 8009 bound_to 7997
  156.0805  140.1372  156.9707 H   0  0  0  0  0  0  0  0  0  0  0  0  # atno 8010 bound_to 7997
  140.5823  143.2329  151.6317 H   0  0  0  0  0  0  0  0  0  0  0  0  # atno 10167 bound_to 10162
  157.0029  131.0181  151.2825 H   0  0  0  0  0  0  0  0  0  0  0  0  # atno 10718 bound_to 10713
  154.2985  135.2759  155.2622 H   0  0  0  0  0  0  0  0  0  0  0  0  # atno 10763 bound_to 10752
  154.5069  135.5793  153.6578 H   0  0  0  0  0  0  0  0  0  0  0  0  # atno 10764 bound_to 10752
  152.9904  135.6171  154.3155 H   0  0  0  0  0  0  0  0  0  0  0  0  # atno 10765 bound_to 10752
  141.0730  133.9347  157.2446 H   0  0  0  0  0  0  0  0  0  0  0  0  # atno 11005 bound_to 11000
  145.4634  141.0433  143.2739 LP  0  0  0  0  0  0  0  0  0  0  0  0  # atno 17320 bound_to 7965
  144.8002  139.6155  143.7075 LP  0  0  0  0  0  0  0  0  0  0  0  0  # atno 17321 bound_to 7965
  139.5177  144.3308  152.0828 LP  0  0  0  0  0  0  0  0  0  0  0  0  # atno 17342 bound_to 10162
  140.2460  144.4219  150.6241 LP  0  0  0  0  0  0  0  0  0  0  0  0  # atno 17343 bound_to 10162
  157.5377  130.8099  149.7991 LP  0  0  0  0  0  0  0  0  0  0  0  0  # atno 17370 bound_to 10713
  156.0164  130.3812  150.2097 LP  0  0  0  0  0  0  0  0  0  0  0  0  # atno 17371 bound_to 10713
  139.9543  135.0169  156.9084 LP  0  0  0  0  0  0  0  0  0  0  0  0  # atno 17394 bound_to 11000
  140.5632  134.0515  155.7405 LP  0  0  0  0  0  0  0  0  0  0  0  0  # atno 17395 bound_to 11000

$$$$
