#       Name:                AV-unprocessed.smi:911
#       Creating user name   scv26
#       Creation time:       Fri Mar 27 02:04:29 2020


#       File generated by GOLD software.
#

@<TRIPOS>MOLECULE
AV-unprocessed.smi:911
    53    55     1
SMALL
NO_CHARGES


@<TRIPOS>ATOM
      1 ****        -2.2981  -1.9145   1.4837 C.3            1 S1                 0.0000
      2 ****        -1.7619  -0.8863   0.4479 C.3            1 S1                 0.0000
      3 ****        -0.5194  -1.5679  -0.1924 C.3            1 S1                 0.0000
      4 ****        -2.8160  -0.4030  -0.5682 C.3            1 S1                 0.0000
      5 ****        -3.8634   0.3172   0.3113 C.3            1 S1                 0.0000
      6 ****        -2.9917   0.9679   1.4056 C.3            1 S1                 0.0000
      7 ****        -1.5556   0.5571   0.9887 C.3            1 S1                 0.0000
      8 ****        -0.5431   0.7041   2.1421 C.3            1 S1                 0.0000
      9 ****        -1.2498   1.4114  -0.2819 C.3            1 S1                 0.0000
     10 ****         0.1718   1.4608  -0.6114 N.am           1 S1                 0.0000
     11 ****         0.9992   2.5124  -0.4956 C.2            1 S1                 0.0000
     12 ****         0.6245   3.6284  -0.1392 O.2            1 S1                 0.0000
     13 ****         2.4904   2.2792  -0.7961 C.3            1 S1                 0.0000
     14 ****         2.8401   0.8718  -1.0665 N.am           1 S1                 0.0000
     15 ****         3.0896   0.0573   0.0558 C.2            1 S1                 0.0000
     16 ****         3.3670  -1.2556  -0.0589 C.2            1 S1                 0.0000
     17 ****         3.5865  -2.0815   1.1074 N.pl3          1 S1                 1.0000
     18 ****         3.9071  -3.2545   0.9456 O.2            1 S1                 0.0000
     19 ****         3.4420  -1.5879   2.2218 O.2            1 S1                -1.0000
     20 ****         3.4170  -1.8194  -1.3938 C.2            1 S1                 0.0000
     21 ****         3.1747  -1.0473  -2.4714 C.2            1 S1                 0.0000
     22 ****         2.8541   0.3781  -2.3425 C.2            1 S1                 0.0000
     23 ****         2.6019   1.0811  -3.3206 O.2            1 S1                 0.0000
     24 ****        -2.0795   0.6944  -1.3702 C.3            1 S1                 0.0000
     25 ****        -2.5677  -2.8494   0.9916 H              1 S1                 0.0000
     26 ****        -3.1774  -1.5978   2.0398 H              1 S1                 0.0000
     27 ****        -1.5332  -2.1524   2.2235 H              1 S1                 0.0000
     28 ****        -0.0659  -1.0301  -1.0199 H              1 S1                 0.0000
     29 ****        -0.7821  -2.5495  -0.5879 H              1 S1                 0.0000
     30 ****         0.2642  -1.7237   0.5498 H              1 S1                 0.0000
     31 ****        -3.2426  -1.1851  -1.1972 H              1 S1                 0.0000
     32 ****        -4.4370   1.0562  -0.2497 H              1 S1                 0.0000
     33 ****        -4.5797  -0.3838   0.7405 H              1 S1                 0.0000
     34 ****        -3.1255   2.0495   1.4473 H              1 S1                 0.0000
     35 ****        -3.2538   0.5882   2.3935 H              1 S1                 0.0000
     36 ****        -0.4464   1.7474   2.4437 H              1 S1                 0.0000
     37 ****         0.4479   0.3476   1.8614 H              1 S1                 0.0000
     38 ****        -0.8562   0.1369   3.0186 H              1 S1                 0.0000
     39 ****        -1.6189   2.4311  -0.1585 H              1 S1                 0.0000
     40 ****         0.5800   0.5892  -0.9162 H              1 S1                 0.0000
     41 ****         2.7808   2.9261  -1.6254 H              1 S1                 0.0000
     42 ****         3.0687   2.6390   0.0562 H              1 S1                 0.0000
     43 ****         3.0157   0.5711   1.0038 H              1 S1                 0.0000
     44 ****         3.6492  -2.8643  -1.5391 H              1 S1                 0.0000
     45 ****         3.2165  -1.4884  -3.4566 H              1 S1                 0.0000
     46 ****        -1.4536   0.2634  -2.1521 H              1 S1                 0.0000
     47 ****        -2.7721   1.3747  -1.8672 H              1 S1                 0.0000
     48 ****        -0.3382   3.7860   0.0807 LP             1 S1                 0.0000
     49 ****         1.2826   4.3781  -0.0694 LP             1 S1                 0.0000
     50 ****         4.0117  -3.6213   0.0212 LP             1 S1                 0.0000
     51 ****         4.0640  -3.8438   1.7381 LP             1 S1                 0.0000
     52 ****         2.3772   2.0477  -3.1971 LP             1 S1                 0.0000
     53 ****         2.6217   0.6858  -4.2390 LP             1 S1                 0.0000
@<TRIPOS>BOND
    1    1    2 1     
    2    1   25 1     
    3    1   26 1     
    4    1   27 1     
    5    2    7 1     
    6    2    3 1     
    7    2    4 1     
    8    3   28 1     
    9    3   29 1     
   10    3   30 1     
   11    4   24 1     
   12    4    5 1     
   13    4   31 1     
   14    5    6 1     
   15    5   32 1     
   16    5   33 1     
   17    6    7 1     
   18    6   34 1     
   19    6   35 1     
   20    7    8 1     
   21    7    9 1     
   22    8   36 1     
   23    8   37 1     
   24    8   38 1     
   25    9   10 1     
   26    9   24 1     
   27    9   39 1     
   28   10   11 am    
   29   10   40 1     
   30   11   12 2     
   31   11   13 1     
   32   13   14 1     
   33   13   41 1     
   34   13   42 1     
   35   14   22 am    
   36   14   15 1     
   37   15   16 2     
   38   15   43 1     
   39   16   17 1     
   40   16   20 1     
   41   17   18 2     
   42   17   19 1     
   43   20   21 2     
   44   20   44 1     
   45   21   22 1     
   46   21   45 1     
   47   22   23 2     
   48   24   46 1     
   49   24   47 1     
   50   12   48 1     
   51   12   49 1     
   52   18   50 1     
   53   18   51 1     
   54   23   52 1     
   55   23   53 1     
@<TRIPOS>SUBSTRUCTURE
      1 S1             1
@<TRIPOS>SET
LONE_PAIRS      STATIC     ATOMS    <user>   **** ""
7 48 49 50 51 19 52 53
DONOR_HYDROGENS      STATIC     ATOMS    <user>   **** ""
1 40
ATOM$BLUE        STATIC     ATOMS    COLORGROUP SYSTEM
7 48 49 50 51 19 52 53
ATOM$RED        STATIC     ATOMS    COLORGROUP SYSTEM
1 40
