#       Name:                AV-unprocessed.smi:67
#       Creating user name   scv26
#       Creation time:       Thu Mar 26 16:53:11 2020


#       File generated by GOLD software.
#

@<TRIPOS>MOLECULE
AV-unprocessed.smi:67
    53    55     1
SMALL
NO_CHARGES


@<TRIPOS>ATOM
      1 ****        -2.9673   2.0752   1.2915 O.3            1 S1                 0.0000
      2 ****        -3.5301   1.0687   0.4725 C.3            1 S1                 0.0000
      3 ****        -3.0044  -0.3061   0.9530 C.3            1 S1                 0.0000
      4 ****        -1.5355  -0.4421   0.7651 N.4            1 S1                 1.0000
      5 ****        -1.1558  -1.6522  -0.0094 C.3            1 S1                 0.0000
      6 ****         0.3407  -1.6380  -0.3628 C.3            1 S1                 0.0000
      7 ****         1.1992  -1.4552   0.9059 C.3            1 S1                 0.0000
      8 ****         2.6106  -1.5365   0.6923 O.3            1 S1                 0.0000
      9 ****         3.3240  -0.6146  -0.0502 C.ar           1 S1                 0.0000
     10 ****         2.7919   0.5354  -0.6855 C.ar           1 S1                 0.0000
     11 ****         3.6288   1.4021  -1.4135 C.ar           1 S1                 0.0000
     12 ****         5.0051   1.1348  -1.5220 C.ar           1 S1                 0.0000
     13 ****         5.5532  -0.0075  -0.9036 C.ar           1 S1                 0.0000
     14 ****         7.0425  -0.3019  -1.0079 C.3            1 S1                 0.0000
     15 ****         7.6713   0.2472   0.0305 F              1 S1                 0.0000
     16 ****         7.2668  -1.6163  -1.0001 F              1 S1                 0.0000
     17 ****         7.5524   0.2004  -2.1330 F              1 S1                 0.0000
     18 ****         4.7072  -0.8663  -0.1692 C.ar           1 S1                 0.0000
     19 ****         0.7411  -0.2626   1.7707 C.3            1 S1                 0.0000
     20 ****        -0.7716  -0.3367   2.0360 C.3            1 S1                 0.0000
     21 ****        -3.2742   1.3433  -1.0136 C.3            1 S1                 0.0000
     22 ****        -4.4646   0.6710  -1.6912 C.3            1 S1                 0.0000
     23 ****        -5.5867   0.8524  -0.7773 N.3            1 S1                 0.0000
     24 ****        -5.0653   1.1370   0.5599 C.3            1 S1                 0.0000
     25 ****        -3.3018   1.9741   2.1699 H              1 S1                 0.0000
     26 ****        -3.2692  -0.4693   1.9992 H              1 S1                 0.0000
     27 ****        -3.5229  -1.0943   0.4047 H              1 S1                 0.0000
     28 ****        -1.4020  -2.5457   0.5666 H              1 S1                 0.0000
     29 ****        -1.7378  -1.6979  -0.9311 H              1 S1                 0.0000
     30 ****         0.6085  -2.5731  -0.8554 H              1 S1                 0.0000
     31 ****         0.5162  -0.8547  -1.0955 H              1 S1                 0.0000
     32 ****         1.0015  -2.3393   1.5138 H              1 S1                 0.0000
     33 ****         1.7483   0.7915  -0.6379 H              1 S1                 0.0000
     34 ****         3.2127   2.2773  -1.8904 H              1 S1                 0.0000
     35 ****         5.6360   1.8109  -2.0799 H              1 S1                 0.0000
     36 ****         5.1244  -1.7371   0.3152 H              1 S1                 0.0000
     37 ****         1.2784  -0.2706   2.7196 H              1 S1                 0.0000
     38 ****         0.9669   0.6953   1.3096 H              1 S1                 0.0000
     39 ****        -1.0833   0.5523   2.5850 H              1 S1                 0.0000
     40 ****        -1.0003  -1.1948   2.6699 H              1 S1                 0.0000
     41 ****        -3.3116   2.4161  -1.2109 H              1 S1                 0.0000
     42 ****        -2.3147   0.9771  -1.3792 H              1 S1                 0.0000
     43 ****        -4.6735   1.0868  -2.6771 H              1 S1                 0.0000
     44 ****        -4.2623  -0.3930  -1.8176 H              1 S1                 0.0000
     45 ****        -6.1775   0.0268  -0.7700 H              1 S1                 0.0000
     46 ****        -5.4677   0.4454   1.3005 H              1 S1                 0.0000
     47 ****        -5.3853   2.1376   0.8536 H              1 S1                 0.0000
     48 ****        -1.2617   0.3494   0.1999 H              1 S1                 0.0000
     49 ****        -3.2183   2.9761   0.9376 LP             1 S1                 0.0000
     50 ****        -1.9714   1.9853   1.2984 LP             1 S1                 0.0000
     51 ****         2.7703  -2.4218   0.2554 LP             1 S1                 0.0000
     52 ****         3.0253  -1.5343   1.6022 LP             1 S1                 0.0000
     53 ****        -6.1492   1.6210  -1.0819 LP             1 S1                 0.0000
@<TRIPOS>BOND
    1    1    2 1     
    2    1   25 1     
    3    2   24 1     
    4    2    3 1     
    5    2   21 1     
    6    3    4 1     
    7    3   26 1     
    8    3   27 1     
    9    4   20 1     
   10    4    5 1     
   11    4   48 1     
   12    5    6 1     
   13    5   28 1     
   14    5   29 1     
   15    6    7 1     
   16    6   30 1     
   17    6   31 1     
   18    7    8 1     
   19    7   19 1     
   20    7   32 1     
   21    8    9 1     
   22    9   18 ar    
   23    9   10 ar    
   24   10   11 ar    
   25   10   33 1     
   26   11   12 ar    
   27   11   34 1     
   28   12   13 ar    
   29   12   35 1     
   30   13   14 1     
   31   13   18 ar    
   32   14   15 1     
   33   14   16 1     
   34   14   17 1     
   35   18   36 1     
   36   19   20 1     
   37   19   37 1     
   38   19   38 1     
   39   20   39 1     
   40   20   40 1     
   41   21   22 1     
   42   21   41 1     
   43   21   42 1     
   44   22   23 1     
   45   22   43 1     
   46   22   44 1     
   47   23   24 1     
   48   23   45 1     
   49   24   46 1     
   50   24   47 1     
   51    1   49 1     
   52    1   50 1     
   53    8   51 1     
   54    8   52 1     
   55   23   53 1     
@<TRIPOS>SUBSTRUCTURE
      1 S1             1
@<TRIPOS>SET
LONE_PAIRS      STATIC     ATOMS    <user>   **** ""
5 49 50 51 52 53
DONOR_HYDROGENS      STATIC     ATOMS    <user>   **** ""
3 25 48 45
ATOM$BLUE        STATIC     ATOMS    COLORGROUP SYSTEM
5 49 50 51 52 53
ATOM$RED        STATIC     ATOMS    COLORGROUP SYSTEM
3 25 48 45
