AV-unprocessed.smi:1844|AV-procd|sdf|7511|dock9
  -GOLD-   22720 9213D 1   1.00000     0.00000
 Structure written by MMmdl.
 45 46  0  0  0  0  0  0  0  0  1 V2000
  147.1015  140.6361  153.0790 C   0  0  0  0  0  0  0  0  0  0  0  0
  148.3702  140.1399  153.5902 N   0  0  0  0  0  0  0  0  0  0  0  0
  148.6254  139.8954  154.8861 C   0  0  0  0  0  0  0  0  0  0  0  0
  147.7755  140.0807  155.7589 O   0  0  0  0  0  0  0  0  0  0  0  0
  149.9811  139.4017  155.1397 C   0  0  0  0  0  0  0  0  0  0  0  0
  150.8017  138.7661  154.1193 C   0  0  0  0  0  0  0  0  0  0  0  0
  152.0533  138.3558  154.4037 C   0  0  0  0  0  0  0  0  0  0  0  0
  152.6383  138.5277  155.7366 C   0  0  0  0  0  0  0  0  0  0  0  0
  153.7902  138.1782  155.9940 O   0  0  0  0  0  0  0  0  0  0  0  0
  151.8261  139.1082  156.6710 N   0  0  0  0  0  0  0  0  0  0  0  0
  152.3020  139.3495  158.0454 C   0  0  0  0  0  0  0  0  0  0  0  0
  152.0424  140.7714  158.5732 C   0  0  0  0  0  0  0  0  0  0  0  0
  150.8821  141.1625  158.6940 O   0  0  0  0  0  0  0  0  0  0  0  0
  153.1048  141.5369  158.8755 N   0  0  0  0  0  0  0  0  0  0  0  0
  153.0628  142.9199  159.3395 C   0  0  1  0  0  0  0  0  0  0  0  0
  152.3454  143.8040  158.2979 C   0  0  0  0  0  0  0  0  0  0  0  0
  152.2253  145.2575  158.7779 C   0  0  0  0  0  0  0  0  0  0  0  0
  151.5200  145.3327  160.1392 C   0  0  0  0  0  0  0  0  0  0  0  0
  152.2375  144.4617  161.1815 C   0  0  0  0  0  0  0  0  0  0  0  0
  152.3593  142.9962  160.7176 C   0  0  2  0  0  0  0  0  0  0  0  0
  153.0617  142.1424  161.7895 C   0  0  0  0  0  0  0  0  0  0  0  0
  150.5209  139.5417  156.3661 C   0  0  0  0  0  0  0  0  0  0  0  0
  147.1494  140.7299  151.9941 H   0  0  0  0  0  0  0  0  0  0  0  0
  146.8719  141.6174  153.4965 H   0  0  0  0  0  0  0  0  0  0  0  0
  146.2880  139.9528  153.3263 H   0  0  0  0  0  0  0  0  0  0  0  0
  149.1034  139.9693  152.9172 H   0  0  0  0  0  0  0  0  0  0  0  0
  150.4308  138.6080  153.1175 H   0  0  0  0  0  0  0  0  0  0  0  0
  152.6431  137.8871  153.6298 H   0  0  0  0  0  0  0  0  0  0  0  0
  151.8245  138.6448  158.7277 H   0  0  0  0  0  0  0  0  0  0  0  0
  153.3694  139.1388  158.1301 H   0  0  0  0  0  0  0  0  0  0  0  0
  154.0219  141.1346  158.7482 H   0  0  0  0  0  0  0  0  0  0  0  0
  154.0861  143.2819  159.4599 H   0  0  0  0  0  0  0  0  0  0  0  0
  152.8816  143.7794  157.3486 H   0  0  0  0  0  0  0  0  0  0  0  0
  151.3495  143.4054  158.0988 H   0  0  0  0  0  0  0  0  0  0  0  0
  153.2190  145.7003  158.8546 H   0  0  0  0  0  0  0  0  0  0  0  0
  151.6794  145.8484  158.0421 H   0  0  0  0  0  0  0  0  0  0  0  0
  151.4828  146.3671  160.4820 H   0  0  0  0  0  0  0  0  0  0  0  0
  150.4855  145.0037  160.0348 H   0  0  0  0  0  0  0  0  0  0  0  0
  153.2305  144.8705  161.3734 H   0  0  0  0  0  0  0  0  0  0  0  0
  151.6976  144.5103  162.1278 H   0  0  0  0  0  0  0  0  0  0  0  0
  151.3477  142.6034  160.6021 H   0  0  0  0  0  0  0  0  0  0  0  0
  154.0950  142.4597  161.9320 H   0  0  0  0  0  0  0  0  0  0  0  0
  153.0715  141.0850  161.5233 H   0  0  0  0  0  0  0  0  0  0  0  0
  152.5536  142.2264  162.7505 H   0  0  0  0  0  0  0  0  0  0  0  0
  150.0042  140.0070  157.1943 H   0  0  0  0  0  0  0  0  0  0  0  0
  1  2  1  0  0  0  0
  1 23  1  0  0  0  0
  1 24  1  0  0  0  0
  1 25  1  0  0  0  0
  2  3  1  0  0  0  0
  2 26  1  0  0  0  0
  3  4  2  0  0  0  0
  3  5  1  0  0  0  0
  5 22  2  0  0  0  0
  5  6  1  0  0  0  0
  6  7  2  0  0  0  0
  6 27  1  0  0  0  0
  7  8  1  0  0  0  0
  7 28  1  0  0  0  0
  8  9  2  0  0  0  0
  8 10  1  0  0  0  0
 10 11  1  0  0  0  0
 10 22  1  0  0  0  0
 11 12  1  0  0  0  0
 11 29  1  0  0  0  0
 11 30  1  0  0  0  0
 12 13  2  0  0  0  0
 12 14  1  0  0  0  0
 14 15  1  0  0  0  0
 14 31  1  0  0  0  0
 15 20  1  0  0  0  0
 15 16  1  0  0  0  0
 15 32  1  0  0  0  0
 16 17  1  0  0  0  0
 16 33  1  0  0  0  0
 16 34  1  0  0  0  0
 17 18  1  0  0  0  0
 17 35  1  0  0  0  0
 17 36  1  0  0  0  0
 18 19  1  0  0  0  0
 18 37  1  0  0  0  0
 18 38  1  0  0  0  0
 19 20  1  0  0  0  0
 19 39  1  0  0  0  0
 19 40  1  0  0  0  0
 20 21  1  0  0  0  0
 20 41  1  0  0  0  0
 21 42  1  0  0  0  0
 21 43  1  0  0  0  0
 21 44  1  0  0  0  0
 22 45  1  0  0  0  0
M  END
> <s_m_source_file>
AV-unprocessed.smi

> <i_m_source_file_index>
1844

> <i_lp_mmshare_version>
43012

> <i_f3d_flags>
0

> <s_epik_input>
W0NIM11bTkhdQyg9TyljMVtjSF1bY0hdYyg9TyluKFtjSF0xKVtDSDJdQyg9TylbTkhdW0NAQEhdMltDSDJdW0NIMl1bQ0gyXVtDSDJdW0NASF0yW0NIM10=

> <s_epik_cmdline>
J2VwaWtfcHl0aG9uJywgJy1waCcsICc3LjAnLCAnLXRuJywgJzgnLCAnLW1hJywgJzIwMCcsICctbWV0YWxfYmluZGluZycsICctaW1hZScsICc8aW5maWxlLm1hZT4nLCAnLW9tYWUnLCAnPG91dGZpbGUubWFlPic=

> <r_lp_tautomer_probability>
1

> <r_epik_Ionization_Penalty>
3.66612e-07

> <r_epik_Ionization_Penalty_Charging>
5.18929e-08

> <r_epik_Ionization_Penalty_Neutral>
3.14719e-07

> <r_epik_State_Penalty>
-0

> <r_epik_Charging_Adjusted_Penalty>
5.18929e-08

> <i_epik_Tot_Q>
0

> <i_epik_Tot_abs_Q>
0

> <r_epik_Metal_State_Penalty>
-0

> <b_epik_Metal_Only>
0

> <s_lp_Force_Field>
OPLS_2005

> <r_lp_Energy>
22.567

> <b_lp_Chiralities_Consistent>
1

> <s_lp_Variant>
AV-unprocessed.smi:1844-4

> <Gold.Version>
5.8.1

> <Gold.Id.Protein>
6NUR|6NUR_protein|mol2

> <Gold.PLP.Fitness>
53.4755

> <Gold.PLP.PLP>
-50.2158

> <Gold.PLP.part.hbond>
-2.0000

> <Gold.PLP.part.metal>
0.0000

> <Gold.PLP.part.buried>
-6.0584

> <Gold.PLP.part.nonpolar>
-41.6843

> <Gold.PLP.part.repulsive>
0.2028

> <Gold.PLP.ligand.clash>
0.0000

> <Gold.PLP.ligand.torsion>
0.3605

> <Gold.PLP.Chemscore.Hbond>
1.3205

> <Gold.PLP.Chemscore.CHOScore>
0.0000

> <Gold.PLP.Chemscore.Metal>
0.0000

> <Gold.Chemscore.Hbonds>
donor molecule, donor type, donor heavy atom, donor atom, acceptor molecule, acceptor atom, score
      L1  H     2    26       P1  7957  0.93
      P1  H  7997  8008       L1     9  0.38

> <Gold.PLP.Chemscore.Internal.Correction>
0.0190

> <Gold.Rescore>
     Score         DG    S(hbond)    S(metal)    S(lipo)     H(rot)  DE(clash)    DE(int)     intcor
     17.85     -20.13       1.15        0.00     125.13       1.49       0.04       2.24       ----

> <Gold.Chemscore.Fitness>
17.8476

> <Gold.Chemscore.DG>
-20.1270

> <Gold.Chemscore.ZeroCoef>
-5.4800

> <Gold.Chemscore.Hbond>
1.1458

> <Gold.Chemscore.Metal>
0.0000

> <Gold.Chemscore.Lipo>
125.1325

> <Gold.Chemscore.Internal_Hbond>
0.0000

> <Gold.Chemscore.DEClash>
0.0353

> <Gold.Chemscore.DEInternal>
2.2440

> <Gold.Chemscore.Rot>
1.4923

> <Gold.Chemscore.Internal.Correction>
   9.000000E+99

> <Gold.Chemscore.Hbonds>
donor molecule, donor type, donor heavy atom, donor atom, acceptor molecule, acceptor atom, score
      L1  H     2    26       P1  7957  0.90
      P1  H  7997  8008       L1     9  0.05

> <Gold.Chemscore.Hbond.Weighted>
-3.8269

> <Gold.Chemscore.Metal.Weighted>
-0.0000

> <Gold.Chemscore.Lipo.Weighted>
-14.6405

> <Gold.Chemscore.Internal_Hbond.Weighted>
0.0000

> <Gold.Chemscore.DEClash.Weighted>
0.0353

> <Gold.Chemscore.DEInternal.Weighted>
2.2440

> <Gold.Chemscore.Rot.Weighted>
3.8204

> <Gold.Chemscore.Internal.Correction.Weighted>
   9.000000E+99

> <Gold.Protein.RotatedTorsions>
[ 6907 6896 6895 6894 ] final   63.11 input  -60.11 | X-H torsion
[ 7974 7965 7964 7962 ] final   35.70 input  175.53 | X-H torsion
[ 8008 7997 7996 7995 ] final  -57.86 input   59.86 | X-H torsion
[ 10167 10162 10161 10158 ] final  107.03 input  -65.29 | X-H torsion
[ 10718 10713 10712 10709 ] final   88.42 input   66.30 | X-H torsion
[ 10763 10752 10751 10750 ] final   -9.17 input  -60.55 | X-H torsion
[ 11005 11000 10999 10996 ] final   57.39 input  -57.11 | X-H torsion

> <Gold.Protein.ActiveResidues>
 VAL166  LYS551  ARG553  GLY616  TRP617  ASP618  TYR619  PRO620  LYS621  CYS622 
 ASP623  PHE694  ASN695  SER759  ASP760  ASP761  ALA762  ILE779  LEU786  VAL792 
 PHE793  MET794  SER795  GLU796  ALA797  LYS798  CYS799  TRP800  GLU811  SER814 

> <Gold.Protein.RotatedAtoms>
  152.4227  134.5926  159.9978 H   0  0  0  0  0  0  0  0  0  0  0  0  # atno 6907 bound_to 6896
  151.6071  133.3345  159.3067 H   0  0  0  0  0  0  0  0  0  0  0  0  # atno 6908 bound_to 6896
  150.8115  134.7310  159.6758 H   0  0  0  0  0  0  0  0  0  0  0  0  # atno 6909 bound_to 6896
  146.1264  139.6109  142.9256 H   0  0  0  0  0  0  0  0  0  0  0  0  # atno 7974 bound_to 7965
  154.4285  140.1097  156.5864 H   0  0  0  0  0  0  0  0  0  0  0  0  # atno 8008 bound_to 7997
  155.6058  140.3494  155.4588 H   0  0  0  0  0  0  0  0  0  0  0  0  # atno 8009 bound_to 7997
  156.0138  140.1225  157.0417 H   0  0  0  0  0  0  0  0  0  0  0  0  # atno 8010 bound_to 7997
  139.6960  144.7101  151.1266 H   0  0  0  0  0  0  0  0  0  0  0  0  # atno 10167 bound_to 10162
  157.6949  131.0294  150.3272 H   0  0  0  0  0  0  0  0  0  0  0  0  # atno 10718 bound_to 10713
  153.4509  135.7015  153.6110 H   0  0  0  0  0  0  0  0  0  0  0  0  # atno 10763 bound_to 10752
  153.4445  135.3772  155.2248 H   0  0  0  0  0  0  0  0  0  0  0  0  # atno 10764 bound_to 10752
  154.8728  135.3982  154.3921 H   0  0  0  0  0  0  0  0  0  0  0  0  # atno 10765 bound_to 10752
  140.0456  134.5810  155.9326 H   0  0  0  0  0  0  0  0  0  0  0  0  # atno 11005 bound_to 11000
  145.5356  141.0424  143.2359 LP  0  0  0  0  0  0  0  0  0  0  0  0  # atno 17320 bound_to 7965
  144.7646  139.6874  143.7220 LP  0  0  0  0  0  0  0  0  0  0  0  0  # atno 17321 bound_to 7965
  140.7696  143.5491  150.9225 LP  0  0  0  0  0  0  0  0  0  0  0  0  # atno 17342 bound_to 10162
  139.9171  143.6651  152.3104 LP  0  0  0  0  0  0  0  0  0  0  0  0  # atno 17343 bound_to 10162
  156.3751  130.3870  149.7145 LP  0  0  0  0  0  0  0  0  0  0  0  0  # atno 17370 bound_to 10713
  156.4546  130.7923  151.2944 LP  0  0  0  0  0  0  0  0  0  0  0  0  # atno 17371 bound_to 10713
  141.1905  133.6569  156.5416 LP  0  0  0  0  0  0  0  0  0  0  0  0  # atno 17394 bound_to 11000
  140.3999  134.7366  157.4773 LP  0  0  0  0  0  0  0  0  0  0  0  0  # atno 17395 bound_to 11000

$$$$
