AV-unprocessed.smi:2261|AV-procd|sdf|9137|dock2
  -GOLD-   2272012343D 1   1.00000     0.00000
 Structure written by MMmdl.
 41 42  0  0  0  0  0  0  0  0  1 V2000
  147.7021  133.6609  162.0139 C   0  0  0  0  0  0  0  0  0  0  0  0
  147.0066  134.9682  161.5973 C   0  0  0  0  0  0  0  0  0  0  0  0
  145.8550  135.3096  162.5553 C   0  0  0  0  0  0  0  0  0  0  0  0
  148.0031  136.1253  161.4506 C   0  0  0  0  0  0  0  0  0  0  0  0
  148.4149  136.0390  159.9949 C   0  0  2  0  0  0  0  0  0  0  0  0
  148.9050  137.3204  159.4949 N   0  0  0  0  0  0  0  0  0  0  0  0
  150.1081  137.5267  158.9387 C   0  0  0  0  0  0  0  0  0  0  0  0
  150.9800  136.6621  158.8581 O   0  0  0  0  0  0  0  0  0  0  0  0
  150.3549  138.9193  158.3599 C   0  0  0  0  0  0  0  0  0  0  0  0
  150.4321  138.8408  156.8456 C   0  0  0  0  0  0  0  0  0  0  0  0
  150.2535  137.6129  156.1751 C   0  0  0  0  0  0  0  0  0  0  0  0
  150.3132  137.5935  154.7684 C   0  0  0  0  0  0  0  0  0  0  0  0
  150.5490  138.8060  154.0903 C   0  0  0  0  0  0  0  0  0  0  0  0
  150.7227  139.9872  154.7214 N   0  0  0  0  0  0  0  0  0  0  0  0
  150.6668  139.9968  156.0703 C   0  0  0  0  0  0  0  0  0  0  0  0
  147.1140  135.5680  159.3099 C   0  0  0  0  0  0  0  0  0  0  0  0
  146.1323  136.7060  158.9552 C   0  0  0  0  0  0  0  0  0  0  0  0
  147.3888  134.6902  158.0791 C   0  0  0  0  0  0  0  0  0  0  0  0
  146.4655  134.7622  160.2926 O   0  0  0  0  0  0  0  0  0  0  0  0
  148.1549  133.7520  163.0015 H   0  0  0  0  0  0  0  0  0  0  0  0
  148.4895  133.3856  161.3119 H   0  0  0  0  0  0  0  0  0  0  0  0
  146.9932  132.8332  162.0495 H   0  0  0  0  0  0  0  0  0  0  0  0
  146.2246  135.5022  163.5629 H   0  0  0  0  0  0  0  0  0  0  0  0
  145.1365  134.4917  162.6144 H   0  0  0  0  0  0  0  0  0  0  0  0
  145.3145  136.1964  162.2230 H   0  0  0  0  0  0  0  0  0  0  0  0
  147.5080  137.0788  161.6423 H   0  0  0  0  0  0  0  0  0  0  0  0
  148.8491  136.0541  162.1353 H   0  0  0  0  0  0  0  0  0  0  0  0
  149.1863  135.2714  159.9064 H   0  0  0  0  0  0  0  0  0  0  0  0
  148.2559  138.0932  159.5159 H   0  0  0  0  0  0  0  0  0  0  0  0
  149.5541  139.5963  158.6614 H   0  0  0  0  0  0  0  0  0  0  0  0
  151.2843  139.3288  158.7580 H   0  0  0  0  0  0  0  0  0  0  0  0
  150.0681  136.7034  156.7277 H   0  0  0  0  0  0  0  0  0  0  0  0
  150.1784  136.6718  154.2218 H   0  0  0  0  0  0  0  0  0  0  0  0
  150.5994  138.8279  153.0117 H   0  0  0  0  0  0  0  0  0  0  0  0
  150.8011  140.9581  156.5441 H   0  0  0  0  0  0  0  0  0  0  0  0
  146.5262  137.3452  158.1646 H   0  0  0  0  0  0  0  0  0  0  0  0
  145.9159  137.3375  159.8169 H   0  0  0  0  0  0  0  0  0  0  0  0
  145.1826  136.3041  158.6011 H   0  0  0  0  0  0  0  0  0  0  0  0
  147.8859  135.2581  157.2922 H   0  0  0  0  0  0  0  0  0  0  0  0
  146.4620  134.2922  157.6651 H   0  0  0  0  0  0  0  0  0  0  0  0
  148.0263  133.8425  158.3313 H   0  0  0  0  0  0  0  0  0  0  0  0
  1  2  1  0  0  0  0
  1 20  1  0  0  0  0
  1 21  1  0  0  0  0
  1 22  1  0  0  0  0
  2 19  1  0  0  0  0
  2  3  1  0  0  0  0
  2  4  1  0  0  0  0
  3 23  1  0  0  0  0
  3 24  1  0  0  0  0
  3 25  1  0  0  0  0
  4  5  1  0  0  0  0
  4 26  1  0  0  0  0
  4 27  1  0  0  0  0
  5  6  1  0  0  0  0
  5 16  1  0  0  0  0
  5 28  1  0  0  0  0
  6  7  1  0  0  0  0
  6 29  1  0  0  0  0
  7  8  2  0  0  0  0
  7  9  1  0  0  0  0
  9 10  1  0  0  0  0
  9 30  1  0  0  0  0
  9 31  1  0  0  0  0
 10 15  1  0  0  0  0
 10 11  2  0  0  0  0
 11 12  1  0  0  0  0
 11 32  1  0  0  0  0
 12 13  2  0  0  0  0
 12 33  1  0  0  0  0
 13 14  1  0  0  0  0
 13 34  1  0  0  0  0
 14 15  2  0  0  0  0
 15 35  1  0  0  0  0
 16 17  1  0  0  0  0
 16 18  1  0  0  0  0
 16 19  1  0  0  0  0
 17 36  1  0  0  0  0
 17 37  1  0  0  0  0
 17 38  1  0  0  0  0
 18 39  1  0  0  0  0
 18 40  1  0  0  0  0
 18 41  1  0  0  0  0
M  END
> <s_m_source_file>
AV-unprocessed.smi

> <i_m_source_file_index>
2261

> <i_lp_mmshare_version>
43012

> <i_f3d_flags>
0

> <s_epik_input>
W0NIM11DMShbQ0gzXSlbQ0gyXVtDQEhdKEMoTzEpKFtDSDNdKVtDSDNdKVtOSF1DKD1PKVtDSDJdYzJbY0hdW2NIXVtjSF1uW2NIXTI=

> <s_epik_cmdline>
J2VwaWtfcHl0aG9uJywgJy1waCcsICc3LjAnLCAnLXRuJywgJzgnLCAnLW1hJywgJzIwMCcsICctbWV0YWxfYmluZGluZycsICctaW1hZScsICc8aW5maWxlLm1hZT4nLCAnLW9tYWUnLCAnPG91dGZpbGUubWFlPic=

> <r_epik_Ionization_Penalty>
0.00420617

> <r_epik_Ionization_Penalty_Charging>
0

> <r_epik_Ionization_Penalty_Neutral>
0.00420617

> <r_epik_State_Penalty>
0.0030219

> <r_epik_Charging_Adjusted_Penalty>
0.0030219

> <i_epik_Tot_Q>
0

> <i_epik_Tot_abs_Q>
0

> <r_epik_Metal_State_Penalty>
-0

> <b_epik_Metal_Only>
0

> <s_lp_Force_Field>
OPLS_2005

> <r_lp_Energy>
16.2034

> <b_lp_Chiralities_Consistent>
1

> <s_lp_Variant>
AV-unprocessed.smi:2261-2

> <Gold.Version>
5.8.1

> <Gold.Id.Protein>
6NUR|6NUR_protein|mol2

> <Gold.PLP.Fitness>
36.2369

> <Gold.PLP.PLP>
-27.4181

> <Gold.PLP.part.hbond>
-2.0000

> <Gold.PLP.part.metal>
0.0000

> <Gold.PLP.part.buried>
-5.7011

> <Gold.PLP.part.nonpolar>
-20.0419

> <Gold.PLP.part.repulsive>
0.3112

> <Gold.PLP.ligand.clash>
0.0000

> <Gold.PLP.ligand.torsion>
0.0760

> <Gold.PLP.Chemscore.Hbond>
1.9920

> <Gold.PLP.Chemscore.CHOScore>
0.9931

> <Gold.PLP.Chemscore.Metal>
0.0000

> <Gold.Chemscore.Hbonds>
donor molecule, donor type, donor heavy atom, donor atom, acceptor molecule, acceptor atom, score
      P1  H  6896  6909       L1     8  0.99
      P1  H  7989  7998       L1    14  1.00
      L1  C    13    34       P1  7957  1.00

> <Gold.PLP.Chemscore.Internal.Correction>
0.0155

> <Gold.Rescore>
     Score         DG    S(hbond)    S(metal)    S(lipo)     H(rot)  DE(clash)    DE(int)     intcor
     16.94     -17.30       1.94        0.00      73.70       1.28       0.08       0.28       ----

> <Gold.Chemscore.Fitness>
16.9397

> <Gold.Chemscore.DG>
-17.3021

> <Gold.Chemscore.ZeroCoef>
-5.4800

> <Gold.Chemscore.Hbond>
1.9423

> <Gold.Chemscore.Metal>
0.0000

> <Gold.Chemscore.Lipo>
73.6951

> <Gold.Chemscore.Internal_Hbond>
0.0000

> <Gold.Chemscore.DEClash>
0.0785

> <Gold.Chemscore.DEInternal>
0.2839

> <Gold.Chemscore.Rot>
1.2842

> <Gold.Chemscore.Internal.Correction>
   9.000000E+99

> <Gold.Chemscore.Hbonds>
donor molecule, donor type, donor heavy atom, donor atom, acceptor molecule, acceptor atom, score
      P1  H  6896  6909       L1     8  0.94
      P1  H  7989  7998       L1    14  0.26

> <Gold.Chemscore.Hbond.Weighted>
-6.4873

> <Gold.Chemscore.Metal.Weighted>
-0.0000

> <Gold.Chemscore.Lipo.Weighted>
-8.6223

> <Gold.Chemscore.Internal_Hbond.Weighted>
0.0000

> <Gold.Chemscore.DEClash.Weighted>
0.0785

> <Gold.Chemscore.DEInternal.Weighted>
0.2839

> <Gold.Chemscore.Rot.Weighted>
3.2875

> <Gold.Chemscore.Internal.Correction.Weighted>
   9.000000E+99

> <Gold.Protein.RotatedTorsions>
[ 6907 6896 6895 6894 ] final   94.53 input  -60.11 | X-H torsion
[ 7974 7965 7964 7962 ] final  111.66 input  175.53 | X-H torsion
[ 8008 7997 7996 7995 ] final    3.72 input   59.86 | X-H torsion
[ 10167 10162 10161 10158 ] final  109.56 input  -65.29 | X-H torsion
[ 10718 10713 10712 10709 ] final -125.68 input   66.30 | X-H torsion
[ 10763 10752 10751 10750 ] final -174.51 input  -60.55 | X-H torsion
[ 11005 11000 10999 10996 ] final  140.80 input  -57.11 | X-H torsion

> <Gold.Protein.ActiveResidues>
 VAL166  LYS551  ARG553  GLY616  TRP617  ASP618  TYR619  PRO620  LYS621  CYS622 
 ASP623  PHE694  ASN695  SER759  ASP760  ASP761  ALA762  ILE779  LEU786  VAL792 
 PHE793  MET794  SER795  GLU796  ALA797  LYS798  CYS799  TRP800  GLU811  SER814 

> <Gold.Protein.RotatedAtoms>
  152.5449  134.1179  159.8386 H   0  0  0  0  0  0  0  0  0  0  0  0  # atno 6907 bound_to 6896
  151.1238  133.5078  159.2608 H   0  0  0  0  0  0  0  0  0  0  0  0  # atno 6908 bound_to 6896
  151.1750  135.0345  159.8822 H   0  0  0  0  0  0  0  0  0  0  0  0  # atno 6909 bound_to 6896
  145.2394  139.2785  143.4125 H   0  0  0  0  0  0  0  0  0  0  0  0  # atno 7974 bound_to 7965
  154.7071  140.2685  155.6664 H   0  0  0  0  0  0  0  0  0  0  0  0  # atno 8008 bound_to 7997
  156.2783  140.2760  156.1624 H   0  0  0  0  0  0  0  0  0  0  0  0  # atno 8009 bound_to 7997
  155.0686  140.0372  157.2591 H   0  0  0  0  0  0  0  0  0  0  0  0  # atno 8010 bound_to 7997
  139.6757  144.7122  151.1606 H   0  0  0  0  0  0  0  0  0  0  0  0  # atno 10167 bound_to 10162
  156.1697  130.6659  151.0163 H   0  0  0  0  0  0  0  0  0  0  0  0  # atno 10718 bound_to 10713
  154.5954  135.2849  155.0592 H   0  0  0  0  0  0  0  0  0  0  0  0  # atno 10763 bound_to 10752
  154.1877  135.6446  153.5055 H   0  0  0  0  0  0  0  0  0  0  0  0  # atno 10764 bound_to 10752
  153.0136  135.5438  154.6654 H   0  0  0  0  0  0  0  0  0  0  0  0  # atno 10765 bound_to 10752
  140.0354  134.9331  157.0742 H   0  0  0  0  0  0  0  0  0  0  0  0  # atno 11005 bound_to 11000
  146.3332  140.2753  142.8608 LP  0  0  0  0  0  0  0  0  0  0  0  0  # atno 17320 bound_to 7965
  144.9602  140.8268  143.5518 LP  0  0  0  0  0  0  0  0  0  0  0  0  # atno 17321 bound_to 7965
  140.7634  143.5775  150.8930 LP  0  0  0  0  0  0  0  0  0  0  0  0  # atno 17342 bound_to 10162
  139.9444  143.6345  152.3045 LP  0  0  0  0  0  0  0  0  0  0  0  0  # atno 17343 bound_to 10162
  157.6794  131.0842  150.7410 LP  0  0  0  0  0  0  0  0  0  0  0  0  # atno 17370 bound_to 10713
  156.7470  130.4757  149.5465 LP  0  0  0  0  0  0  0  0  0  0  0  0  # atno 17371 bound_to 10713
  140.4157  134.1934  155.7163 LP  0  0  0  0  0  0  0  0  0  0  0  0  # atno 17394 bound_to 11000
  141.1854  133.8324  157.1105 LP  0  0  0  0  0  0  0  0  0  0  0  0  # atno 17395 bound_to 11000

$$$$
