AV-unprocessed.smi:2061|AV-procd|sdf|8386|dock1
  -GOLD-   2272011 63D 1   1.00000     0.00000
 Structure written by MMmdl.
 45 46  0  0  0  0  0  0  0  0  3 V2000
  149.8223  140.6353  154.8514 C   0  0  0  0  0  0  0  0  0  0  0  0
  150.4582  139.2872  154.8633 C   0  0  0  0  0  0  0  0  0  0  0  0
  150.0362  138.0674  155.3106 C   0  0  0  0  0  0  0  0  0  0  0  0
  151.1317  137.2137  155.0076 C   0  0  0  0  0  0  0  0  0  0  0  0
  151.2014  135.8994  155.2700 N   0  5  0  0  0  0  0  0  0  0  0  0
  150.0818  135.2066  155.5774 C   0  0  0  0  0  0  0  0  0  0  0  0
  149.8860  134.5470  156.6012 O   0  0  0  0  0  0  0  0  0  0  0  0
  149.1286  135.2767  154.6373 N   0  0  0  0  0  0  0  0  0  0  0  0
  147.8248  134.6241  154.7037 C   0  0  0  0  0  0  0  0  0  0  0  0
  147.5859  133.6321  153.5350 C   0  0  2  0  0  0  0  0  0  0  0  0
  148.8983  132.8808  153.2056 C   0  0  0  0  0  0  0  0  0  0  0  0
  146.9976  134.3571  152.3597 N   0  3  1  0  0  0  0  0  0  0  0  0
  146.7630  133.5663  151.1211 C   0  0  0  0  0  0  0  0  0  0  0  0
  145.5286  132.6540  151.2678 C   0  0  2  0  0  0  0  0  0  0  0  0
  145.2428  131.8629  149.9869 C   0  0  0  0  0  0  0  0  0  0  0  0
  144.3954  133.4696  151.5445 O   0  0  0  0  0  0  0  0  0  0  0  0
  144.5222  134.2002  152.7598 C   0  0  2  0  0  0  0  0  0  0  0  0
  143.2288  134.9947  152.9712 C   0  0  0  0  0  0  0  0  0  0  0  0
  145.7603  135.1220  152.6777 C   0  0  0  0  0  0  0  0  0  0  0  0
  152.1363  137.8611  154.4409 N   0  0  0  0  0  0  0  0  0  0  0  0
  151.7096  139.1906  154.3386 O   0  0  0  0  0  0  0  0  0  0  0  0
  149.5454  140.9395  155.8609 H   0  0  0  0  0  0  0  0  0  0  0  0
  148.9197  140.6292  154.2402 H   0  0  0  0  0  0  0  0  0  0  0  0
  150.5000  141.3870  154.4460 H   0  0  0  0  0  0  0  0  0  0  0  0
  149.0934  137.8233  155.7768 H   0  0  0  0  0  0  0  0  0  0  0  0
  149.3261  135.8294  153.8156 H   0  0  0  0  0  0  0  0  0  0  0  0
  147.7395  134.1450  155.6780 H   0  0  0  0  0  0  0  0  0  0  0  0
  147.0613  135.4022  154.6870 H   0  0  0  0  0  0  0  0  0  0  0  0
  146.8722  132.8758  153.8587 H   0  0  0  0  0  0  0  0  0  0  0  0
  149.3196  132.4016  154.0893 H   0  0  0  0  0  0  0  0  0  0  0  0
  149.6569  133.5562  152.8093 H   0  0  0  0  0  0  0  0  0  0  0  0
  148.7421  132.0788  152.4846 H   0  0  0  0  0  0  0  0  0  0  0  0
  146.5849  134.2705  150.3072 H   0  0  0  0  0  0  0  0  0  0  0  0
  147.6451  133.0071  150.8129 H   0  0  0  0  0  0  0  0  0  0  0  0
  145.6732  131.9465  152.0857 H   0  0  0  0  0  0  0  0  0  0  0  0
  146.0792  131.2107  149.7345 H   0  0  0  0  0  0  0  0  0  0  0  0
  145.0695  132.5287  149.1410 H   0  0  0  0  0  0  0  0  0  0  0  0
  144.3579  131.2371  150.1045 H   0  0  0  0  0  0  0  0  0  0  0  0
  144.6231  133.4976  153.5877 H   0  0  0  0  0  0  0  0  0  0  0  0
  143.2675  135.5662  153.8988 H   0  0  0  0  0  0  0  0  0  0  0  0
  142.3674  134.3290  153.0278 H   0  0  0  0  0  0  0  0  0  0  0  0
  143.0561  135.6944  152.1529 H   0  0  0  0  0  0  0  0  0  0  0  0
  145.8622  135.6957  153.5969 H   0  0  0  0  0  0  0  0  0  0  0  0
  145.6082  135.8578  151.8866 H   0  0  0  0  0  0  0  0  0  0  0  0
  147.6985  135.0400  152.1095 H   0  0  0  0  0  0  0  0  0  0  0  0
  1  2  1  0  0  0  0
  1 22  1  0  0  0  0
  1 23  1  0  0  0  0
  1 24  1  0  0  0  0
  2 21  1  0  0  0  0
  2  3  2  0  0  0  0
  3  4  1  0  0  0  0
  3 25  1  0  0  0  0
  4  5  1  0  0  0  0
  4 20  2  0  0  0  0
  5  6  1  0  0  0  0
  6  7  2  0  0  0  0
  6  8  1  0  0  0  0
  8  9  1  0  0  0  0
  8 26  1  0  0  0  0
  9 10  1  0  0  0  0
  9 27  1  0  0  0  0
  9 28  1  0  0  0  0
 10 11  1  0  0  0  0
 10 12  1  0  0  0  0
 10 29  1  0  0  0  0
 11 30  1  0  0  0  0
 11 31  1  0  0  0  0
 11 32  1  0  0  0  0
 12 19  1  0  0  0  0
 12 13  1  0  0  0  0
 12 45  1  0  0  0  0
 13 14  1  0  0  0  0
 13 33  1  0  0  0  0
 13 34  1  0  0  0  0
 14 15  1  0  0  0  0
 14 16  1  0  0  0  0
 14 35  1  0  0  0  0
 15 36  1  0  0  0  0
 15 37  1  0  0  0  0
 15 38  1  0  0  0  0
 16 17  1  0  0  0  0
 17 18  1  0  0  0  0
 17 19  1  0  0  0  0
 17 39  1  0  0  0  0
 18 40  1  0  0  0  0
 18 41  1  0  0  0  0
 18 42  1  0  0  0  0
 19 43  1  0  0  0  0
 19 44  1  0  0  0  0
 20 21  1  0  0  0  0
M  CHG  1   5  -1
M  CHG  1  12   1
M  END
> <s_m_source_file>
AV-unprocessed.smi

> <i_m_source_file_index>
2061

> <i_lp_mmshare_version>
43012

> <i_f3d_flags>
0

> <s_epik_input>
W0NIM11jMVtjSF1jKG5vMSlbTkhdQyg9TylbTkhdW0NIMl1bQ0BIXShbQ0gzXSlOMltDSDJdW0NAQEhdKFtDSDNdKU9bQ0BASF0oW0NIM10pW0NIMl0y

> <s_epik_cmdline>
J2VwaWtfcHl0aG9uJywgJy1waCcsICc3LjAnLCAnLXRuJywgJzgnLCAnLW1hJywgJzIwMCcsICctbWV0YWxfYmluZGluZycsICctaW1hZScsICc8aW5maWxlLm1hZT4nLCAnLW9tYWUnLCAnPG91dGZpbGUubWFlPic=

> <r_epik_Ionization_Penalty>
6.73511

> <r_epik_Ionization_Penalty_Charging>
6.73502

> <r_epik_Ionization_Penalty_Neutral>
9.50841e-05

> <r_epik_State_Penalty>
6.93549

> <r_epik_Charging_Adjusted_Penalty>
13.6705

> <i_epik_Tot_Q>
0

> <i_epik_Tot_abs_Q>
2

> <r_epik_Metal_State_Penalty>
2.87211

> <b_epik_Metal_Only>
1

> <s_lp_Force_Field>
OPLS_2005

> <r_lp_Energy>
9.64983

> <b_lp_Chiralities_Consistent>
1

> <s_lp_Variant>
AV-unprocessed.smi:2061-27

> <Gold.Version>
5.8.1

> <Gold.Id.Protein>
6NUR|6NUR_protein|mol2

> <Gold.PLP.Fitness>
49.1128

> <Gold.PLP.PLP>
-32.6521

> <Gold.PLP.part.hbond>
-4.3311

> <Gold.PLP.part.metal>
0.0000

> <Gold.PLP.part.buried>
-5.8410

> <Gold.PLP.part.nonpolar>
-23.3515

> <Gold.PLP.part.repulsive>
0.5055

> <Gold.PLP.ligand.clash>
0.0000

> <Gold.PLP.ligand.torsion>
0.8781

> <Gold.PLP.Chemscore.Hbond>
5.9760

> <Gold.PLP.Chemscore.CHOScore>
0.0000

> <Gold.PLP.Chemscore.Metal>
0.0000

> <Gold.Chemscore.Hbonds>
donor molecule, donor type, donor heavy atom, donor atom, acceptor molecule, acceptor atom, score
      L1  H     8    26       P1  7948  0.99
      L1  H    12    45       P1  7948  2.00
      P1  H  7989  7998       L1    21  0.75
      P1  H 10752 10765       L1     5  2.00

> <Gold.PLP.Chemscore.Internal.Correction>
0.2889

> <Gold.Rescore>
     Score         DG    S(hbond)    S(metal)    S(lipo)     H(rot)  DE(clash)    DE(int)     intcor
     20.39     -21.29       3.64        0.00      65.22       1.56       0.02       0.88       ----

> <Gold.Chemscore.Fitness>
20.3921

> <Gold.Chemscore.DG>
-21.2861

> <Gold.Chemscore.ZeroCoef>
-5.4800

> <Gold.Chemscore.Hbond>
3.6395

> <Gold.Chemscore.Metal>
0.0000

> <Gold.Chemscore.Lipo>
65.2225

> <Gold.Chemscore.Internal_Hbond>
0.0000

> <Gold.Chemscore.DEClash>
0.0169

> <Gold.Chemscore.DEInternal>
0.8771

> <Gold.Chemscore.Rot>
1.5550

> <Gold.Chemscore.Internal.Correction>
   9.000000E+99

> <Gold.Chemscore.Hbonds>
donor molecule, donor type, donor heavy atom, donor atom, acceptor molecule, acceptor atom, score
      L1  H     8    26       P1  7948  0.59
      L1  H    12    45       P1  7948  0.88
      P1  H  7989  7998       L1    21  0.09
      P1  H 10752 10765       L1     5  0.26

> <Gold.Chemscore.Hbond.Weighted>
-12.1559

> <Gold.Chemscore.Metal.Weighted>
-0.0000

> <Gold.Chemscore.Lipo.Weighted>
-7.6310

> <Gold.Chemscore.Internal_Hbond.Weighted>
0.0000

> <Gold.Chemscore.DEClash.Weighted>
0.0169

> <Gold.Chemscore.DEInternal.Weighted>
0.8771

> <Gold.Chemscore.Rot.Weighted>
3.9809

> <Gold.Chemscore.Internal.Correction.Weighted>
   9.000000E+99

> <Gold.Protein.RotatedTorsions>
[ 6907 6896 6895 6894 ] final   13.66 input  -60.11 | X-H torsion
[ 7974 7965 7964 7962 ] final  131.01 input  175.53 | X-H torsion
[ 8008 7997 7996 7995 ] final  135.94 input   59.86 | X-H torsion
[ 10167 10162 10161 10158 ] final   16.02 input  -65.29 | X-H torsion
[ 10718 10713 10712 10709 ] final    8.40 input   66.30 | X-H torsion
[ 10763 10752 10751 10750 ] final -171.20 input  -60.55 | X-H torsion
[ 11005 11000 10999 10996 ] final -148.17 input  -57.11 | X-H torsion

> <Gold.Protein.ActiveResidues>
 VAL166  LYS551  ARG553  GLY616  TRP617  ASP618  TYR619  PRO620  LYS621  CYS622 
 ASP623  PHE694  ASN695  SER759  ASP760  ASP761  ALA762  ILE779  LEU786  VAL792 
 PHE793  MET794  SER795  GLU796  ALA797  LYS798  CYS799  TRP800  GLU811  SER814 

> <Gold.Protein.RotatedAtoms>
  151.7898  135.0739  160.0385 H   0  0  0  0  0  0  0  0  0  0  0  0  # atno 6907 bound_to 6896
  152.3164  133.5803  159.5724 H   0  0  0  0  0  0  0  0  0  0  0  0  # atno 6908 bound_to 6896
  150.7346  133.9991  159.3674 H   0  0  0  0  0  0  0  0  0  0  0  0  # atno 6909 bound_to 6896
  145.0118  139.4213  143.5241 H   0  0  0  0  0  0  0  0  0  0  0  0  # atno 7974 bound_to 7965
  156.3004  140.2458  156.3664 H   0  0  0  0  0  0  0  0  0  0  0  0  # atno 8008 bound_to 7997
  154.8829  140.0412  157.1812 H   0  0  0  0  0  0  0  0  0  0  0  0  # atno 8009 bound_to 7997
  154.8677  140.2930  155.5504 H   0  0  0  0  0  0  0  0  0  0  0  0  # atno 8010 bound_to 7997
  140.5826  143.8951  150.6803 H   0  0  0  0  0  0  0  0  0  0  0  0  # atno 10167 bound_to 10162
  156.9511  130.5897  149.5657 H   0  0  0  0  0  0  0  0  0  0  0  0  # atno 10718 bound_to 10713
  154.6331  135.2889  155.0193 H   0  0  0  0  0  0  0  0  0  0  0  0  # atno 10763 bound_to 10752
  154.1346  135.6528  153.4933 H   0  0  0  0  0  0  0  0  0  0  0  0  # atno 10764 bound_to 10752
  153.0289  135.5318  154.7167 H   0  0  0  0  0  0  0  0  0  0  0  0  # atno 10765 bound_to 10752
  140.7640  134.3265  157.5094 H   0  0  0  0  0  0  0  0  0  0  0  0  # atno 11005 bound_to 11000
  146.3471  139.9567  142.8722 LP  0  0  0  0  0  0  0  0  0  0  0  0  # atno 17320 bound_to 7965
  145.2012  140.9855  143.4154 LP  0  0  0  0  0  0  0  0  0  0  0  0  # atno 17321 bound_to 7965
  140.2454  143.3633  152.1451 LP  0  0  0  0  0  0  0  0  0  0  0  0  # atno 17342 bound_to 10162
  139.5179  144.6998  151.5526 LP  0  0  0  0  0  0  0  0  0  0  0  0  # atno 17343 bound_to 10162
  156.0362  130.5449  150.8660 LP  0  0  0  0  0  0  0  0  0  0  0  0  # atno 17370 bound_to 10713
  157.5721  131.0946  150.9401 LP  0  0  0  0  0  0  0  0  0  0  0  0  # atno 17371 bound_to 10713
  139.8766  134.9220  156.3289 LP  0  0  0  0  0  0  0  0  0  0  0  0  # atno 17394 bound_to 11000
  140.9636  133.7372  156.0436 LP  0  0  0  0  0  0  0  0  0  0  0  0  # atno 17395 bound_to 11000

$$$$
