AV-unprocessed.smi:1008|AV-procd|sdf|4412|dock7
  -GOLD-   22720 2353D 1   1.00000     0.00000
 Structure written by MMmdl.
 23 23  0  0  0  0  0  0  0  0  1 V2000
  152.4902  141.3639  159.2976 C   0  0  0  0  0  0  0  0  0  0  0  0
  151.8981  141.1042  157.9244 C   0  0  0  0  0  0  0  0  0  0  0  0
  152.4700  140.1051  157.2162 N   0  0  0  0  0  0  0  0  0  0  0  0
  151.9710  139.8623  156.0043 C   0  0  0  0  0  0  0  0  0  0  0  0
  152.5555  138.8441  155.2920 N   0  0  0  0  0  0  0  0  0  0  0  0
  150.9642  140.5050  155.4114 N   0  0  0  0  0  0  0  0  0  0  0  0
  150.3790  141.5060  156.1039 C   0  0  0  0  0  0  0  0  0  0  0  0
  149.3519  142.1794  155.5085 O   0  0  0  0  0  0  0  0  0  0  0  0
  150.8145  141.8576  157.4056 C   0  0  0  0  0  0  0  0  0  0  0  0
  150.1578  142.9876  158.1879 C   0  0  0  0  0  0  0  0  0  0  0  0
  151.1529  144.1030  158.5359 C   0  0  0  0  0  0  0  0  0  0  0  0
  150.4531  145.2902  158.8381 O   0  0  0  0  0  0  0  0  0  0  0  0
  149.3020  143.0818  155.7841 H   0  0  0  0  0  0  0  0  0  0  0  0
  152.7541  142.4154  159.4097 H   0  0  0  0  0  0  0  0  0  0  0  0
  153.3933  140.7742  159.4598 H   0  0  0  0  0  0  0  0  0  0  0  0
  151.7728  141.1010  160.0750 H   0  0  0  0  0  0  0  0  0  0  0  0
  153.3228  138.3196  155.6860 H   0  0  0  0  0  0  0  0  0  0  0  0
  152.2357  138.6240  154.3599 H   0  0  0  0  0  0  0  0  0  0  0  0
  149.7022  142.5953  159.0970 H   0  0  0  0  0  0  0  0  0  0  0  0
  149.3318  143.3956  157.6045 H   0  0  0  0  0  0  0  0  0  0  0  0
  151.7634  143.8236  159.3949 H   0  0  0  0  0  0  0  0  0  0  0  0
  151.8291  144.2913  157.7015 H   0  0  0  0  0  0  0  0  0  0  0  0
  149.7434  145.3858  158.2214 H   0  0  0  0  0  0  0  0  0  0  0  0
  1 14  1  0  0  0  0
  1 15  1  0  0  0  0
  1 16  1  0  0  0  0
  1  2  1  0  0  0  0
  2  9  2  0  0  0  0
  2  3  1  0  0  0  0
  3  4  2  0  0  0  0
  4  5  1  0  0  0  0
  4  6  1  0  0  0  0
  5 17  1  0  0  0  0
  5 18  1  0  0  0  0
  6  7  2  0  0  0  0
  7  8  1  0  0  0  0
  7  9  1  0  0  0  0
  8 13  1  0  0  0  0
  9 10  1  0  0  0  0
 10 11  1  0  0  0  0
 10 19  1  0  0  0  0
 10 20  1  0  0  0  0
 11 12  1  0  0  0  0
 11 21  1  0  0  0  0
 11 22  1  0  0  0  0
 12 23  1  0  0  0  0
M  END
> <s_m_source_file>
AV-unprocessed.smi

> <i_m_source_file_index>
1008

> <i_lp_mmshare_version>
43012

> <i_f3d_flags>
0

> <s_epik_input>
W0NIM11jMW5jKFtOSDJdKVtuSF1jKD1PKWMxW0NIMl1bQ0gyXVtPSF0=

> <s_epik_cmdline>
J2VwaWtfcHl0aG9uJywgJy1waCcsICc3LjAnLCAnLXRuJywgJzgnLCAnLW1hJywgJzIwMCcsICctbWV0YWxfYmluZGluZycsICctaW1hZScsICc8aW5maWxlLm1hZT4nLCAnLW9tYWUnLCAnPG91dGZpbGUubWFlPic=

> <r_lp_tautomer_probability>
0.0131372

> <r_epik_Ionization_Penalty>
8.55637

> <r_epik_Ionization_Penalty_Charging>
0

> <r_epik_Ionization_Penalty_Neutral>
8.55637

> <r_epik_State_Penalty>
2.72329

> <r_epik_Charging_Adjusted_Penalty>
2.72329

> <i_epik_Tot_Q>
0

> <i_epik_Tot_abs_Q>
0

> <r_epik_Metal_State_Penalty>
2.85363

> <b_epik_Metal_Only>
0

> <s_lp_Force_Field>
OPLS_2005

> <r_lp_Energy>
-5.16374

> <b_lp_Chiralities_Consistent>
1

> <s_lp_Variant>
AV-unprocessed.smi:1008-3

> <Gold.Version>
5.8.1

> <Gold.Id.Protein>
6NUR|6NUR_protein|mol2

> <Gold.PLP.Fitness>
34.2900

> <Gold.PLP.PLP>
-22.4741

> <Gold.PLP.part.hbond>
-4.0540

> <Gold.PLP.part.metal>
0.0000

> <Gold.PLP.part.buried>
-3.2224

> <Gold.PLP.part.nonpolar>
-14.9135

> <Gold.PLP.part.repulsive>
0.2668

> <Gold.PLP.ligand.clash>
0.0000

> <Gold.PLP.ligand.torsion>
0.0921

> <Gold.PLP.Chemscore.Hbond>
4.0000

> <Gold.PLP.Chemscore.CHOScore>
0.0000

> <Gold.PLP.Chemscore.Metal>
0.0000

> <Gold.Chemscore.Hbonds>
donor molecule, donor type, donor heavy atom, donor atom, acceptor molecule, acceptor atom, score
      L1  H     8    13       P1  8028  1.00
      L1  H    12    23       P1  8029  0.75
      P1  H  7989  7998       L1     6  0.89
      P1  H  7997  8010       L1     3  0.75

> <Gold.PLP.Chemscore.Internal.Correction>
0.0001

> <Gold.Rescore>
     Score         DG    S(hbond)    S(metal)    S(lipo)     H(rot)  DE(clash)    DE(int)     intcor
     11.69     -11.84       2.63        0.00      39.01       2.73       0.13       0.02       ----

> <Gold.Chemscore.Fitness>
11.6933

> <Gold.Chemscore.DG>
-11.8421

> <Gold.Chemscore.ZeroCoef>
-5.4800

> <Gold.Chemscore.Hbond>
2.6290

> <Gold.Chemscore.Metal>
0.0000

> <Gold.Chemscore.Lipo>
39.0096

> <Gold.Chemscore.Internal_Hbond>
0.0000

> <Gold.Chemscore.DEClash>
0.1257

> <Gold.Chemscore.DEInternal>
0.0231

> <Gold.Chemscore.Rot>
2.7277

> <Gold.Chemscore.Internal.Correction>
   9.000000E+99

> <Gold.Chemscore.Hbonds>
donor molecule, donor type, donor heavy atom, donor atom, acceptor molecule, acceptor atom, score
      L1  H     8    13       P1  8028  0.98
      L1  H    12    23       P1  8029  0.33
      P1  H  7989  7998       L1     6  0.40
      P1  H  7997  8010       L1     3  0.09

> <Gold.Chemscore.Hbond.Weighted>
-8.7809

> <Gold.Chemscore.Metal.Weighted>
-0.0000

> <Gold.Chemscore.Lipo.Weighted>
-4.5641

> <Gold.Chemscore.Internal_Hbond.Weighted>
0.0000

> <Gold.Chemscore.DEClash.Weighted>
0.1257

> <Gold.Chemscore.DEInternal.Weighted>
0.0231

> <Gold.Chemscore.Rot.Weighted>
6.9829

> <Gold.Chemscore.Internal.Correction.Weighted>
   9.000000E+99

> <Gold.Protein.RotatedTorsions>
[ 6907 6896 6895 6894 ] final   39.06 input  -60.11 | X-H torsion
[ 7974 7965 7964 7962 ] final   43.86 input  175.53 | X-H torsion
[ 8008 7997 7996 7995 ] final   60.43 input   59.86 | X-H torsion
[ 10167 10162 10161 10158 ] final   -7.47 input  -65.29 | X-H torsion
[ 10718 10713 10712 10709 ] final   38.79 input   66.30 | X-H torsion
[ 10763 10752 10751 10750 ] final  -48.62 input  -60.55 | X-H torsion
[ 11005 11000 10999 10996 ] final   38.76 input  -57.11 | X-H torsion

> <Gold.Protein.ActiveResidues>
 VAL166  LYS551  ARG553  GLY616  TRP617  ASP618  TYR619  PRO620  LYS621  CYS622 
 ASP623  PHE694  ASN695  SER759  ASP760  ASP761  ALA762  ILE779  LEU786  VAL792 
 PHE793  MET794  SER795  GLU796  ALA797  LYS798  CYS799  TRP800  GLU811  SER814 

> <Gold.Protein.RotatedAtoms>
  152.1646  134.8884  160.0538 H   0  0  0  0  0  0  0  0  0  0  0  0  # atno 6907 bound_to 6896
  151.9867  133.3771  159.4136 H   0  0  0  0  0  0  0  0  0  0  0  0  # atno 6908 bound_to 6896
  150.6892  134.3903  159.5117 H   0  0  0  0  0  0  0  0  0  0  0  0  # atno 6909 bound_to 6896
  146.0619  139.5139  142.9653 H   0  0  0  0  0  0  0  0  0  0  0  0  # atno 7974 bound_to 7965
  155.5821  140.3491  155.4543 H   0  0  0  0  0  0  0  0  0  0  0  0  # atno 8008 bound_to 7997
  156.0365  140.1286  157.0227 H   0  0  0  0  0  0  0  0  0  0  0  0  # atno 8009 bound_to 7997
  154.4374  140.1033  156.6161 H   0  0  0  0  0  0  0  0  0  0  0  0  # atno 8010 bound_to 7997
  140.7030  143.6077  150.8735 H   0  0  0  0  0  0  0  0  0  0  0  0  # atno 10167 bound_to 10162
  157.3629  130.7659  149.7061 H   0  0  0  0  0  0  0  0  0  0  0  0  # atno 10718 bound_to 10713
  154.0807  135.6591  153.4837 H   0  0  0  0  0  0  0  0  0  0  0  0  # atno 10763 bound_to 10752
  153.0357  135.5179  154.7476 H   0  0  0  0  0  0  0  0  0  0  0  0  # atno 10764 bound_to 10752
  154.6570  135.3009  154.9882 H   0  0  0  0  0  0  0  0  0  0  0  0  # atno 10765 bound_to 10752
  140.2094  134.3774  155.8056 H   0  0  0  0  0  0  0  0  0  0  0  0  # atno 11005 bound_to 11000
  145.6546  141.0255  143.1742 LP  0  0  0  0  0  0  0  0  0  0  0  0  # atno 17320 bound_to 7965
  144.7180  139.8130  143.7392 LP  0  0  0  0  0  0  0  0  0  0  0  0  # atno 17321 bound_to 7965
  139.9800  143.5962  152.2946 LP  0  0  0  0  0  0  0  0  0  0  0  0  # atno 17342 bound_to 10162
  139.6579  144.7662  151.2019 LP  0  0  0  0  0  0  0  0  0  0  0  0  # atno 17343 bound_to 10162
  155.9741  130.4109  150.3952 LP  0  0  0  0  0  0  0  0  0  0  0  0  # atno 17370 bound_to 10713
  157.2032  131.0443  151.2639 LP  0  0  0  0  0  0  0  0  0  0  0  0  # atno 17371 bound_to 10713
  141.2226  133.7135  156.8392 LP  0  0  0  0  0  0  0  0  0  0  0  0  # atno 17394 bound_to 11000
  140.1967  134.8926  157.3123 LP  0  0  0  0  0  0  0  0  0  0  0  0  # atno 17395 bound_to 11000

$$$$
