AV-unprocessed.smi:1550|AV-procd|sdf|6228|dock1
  -GOLD-   22720 6403D 1   1.00000     0.00000
 Structure written by MMmdl.
 42 43  0  0  0  0  0  0  0  0  2 V2000
  149.9703  139.1754  154.6474 C   0  0  0  0  0  0  0  0  0  0  0  0
  151.0779  138.3851  155.3599 C   0  0  2  0  0  0  0  0  0  0  0  0
  150.4474  137.4475  156.2282 O   0  0  0  0  0  0  0  0  0  0  0  0
  149.4656  136.6170  155.6182 C   0  0  0  0  0  0  0  0  0  0  0  0
  150.0419  135.2037  155.4644 C   0  0  2  0  0  0  0  0  0  0  0  0
  149.1510  134.3132  154.5760 C   0  0  0  0  0  0  0  0  0  0  0  0
  149.7068  132.8859  154.5146 C   0  0  0  0  0  0  0  0  0  0  0  0
  149.9110  132.3494  155.9352 C   0  0  0  0  0  0  0  0  0  0  0  0
  150.7536  133.3348  156.7601 C   0  0  0  0  0  0  0  0  0  0  0  0
  150.1324  134.6164  156.7613 O   0  0  0  0  0  0  0  0  0  0  0  0
  152.0023  139.3144  156.1633 C   0  0  0  0  0  0  0  0  0  0  0  0
  153.2016  139.3542  155.8904 O   0  0  0  0  0  0  0  0  0  0  0  0
  151.3911  140.0540  157.1097 N   0  0  0  0  0  0  0  0  0  0  0  0
  151.9255  140.9968  158.0054 C   0  0  0  0  0  0  0  0  0  0  0  0
  151.4155  142.2393  158.2327 C   0  0  0  0  0  0  0  0  0  0  0  0
  152.0223  143.1719  159.1741 C   0  0  0  0  0  0  0  0  0  0  0  0
  151.5225  144.5883  159.3980 C   0  0  0  0  0  0  0  0  0  0  0  0
  152.2243  145.2004  160.3522 F   0  0  0  0  0  0  0  0  0  0  0  0
  151.6142  145.3095  158.2805 F   0  0  0  0  0  0  0  0  0  0  0  0
  150.2445  144.5640  159.7734 F   0  0  0  0  0  0  0  0  0  0  0  0
  153.1633  142.6585  159.7591 C   0  0  0  0  0  0  0  0  0  0  0  0
  153.7295  141.4428  159.5961 N   0  5  0  0  0  0  0  0  0  0  0  0
  153.1462  140.5738  158.7231 C   0  0  0  0  0  0  0  0  0  0  0  0
  153.6131  139.4516  158.5236 O   0  0  0  0  0  0  0  0  0  0  0  0
  150.3893  139.9287  153.9790 H   0  0  0  0  0  0  0  0  0  0  0  0
  149.3160  139.6820  155.3580 H   0  0  0  0  0  0  0  0  0  0  0  0
  149.3491  138.5116  154.0460 H   0  0  0  0  0  0  0  0  0  0  0  0
  151.6537  137.8492  154.6024 H   0  0  0  0  0  0  0  0  0  0  0  0
  148.5529  136.5948  156.2156 H   0  0  0  0  0  0  0  0  0  0  0  0
  149.2029  137.0070  154.6343 H   0  0  0  0  0  0  0  0  0  0  0  0
  151.0371  135.2737  155.0215 H   0  0  0  0  0  0  0  0  0  0  0  0
  148.1357  134.2931  154.9743 H   0  0  0  0  0  0  0  0  0  0  0  0
  149.0831  134.7284  153.5699 H   0  0  0  0  0  0  0  0  0  0  0  0
  149.0326  132.2368  153.9550 H   0  0  0  0  0  0  0  0  0  0  0  0
  150.6587  132.8860  153.9820 H   0  0  0  0  0  0  0  0  0  0  0  0
  148.9428  132.2074  156.4173 H   0  0  0  0  0  0  0  0  0  0  0  0
  150.3931  131.3720  155.9048 H   0  0  0  0  0  0  0  0  0  0  0  0
  150.8409  132.9844  157.7887 H   0  0  0  0  0  0  0  0  0  0  0  0
  151.7669  133.4098  156.3625 H   0  0  0  0  0  0  0  0  0  0  0  0
  150.3892  139.9469  157.1756 H   0  0  0  0  0  0  0  0  0  0  0  0
  150.5394  142.5858  157.7112 H   0  0  0  0  0  0  0  0  0  0  0  0
  153.7034  143.3258  160.4642 H   0  0  0  0  0  0  0  0  0  0  0  0
  1  2  1  0  0  0  0
  1 25  1  0  0  0  0
  1 26  1  0  0  0  0
  1 27  1  0  0  0  0
  2  3  1  0  0  0  0
  2 11  1  0  0  0  0
  2 28  1  0  0  0  0
  3  4  1  0  0  0  0
  4  5  1  0  0  0  0
  4 29  1  0  0  0  0
  4 30  1  0  0  0  0
  5 10  1  0  0  0  0
  5  6  1  0  0  0  0
  5 31  1  0  0  0  0
  6  7  1  0  0  0  0
  6 32  1  0  0  0  0
  6 33  1  0  0  0  0
  7  8  1  0  0  0  0
  7 34  1  0  0  0  0
  7 35  1  0  0  0  0
  8  9  1  0  0  0  0
  8 36  1  0  0  0  0
  8 37  1  0  0  0  0
  9 10  1  0  0  0  0
  9 38  1  0  0  0  0
  9 39  1  0  0  0  0
 11 12  2  0  0  0  0
 11 13  1  0  0  0  0
 13 14  1  0  0  0  0
 13 40  1  0  0  0  0
 14 23  1  0  0  0  0
 14 15  2  0  0  0  0
 15 16  1  0  0  0  0
 15 41  1  0  0  0  0
 16 17  1  0  0  0  0
 16 21  2  0  0  0  0
 17 18  1  0  0  0  0
 17 19  1  0  0  0  0
 17 20  1  0  0  0  0
 21 22  1  0  0  0  0
 21 42  1  0  0  0  0
 22 23  1  0  0  0  0
 23 24  2  0  0  0  0
M  CHG  1  22  -1
M  END
> <s_m_source_file>
AV-unprocessed.smi

> <i_m_source_file_index>
1550

> <i_lp_mmshare_version>
43012

> <i_f3d_flags>
0

> <s_epik_input>
TzFbQ0gyXVtDSDJdW0NIMl1bQ0gyXVtDQEhdMVtDSDJdT1tDQEBIXShbQ0gzXSlDKD1PKVtOSF1jMltjSF1jKEMoRikoRilGKVtjSF1bbkhdYzI9Tw==

> <s_epik_cmdline>
J2VwaWtfcHl0aG9uJywgJy1waCcsICc3LjAnLCAnLXRuJywgJzgnLCAnLW1hJywgJzIwMCcsICctbWV0YWxfYmluZGluZycsICctaW1hZScsICc8aW5maWxlLm1hZT4nLCAnLW9tYWUnLCAnPG91dGZpbGUubWFlPic=

> <r_epik_Ionization_Penalty>
2.54933

> <r_epik_Ionization_Penalty_Charging>
0.0583423

> <r_epik_Ionization_Penalty_Neutral>
2.49099

> <r_epik_State_Penalty>
2.65532

> <r_epik_Charging_Adjusted_Penalty>
2.71366

> <i_epik_Tot_Q>
-1

> <i_epik_Tot_abs_Q>
1

> <r_epik_Metal_State_Penalty>
0.516364

> <b_epik_Metal_Only>
0

> <s_lp_Force_Field>
OPLS_2005

> <r_lp_Energy>
27.7019

> <b_lp_Chiralities_Consistent>
1

> <s_lp_Variant>
AV-unprocessed.smi:1550-5

> <Gold.Version>
5.8.1

> <Gold.Id.Protein>
6NUR|6NUR_protein|mol2

> <Gold.PLP.Fitness>
47.9663

> <Gold.PLP.PLP>
-45.0933

> <Gold.PLP.part.hbond>
-2.0000

> <Gold.PLP.part.metal>
0.0000

> <Gold.PLP.part.buried>
-6.4902

> <Gold.PLP.part.nonpolar>
-35.4947

> <Gold.PLP.part.repulsive>
0.0958

> <Gold.PLP.ligand.clash>
0.0000

> <Gold.PLP.ligand.torsion>
0.9198

> <Gold.PLP.Chemscore.Hbond>
1.4248

> <Gold.PLP.Chemscore.CHOScore>
0.0000

> <Gold.PLP.Chemscore.Metal>
0.0000

> <Gold.Chemscore.Hbonds>
donor molecule, donor type, donor heavy atom, donor atom, acceptor molecule, acceptor atom, score
      P1  H  7997  8008       L1    12  0.45
      P1  H  7997  8010       L1    24  0.80

> <Gold.PLP.Chemscore.Internal.Correction>
0.4382

> <Gold.Rescore>
     Score         DG    S(hbond)    S(metal)    S(lipo)     H(rot)  DE(clash)    DE(int)     intcor
     10.27     -14.95       1.00        0.00      92.42       1.82       0.94       3.75       ----

> <Gold.Chemscore.Fitness>
10.2683

> <Gold.Chemscore.DG>
-14.9512

> <Gold.Chemscore.ZeroCoef>
-5.4800

> <Gold.Chemscore.Hbond>
0.9958

> <Gold.Chemscore.Metal>
0.0000

> <Gold.Chemscore.Lipo>
92.4250

> <Gold.Chemscore.Internal_Hbond>
0.0000

> <Gold.Chemscore.DEClash>
0.9356

> <Gold.Chemscore.DEInternal>
3.7473

> <Gold.Chemscore.Rot>
1.8236

> <Gold.Chemscore.Internal.Correction>
   9.000000E+99

> <Gold.Chemscore.Hbonds>
donor molecule, donor type, donor heavy atom, donor atom, acceptor molecule, acceptor atom, score
      P1  H  7997  8008       L1    12  0.44
      P1  H  7997  8010       L1    24  0.11

> <Gold.Chemscore.Hbond.Weighted>
-3.3259

> <Gold.Chemscore.Metal.Weighted>
-0.0000

> <Gold.Chemscore.Lipo.Weighted>
-10.8137

> <Gold.Chemscore.Internal_Hbond.Weighted>
0.0000

> <Gold.Chemscore.DEClash.Weighted>
0.9356

> <Gold.Chemscore.DEInternal.Weighted>
3.7473

> <Gold.Chemscore.Rot.Weighted>
4.6684

> <Gold.Chemscore.Internal.Correction.Weighted>
   9.000000E+99

> <Gold.Protein.RotatedTorsions>
[ 6907 6896 6895 6894 ] final  -92.02 input  -60.11 | X-H torsion
[ 7974 7965 7964 7962 ] final -164.59 input  175.53 | X-H torsion
[ 8008 7997 7996 7995 ] final    5.58 input   59.86 | X-H torsion
[ 10167 10162 10161 10158 ] final  -16.45 input  -65.29 | X-H torsion
[ 10718 10713 10712 10709 ] final   93.88 input   66.30 | X-H torsion
[ 10763 10752 10751 10750 ] final   -0.27 input  -60.55 | X-H torsion
[ 11005 11000 10999 10996 ] final  126.37 input  -57.11 | X-H torsion

> <Gold.Protein.ActiveResidues>
 VAL166  LYS551  ARG553  GLY616  TRP617  ASP618  TYR619  PRO620  LYS621  CYS622 
 ASP623  PHE694  ASN695  SER759  ASP760  ASP761  ALA762  ILE779  LEU786  VAL792 
 PHE793  MET794  SER795  GLU796  ALA797  LYS798  CYS799  TRP800  GLU811  SER814 

> <Gold.Protein.RotatedAtoms>
  150.6900  134.2188  159.4387 H   0  0  0  0  0  0  0  0  0  0  0  0  # atno 6907 bound_to 6896
  152.0145  134.9855  160.0578 H   0  0  0  0  0  0  0  0  0  0  0  0  # atno 6908 bound_to 6896
  152.1457  133.4456  159.4825 H   0  0  0  0  0  0  0  0  0  0  0  0  # atno 6909 bound_to 6896
  144.7292  140.2938  143.6216 H   0  0  0  0  0  0  0  0  0  0  0  0  # atno 7974 bound_to 7965
  154.7302  140.2729  155.6463 H   0  0  0  0  0  0  0  0  0  0  0  0  # atno 8008 bound_to 7997
  156.2847  140.2717  156.1925 H   0  0  0  0  0  0  0  0  0  0  0  0  # atno 8009 bound_to 7997
  155.0392  140.0371  157.2493 H   0  0  0  0  0  0  0  0  0  0  0  0  # atno 8010 bound_to 7997
  140.7234  143.5114  150.9745 H   0  0  0  0  0  0  0  0  0  0  0  0  # atno 10167 bound_to 10162
  157.6952  131.0493  150.4102 H   0  0  0  0  0  0  0  0  0  0  0  0  # atno 10718 bound_to 10713
  153.3297  135.6974  153.6959 H   0  0  0  0  0  0  0  0  0  0  0  0  # atno 10763 bound_to 10752
  153.5766  135.3506  155.2859 H   0  0  0  0  0  0  0  0  0  0  0  0  # atno 10764 bound_to 10752
  154.8615  135.4285  154.2482 H   0  0  0  0  0  0  0  0  0  0  0  0  # atno 10765 bound_to 10752
  139.9453  134.9630  156.8696 H   0  0  0  0  0  0  0  0  0  0  0  0  # atno 11005 bound_to 11000
  145.7829  139.1898  143.2147 LP  0  0  0  0  0  0  0  0  0  0  0  0  # atno 17320 bound_to 7965
  146.0819  140.7754  142.9637 LP  0  0  0  0  0  0  0  0  0  0  0  0  # atno 17321 bound_to 7965
  139.8828  143.7050  152.3155 LP  0  0  0  0  0  0  0  0  0  0  0  0  # atno 17342 bound_to 10162
  139.7339  144.7576  151.0759 LP  0  0  0  0  0  0  0  0  0  0  0  0  # atno 17343 bound_to 10162
  156.4487  130.4007  149.6650 LP  0  0  0  0  0  0  0  0  0  0  0  0  # atno 17370 bound_to 10713
  156.3808  130.7578  151.2570 LP  0  0  0  0  0  0  0  0  0  0  0  0  # atno 17371 bound_to 10713
  140.5851  134.0315  155.7478 LP  0  0  0  0  0  0  0  0  0  0  0  0  # atno 17394 bound_to 11000
  141.1101  133.9631  157.2926 LP  0  0  0  0  0  0  0  0  0  0  0  0  # atno 17395 bound_to 11000

$$$$
