AV-unprocessed.smi:2485|AV-procd|sdf|9789|dock2
  -GOLD-   2272013423D 1   1.00000     0.00000
 Structure written by MMmdl.
 39 40  0  0  0  0  0  0  0  0  1 V2000
  143.5339  132.6561  151.0900 C   0  0  0  0  0  0  0  0  0  0  0  0
  145.0309  132.8986  150.8324 C   0  0  0  0  0  0  0  0  0  0  0  0
  145.4857  132.2130  149.5350 C   0  0  0  0  0  0  0  0  0  0  0  0
  145.3822  134.3908  150.8540 C   0  0  0  0  0  0  0  0  0  0  0  0
  145.7145  134.6456  152.3108 C   0  0  2  0  0  0  0  0  0  0  0  0
  146.5806  135.8125  152.4668 N   0  0  0  0  0  0  0  0  0  0  0  0
  146.2467  136.9427  153.1051 C   0  0  0  0  0  0  0  0  0  0  0  0
  145.1435  137.1347  153.6165 O   0  0  0  0  0  0  0  0  0  0  0  0
  147.2684  137.8161  153.1103 N   0  0  0  0  0  0  0  0  0  0  0  0
  147.3152  139.1046  153.7045 C   0  0  0  0  0  0  0  0  0  0  0  0
  148.5601  139.7637  153.6201 C   0  0  0  0  0  0  0  0  0  0  0  0
  148.6776  141.0425  154.1909 C   0  0  0  0  0  0  0  0  0  0  0  0
  147.5356  141.5782  154.8103 C   0  0  0  0  0  0  0  0  0  0  0  0
  146.3627  140.9111  154.8679 N   0  0  0  0  0  0  0  0  0  0  0  0
  146.2582  139.6941  154.3225 N   0  0  0  0  0  0  0  0  0  0  0  0
  146.3716  133.3149  152.7397 C   0  0  0  0  0  0  0  0  0  0  0  0
  147.8847  133.2289  152.4481 C   0  0  0  0  0  0  0  0  0  0  0  0
  146.0815  132.9672  154.2084 C   0  0  0  0  0  0  0  0  0  0  0  0
  145.7473  132.3238  151.9244 O   0  0  0  0  0  0  0  0  0  0  0  0
  142.9217  133.0870  150.2973 H   0  0  0  0  0  0  0  0  0  0  0  0
  143.2133  133.0982  152.0337 H   0  0  0  0  0  0  0  0  0  0  0  0
  143.3114  131.5899  151.1381 H   0  0  0  0  0  0  0  0  0  0  0  0
  144.9786  132.6352  148.6669 H   0  0  0  0  0  0  0  0  0  0  0  0
  145.2717  131.1441  149.5587 H   0  0  0  0  0  0  0  0  0  0  0  0
  146.5592  132.3277  149.3822 H   0  0  0  0  0  0  0  0  0  0  0  0
  146.2590  134.5821  150.2329 H   0  0  0  0  0  0  0  0  0  0  0  0
  144.5767  135.0265  150.4847 H   0  0  0  0  0  0  0  0  0  0  0  0
  144.7767  134.7934  152.8502 H   0  0  0  0  0  0  0  0  0  0  0  0
  147.5083  135.7426  152.0752 H   0  0  0  0  0  0  0  0  0  0  0  0
  148.1135  137.5213  152.6445 H   0  0  0  0  0  0  0  0  0  0  0  0
  149.4064  139.3025  153.1316 H   0  0  0  0  0  0  0  0  0  0  0  0
  149.6070  141.5911  154.1559 H   0  0  0  0  0  0  0  0  0  0  0  0
  147.5618  142.5562  155.2674 H   0  0  0  0  0  0  0  0  0  0  0  0
  148.4535  133.9235  153.0668 H   0  0  0  0  0  0  0  0  0  0  0  0
  148.1069  133.4521  151.4045 H   0  0  0  0  0  0  0  0  0  0  0  0
  148.2643  132.2276  152.6536 H   0  0  0  0  0  0  0  0  0  0  0  0
  146.5383  133.6901  154.8843 H   0  0  0  0  0  0  0  0  0  0  0  0
  146.4728  131.9825  154.4653 H   0  0  0  0  0  0  0  0  0  0  0  0
  145.0098  132.9558  154.4086 H   0  0  0  0  0  0  0  0  0  0  0  0
  1  2  1  0  0  0  0
  1 20  1  0  0  0  0
  1 21  1  0  0  0  0
  1 22  1  0  0  0  0
  2 19  1  0  0  0  0
  2  3  1  0  0  0  0
  2  4  1  0  0  0  0
  3 23  1  0  0  0  0
  3 24  1  0  0  0  0
  3 25  1  0  0  0  0
  4  5  1  0  0  0  0
  4 26  1  0  0  0  0
  4 27  1  0  0  0  0
  5  6  1  0  0  0  0
  5 16  1  0  0  0  0
  5 28  1  0  0  0  0
  6  7  1  0  0  0  0
  6 29  1  0  0  0  0
  7  8  2  0  0  0  0
  7  9  1  0  0  0  0
  9 10  1  0  0  0  0
  9 30  1  0  0  0  0
 10 15  1  0  0  0  0
 10 11  2  0  0  0  0
 11 12  1  0  0  0  0
 11 31  1  0  0  0  0
 12 13  2  0  0  0  0
 12 32  1  0  0  0  0
 13 14  1  0  0  0  0
 13 33  1  0  0  0  0
 14 15  2  0  0  0  0
 16 17  1  0  0  0  0
 16 18  1  0  0  0  0
 16 19  1  0  0  0  0
 17 34  1  0  0  0  0
 17 35  1  0  0  0  0
 17 36  1  0  0  0  0
 18 37  1  0  0  0  0
 18 38  1  0  0  0  0
 18 39  1  0  0  0  0
M  END
> <s_m_source_file>
AV-unprocessed.smi

> <i_m_source_file_index>
2485

> <i_lp_mmshare_version>
43012

> <i_f3d_flags>
0

> <s_epik_input>
W0NIM11DMShbQ0gzXSlbQ0gyXVtDQEhdKEMoTzEpKFtDSDNdKVtDSDNdKVtOSF1DKD1PKVtOSF1jMltjSF1bY0hdW2NIXW5uMg==

> <s_epik_cmdline>
J2VwaWtfcHl0aG9uJywgJy1waCcsICc3LjAnLCAnLXRuJywgJzgnLCAnLW1hJywgJzIwMCcsICctbWV0YWxfYmluZGluZycsICctaW1hZScsICc8aW5maWxlLm1hZT4nLCAnLW9tYWUnLCAnPG91dGZpbGUubWFlPic=

> <r_lp_tautomer_probability>
1

> <r_epik_Ionization_Penalty>
0.00480341

> <r_epik_Ionization_Penalty_Charging>
0

> <r_epik_Ionization_Penalty_Neutral>
0.00480341

> <r_epik_State_Penalty>
-0

> <r_epik_Charging_Adjusted_Penalty>
0

> <i_epik_Tot_Q>
0

> <i_epik_Tot_abs_Q>
0

> <r_epik_Metal_State_Penalty>
-0

> <b_epik_Metal_Only>
0

> <s_lp_Force_Field>
OPLS_2005

> <r_lp_Energy>
24.1207

> <b_lp_Chiralities_Consistent>
1

> <s_lp_Variant>
AV-unprocessed.smi:2485-2

> <Gold.Version>
5.8.1

> <Gold.Id.Protein>
6NUR|6NUR_protein|mol2

> <Gold.PLP.Fitness>
37.1440

> <Gold.PLP.PLP>
-28.3005

> <Gold.PLP.part.hbond>
-1.8793

> <Gold.PLP.part.metal>
0.0000

> <Gold.PLP.part.buried>
-0.5984

> <Gold.PLP.part.nonpolar>
-26.3774

> <Gold.PLP.part.repulsive>
0.7368

> <Gold.PLP.ligand.clash>
0.0000

> <Gold.PLP.ligand.torsion>
0.0478

> <Gold.PLP.Chemscore.Hbond>
1.9760

> <Gold.PLP.Chemscore.CHOScore>
1.0000

> <Gold.PLP.Chemscore.Metal>
0.0000

> <Gold.Chemscore.Hbonds>
donor molecule, donor type, donor heavy atom, donor atom, acceptor molecule, acceptor atom, score
      L1  H     6    29       P1  7948  0.96
      L1  H     9    30       P1  7948  0.96
      L1  C    13    33       P1  8028  0.98

> <Gold.PLP.Chemscore.Internal.Correction>
0.0111

> <Gold.Rescore>
     Score         DG    S(hbond)    S(metal)    S(lipo)     H(rot)  DE(clash)    DE(int)     intcor
     15.72     -17.17       1.91        0.00      67.38       1.00       0.15       1.30       ----

> <Gold.Chemscore.Fitness>
15.7203

> <Gold.Chemscore.DG>
-17.1674

> <Gold.Chemscore.ZeroCoef>
-5.4800

> <Gold.Chemscore.Hbond>
1.9052

> <Gold.Chemscore.Metal>
0.0000

> <Gold.Chemscore.Lipo>
67.3834

> <Gold.Chemscore.Internal_Hbond>
0.0000

> <Gold.Chemscore.DEClash>
0.1514

> <Gold.Chemscore.DEInternal>
1.2957

> <Gold.Chemscore.Rot>
1.0000

> <Gold.Chemscore.Internal.Correction>
   9.000000E+99

> <Gold.Chemscore.Hbonds>
donor molecule, donor type, donor heavy atom, donor atom, acceptor molecule, acceptor atom, score
      L1  H     6    29       P1  7948  0.89
      L1  H     9    30       P1  7948  0.92

> <Gold.Chemscore.Hbond.Weighted>
-6.3635

> <Gold.Chemscore.Metal.Weighted>
-0.0000

> <Gold.Chemscore.Lipo.Weighted>
-7.8839

> <Gold.Chemscore.Internal_Hbond.Weighted>
0.0000

> <Gold.Chemscore.DEClash.Weighted>
0.1514

> <Gold.Chemscore.DEInternal.Weighted>
1.2957

> <Gold.Chemscore.Rot.Weighted>
2.5600

> <Gold.Chemscore.Internal.Correction.Weighted>
   9.000000E+99

> <Gold.Protein.RotatedTorsions>
[ 6907 6896 6895 6894 ] final   18.14 input  -60.11 | X-H torsion
[ 7974 7965 7964 7962 ] final  179.79 input  175.53 | X-H torsion
[ 8008 7997 7996 7995 ] final  109.61 input   59.86 | X-H torsion
[ 10167 10162 10161 10158 ] final   82.17 input  -65.29 | X-H torsion
[ 10718 10713 10712 10709 ] final  153.93 input   66.30 | X-H torsion
[ 10763 10752 10751 10750 ] final  157.46 input  -60.55 | X-H torsion
[ 11005 11000 10999 10996 ] final  152.42 input  -57.11 | X-H torsion

> <Gold.Protein.ActiveResidues>
 VAL166  LYS551  ARG553  GLY616  TRP617  ASP618  TYR619  PRO620  LYS621  CYS622 
 ASP623  PHE694  ASN695  SER759  ASP760  ASP761  ALA762  ILE779  LEU786  VAL792 
 PHE793  MET794  SER795  GLU796  ALA797  LYS798  CYS799  TRP800  GLU811  SER814 

> <Gold.Protein.RotatedAtoms>
  151.8606  135.0525  160.0468 H   0  0  0  0  0  0  0  0  0  0  0  0  # atno 6907 bound_to 6896
  152.2666  133.5340  159.5422 H   0  0  0  0  0  0  0  0  0  0  0  0  # atno 6908 bound_to 6896
  150.7136  134.0672  159.3894 H   0  0  0  0  0  0  0  0  0  0  0  0  # atno 6909 bound_to 6896
  144.7142  140.0601  143.6433 H   0  0  0  0  0  0  0  0  0  0  0  0  # atno 7974 bound_to 7965
  156.1992  140.3054  155.9490 H   0  0  0  0  0  0  0  0  0  0  0  0  # atno 8008 bound_to 7997
  155.2995  140.0446  157.3045 H   0  0  0  0  0  0  0  0  0  0  0  0  # atno 8009 bound_to 7997
  154.5548  140.2302  155.8436 H   0  0  0  0  0  0  0  0  0  0  0  0  # atno 8010 bound_to 7997
  139.9316  144.6148  150.8340 H   0  0  0  0  0  0  0  0  0  0  0  0  # atno 10167 bound_to 10162
  157.2383  131.0754  151.1809 H   0  0  0  0  0  0  0  0  0  0  0  0  # atno 10718 bound_to 10713
  154.2006  135.2790  155.2992 H   0  0  0  0  0  0  0  0  0  0  0  0  # atno 10763 bound_to 10752
  154.5857  135.5575  153.7232 H   0  0  0  0  0  0  0  0  0  0  0  0  # atno 10764 bound_to 10752
  153.0089  135.6356  154.2145 H   0  0  0  0  0  0  0  0  0  0  0  0  # atno 10765 bound_to 10752
  140.1307  134.8804  157.2199 H   0  0  0  0  0  0  0  0  0  0  0  0  # atno 11005 bound_to 11000
  145.9871  139.2986  143.1007 LP  0  0  0  0  0  0  0  0  0  0  0  0  # atno 17320 bound_to 7965
  145.8945  140.9282  143.0535 LP  0  0  0  0  0  0  0  0  0  0  0  0  # atno 17321 bound_to 7965
  140.7636  143.3227  151.2586 LP  0  0  0  0  0  0  0  0  0  0  0  0  # atno 17342 bound_to 10162
  139.6778  143.9907  152.2791 LP  0  0  0  0  0  0  0  0  0  0  0  0  # atno 17343 bound_to 10162
  157.3406  130.7031  149.6379 LP  0  0  0  0  0  0  0  0  0  0  0  0  # atno 17370 bound_to 10713
  155.9671  130.4281  150.4773 LP  0  0  0  0  0  0  0  0  0  0  0  0  # atno 17371 bound_to 10713
  140.2846  134.3310  155.7333 LP  0  0  0  0  0  0  0  0  0  0  0  0  # atno 17394 bound_to 11000
  141.2169  133.7499  156.9415 LP  0  0  0  0  0  0  0  0  0  0  0  0  # atno 17395 bound_to 11000

$$$$
