AV-unprocessed.smi:188|AV-procd|sdf|1473|dock7
  -GOLD-   2262019293D 1   1.00000     0.00000
 Structure written by MMmdl.
 48 52  0  0  0  0  0  0  0  0  2 V2000
  150.1971  130.9476  155.6604 O   0  0  0  0  0  0  0  0  0  0  0  0
  150.1223  132.1548  155.8778 C   0  0  0  0  0  0  0  0  0  0  0  0
  150.1446  132.7886  157.0660 N   0  5  0  0  0  0  0  0  0  0  0  0
  150.0394  134.1249  156.9009 C   0  0  0  0  0  0  0  0  0  0  0  0
  150.0270  135.0218  157.7431 O   0  0  0  0  0  0  0  0  0  0  0  0
  149.9287  134.3946  155.3903 C   0  0  0  0  0  0  0  0  0  0  0  0
  148.5818  135.0397  154.9874 C   0  0  0  0  0  0  0  0  0  0  0  0
  148.5182  136.5372  155.3397 C   0  0  0  0  0  0  0  0  0  0  0  0
  149.6708  137.2553  154.7919 N   0  0  0  0  0  0  0  0  0  0  0  0
  149.6017  138.6105  154.7516 C   0  0  0  0  0  0  0  0  0  0  0  0
  148.7178  139.2218  153.9176 N   0  0  0  0  0  0  0  0  0  0  0  0
  148.6314  140.5543  153.8831 C   0  0  0  0  0  0  0  0  0  0  0  0
  149.3261  141.4534  154.5821 N   0  0  0  0  0  0  0  0  0  0  0  0
  150.2247  140.8497  155.4106 C   0  0  0  0  0  0  0  0  0  0  0  0
  150.4243  139.4473  155.5581 C   0  0  0  0  0  0  0  0  0  0  0  0
  151.4281  139.2092  156.4898 N   0  0  0  0  0  0  0  0  0  0  0  0
  151.7915  140.4004  156.8791 C   0  0  0  0  0  0  0  0  0  0  0  0
  151.1283  141.4446  156.2743 N   0  0  0  0  0  0  0  0  0  0  0  0
  151.3402  142.8634  156.5196 C   0  0  0  0  0  0  0  0  0  0  0  0
  151.2181  143.2777  158.0014 C   0  0  0  0  0  0  0  0  0  0  0  0
  149.9453  142.6882  158.6347 C   0  0  0  0  0  0  0  0  0  0  0  0
  148.8363  142.7987  157.7652 O   0  0  0  0  0  0  0  0  0  0  0  0
  152.4837  143.1083  158.8548 C   0  0  0  0  0  0  0  0  0  0  0  0
  152.4022  144.4636  159.3429 O   0  0  0  0  0  0  0  0  0  0  0  0
  151.4538  144.7653  158.2978 C   0  0  0  0  0  0  0  0  0  0  0  0
  150.9771  136.7296  155.1885 C   0  0  0  0  0  0  0  0  0  0  0  0
  151.1032  135.2355  154.8362 C   0  0  0  0  0  0  0  0  0  0  0  0
  150.0024  133.0382  154.8888 N   0  0  0  0  0  0  0  0  0  0  0  0
  148.4353  134.9255  153.9124 H   0  0  0  0  0  0  0  0  0  0  0  0
  147.7490  134.5187  155.4623 H   0  0  0  0  0  0  0  0  0  0  0  0
  147.5943  136.9584  154.9411 H   0  0  0  0  0  0  0  0  0  0  0  0
  148.4872  136.6722  156.4211 H   0  0  0  0  0  0  0  0  0  0  0  0
  147.9006  140.9568  153.1972 H   0  0  0  0  0  0  0  0  0  0  0  0
  152.5662  140.5516  157.6169 H   0  0  0  0  0  0  0  0  0  0  0  0
  152.3241  143.1251  156.1283 H   0  0  0  0  0  0  0  0  0  0  0  0
  150.6291  143.4229  155.9105 H   0  0  0  0  0  0  0  0  0  0  0  0
  150.0804  141.6433  158.9143 H   0  0  0  0  0  0  0  0  0  0  0  0
  149.6984  143.2151  159.5570 H   0  0  0  0  0  0  0  0  0  0  0  0
  148.9139  143.6072  157.2819 H   0  0  0  0  0  0  0  0  0  0  0  0
  152.3905  142.3660  159.6483 H   0  0  0  0  0  0  0  0  0  0  0  0
  153.3960  142.9490  158.2786 H   0  0  0  0  0  0  0  0  0  0  0  0
  151.9178  145.3125  157.4755 H   0  0  0  0  0  0  0  0  0  0  0  0
  150.5735  145.2920  158.6680 H   0  0  0  0  0  0  0  0  0  0  0  0
  151.7873  137.2760  154.7069 H   0  0  0  0  0  0  0  0  0  0  0  0
  151.1047  136.8798  156.2608 H   0  0  0  0  0  0  0  0  0  0  0  0
  152.0560  134.8534  155.2058 H   0  0  0  0  0  0  0  0  0  0  0  0
  151.1392  135.1330  153.7506 H   0  0  0  0  0  0  0  0  0  0  0  0
  149.9642  132.8044  153.9079 H   0  0  0  0  0  0  0  0  0  0  0  0
  1  2  2  0  0  0  0
  2 28  1  0  0  0  0
  2  3  1  0  0  0  0
  3  4  1  0  0  0  0
  4  5  2  0  0  0  0
  4  6  1  0  0  0  0
  6 27  1  0  0  0  0
  6  7  1  0  0  0  0
  6 28  1  0  0  0  0
  7  8  1  0  0  0  0
  7 29  1  0  0  0  0
  7 30  1  0  0  0  0
  8  9  1  0  0  0  0
  8 31  1  0  0  0  0
  8 32  1  0  0  0  0
  9 10  1  0  0  0  0
  9 26  1  0  0  0  0
 10 15  1  0  0  0  0
 10 11  2  0  0  0  0
 11 12  1  0  0  0  0
 12 13  2  0  0  0  0
 12 33  1  0  0  0  0
 13 14  1  0  0  0  0
 14 18  1  0  0  0  0
 14 15  2  0  0  0  0
 15 16  1  0  0  0  0
 16 17  2  0  0  0  0
 17 18  1  0  0  0  0
 17 34  1  0  0  0  0
 18 19  1  0  0  0  0
 19 20  1  0  0  0  0
 19 35  1  0  0  0  0
 19 36  1  0  0  0  0
 20 25  1  0  0  0  0
 20 21  1  0  0  0  0
 20 23  1  0  0  0  0
 21 22  1  0  0  0  0
 21 37  1  0  0  0  0
 21 38  1  0  0  0  0
 22 39  1  0  0  0  0
 23 24  1  0  0  0  0
 23 40  1  0  0  0  0
 23 41  1  0  0  0  0
 24 25  1  0  0  0  0
 25 42  1  0  0  0  0
 25 43  1  0  0  0  0
 26 27  1  0  0  0  0
 26 44  1  0  0  0  0
 26 45  1  0  0  0  0
 27 46  1  0  0  0  0
 27 47  1  0  0  0  0
 28 48  1  0  0  0  0
M  CHG  1   3  -1
M  END
> <s_m_source_file>
AV-unprocessed.smi

> <i_m_source_file_index>
188

> <i_lp_mmshare_version>
43012

> <i_f3d_flags>
0

> <s_epik_input>
Tz1DKFtOSF0xKVtOSF1DKD1PKUMxMltDSDJdW0NIMl1OKFtDSDJdW0NIMl0yKWMobltjSF1uMyljKGMzNCluW2NIXW40W0NIMl1DNShbQ0gyXVtPSF0pW0NIMl1PW0NIMl01

> <s_epik_cmdline>
J2VwaWtfcHl0aG9uJywgJy1waCcsICc3LjAnLCAnLXRuJywgJzgnLCAnLW1hJywgJzIwMCcsICctbWV0YWxfYmluZGluZycsICctaW1hZScsICc8aW5maWxlLm1hZT4nLCAnLW9tYWUnLCAnPG91dGZpbGUubWFlPic=

> <r_lp_tautomer_probability>
1

> <r_epik_Ionization_Penalty>
2.63631

> <r_epik_Ionization_Penalty_Charging>
2.63472

> <r_epik_Ionization_Penalty_Neutral>
0.0015918

> <r_epik_State_Penalty>
2.63293

> <r_epik_Charging_Adjusted_Penalty>
5.26764

> <i_epik_Tot_Q>
-1

> <i_epik_Tot_abs_Q>
1

> <r_epik_Metal_State_Penalty>
0.446503

> <b_epik_Metal_Only>
1

> <s_lp_Force_Field>
OPLS_2005

> <r_lp_Energy>
37.7824

> <b_lp_Chiralities_Consistent>
1

> <s_lp_Variant>
AV-unprocessed.smi:188-2

> <Gold.Version>
5.8.1

> <Gold.Id.Protein>
6NUR|6NUR_protein|mol2

> <Gold.PLP.Fitness>
40.0581

> <Gold.PLP.PLP>
-34.9996

> <Gold.PLP.part.hbond>
-3.3710

> <Gold.PLP.part.metal>
0.0000

> <Gold.PLP.part.buried>
-4.6380

> <Gold.PLP.part.nonpolar>
-28.2472

> <Gold.PLP.part.repulsive>
0.9862

> <Gold.PLP.ligand.clash>
0.0000

> <Gold.PLP.ligand.torsion>
0.8923

> <Gold.PLP.Chemscore.Hbond>
1.9913

> <Gold.PLP.Chemscore.CHOScore>
0.0545

> <Gold.PLP.Chemscore.Metal>
0.0000

> <Gold.Chemscore.Hbonds>
donor molecule, donor type, donor heavy atom, donor atom, acceptor molecule, acceptor atom, score
      L1  H    22    39       P1  8028  1.00
      P1  H  6896  6908       L1     5  0.82
      L1  C    12    33       P1  7957  0.04

> <Gold.PLP.Chemscore.Internal.Correction>
0.7059

> <Gold.Rescore>
     Score         DG    S(hbond)    S(metal)    S(lipo)     H(rot)  DE(clash)    DE(int)     intcor
      8.50     -12.16       1.72        0.00      70.33       2.84       1.49       2.17       ----

> <Gold.Chemscore.Fitness>
8.5027

> <Gold.Chemscore.DG>
-12.1587

> <Gold.Chemscore.ZeroCoef>
-5.4800

> <Gold.Chemscore.Hbond>
1.7165

> <Gold.Chemscore.Metal>
0.0000

> <Gold.Chemscore.Lipo>
70.3300

> <Gold.Chemscore.Internal_Hbond>
0.0000

> <Gold.Chemscore.DEClash>
1.4868

> <Gold.Chemscore.DEInternal>
2.1692

> <Gold.Chemscore.Rot>
2.8450

> <Gold.Chemscore.Internal.Correction>
   9.000000E+99

> <Gold.Chemscore.Hbonds>
donor molecule, donor type, donor heavy atom, donor atom, acceptor molecule, acceptor atom, score
      L1  H    22    39       P1  8028  0.25
      P1  H  6896  6908       L1     5  0.49

> <Gold.Chemscore.Hbond.Weighted>
-5.7332

> <Gold.Chemscore.Metal.Weighted>
-0.0000

> <Gold.Chemscore.Lipo.Weighted>
-8.2286

> <Gold.Chemscore.Internal_Hbond.Weighted>
0.0000

> <Gold.Chemscore.DEClash.Weighted>
1.4868

> <Gold.Chemscore.DEInternal.Weighted>
2.1692

> <Gold.Chemscore.Rot.Weighted>
7.2831

> <Gold.Chemscore.Internal.Correction.Weighted>
   9.000000E+99

> <Gold.Protein.RotatedTorsions>
[ 6907 6896 6895 6894 ] final  148.99 input  -60.11 | X-H torsion
[ 7974 7965 7964 7962 ] final -156.23 input  175.53 | X-H torsion
[ 8008 7997 7996 7995 ] final  -92.90 input   59.86 | X-H torsion
[ 10167 10162 10161 10158 ] final  -64.64 input  -65.29 | X-H torsion
[ 10718 10713 10712 10709 ] final   37.02 input   66.30 | X-H torsion
[ 10763 10752 10751 10750 ] final    4.30 input  -60.55 | X-H torsion
[ 11005 11000 10999 10996 ] final  -66.46 input  -57.11 | X-H torsion

> <Gold.Protein.ActiveResidues>
 VAL166  LYS551  ARG553  GLY616  TRP617  ASP618  TYR619  PRO620  LYS621  CYS622 
 ASP623  PHE694  ASN695  SER759  ASP760  ASP761  ALA762  ILE779  LEU786  VAL792 
 PHE793  MET794  SER795  GLU796  ALA797  LYS798  CYS799  TRP800  GLU811  SER814 

> <Gold.Protein.RotatedAtoms>
  152.1340  133.4424  159.4734 H   0  0  0  0  0  0  0  0  0  0  0  0  # atno 6907 bound_to 6896
  150.6880  134.2386  159.4472 H   0  0  0  0  0  0  0  0  0  0  0  0  # atno 6908 bound_to 6896
  152.0272  134.9788  160.0622 H   0  0  0  0  0  0  0  0  0  0  0  0  # atno 6909 bound_to 6896
  144.7603  140.4139  143.5981 H   0  0  0  0  0  0  0  0  0  0  0  0  # atno 7974 bound_to 7965
  154.7290  140.0504  157.0709 H   0  0  0  0  0  0  0  0  0  0  0  0  # atno 8008 bound_to 7997
  155.0327  140.3160  155.4733 H   0  0  0  0  0  0  0  0  0  0  0  0  # atno 8009 bound_to 7997
  156.2836  140.2147  156.5449 H   0  0  0  0  0  0  0  0  0  0  0  0  # atno 8010 bound_to 7997
  140.5787  143.2324  151.6389 H   0  0  0  0  0  0  0  0  0  0  0  0  # atno 10167 bound_to 10162
  157.3419  130.7552  149.6918 H   0  0  0  0  0  0  0  0  0  0  0  0  # atno 10718 bound_to 10713
  153.2729  135.6934  153.7462 H   0  0  0  0  0  0  0  0  0  0  0  0  # atno 10763 bound_to 10752
  153.6479  135.3382  155.3092 H   0  0  0  0  0  0  0  0  0  0  0  0  # atno 10764 bound_to 10752
  154.8470  135.4447  154.1757 H   0  0  0  0  0  0  0  0  0  0  0  0  # atno 10765 bound_to 10752
  141.1483  133.6700  156.6143 H   0  0  0  0  0  0  0  0  0  0  0  0  # atno 11005 bound_to 11000
  145.6642  139.1587  143.2791 LP  0  0  0  0  0  0  0  0  0  0  0  0  # atno 17320 bound_to 7965
  146.1658  140.6720  142.9256 LP  0  0  0  0  0  0  0  0  0  0  0  0  # atno 17321 bound_to 7965
  139.5157  144.3370  152.0775 LP  0  0  0  0  0  0  0  0  0  0  0  0  # atno 17342 bound_to 10162
  140.2517  144.4162  150.6219 LP  0  0  0  0  0  0  0  0  0  0  0  0  # atno 17343 bound_to 10162
  155.9709  130.4165  150.4234 LP  0  0  0  0  0  0  0  0  0  0  0  0  # atno 17370 bound_to 10713
  157.2283  131.0498  151.2507 LP  0  0  0  0  0  0  0  0  0  0  0  0  # atno 17371 bound_to 10713
  140.3590  134.7704  157.4520 LP  0  0  0  0  0  0  0  0  0  0  0  0  # atno 17394 bound_to 11000
  140.0800  134.5744  155.8551 LP  0  0  0  0  0  0  0  0  0  0  0  0  # atno 17395 bound_to 11000

$$$$
