#       Name:                AV-unprocessed.smi:2988
#       Creating user name   scv26
#       Creation time:       Fri Mar 27 16:31:26 2020


#       File generated by GOLD software.
#

@<TRIPOS>MOLECULE
AV-unprocessed.smi:2988
    42    43     1
SMALL
NO_CHARGES


@<TRIPOS>ATOM
      1 ****        -1.3485  -0.6955   2.3448 C.3            1 S1                 0.0000
      2 ****        -1.8543  -1.3736   1.0584 C.3            1 S1                 0.0000
      3 ****        -3.3954  -1.4389   1.0504 C.3            1 S1                 0.0000
      4 ****        -3.9330  -2.1191  -0.2174 C.3            1 S1                 0.0000
      5 ****        -3.4227  -1.4121  -1.4802 C.3            1 S1                 0.0000
      6 ****        -1.8885  -1.3501  -1.4956 C.3            1 S1                 0.0000
      7 ****        -1.3314  -0.6786  -0.2235 C.3            1 S1                 0.0000
      8 ****         0.1292  -0.7067  -0.2565 N.am           1 S1                 0.0000
      9 ****         0.9168   0.2576  -0.7558 C.2            1 S1                 0.0000
     10 ****         0.4825   1.2822  -1.2834 O.2            1 S1                 0.0000
     11 ****         2.4289   0.0111  -0.6598 C.3            1 S1                 0.0000
     12 ****         3.1949   1.2449  -0.4322 N.am           1 S1                 0.0000
     13 ****         3.8072   1.7486  -1.5665 N.2            1 S1                 0.0000
     14 ****         4.4909   2.8379  -1.4871 C.2            1 S1                 0.0000
     15 ****         4.6498   3.5592  -0.2437 C.2            1 S1                 0.0000
     16 ****         5.5790   5.0159  -0.1988 Cl             1 S1                 0.0000
     17 ****         4.0510   3.0531   0.8637 C.2            1 S1                 0.0000
     18 ****         4.1955   3.8596   2.3878 Cl             1 S1                 0.0000
     19 ****         3.2641   1.8131   0.8112 C.2            1 S1                 0.0000
     20 ****         2.7093   1.3188   1.7939 O.2            1 S1                 0.0000
     21 ****        -1.6673   0.3461   2.3940 H              1 S1                 0.0000
     22 ****        -0.2604  -0.7129   2.4107 H              1 S1                 0.0000
     23 ****        -1.7328  -1.2017   3.2307 H              1 S1                 0.0000
     24 ****        -1.4826  -2.3995   1.0626 H              1 S1                 0.0000
     25 ****        -3.7501  -1.9785   1.9291 H              1 S1                 0.0000
     26 ****        -3.8069  -0.4312   1.1220 H              1 S1                 0.0000
     27 ****        -3.6243  -3.1651  -0.2314 H              1 S1                 0.0000
     28 ****        -5.0233  -2.1180  -0.2061 H              1 S1                 0.0000
     29 ****        -3.7824  -1.9317  -2.3686 H              1 S1                 0.0000
     30 ****        -3.8305  -0.4016  -1.5251 H              1 S1                 0.0000
     31 ****        -1.4885  -2.3612  -1.5852 H              1 S1                 0.0000
     32 ****        -1.5558  -0.8082  -2.3817 H              1 S1                 0.0000
     33 ****        -1.6732   0.3583  -0.2031 H              1 S1                 0.0000
     34 ****         0.5749  -1.5162   0.1505 H              1 S1                 0.0000
     35 ****         2.6409  -0.7095   0.1328 H              1 S1                 0.0000
     36 ****         2.7504  -0.4704  -1.5850 H              1 S1                 0.0000
     37 ****         4.9867   3.2745  -2.3543 H              1 S1                 0.0000
     38 ****        -0.5042   1.4275  -1.3561 LP             1 S1                 0.0000
     39 ****         1.1166   1.9688  -1.6391 LP             1 S1                 0.0000
     40 ****         3.7197   1.2710  -2.4408 LP             1 S1                 0.0000
     41 ****         2.1852   0.4724   1.6991 LP             1 S1                 0.0000
     42 ****         2.7831   1.7639   2.6863 LP             1 S1                 0.0000
@<TRIPOS>BOND
    1    1    2 1     
    2    1   21 1     
    3    1   22 1     
    4    1   23 1     
    5    2    7 1     
    6    2    3 1     
    7    2   24 1     
    8    3    4 1     
    9    3   25 1     
   10    3   26 1     
   11    4    5 1     
   12    4   27 1     
   13    4   28 1     
   14    5    6 1     
   15    5   29 1     
   16    5   30 1     
   17    6    7 1     
   18    6   31 1     
   19    6   32 1     
   20    7    8 1     
   21    7   33 1     
   22    8    9 am    
   23    8   34 1     
   24    9   10 2     
   25    9   11 1     
   26   11   12 1     
   27   11   35 1     
   28   11   36 1     
   29   12   19 am    
   30   12   13 1     
   31   13   14 2     
   32   14   15 1     
   33   14   37 1     
   34   15   16 1     
   35   15   17 2     
   36   17   18 1     
   37   17   19 1     
   38   19   20 2     
   39   10   38 1     
   40   10   39 1     
   41   13   40 1     
   42   20   41 1     
   43   20   42 1     
@<TRIPOS>SUBSTRUCTURE
      1 S1             1
@<TRIPOS>SET
LONE_PAIRS      STATIC     ATOMS    <user>   **** ""
5 38 39 40 41 42
DONOR_HYDROGENS      STATIC     ATOMS    <user>   **** ""
1 34
ATOM$BLUE        STATIC     ATOMS    COLORGROUP SYSTEM
5 38 39 40 41 42
ATOM$RED        STATIC     ATOMS    COLORGROUP SYSTEM
1 34
