#       Name:                AV-unprocessed.smi:310
#       Creating user name   scv26
#       Creation time:       Thu Mar 26 22:19:36 2020


#       File generated by GOLD software.
#

@<TRIPOS>MOLECULE
AV-unprocessed.smi:310
    48    50     1
SMALL
NO_CHARGES


@<TRIPOS>ATOM
      1 ****        -7.6549  -2.7237   0.3994 C.3            1 S1                 0.0000
      2 ****        -6.4015  -1.9537   0.1602 C.2            1 S1                 0.0000
      3 ****        -5.0773  -2.2741   0.2671 C.2            1 S1                 0.0000
      4 ****        -4.4252  -1.0711  -0.1136 C.2            1 S1                 0.0000
      5 ****        -3.0096  -0.9865  -0.1363 N.am           1 S1                 0.0000
      6 ****        -2.2569   0.0709  -0.4858 C.2            1 S1                 0.0000
      7 ****        -2.6937   1.1653  -0.8428 O.2            1 S1                 0.0000
      8 ****        -0.9488  -0.2123  -0.3983 N.am           1 S1                 0.0000
      9 ****         0.1364   0.7105  -0.7184 C.3            1 S1                 0.0000
     10 ****         1.3888  -0.0887  -1.1394 C.3            1 S1                 0.0000
     11 ****         2.6052   0.8387  -1.3035 C.3            1 S1                 0.0000
     12 ****         2.8231   1.5570  -0.0404 N.am           1 S1                 0.0000
     13 ****         3.8526   1.3634   0.8218 C.2            1 S1                 0.0000
     14 ****         3.9984   2.0531   1.8322 O.2            1 S1                 0.0000
     15 ****         4.8041   0.2466   0.5121 C.3            1 S1                 0.0000
     16 ****         6.0432   0.0910   1.3760 C.3            1 S1                 0.0000
     17 ****         6.1660   0.6359  -0.0232 C.3            1 S1                 0.0000
     18 ****         1.7112   2.4718   0.2462 C.3            1 S1                 0.0000
     19 ****         0.4351   1.6415   0.4803 C.3            1 S1                 0.0000
     20 ****        -5.2744  -0.1036  -0.4241 N.2            1 S1                 0.0000
     21 ****        -6.5453  -0.6643  -0.2498 O.3            1 S1                 0.0000
     22 ****        -7.4337  -3.7612   0.6507 H              1 S1                 0.0000
     23 ****        -8.2870  -2.7186  -0.4888 H              1 S1                 0.0000
     24 ****        -8.2232  -2.2901   1.2224 H              1 S1                 0.0000
     25 ****        -4.6477  -3.2179   0.5683 H              1 S1                 0.0000
     26 ****        -2.5170  -1.8235   0.1376 H              1 S1                 0.0000
     27 ****        -0.6818  -1.1368  -0.0934 H              1 S1                 0.0000
     28 ****        -0.1586   1.3295  -1.5681 H              1 S1                 0.0000
     29 ****         1.6166  -0.8489  -0.3904 H              1 S1                 0.0000
     30 ****         1.1969  -0.6201  -2.0721 H              1 S1                 0.0000
     31 ****         3.4727   0.2763  -1.6459 H              1 S1                 0.0000
     32 ****         2.4106   1.5629  -2.0959 H              1 S1                 0.0000
     33 ****         4.3666  -0.6839   0.1551 H              1 S1                 0.0000
     34 ****         6.2142   0.7874   2.1948 H              1 S1                 0.0000
     35 ****         6.3905  -0.9236   1.5597 H              1 S1                 0.0000
     36 ****         6.5974  -0.0066  -0.7879 H              1 S1                 0.0000
     37 ****         6.3930   1.6956  -0.1293 H              1 S1                 0.0000
     38 ****         1.8968   3.1104   1.1107 H              1 S1                 0.0000
     39 ****         1.5699   3.1494  -0.5971 H              1 S1                 0.0000
     40 ****        -0.4106   2.3060   0.6610 H              1 S1                 0.0000
     41 ****         0.5595   1.0475   1.3871 H              1 S1                 0.0000
     42 ****        -3.6808   1.3187  -0.8892 LP             1 S1                 0.0000
     43 ****        -2.0614   1.9007  -1.0863 LP             1 S1                 0.0000
     44 ****         3.3462   2.7827   2.0380 LP             1 S1                 0.0000
     45 ****         4.7689   1.8832   2.4466 LP             1 S1                 0.0000
     46 ****        -5.0553   0.8263  -0.7192 LP             1 S1                 0.0000
     47 ****        -7.0498  -0.1461   0.4408 LP             1 S1                 0.0000
     48 ****        -7.0452  -0.6404  -1.1155 LP             1 S1                 0.0000
@<TRIPOS>BOND
    1    1    2 1     
    2    1   22 1     
    3    1   23 1     
    4    1   24 1     
    5    2   21 1     
    6    2    3 2     
    7    3    4 1     
    8    3   25 1     
    9    4    5 1     
   10    4   20 2     
   11    5    6 am    
   12    5   26 1     
   13    6    7 2     
   14    6    8 am    
   15    8    9 1     
   16    8   27 1     
   17    9   19 1     
   18    9   10 1     
   19    9   28 1     
   20   10   11 1     
   21   10   29 1     
   22   10   30 1     
   23   11   12 1     
   24   11   31 1     
   25   11   32 1     
   26   12   13 am    
   27   12   18 1     
   28   13   14 2     
   29   13   15 1     
   30   15   17 1     
   31   15   16 1     
   32   15   33 1     
   33   16   17 1     
   34   16   34 1     
   35   16   35 1     
   36   17   36 1     
   37   17   37 1     
   38   18   19 1     
   39   18   38 1     
   40   18   39 1     
   41   19   40 1     
   42   19   41 1     
   43   20   21 1     
   44    7   42 1     
   45    7   43 1     
   46   14   44 1     
   47   14   45 1     
   48   20   46 1     
   49   21   47 1     
   50   21   48 1     
@<TRIPOS>SUBSTRUCTURE
      1 S1             1
@<TRIPOS>SET
LONE_PAIRS      STATIC     ATOMS    <user>   **** ""
7 42 43 44 45 46 47 48
DONOR_HYDROGENS      STATIC     ATOMS    <user>   **** ""
2 26 27
ATOM$BLUE        STATIC     ATOMS    COLORGROUP SYSTEM
7 42 43 44 45 46 47 48
ATOM$RED        STATIC     ATOMS    COLORGROUP SYSTEM
2 26 27
