AV-unprocessed.smi:101|AV-procd|sdf|932|dock3
  -GOLD-   2262017443D 1   1.00000     0.00000
 Structure written by MMmdl.
 43 45  0  0  0  0  0  0  0  0  2 V2000
  144.7789  141.7532  158.3518 C   0  0  0  0  0  0  0  0  0  0  0  0
  145.0688  142.3257  156.9753 C   0  0  0  0  0  0  0  0  0  0  0  0
  146.0823  141.8723  156.2043 C   0  0  0  0  0  0  0  0  0  0  0  0
  146.3416  142.3976  154.9495 N   0  0  0  0  0  0  0  0  0  0  0  0
  147.4820  141.8825  154.0904 C   0  0  1  0  0  0  0  0  0  0  0  0
  148.6256  141.7152  154.8804 O   0  0  0  0  0  0  0  0  0  0  0  0
  148.9074  140.3299  155.0430 C   0  0  2  0  0  0  0  0  0  0  0  0
  150.3975  140.1505  155.3580 C   0  0  0  0  0  0  0  0  0  0  0  0
  150.7570  140.9770  156.4529 O   0  0  0  0  0  0  0  0  0  0  0  0
  151.7656  140.6158  157.2686 C   0  0  0  0  0  0  0  0  0  0  0  0
  152.4280  139.5868  157.1198 O   0  0  0  0  0  0  0  0  0  0  0  0
  151.9977  141.5926  158.3717 C   0  0  0  0  0  0  0  0  0  0  0  0
  152.7029  141.1796  159.5264 C   0  0  0  0  0  0  0  0  0  0  0  0
  152.9349  142.0787  160.5854 C   0  0  0  0  0  0  0  0  0  0  0  0
  152.4631  143.4016  160.5037 C   0  0  0  0  0  0  0  0  0  0  0  0
  151.7593  143.8247  159.3610 C   0  0  0  0  0  0  0  0  0  0  0  0
  151.5275  142.9273  158.3001 C   0  0  0  0  0  0  0  0  0  0  0  0
  148.4625  139.7463  153.7031 C   0  0  1  0  0  0  0  0  0  0  0  0
  148.2767  138.3434  153.7300 O   0  0  0  0  0  0  0  0  0  0  0  0
  147.1760  140.5172  153.4264 C   0  0  1  0  0  0  0  0  0  0  0  0
  146.0406  139.8620  153.9738 O   0  0  0  0  0  0  0  0  0  0  0  0
  145.5213  143.4389  154.4430 C   0  0  0  0  0  0  0  0  0  0  0  0
  145.7675  143.8687  153.3156 O   0  0  0  0  0  0  0  0  0  0  0  0
  144.4987  143.9050  155.2146 N   0  5  0  0  0  0  0  0  0  0  0  0
  144.2244  143.4075  156.4546 C   0  0  0  0  0  0  0  0  0  0  0  0
  143.2969  143.8364  157.1403 O   0  0  0  0  0  0  0  0  0  0  0  0
  145.4891  140.9681  158.6129 H   0  0  0  0  0  0  0  0  0  0  0  0
  143.7764  141.3256  158.3828 H   0  0  0  0  0  0  0  0  0  0  0  0
  144.8442  142.5339  159.1105 H   0  0  0  0  0  0  0  0  0  0  0  0
  146.6996  141.0755  156.5891 H   0  0  0  0  0  0  0  0  0  0  0  0
  147.6933  142.6767  153.3723 H   0  0  0  0  0  0  0  0  0  0  0  0
  148.2923  139.9400  155.8559 H   0  0  0  0  0  0  0  0  0  0  0  0
  150.6150  139.1050  155.5814 H   0  0  0  0  0  0  0  0  0  0  0  0
  150.9947  140.4309  154.4892 H   0  0  0  0  0  0  0  0  0  0  0  0
  153.0744  140.1684  159.6121 H   0  0  0  0  0  0  0  0  0  0  0  0
  153.4755  141.7521  161.4617 H   0  0  0  0  0  0  0  0  0  0  0  0
  152.6403  144.0907  161.3165 H   0  0  0  0  0  0  0  0  0  0  0  0
  151.3952  144.8395  159.2975 H   0  0  0  0  0  0  0  0  0  0  0  0
  150.9817  143.2839  157.4386 H   0  0  0  0  0  0  0  0  0  0  0  0
  149.2010  139.9912  152.9383 H   0  0  0  0  0  0  0  0  0  0  0  0
  148.5504  137.9957  152.8945 H   0  0  0  0  0  0  0  0  0  0  0  0
  147.0129  140.6578  152.3573 H   0  0  0  0  0  0  0  0  0  0  0  0
  145.2810  140.1207  153.4733 H   0  0  0  0  0  0  0  0  0  0  0  0
  1  2  1  0  0  0  0
  1 27  1  0  0  0  0
  1 28  1  0  0  0  0
  1 29  1  0  0  0  0
  2 25  1  0  0  0  0
  2  3  2  0  0  0  0
  3  4  1  0  0  0  0
  3 30  1  0  0  0  0
  4  5  1  0  0  0  0
  4 22  1  0  0  0  0
  5 20  1  0  0  0  0
  5  6  1  0  0  0  0
  5 31  1  0  0  0  0
  6  7  1  0  0  0  0
  7  8  1  0  0  0  0
  7 18  1  0  0  0  0
  7 32  1  0  0  0  0
  8  9  1  0  0  0  0
  8 33  1  0  0  0  0
  8 34  1  0  0  0  0
  9 10  1  0  0  0  0
 10 11  2  0  0  0  0
 10 12  1  0  0  0  0
 12 17  1  0  0  0  0
 12 13  2  0  0  0  0
 13 14  1  0  0  0  0
 13 35  1  0  0  0  0
 14 15  2  0  0  0  0
 14 36  1  0  0  0  0
 15 16  1  0  0  0  0
 15 37  1  0  0  0  0
 16 17  2  0  0  0  0
 16 38  1  0  0  0  0
 17 39  1  0  0  0  0
 18 19  1  0  0  0  0
 18 20  1  0  0  0  0
 18 40  1  0  0  0  0
 19 41  1  0  0  0  0
 20 21  1  0  0  0  0
 20 42  1  0  0  0  0
 21 43  1  0  0  0  0
 22 23  2  0  0  0  0
 22 24  1  0  0  0  0
 24 25  1  0  0  0  0
 25 26  2  0  0  0  0
M  CHG  1  24  -1
M  END
> <s_m_source_file>
AV-unprocessed.smi

> <i_m_source_file_index>
101

> <i_lp_mmshare_version>
43012

> <i_f3d_flags>
0

> <s_epik_input>
Tz1jMVtuSF1jKD1PKW4oW2NIXWMxW0NIM10pW0NAQEhdMk9bQ0BIXShbQ0BASF0oW09IXSlbQ0BIXTJbT0hdKVtDSDJdT0MoPU8pYzNbY0hdW2NIXVtjSF1bY0hdW2NIXTM=

> <s_epik_cmdline>
J2VwaWtfcHl0aG9uJywgJy1waCcsICc3LjAnLCAnLXRuJywgJzgnLCAnLW1hJywgJzIwMCcsICctbWV0YWxfYmluZGluZycsICctaW1hZScsICc8aW5maWxlLm1hZT4nLCAnLW9tYWUnLCAnPG91dGZpbGUubWFlPic=

> <r_lp_tautomer_probability>
0.999537

> <r_epik_Ionization_Penalty>
3.21006

> <r_epik_Ionization_Penalty_Charging>
5.75142e-08

> <r_epik_Ionization_Penalty_Neutral>
3.21006

> <r_epik_State_Penalty>
3.20925

> <r_epik_Charging_Adjusted_Penalty>
3.20925

> <i_epik_Tot_Q>
-1

> <i_epik_Tot_abs_Q>
1

> <r_epik_Metal_State_Penalty>
0.119957

> <b_epik_Metal_Only>
1

> <s_epik_Chemistry_Notes>
This compound has an ester and may undergo hydrolysis at high or low pH. This compound contains an acetal/aminal-like group ( X-CH(R)-Y where X, Y are N, S, or O) that may be acid/base labile, releasing an aldehyde.

> <s_lp_Force_Field>
OPLS_2005

> <r_lp_Energy>
48.7646

> <b_lp_Chiralities_Consistent>
1

> <s_lp_Variant>
AV-unprocessed.smi:101-20

> <Gold.Version>
5.8.1

> <Gold.Id.Protein>
6NUR|6NUR_protein|mol2

> <Gold.PLP.Fitness>
52.0657

> <Gold.PLP.PLP>
-44.6233

> <Gold.PLP.part.hbond>
-3.6505

> <Gold.PLP.part.metal>
0.0000

> <Gold.PLP.part.buried>
-3.6116

> <Gold.PLP.part.nonpolar>
-38.2908

> <Gold.PLP.part.repulsive>
0.7870

> <Gold.PLP.ligand.clash>
0.0000

> <Gold.PLP.ligand.torsion>
0.8328

> <Gold.PLP.Chemscore.Hbond>
2.9920

> <Gold.PLP.Chemscore.CHOScore>
0.0000

> <Gold.PLP.Chemscore.Metal>
0.0000

> <Gold.Chemscore.Hbonds>
donor molecule, donor type, donor heavy atom, donor atom, acceptor molecule, acceptor atom, score
      L1  H    19    41       P1  7948  0.83
      L1  H    21    43       P1 10175  1.00
      P1  H  7997  8009       L1    11  0.91

> <Gold.PLP.Chemscore.Internal.Correction>
0.1320

> <Gold.Rescore>
     Score         DG    S(hbond)    S(metal)    S(lipo)     H(rot)  DE(clash)    DE(int)     intcor
     14.60     -17.68       2.80        0.00      95.90       3.27       1.33       1.76       ----

> <Gold.Chemscore.Fitness>
14.5960

> <Gold.Chemscore.DG>
-17.6837

> <Gold.Chemscore.ZeroCoef>
-5.4800

> <Gold.Chemscore.Hbond>
2.7975

> <Gold.Chemscore.Metal>
0.0000

> <Gold.Chemscore.Lipo>
95.8957

> <Gold.Chemscore.Internal_Hbond>
0.0000

> <Gold.Chemscore.DEClash>
1.3259

> <Gold.Chemscore.DEInternal>
1.7618

> <Gold.Chemscore.Rot>
3.2656

> <Gold.Chemscore.Internal.Correction>
   9.000000E+99

> <Gold.Chemscore.Hbonds>
donor molecule, donor type, donor heavy atom, donor atom, acceptor molecule, acceptor atom, score
      L1  H    19    41       P1  7948  0.78
      L1  H    21    43       P1 10175  1.00
      P1  H  7997  8009       L1    11  0.62

> <Gold.Chemscore.Hbond.Weighted>
-9.3437

> <Gold.Chemscore.Metal.Weighted>
-0.0000

> <Gold.Chemscore.Lipo.Weighted>
-11.2198

> <Gold.Chemscore.Internal_Hbond.Weighted>
0.0000

> <Gold.Chemscore.DEClash.Weighted>
1.3259

> <Gold.Chemscore.DEInternal.Weighted>
1.7618

> <Gold.Chemscore.Rot.Weighted>
8.3598

> <Gold.Chemscore.Internal.Correction.Weighted>
   9.000000E+99

> <Gold.Protein.RotatedTorsions>
[ 6907 6896 6895 6894 ] final -152.27 input  -60.11 | X-H torsion
[ 7974 7965 7964 7962 ] final  143.54 input  175.53 | X-H torsion
[ 8008 7997 7996 7995 ] final -178.22 input   59.86 | X-H torsion
[ 10167 10162 10161 10158 ] final   34.76 input  -65.29 | X-H torsion
[ 10718 10713 10712 10709 ] final   36.12 input   66.30 | X-H torsion
[ 10763 10752 10751 10750 ] final   82.16 input  -60.55 | X-H torsion
[ 11005 11000 10999 10996 ] final  -38.34 input  -57.11 | X-H torsion

> <Gold.Protein.ActiveResidues>
 VAL166  LYS551  ARG553  GLY616  TRP617  ASP618  TYR619  PRO620  LYS621  CYS622 
 ASP623  PHE694  ASN695  SER759  ASP760  ASP761  ALA762  ILE779  LEU786  VAL792 
 PHE793  MET794  SER795  GLU796  ALA797  LYS798  CYS799  TRP800  GLU811  SER814 

> <Gold.Protein.RotatedAtoms>
  151.2253  133.4479  159.2601 H   0  0  0  0  0  0  0  0  0  0  0  0  # atno 6907 bound_to 6896
  151.0845  134.9879  159.8383 H   0  0  0  0  0  0  0  0  0  0  0  0  # atno 6908 bound_to 6896
  152.5428  134.2191  159.8833 H   0  0  0  0  0  0  0  0  0  0  0  0  # atno 6909 bound_to 6896
  144.8912  139.5556  143.5798 H   0  0  0  0  0  0  0  0  0  0  0  0  # atno 7974 bound_to 7965
  156.0163  140.1251  157.0403 H   0  0  0  0  0  0  0  0  0  0  0  0  # atno 8008 bound_to 7997
  154.4294  140.1078  156.5970 H   0  0  0  0  0  0  0  0  0  0  0  0  # atno 8009 bound_to 7997
  155.6009  140.3470  155.4596 H   0  0  0  0  0  0  0  0  0  0  0  0  # atno 8010 bound_to 7997
  140.4285  144.1359  150.6156 H   0  0  0  0  0  0  0  0  0  0  0  0  # atno 10167 bound_to 10162
  157.3310  130.7497  149.6847 H   0  0  0  0  0  0  0  0  0  0  0  0  # atno 10718 bound_to 10713
  153.1179  135.4738  154.9146 H   0  0  0  0  0  0  0  0  0  0  0  0  # atno 10763 bound_to 10752
  154.7547  135.3115  154.8495 H   0  0  0  0  0  0  0  0  0  0  0  0  # atno 10764 bound_to 10752
  153.9067  135.6869  153.4806 H   0  0  0  0  0  0  0  0  0  0  0  0  # atno 10765 bound_to 10752
  141.0020  133.6950  156.2041 H   0  0  0  0  0  0  0  0  0  0  0  0  # atno 11005 bound_to 11000
  146.3054  139.7564  142.9060 LP  0  0  0  0  0  0  0  0  0  0  0  0  # atno 17320 bound_to 7965
  145.3780  141.0354  143.3193 LP  0  0  0  0  0  0  0  0  0  0  0  0  # atno 17321 bound_to 7965
  140.4454  143.2509  151.9418 LP  0  0  0  0  0  0  0  0  0  0  0  0  # atno 17342 bound_to 10162
  139.4784  144.5614  151.8233 LP  0  0  0  0  0  0  0  0  0  0  0  0  # atno 17343 bound_to 10162
  155.9696  130.4195  150.4379 LP  0  0  0  0  0  0  0  0  0  0  0  0  # atno 17370 bound_to 10713
  157.2411  131.0525  151.2436 LP  0  0  0  0  0  0  0  0  0  0  0  0  # atno 17371 bound_to 10713
  140.6873  134.4703  157.5589 LP  0  0  0  0  0  0  0  0  0  0  0  0  # atno 17394 bound_to 11000
  139.9044  134.8483  156.1766 LP  0  0  0  0  0  0  0  0  0  0  0  0  # atno 17395 bound_to 11000

$$$$
