AV-unprocessed.smi:1362|AV-procd|sdf|5563|dock10
  -GOLD-   22720 5153D 1   1.00000     0.00000
 Structure written by MMmdl.
 38 38  0  0  0  0  0  0  0  0  2 V2000
  153.3910  142.9844  163.4685 C   0  0  0  0  0  0  0  0  0  0  0  0
  152.9395  143.0479  162.0251 C   0  0  0  0  0  0  0  0  0  0  0  0
  152.3683  144.1077  161.5950 N   0  0  0  0  0  0  0  0  0  0  0  0
  151.9466  144.1710  160.2559 C   0  0  0  0  0  0  0  0  0  0  0  0
  151.2738  145.4653  159.8318 C   0  0  0  0  0  0  0  0  0  0  0  0
  152.1384  143.1221  159.4053 C   0  0  0  0  0  0  0  0  0  0  0  0
  151.6938  143.1419  157.9430 C   0  0  0  0  0  0  0  0  0  0  0  0
  150.6186  142.1237  157.5557 C   0  0  0  0  0  0  0  0  0  0  0  0
  150.7762  140.9256  157.7921 O   0  0  0  0  0  0  0  0  0  0  0  0
  149.5268  142.6198  156.9534 N   0  0  0  0  0  0  0  0  0  0  0  0
  148.3928  141.8376  156.4633 C   0  0  1  0  0  0  0  0  0  0  0  0
  147.0902  142.4491  157.0140 C   0  0  0  0  0  0  0  0  0  0  0  0
  148.4294  141.7610  154.9137 C   0  0  0  0  0  0  0  0  0  0  0  0
  147.0217  141.7867  154.2908 C   0  0  0  0  0  0  0  0  0  0  0  0
  149.1901  140.5189  154.4080 C   0  0  0  0  0  0  0  0  0  0  0  0
  152.8059  141.9213  159.9390 C   0  0  0  0  0  0  0  0  0  0  0  0
  153.0168  140.9520  159.2110 O   0  0  0  0  0  0  0  0  0  0  0  0
  153.1757  141.9338  161.2514 N   0  5  0  0  0  0  0  0  0  0  0  0
  153.3701  143.9727  163.9298 H   0  0  0  0  0  0  0  0  0  0  0  0
  154.4098  142.6009  163.5336 H   0  0  0  0  0  0  0  0  0  0  0  0
  152.7357  142.3250  164.0381 H   0  0  0  0  0  0  0  0  0  0  0  0
  150.2401  145.2810  159.5393 H   0  0  0  0  0  0  0  0  0  0  0  0
  151.7995  145.9146  158.9889 H   0  0  0  0  0  0  0  0  0  0  0  0
  151.2673  146.1913  160.6458 H   0  0  0  0  0  0  0  0  0  0  0  0
  151.3421  144.1334  157.6572 H   0  0  0  0  0  0  0  0  0  0  0  0
  152.5731  142.9720  157.3209 H   0  0  0  0  0  0  0  0  0  0  0  0
  149.4871  143.6173  156.8034 H   0  0  0  0  0  0  0  0  0  0  0  0
  148.4800  140.8197  156.8487 H   0  0  0  0  0  0  0  0  0  0  0  0
  146.2228  141.8336  156.7778 H   0  0  0  0  0  0  0  0  0  0  0  0
  146.9166  143.4462  156.6081 H   0  0  0  0  0  0  0  0  0  0  0  0
  147.1248  142.5361  158.1004 H   0  0  0  0  0  0  0  0  0  0  0  0
  148.9637  142.6379  154.5450 H   0  0  0  0  0  0  0  0  0  0  0  0
  146.4054  140.9711  154.6705 H   0  0  0  0  0  0  0  0  0  0  0  0
  147.0713  141.6859  153.2062 H   0  0  0  0  0  0  0  0  0  0  0  0
  146.5034  142.7230  154.4951 H   0  0  0  0  0  0  0  0  0  0  0  0
  148.7322  139.5999  154.7751 H   0  0  0  0  0  0  0  0  0  0  0  0
  150.2330  140.5199  154.7250 H   0  0  0  0  0  0  0  0  0  0  0  0
  149.1909  140.4764  153.3185 H   0  0  0  0  0  0  0  0  0  0  0  0
  1  2  1  0  0  0  0
  1 19  1  0  0  0  0
  1 20  1  0  0  0  0
  1 21  1  0  0  0  0
  2 18  1  0  0  0  0
  2  3  2  0  0  0  0
  3  4  1  0  0  0  0
  4  5  1  0  0  0  0
  4  6  2  0  0  0  0
  5 22  1  0  0  0  0
  5 23  1  0  0  0  0
  5 24  1  0  0  0  0
  6  7  1  0  0  0  0
  6 16  1  0  0  0  0
  7  8  1  0  0  0  0
  7 25  1  0  0  0  0
  7 26  1  0  0  0  0
  8  9  2  0  0  0  0
  8 10  1  0  0  0  0
 10 11  1  0  0  0  0
 10 27  1  0  0  0  0
 11 12  1  0  0  0  0
 11 13  1  0  0  0  0
 11 28  1  0  0  0  0
 12 29  1  0  0  0  0
 12 30  1  0  0  0  0
 12 31  1  0  0  0  0
 13 14  1  0  0  0  0
 13 15  1  0  0  0  0
 13 32  1  0  0  0  0
 14 33  1  0  0  0  0
 14 34  1  0  0  0  0
 14 35  1  0  0  0  0
 15 36  1  0  0  0  0
 15 37  1  0  0  0  0
 15 38  1  0  0  0  0
 16 17  2  0  0  0  0
 16 18  1  0  0  0  0
M  CHG  1  18  -1
M  END
> <s_m_source_file>
AV-unprocessed.smi

> <i_m_source_file_index>
1362

> <i_lp_mmshare_version>
43012

> <i_f3d_flags>
0

> <s_epik_input>
W0NIM11jMW5jKFtDSDNdKWMoYyg9TylbbkhdMSlbQ0gyXUMoPU8pW05IXVtDQEhdKFtDSDNdKVtDSF0oW0NIM10pW0NIM10=

> <s_epik_cmdline>
J2VwaWtfcHl0aG9uJywgJy1waCcsICc3LjAnLCAnLXRuJywgJzgnLCAnLW1hJywgJzIwMCcsICctbWV0YWxfYmluZGluZycsICctaW1hZScsICc8aW5maWxlLm1hZT4nLCAnLW9tYWUnLCAnPG91dGZpbGUubWFlPic=

> <r_lp_tautomer_probability>
0.839158

> <r_epik_Ionization_Penalty>
6.62204

> <r_epik_Ionization_Penalty_Charging>
7.30593e-08

> <r_epik_Ionization_Penalty_Neutral>
6.62204

> <r_epik_State_Penalty>
4.44062

> <r_epik_Charging_Adjusted_Penalty>
4.44062

> <i_epik_Tot_Q>
-1

> <i_epik_Tot_abs_Q>
1

> <r_epik_Metal_State_Penalty>
0.802984

> <b_epik_Metal_Only>
1

> <s_lp_Force_Field>
OPLS_2005

> <r_lp_Energy>
10.9313

> <b_lp_Chiralities_Consistent>
1

> <s_lp_Variant>
AV-unprocessed.smi:1362-6

> <Gold.Version>
5.8.1

> <Gold.Id.Protein>
6NUR|6NUR_protein|mol2

> <Gold.PLP.Fitness>
41.3450

> <Gold.PLP.PLP>
-40.8102

> <Gold.PLP.part.hbond>
-1.0000

> <Gold.PLP.part.metal>
0.0000

> <Gold.PLP.part.buried>
-4.6537

> <Gold.PLP.part.nonpolar>
-34.2464

> <Gold.PLP.part.repulsive>
0.1808

> <Gold.PLP.ligand.clash>
0.0000

> <Gold.PLP.ligand.torsion>
1.1124

> <Gold.PLP.Chemscore.Hbond>
0.9120

> <Gold.PLP.Chemscore.CHOScore>
0.0000

> <Gold.PLP.Chemscore.Metal>
0.0000

> <Gold.Chemscore.Hbonds>
donor molecule, donor type, donor heavy atom, donor atom, acceptor molecule, acceptor atom, score
      L1  H    10    27       P1  8028  0.80

> <Gold.PLP.Chemscore.Internal.Correction>
0.0236

> <Gold.Rescore>
     Score         DG    S(hbond)    S(metal)    S(lipo)     H(rot)  DE(clash)    DE(int)     intcor
     11.77     -14.48       0.93        0.00      86.23       1.64       0.03       2.67       ----

> <Gold.Chemscore.Fitness>
11.7737

> <Gold.Chemscore.DG>
-14.4777

> <Gold.Chemscore.ZeroCoef>
-5.4800

> <Gold.Chemscore.Hbond>
0.9330

> <Gold.Chemscore.Metal>
0.0000

> <Gold.Chemscore.Lipo>
86.2265

> <Gold.Chemscore.Internal_Hbond>
0.0000

> <Gold.Chemscore.DEClash>
0.0299

> <Gold.Chemscore.DEInternal>
2.6741

> <Gold.Chemscore.Rot>
1.6433

> <Gold.Chemscore.Internal.Correction>
   9.000000E+99

> <Gold.Chemscore.Hbonds>
donor molecule, donor type, donor heavy atom, donor atom, acceptor molecule, acceptor atom, score
      L1  H    10    27       P1  8028  0.77

> <Gold.Chemscore.Hbond.Weighted>
-3.1162

> <Gold.Chemscore.Metal.Weighted>
-0.0000

> <Gold.Chemscore.Lipo.Weighted>
-10.0885

> <Gold.Chemscore.Internal_Hbond.Weighted>
0.0000

> <Gold.Chemscore.DEClash.Weighted>
0.0299

> <Gold.Chemscore.DEInternal.Weighted>
2.6741

> <Gold.Chemscore.Rot.Weighted>
4.2069

> <Gold.Chemscore.Internal.Correction.Weighted>
   9.000000E+99

> <Gold.Protein.RotatedTorsions>
[ 6907 6896 6895 6894 ] final -174.64 input  -60.11 | X-H torsion
[ 7974 7965 7964 7962 ] final   79.14 input  175.53 | X-H torsion
[ 8008 7997 7996 7995 ] final   35.41 input   59.86 | X-H torsion
[ 10167 10162 10161 10158 ] final  138.69 input  -65.29 | X-H torsion
[ 10718 10713 10712 10709 ] final -139.56 input   66.30 | X-H torsion
[ 10763 10752 10751 10750 ] final   67.86 input  -60.55 | X-H torsion
[ 11005 11000 10999 10996 ] final   -1.17 input  -57.11 | X-H torsion

> <Gold.Protein.ActiveResidues>
 VAL166  LYS551  ARG553  GLY616  TRP617  ASP618  TYR619  PRO620  LYS621  CYS622 
 ASP623  PHE694  ASN695  SER759  ASP760  ASP761  ALA762  ILE779  LEU786  VAL792 
 PHE793  MET794  SER795  GLU796  ALA797  LYS798  CYS799  TRP800  GLU811  SER814 

> <Gold.Protein.RotatedAtoms>
  151.5756  133.3384  159.2997 H   0  0  0  0  0  0  0  0  0  0  0  0  # atno 6907 bound_to 6896
  150.8343  134.7612  159.6891 H   0  0  0  0  0  0  0  0  0  0  0  0  # atno 6908 bound_to 6896
  152.4421  134.5575  159.9936 H   0  0  0  0  0  0  0  0  0  0  0  0  # atno 6909 bound_to 6896
  145.6680  139.2489  143.1884 H   0  0  0  0  0  0  0  0  0  0  0  0  # atno 7974 bound_to 7965
  155.1706  140.3291  155.4393 H   0  0  0  0  0  0  0  0  0  0  0  0  # atno 8008 bound_to 7997
  156.2511  140.1944  156.6759 H   0  0  0  0  0  0  0  0  0  0  0  0  # atno 8009 bound_to 7997
  154.6340  140.0579  156.9753 H   0  0  0  0  0  0  0  0  0  0  0  0  # atno 8010 bound_to 7997
  139.5102  144.6339  151.5748 H   0  0  0  0  0  0  0  0  0  0  0  0  # atno 10167 bound_to 10162
  156.3121  130.7488  151.1566 H   0  0  0  0  0  0  0  0  0  0  0  0  # atno 10718 bound_to 10713
  153.0206  135.5268  154.7044 H   0  0  0  0  0  0  0  0  0  0  0  0  # atno 10763 bound_to 10752
  154.6144  135.2882  155.0398 H   0  0  0  0  0  0  0  0  0  0  0  0  # atno 10764 bound_to 10752
  154.1408  135.6578  153.4994 H   0  0  0  0  0  0  0  0  0  0  0  0  # atno 10765 bound_to 10752
  140.6444  133.9461  155.8344 H   0  0  0  0  0  0  0  0  0  0  0  0  # atno 11005 bound_to 11000
  146.1069  140.7476  142.9522 LP  0  0  0  0  0  0  0  0  0  0  0  0  # atno 17320 bound_to 7965
  144.7066  140.3877  143.7113 LP  0  0  0  0  0  0  0  0  0  0  0  0  # atno 17321 bound_to 7965
  140.6081  143.9487  150.6433 LP  0  0  0  0  0  0  0  0  0  0  0  0  # atno 17342 bound_to 10162
  140.2721  143.3449  152.1228 LP  0  0  0  0  0  0  0  0  0  0  0  0  # atno 17343 bound_to 10162
  157.7393  131.0530  150.5238 LP  0  0  0  0  0  0  0  0  0  0  0  0  # atno 17370 bound_to 10713
  156.5379  130.4201  149.6168 LP  0  0  0  0  0  0  0  0  0  0  0  0  # atno 17371 bound_to 10713
  141.0583  134.0383  157.3692 LP  0  0  0  0  0  0  0  0  0  0  0  0  # atno 17394 bound_to 11000
  139.9068  135.0181  156.7522 LP  0  0  0  0  0  0  0  0  0  0  0  0  # atno 17395 bound_to 11000

$$$$
