AV-unprocessed.smi:2529|AV-procd|sdf|9961|dock1
  -GOLD-   2272014 03D 1   1.00000     0.00000
 Structure written by MMmdl.
 44 46  0  0  0  0  0  0  0  0  1 V2000
  144.9333  143.0526  156.3135 C   0  0  0  0  0  0  0  0  0  0  0  0
  145.7008  141.8966  155.6564 C   0  0  2  0  0  0  0  0  0  0  0  0
  146.8340  141.3872  156.5645 C   0  0  0  0  0  0  0  0  0  0  0  0
  147.6044  140.2277  155.9079 C   0  0  0  0  0  0  0  0  0  0  0  0
  148.1720  140.5891  154.5137 C   0  0  2  0  0  0  0  0  0  0  0  0
  148.5768  139.3478  153.9668 O   0  0  0  0  0  0  0  0  0  0  0  0
  149.4559  141.4715  154.6343 C   0  0  0  0  0  0  0  0  0  0  0  0
  150.2478  141.2762  155.8676 N   0  0  0  0  0  0  0  0  0  0  0  0
  149.8514  142.0387  156.9848 C   0  0  0  0  0  0  0  0  0  0  0  0
  150.4557  141.9497  158.1262 N   0  0  0  0  0  0  0  0  0  0  0  0
  151.5467  141.0861  158.2696 C   0  0  0  0  0  0  0  0  0  0  0  0
  152.1886  140.9829  159.6462 C   0  0  0  0  0  0  0  0  0  0  0  0
  152.4905  142.3172  160.3481 C   0  0  0  0  0  0  0  0  0  0  0  0
  153.7878  141.6801  160.8590 C   0  0  0  0  0  0  0  0  0  0  0  0
  153.7032  140.7153  159.6709 C   0  0  0  0  0  0  0  0  0  0  0  0
  151.9883  140.3565  157.2185 C   0  0  0  0  0  0  0  0  0  0  0  0
  151.3400  140.4549  155.9109 C   0  0  0  0  0  0  0  0  0  0  0  0
  151.7548  139.8411  154.9282 O   0  0  0  0  0  0  0  0  0  0  0  0
  147.0375  141.1504  153.6184 C   0  0  0  0  0  0  0  0  0  0  0  0
  146.2612  142.3018  154.2817 C   0  0  0  0  0  0  0  0  0  0  0  0
  145.5844  143.9087  156.4938 H   0  0  0  0  0  0  0  0  0  0  0  0
  144.5102  142.7483  157.2713 H   0  0  0  0  0  0  0  0  0  0  0  0
  144.1104  143.3880  155.6817 H   0  0  0  0  0  0  0  0  0  0  0  0
  144.9956  141.0780  155.5049 H   0  0  0  0  0  0  0  0  0  0  0  0
  147.5139  142.2048  156.8040 H   0  0  0  0  0  0  0  0  0  0  0  0
  146.4204  141.0511  157.5160 H   0  0  0  0  0  0  0  0  0  0  0  0
  148.4052  139.8945  156.5695 H   0  0  0  0  0  0  0  0  0  0  0  0
  146.9199  139.3821  155.8169 H   0  0  0  0  0  0  0  0  0  0  0  0
  148.8188  139.4822  153.0632 H   0  0  0  0  0  0  0  0  0  0  0  0
  150.0897  141.2915  153.7668 H   0  0  0  0  0  0  0  0  0  0  0  0
  149.1928  142.5269  154.5355 H   0  0  0  0  0  0  0  0  0  0  0  0
  149.0047  142.7065  156.8192 H   0  0  0  0  0  0  0  0  0  0  0  0
  151.6434  140.2959  160.2961 H   0  0  0  0  0  0  0  0  0  0  0  0
  152.6758  143.1410  159.6560 H   0  0  0  0  0  0  0  0  0  0  0  0
  151.7804  142.5956  161.1273 H   0  0  0  0  0  0  0  0  0  0  0  0
  154.6560  142.3395  160.8516 H   0  0  0  0  0  0  0  0  0  0  0  0
  153.6647  141.1795  161.8210 H   0  0  0  0  0  0  0  0  0  0  0  0
  153.9818  139.6857  159.8964 H   0  0  0  0  0  0  0  0  0  0  0  0
  154.2303  141.0939  158.7930 H   0  0  0  0  0  0  0  0  0  0  0  0
  152.8293  139.6891  157.3381 H   0  0  0  0  0  0  0  0  0  0  0  0
  147.4169  141.4634  152.6457 H   0  0  0  0  0  0  0  0  0  0  0  0
  146.3253  140.3513  153.4056 H   0  0  0  0  0  0  0  0  0  0  0  0
  145.4464  142.6111  153.6263 H   0  0  0  0  0  0  0  0  0  0  0  0
  146.9034  143.1722  154.3952 H   0  0  0  0  0  0  0  0  0  0  0  0
  1  2  1  0  0  0  0
  1 21  1  0  0  0  0
  1 22  1  0  0  0  0
  1 23  1  0  0  0  0
  2 20  1  0  0  0  0
  2  3  1  0  0  0  0
  2 24  1  0  0  0  0
  3  4  1  0  0  0  0
  3 25  1  0  0  0  0
  3 26  1  0  0  0  0
  4  5  1  0  0  0  0
  4 27  1  0  0  0  0
  4 28  1  0  0  0  0
  5  6  1  0  0  0  0
  5  7  1  0  0  0  0
  5 19  1  0  0  0  0
  6 29  1  0  0  0  0
  7  8  1  0  0  0  0
  7 30  1  0  0  0  0
  7 31  1  0  0  0  0
  8 17  1  0  0  0  0
  8  9  1  0  0  0  0
  9 10  2  0  0  0  0
  9 32  1  0  0  0  0
 10 11  1  0  0  0  0
 11 12  1  0  0  0  0
 11 16  2  0  0  0  0
 12 15  1  0  0  0  0
 12 13  1  0  0  0  0
 12 33  1  0  0  0  0
 13 14  1  0  0  0  0
 13 34  1  0  0  0  0
 13 35  1  0  0  0  0
 14 15  1  0  0  0  0
 14 36  1  0  0  0  0
 14 37  1  0  0  0  0
 15 38  1  0  0  0  0
 15 39  1  0  0  0  0
 16 17  1  0  0  0  0
 16 40  1  0  0  0  0
 17 18  2  0  0  0  0
 19 20  1  0  0  0  0
 19 41  1  0  0  0  0
 19 42  1  0  0  0  0
 20 43  1  0  0  0  0
 20 44  1  0  0  0  0
M  END
> <s_m_source_file>
AV-unprocessed.smi

> <i_m_source_file_index>
2529

> <i_lp_mmshare_version>
43012

> <i_f3d_flags>
0

> <s_epik_input>
W0NIMl0xW0NIMl1bQ0BIXShbQ0gzXSlbQ0gyXVtDSDJdW0NAQF0xKFtPSF0pW0NIMl1uMltjSF1uYyhbY0hdYzI9TylbQ0hdM1tDSDJdW0NIMl1bQ0gyXTM=

> <s_epik_cmdline>
J2VwaWtfcHl0aG9uJywgJy1waCcsICc3LjAnLCAnLXRuJywgJzgnLCAnLW1hJywgJzIwMCcsICctbWV0YWxfYmluZGluZycsICctaW1hZScsICc8aW5maWxlLm1hZT4nLCAnLW9tYWUnLCAnPG91dGZpbGUubWFlPic=

> <r_lp_tautomer_probability>
1

> <r_epik_Ionization_Penalty>
9.15498e-05

> <r_epik_Ionization_Penalty_Charging>
1.67865e-07

> <r_epik_Ionization_Penalty_Neutral>
9.13819e-05

> <r_epik_State_Penalty>
-0

> <r_epik_Charging_Adjusted_Penalty>
1.67865e-07

> <i_epik_Tot_Q>
0

> <i_epik_Tot_abs_Q>
0

> <r_epik_Metal_State_Penalty>
-0

> <b_epik_Metal_Only>
0

> <s_lp_Force_Field>
OPLS_2005

> <r_lp_Energy>
33.1946

> <b_lp_Chiralities_Consistent>
1

> <s_lp_Variant>
AV-unprocessed.smi:2529-2

> <Gold.Version>
5.8.1

> <Gold.Id.Protein>
6NUR|6NUR_protein|mol2

> <Gold.PLP.Fitness>
46.5026

> <Gold.PLP.PLP>
-39.7812

> <Gold.PLP.part.hbond>
-2.0000

> <Gold.PLP.part.metal>
0.0000

> <Gold.PLP.part.buried>
-2.7931

> <Gold.PLP.part.nonpolar>
-34.4734

> <Gold.PLP.part.repulsive>
0.0981

> <Gold.PLP.ligand.clash>
0.0000

> <Gold.PLP.ligand.torsion>
1.3515

> <Gold.PLP.Chemscore.Hbond>
1.9760

> <Gold.PLP.Chemscore.CHOScore>
1.0000

> <Gold.PLP.Chemscore.Metal>
0.0000

> <Gold.Chemscore.Hbonds>
donor molecule, donor type, donor heavy atom, donor atom, acceptor molecule, acceptor atom, score
      L1  H     6    29       P1  7957  0.75
      P1  H  7989  7998       L1    18  1.00
      L1  C     9    32       P1  8028  1.00

> <Gold.PLP.Chemscore.Internal.Correction>
0.4964

> <Gold.Rescore>
     Score         DG    S(hbond)    S(metal)    S(lipo)     H(rot)  DE(clash)    DE(int)     intcor
     15.47     -16.99       1.74        0.00      88.13       1.80       0.17       1.35       ----

> <Gold.Chemscore.Fitness>
15.4672

> <Gold.Chemscore.DG>
-16.9874

> <Gold.Chemscore.ZeroCoef>
-5.4800

> <Gold.Chemscore.Hbond>
1.7354

> <Gold.Chemscore.Metal>
0.0000

> <Gold.Chemscore.Lipo>
88.1262

> <Gold.Chemscore.Internal_Hbond>
0.0000

> <Gold.Chemscore.DEClash>
0.1677

> <Gold.Chemscore.DEInternal>
1.3524

> <Gold.Chemscore.Rot>
1.7968

> <Gold.Chemscore.Internal.Correction>
   9.000000E+99

> <Gold.Chemscore.Hbonds>
donor molecule, donor type, donor heavy atom, donor atom, acceptor molecule, acceptor atom, score
      L1  H     6    29       P1  7957  0.75
      P1  H  7989  7998       L1    18  0.71

> <Gold.Chemscore.Hbond.Weighted>
-5.7963

> <Gold.Chemscore.Metal.Weighted>
-0.0000

> <Gold.Chemscore.Lipo.Weighted>
-10.3108

> <Gold.Chemscore.Internal_Hbond.Weighted>
0.0000

> <Gold.Chemscore.DEClash.Weighted>
0.1677

> <Gold.Chemscore.DEInternal.Weighted>
1.3524

> <Gold.Chemscore.Rot.Weighted>
4.5997

> <Gold.Chemscore.Internal.Correction.Weighted>
   9.000000E+99

> <Gold.Protein.RotatedTorsions>
[ 6907 6896 6895 6894 ] final  -87.04 input  -60.11 | X-H torsion
[ 7974 7965 7964 7962 ] final   51.40 input  175.53 | X-H torsion
[ 8008 7997 7996 7995 ] final  -32.64 input   59.86 | X-H torsion
[ 10167 10162 10161 10158 ] final    8.41 input  -65.29 | X-H torsion
[ 10718 10713 10712 10709 ] final -133.91 input   66.30 | X-H torsion
[ 10763 10752 10751 10750 ] final   -3.94 input  -60.55 | X-H torsion
[ 11005 11000 10999 10996 ] final  -74.53 input  -57.11 | X-H torsion

> <Gold.Protein.ActiveResidues>
 VAL166  LYS551  ARG553  GLY616  TRP617  ASP618  TYR619  PRO620  LYS621  CYS622 
 ASP623  PHE694  ASN695  SER759  ASP760  ASP761  ALA762  ILE779  LEU786  VAL792 
 PHE793  MET794  SER795  GLU796  ALA797  LYS798  CYS799  TRP800  GLU811  SER814 

> <Gold.Protein.RotatedAtoms>
  150.6866  134.2958  159.4685 H   0  0  0  0  0  0  0  0  0  0  0  0  # atno 6907 bound_to 6896
  152.0859  134.9437  160.0582 H   0  0  0  0  0  0  0  0  0  0  0  0  # atno 6908 bound_to 6896
  152.0772  133.4100  159.4522 H   0  0  0  0  0  0  0  0  0  0  0  0  # atno 6909 bound_to 6896
  145.9917  139.4346  143.0069 H   0  0  0  0  0  0  0  0  0  0  0  0  # atno 7974 bound_to 7965
  154.4173  140.1732  156.1760 H   0  0  0  0  0  0  0  0  0  0  0  0  # atno 8008 bound_to 7997
  155.9721  140.3385  155.6561 H   0  0  0  0  0  0  0  0  0  0  0  0  # atno 8009 bound_to 7997
  155.6611  140.0701  157.2544 H   0  0  0  0  0  0  0  0  0  0  0  0  # atno 8010 bound_to 7997
  140.6316  143.7981  150.7303 H   0  0  0  0  0  0  0  0  0  0  0  0  # atno 10167 bound_to 10162
  156.2499  130.7147  151.1041 H   0  0  0  0  0  0  0  0  0  0  0  0  # atno 10718 bound_to 10713
  153.3781  135.6997  153.6586 H   0  0  0  0  0  0  0  0  0  0  0  0  # atno 10763 bound_to 10752
  153.5209  135.3612  155.2632 H   0  0  0  0  0  0  0  0  0  0  0  0  # atno 10764 bound_to 10752
  154.8689  135.4157  154.3073 H   0  0  0  0  0  0  0  0  0  0  0  0  # atno 10765 bound_to 10752
  141.1636  133.6915  156.7378 H   0  0  0  0  0  0  0  0  0  0  0  0  # atno 11005 bound_to 11000
  145.7620  140.9931  143.1195 LP  0  0  0  0  0  0  0  0  0  0  0  0  # atno 17320 bound_to 7965
  144.6891  139.9342  143.7473 LP  0  0  0  0  0  0  0  0  0  0  0  0  # atno 17321 bound_to 7965
  140.1593  143.4289  152.2077 LP  0  0  0  0  0  0  0  0  0  0  0  0  # atno 17342 bound_to 10162
  139.5529  144.7351  151.4380 LP  0  0  0  0  0  0  0  0  0  0  0  0  # atno 17343 bound_to 10162
  157.7210  131.0681  150.6135 LP  0  0  0  0  0  0  0  0  0  0  0  0  # atno 17370 bound_to 10713
  156.6214  130.4407  149.5821 LP  0  0  0  0  0  0  0  0  0  0  0  0  # atno 17371 bound_to 10713
  140.2697  134.8402  157.3835 LP  0  0  0  0  0  0  0  0  0  0  0  0  # atno 17394 bound_to 11000
  140.1533  134.4821  155.7945 LP  0  0  0  0  0  0  0  0  0  0  0  0  # atno 17395 bound_to 11000

$$$$
