AV-unprocessed.smi:2171|AV-procd|sdf|8830|dock3
  -GOLD-   2272012 23D 1   1.00000     0.00000
 Structure written by MMmdl.
 39 41  0  0  0  0  0  0  0  0  2 V2000
  147.0258  142.8767  160.7929 O   0  0  0  0  0  0  0  0  0  0  0  0
  147.0103  143.8266  160.0112 C   0  0  0  0  0  0  0  0  0  0  0  0
  145.8248  144.7961  160.0100 C   0  0  0  0  0  0  0  0  0  0  0  0
  144.7315  144.3187  160.8401 N   0  0  0  0  0  0  0  0  0  0  0  0
  144.7851  143.8233  162.1266 C   0  0  0  0  0  0  0  0  0  0  0  0
  143.5103  143.4961  162.4901 C   0  0  0  0  0  0  0  0  0  0  0  0
  142.7348  143.8347  161.3461 C   0  0  0  0  0  0  0  0  0  0  0  0
  143.4679  144.3272  160.3608 N   0  0  0  0  0  0  0  0  0  0  0  0
  147.9886  144.0638  159.1220 N   0  0  0  0  0  0  0  0  0  0  0  0
  149.2217  143.2900  158.9937 C   0  0  2  0  0  0  0  0  0  0  0  0
  150.4634  144.1771  158.7802 C   0  0  0  0  0  0  0  0  0  0  0  0
  151.2951  143.4348  157.7293 C   0  0  0  0  0  0  0  0  0  0  0  0
  150.2731  142.7902  156.8964 N   0  3  1  0  0  0  0  0  0  0  0  0
  150.7016  141.7752  155.9131 C   0  0  0  0  0  0  0  0  0  0  0  0
  149.4832  141.3908  155.0463 C   0  0  0  0  0  0  0  0  0  0  0  0
  148.2627  140.9782  155.9007 C   0  0  0  0  0  0  0  0  0  0  0  0
  147.9476  142.0205  156.9959 C   0  0  0  0  0  0  0  0  0  0  0  0
  149.2263  142.2960  157.8078 C   0  0  2  0  0  0  0  0  0  0  0  0
  146.1511  145.7697  160.3775 H   0  0  0  0  0  0  0  0  0  0  0  0
  145.4588  144.9430  158.9924 H   0  0  0  0  0  0  0  0  0  0  0  0
  145.7154  143.7444  162.6699 H   0  0  0  0  0  0  0  0  0  0  0  0
  143.1809  143.0801  163.4308 H   0  0  0  0  0  0  0  0  0  0  0  0
  141.6686  143.7380  161.2035 H   0  0  0  0  0  0  0  0  0  0  0  0
  147.8872  144.8655  158.5163 H   0  0  0  0  0  0  0  0  0  0  0  0
  149.3758  142.7228  159.9141 H   0  0  0  0  0  0  0  0  0  0  0  0
  150.1699  145.1507  158.3838 H   0  0  0  0  0  0  0  0  0  0  0  0
  151.0186  144.3526  159.7023 H   0  0  0  0  0  0  0  0  0  0  0  0
  151.9349  144.1013  157.1501 H   0  0  0  0  0  0  0  0  0  0  0  0
  151.9207  142.6752  158.2008 H   0  0  0  0  0  0  0  0  0  0  0  0
  151.4962  142.1812  155.2863 H   0  0  0  0  0  0  0  0  0  0  0  0
  151.1073  140.9019  156.4260 H   0  0  0  0  0  0  0  0  0  0  0  0
  149.2076  142.2417  154.4218 H   0  0  0  0  0  0  0  0  0  0  0  0
  149.7507  140.5842  154.3631 H   0  0  0  0  0  0  0  0  0  0  0  0
  147.3912  140.8309  155.2624 H   0  0  0  0  0  0  0  0  0  0  0  0
  148.4648  140.0144  156.3699 H   0  0  0  0  0  0  0  0  0  0  0  0
  147.5780  142.9409  156.5418 H   0  0  0  0  0  0  0  0  0  0  0  0
  147.1558  141.6434  157.6438 H   0  0  0  0  0  0  0  0  0  0  0  0
  149.5717  141.3427  158.2140 H   0  0  0  0  0  0  0  0  0  0  0  0
  149.8492  143.5384  156.3669 H   0  0  0  0  0  0  0  0  0  0  0  0
  1  2  2  0  0  0  0
  2  3  1  0  0  0  0
  2  9  1  0  0  0  0
  3  4  1  0  0  0  0
  3 19  1  0  0  0  0
  3 20  1  0  0  0  0
  4  8  1  0  0  0  0
  4  5  1  0  0  0  0
  5  6  2  0  0  0  0
  5 21  1  0  0  0  0
  6  7  1  0  0  0  0
  6 22  1  0  0  0  0
  7  8  2  0  0  0  0
  7 23  1  0  0  0  0
  9 10  1  0  0  0  0
  9 24  1  0  0  0  0
 10 18  1  0  0  0  0
 10 11  1  0  0  0  0
 10 25  1  0  0  0  0
 11 12  1  0  0  0  0
 11 26  1  0  0  0  0
 11 27  1  0  0  0  0
 12 13  1  0  0  0  0
 12 28  1  0  0  0  0
 12 29  1  0  0  0  0
 13 18  1  0  0  0  0
 13 14  1  0  0  0  0
 13 39  1  0  0  0  0
 14 15  1  0  0  0  0
 14 30  1  0  0  0  0
 14 31  1  0  0  0  0
 15 16  1  0  0  0  0
 15 32  1  0  0  0  0
 15 33  1  0  0  0  0
 16 17  1  0  0  0  0
 16 34  1  0  0  0  0
 16 35  1  0  0  0  0
 17 18  1  0  0  0  0
 17 36  1  0  0  0  0
 17 37  1  0  0  0  0
 18 38  1  0  0  0  0
M  CHG  1  13   1
M  END
> <s_m_source_file>
AV-unprocessed.smi

> <i_m_source_file_index>
2171

> <i_lp_mmshare_version>
43012

> <i_f3d_flags>
0

> <s_epik_input>
bjFbY0hdW2NIXVtjSF1uMVtDSDJdQyg9TylbTkhdW0NASF0oW0NIMl1bQ0gyXTIpW0NAQEhdKE4yMylbQ0gyXVtDSDJdW0NIMl1bQ0gyXTM=

> <s_epik_cmdline>
J2VwaWtfcHl0aG9uJywgJy1waCcsICc3LjAnLCAnLXRuJywgJzgnLCAnLW1hJywgJzIwMCcsICctbWV0YWxfYmluZGluZycsICctaW1hZScsICc8aW5maWxlLm1hZT4nLCAnLW9tYWUnLCAnPG91dGZpbGUubWFlPic=

> <r_lp_tautomer_probability>
1

> <r_epik_Ionization_Penalty>
0.00204179

> <r_epik_Ionization_Penalty_Charging>
0.00203239

> <r_epik_Ionization_Penalty_Neutral>
9.40205e-06

> <r_epik_State_Penalty>
0.00138983

> <r_epik_Charging_Adjusted_Penalty>
0.00342221

> <i_epik_Tot_Q>
1

> <i_epik_Tot_abs_Q>
1

> <r_epik_Metal_State_Penalty>
-0

> <b_epik_Metal_Only>
0

> <s_lp_Force_Field>
OPLS_2005

> <r_lp_Energy>
41.8247

> <b_lp_Chiralities_Consistent>
1

> <s_lp_Variant>
AV-unprocessed.smi:2171-5

> <Gold.Version>
5.8.1

> <Gold.Id.Protein>
6NUR|6NUR_protein|mol2

> <Gold.PLP.Fitness>
43.8381

> <Gold.PLP.PLP>
-30.6671

> <Gold.PLP.part.hbond>
-4.0000

> <Gold.PLP.part.metal>
0.0000

> <Gold.PLP.part.buried>
-3.3553

> <Gold.PLP.part.nonpolar>
-24.1019

> <Gold.PLP.part.repulsive>
0.2375

> <Gold.PLP.ligand.clash>
0.0000

> <Gold.PLP.ligand.torsion>
0.4620

> <Gold.PLP.Chemscore.Hbond>
4.6978

> <Gold.PLP.Chemscore.CHOScore>
0.0000

> <Gold.PLP.Chemscore.Metal>
0.0000

> <Gold.Chemscore.Hbonds>
donor molecule, donor type, donor heavy atom, donor atom, acceptor molecule, acceptor atom, score
      L1  H     9    24       P1  8029  1.00
      L1  H    13    39       P1  8028  2.00
      P1  H  6933  6944       L1     1  0.98
      P1  H  6934  6946       L1     1  0.74

> <Gold.PLP.Chemscore.Internal.Correction>
0.0016

> <Gold.Rescore>
     Score         DG    S(hbond)    S(metal)    S(lipo)     H(rot)  DE(clash)    DE(int)     intcor
     19.78     -21.82       3.49        0.00      71.65       1.44       0.14       1.90       ----

> <Gold.Chemscore.Fitness>
19.7783

> <Gold.Chemscore.DG>
-21.8244

> <Gold.Chemscore.ZeroCoef>
-5.4800

> <Gold.Chemscore.Hbond>
3.4880

> <Gold.Chemscore.Metal>
0.0000

> <Gold.Chemscore.Lipo>
71.6535

> <Gold.Chemscore.Internal_Hbond>
0.0000

> <Gold.Chemscore.DEClash>
0.1417

> <Gold.Chemscore.DEInternal>
1.9043

> <Gold.Chemscore.Rot>
1.4410

> <Gold.Chemscore.Internal.Correction>
   9.000000E+99

> <Gold.Chemscore.Hbonds>
donor molecule, donor type, donor heavy atom, donor atom, acceptor molecule, acceptor atom, score
      L1  H     9    24       P1  8029  0.99
      L1  H    13    39       P1  8028  1.00
      P1  H  6933  6944       L1     1  0.91
      P1  H  6934  6946       L1     1  0.71

> <Gold.Chemscore.Hbond.Weighted>
-11.6499

> <Gold.Chemscore.Metal.Weighted>
-0.0000

> <Gold.Chemscore.Lipo.Weighted>
-8.3835

> <Gold.Chemscore.Internal_Hbond.Weighted>
0.0000

> <Gold.Chemscore.DEClash.Weighted>
0.1417

> <Gold.Chemscore.DEInternal.Weighted>
1.9043

> <Gold.Chemscore.Rot.Weighted>
3.6889

> <Gold.Chemscore.Internal.Correction.Weighted>
   9.000000E+99

> <Gold.Protein.RotatedTorsions>
[ 6907 6896 6895 6894 ] final  126.83 input  -60.11 | X-H torsion
[ 7974 7965 7964 7962 ] final  -11.48 input  175.53 | X-H torsion
[ 8008 7997 7996 7995 ] final    9.35 input   59.86 | X-H torsion
[ 10167 10162 10161 10158 ] final  171.91 input  -65.29 | X-H torsion
[ 10718 10713 10712 10709 ] final  -83.49 input   66.30 | X-H torsion
[ 10763 10752 10751 10750 ] final  -43.15 input  -60.55 | X-H torsion
[ 11005 11000 10999 10996 ] final   77.86 input  -57.11 | X-H torsion

> <Gold.Protein.ActiveResidues>
 VAL166  LYS551  ARG553  GLY616  TRP617  ASP618  TYR619  PRO620  LYS621  CYS622 
 ASP623  PHE694  ASN695  SER759  ASP760  ASP761  ALA762  ILE779  LEU786  VAL792 
 PHE793  MET794  SER795  GLU796  ALA797  LYS798  CYS799  TRP800  GLU811  SER814 

> <Gold.Protein.RotatedAtoms>
  152.3868  133.6622  159.6204 H   0  0  0  0  0  0  0  0  0  0  0  0  # atno 6907 bound_to 6896
  150.7785  133.9022  159.3353 H   0  0  0  0  0  0  0  0  0  0  0  0  # atno 6908 bound_to 6896
  151.6816  135.0962  160.0268 H   0  0  0  0  0  0  0  0  0  0  0  0  # atno 6909 bound_to 6896
  146.2186  140.2916  142.8369 H   0  0  0  0  0  0  0  0  0  0  0  0  # atno 7974 bound_to 7965
  154.7788  140.2815  155.6080 H   0  0  0  0  0  0  0  0  0  0  0  0  # atno 8008 bound_to 7997
  156.2946  140.2627  156.2537 H   0  0  0  0  0  0  0  0  0  0  0  0  # atno 8009 bound_to 7997
  154.9809  140.0375  157.2267 H   0  0  0  0  0  0  0  0  0  0  0  0  # atno 8010 bound_to 7997
  139.5060  144.3433  151.9996 H   0  0  0  0  0  0  0  0  0  0  0  0  # atno 10167 bound_to 10162
  156.0018  130.4667  150.4266 H   0  0  0  0  0  0  0  0  0  0  0  0  # atno 10718 bound_to 10713
  153.9908  135.6705  153.4754 H   0  0  0  0  0  0  0  0  0  0  0  0  # atno 10763 bound_to 10752
  153.0706  135.4976  154.8292 H   0  0  0  0  0  0  0  0  0  0  0  0  # atno 10764 bound_to 10752
  154.7110  135.3097  154.9159 H   0  0  0  0  0  0  0  0  0  0  0  0  # atno 10765 bound_to 10752
  139.9236  134.7717  156.1576 H   0  0  0  0  0  0  0  0  0  0  0  0  # atno 11005 bound_to 11000
  144.9122  140.7771  143.5800 LP  0  0  0  0  0  0  0  0  0  0  0  0  # atno 17320 bound_to 7965
  145.2848  139.1905  143.4772 LP  0  0  0  0  0  0  0  0  0  0  0  0  # atno 17321 bound_to 7965
  140.2871  144.3796  150.6100 LP  0  0  0  0  0  0  0  0  0  0  0  0  # atno 17342 bound_to 10162
  140.5975  143.2167  151.7136 LP  0  0  0  0  0  0  0  0  0  0  0  0  # atno 17343 bound_to 10162
  157.2318  131.0506  151.2488 LP  0  0  0  0  0  0  0  0  0  0  0  0  # atno 17370 bound_to 10713
  157.3704  130.7178  149.6561 LP  0  0  0  0  0  0  0  0  0  0  0  0  # atno 17371 bound_to 10713
  141.0777  133.6768  156.2271 LP  0  0  0  0  0  0  0  0  0  0  0  0  # atno 17394 bound_to 11000
  140.6400  134.5175  157.5568 LP  0  0  0  0  0  0  0  0  0  0  0  0  # atno 17395 bound_to 11000

$$$$
