#       Name:                AV-unprocessed.smi:1509
#       Creating user name   scv26
#       Creation time:       Fri Mar 27 06:22:12 2020


#       File generated by GOLD software.
#

@<TRIPOS>MOLECULE
AV-unprocessed.smi:1509
    47    48     1
SMALL
NO_CHARGES


@<TRIPOS>ATOM
      1 ****        -4.3735   0.5191   2.1267 C.3            1 S1                 0.0000
      2 ****        -3.6536   0.9537   0.8424 C.3            1 S1                 0.0000
      3 ****        -4.2050   2.2887   0.3143 C.3            1 S1                 0.0000
      4 ****        -3.4482   2.7143  -0.9501 C.3            1 S1                 0.0000
      5 ****        -1.9339   2.7694  -0.6927 C.3            1 S1                 0.0000
      6 ****        -1.4301   1.4649  -0.1911 N.4            1 S1                 1.0000
      7 ****         0.0491   1.4432  -0.0632 C.3            1 S1                 0.0000
      8 ****         0.6240   0.0212  -0.1776 C.3            1 S1                 0.0000
      9 ****         2.1599   0.0065  -0.1069 C.3            1 S1                 0.0000
     10 ****         2.6909  -1.3460  -0.2282 N.am           1 S1                 0.0000
     11 ****         2.8753  -1.9994  -1.3870 C.2            1 S1                 0.0000
     12 ****         2.5853  -1.5222  -2.4837 O.2            1 S1                 0.0000
     13 ****         3.4623  -3.4104  -1.3005 C.3            1 S1                 0.0000
     14 ****         4.7873  -3.4059  -0.7075 N.pl3          1 S1                 0.0000
     15 ****         5.1901  -3.6589   0.5395 C.2            1 S1                 0.0000
     16 ****         6.5024  -3.5342   0.6643 N.2            1 S1                 0.0000
     17 ****         6.9078  -3.1820  -0.6126 N.2            1 S1                 0.0000
     18 ****         5.8945  -3.1049  -1.4312 N.2            1 S1                 0.0000
     19 ****        -2.1295   1.0524   1.0557 C.3            1 S1                 0.0000
     20 ****        -4.2258   1.2427   2.9291 H              1 S1                 0.0000
     21 ****        -4.0052  -0.4455   2.4771 H              1 S1                 0.0000
     22 ****        -5.4467   0.4207   1.9613 H              1 S1                 0.0000
     23 ****        -3.8394   0.1885   0.0871 H              1 S1                 0.0000
     24 ****        -5.2700   2.1995   0.0971 H              1 S1                 0.0000
     25 ****        -4.1060   3.0614   1.0780 H              1 S1                 0.0000
     26 ****        -3.6576   2.0111  -1.7574 H              1 S1                 0.0000
     27 ****        -3.8047   3.6880  -1.2877 H              1 S1                 0.0000
     28 ****        -1.4254   3.0299  -1.6218 H              1 S1                 0.0000
     29 ****        -1.7005   3.5542   0.0287 H              1 S1                 0.0000
     30 ****         0.4882   2.0447  -0.8605 H              1 S1                 0.0000
     31 ****         0.3494   1.9118   0.8753 H              1 S1                 0.0000
     32 ****         0.2292  -0.6148   0.6143 H              1 S1                 0.0000
     33 ****         0.2968  -0.4205  -1.1200 H              1 S1                 0.0000
     34 ****         2.5871   0.6453  -0.8821 H              1 S1                 0.0000
     35 ****         2.4916   0.4153   0.8478 H              1 S1                 0.0000
     36 ****         2.9544  -1.8118   0.6283 H              1 S1                 0.0000
     37 ****         2.8076  -4.0440  -0.7010 H              1 S1                 0.0000
     38 ****         3.5207  -3.8563  -2.2948 H              1 S1                 0.0000
     39 ****         4.5275  -3.9271   1.3493 H              1 S1                 0.0000
     40 ****        -1.9057   1.7669   1.8498 H              1 S1                 0.0000
     41 ****        -1.7551   0.0855   1.3906 H              1 S1                 0.0000
     42 ****        -1.6652   0.7851  -0.9005 H              1 S1                 0.0000
     43 ****         2.1917  -0.6047  -2.5415 LP             1 S1                 0.0000
     44 ****         2.7433  -2.0519  -3.3170 LP             1 S1                 0.0000
     45 ****         7.0641  -3.6630   1.4816 LP             1 S1                 0.0000
     46 ****         7.8573  -3.0087  -0.8741 LP             1 S1                 0.0000
     47 ****         5.9277  -2.8698  -2.4026 LP             1 S1                 0.0000
@<TRIPOS>BOND
    1    1    2 1     
    2    1   20 1     
    3    1   21 1     
    4    1   22 1     
    5    2   19 1     
    6    2    3 1     
    7    2   23 1     
    8    3    4 1     
    9    3   24 1     
   10    3   25 1     
   11    4    5 1     
   12    4   26 1     
   13    4   27 1     
   14    5    6 1     
   15    5   28 1     
   16    5   29 1     
   17    6    7 1     
   18    6   19 1     
   19    6   42 1     
   20    7    8 1     
   21    7   30 1     
   22    7   31 1     
   23    8    9 1     
   24    8   32 1     
   25    8   33 1     
   26    9   10 1     
   27    9   34 1     
   28    9   35 1     
   29   10   11 am    
   30   10   36 1     
   31   11   12 2     
   32   11   13 1     
   33   13   14 1     
   34   13   37 1     
   35   13   38 1     
   36   14   18 1     
   37   14   15 1     
   38   15   16 2     
   39   15   39 1     
   40   16   17 1     
   41   17   18 2     
   42   19   40 1     
   43   19   41 1     
   44   12   43 1     
   45   12   44 1     
   46   16   45 1     
   47   17   46 1     
   48   18   47 1     
@<TRIPOS>SUBSTRUCTURE
      1 S1             1
@<TRIPOS>SET
LONE_PAIRS      STATIC     ATOMS    <user>   **** ""
5 43 44 45 46 47
DONOR_HYDROGENS      STATIC     ATOMS    <user>   **** ""
2 42 36
ATOM$BLUE        STATIC     ATOMS    COLORGROUP SYSTEM
5 43 44 45 46 47
ATOM$RED        STATIC     ATOMS    COLORGROUP SYSTEM
2 42 36
