AV-unprocessed.smi:1677|AV-procd|sdf|6726|dock2
  -GOLD-   22720 7473D 1   1.00000     0.00000
 Structure written by MMmdl.
 36 37  0  0  0  0  0  0  0  0  1 V2000
  152.4634  139.2387  155.3291 C   0  0  0  0  0  0  0  0  0  0  0  0
  151.0290  139.6253  155.7131 C   0  0  2  0  0  0  0  0  0  0  0  0
  150.1827  139.9565  154.4656 C   0  0  0  0  0  0  0  0  0  0  0  0
  148.7685  140.0851  154.7667 N   0  0  0  0  0  0  0  0  0  0  0  0
  147.7450  140.3755  153.8746 C   0  0  0  0  0  0  0  0  0  0  0  0
  146.5780  140.3823  154.6046 C   0  0  0  0  0  0  0  0  0  0  0  0
  146.8585  140.1064  155.9407 N   0  0  0  0  0  0  0  0  0  0  0  0
  148.1750  139.9453  155.9603 C   0  0  0  0  0  0  0  0  0  0  0  0
  151.0730  140.7660  156.6271 N   0  0  0  0  0  0  0  0  0  0  0  0
  151.8922  140.8935  157.6835 C   0  0  0  0  0  0  0  0  0  0  0  0
  152.7442  140.0573  157.9851 O   0  0  0  0  0  0  0  0  0  0  0  0
  151.7078  142.1511  158.5415 C   0  0  1  0  0  0  0  0  0  0  0  0
  152.7316  142.1824  159.6994 C   0  0  0  0  0  0  0  0  0  0  0  0
  152.7487  143.5231  160.4121 C   0  0  0  0  0  0  0  0  0  0  0  0
  152.2072  144.6406  159.8979 C   0  0  0  0  0  0  0  0  0  0  0  0
  151.5207  144.6907  158.5443 C   0  0  0  0  0  0  0  0  0  0  0  0
  151.8090  143.4371  157.6966 C   0  0  0  0  0  0  0  0  0  0  0  0
  152.4718  138.3688  154.6718 H   0  0  0  0  0  0  0  0  0  0  0  0
  153.0527  138.9883  156.2120 H   0  0  0  0  0  0  0  0  0  0  0  0
  152.9695  140.0531  154.8095 H   0  0  0  0  0  0  0  0  0  0  0  0
  150.5878  138.7625  156.2154 H   0  0  0  0  0  0  0  0  0  0  0  0
  150.5296  140.8798  153.9992 H   0  0  0  0  0  0  0  0  0  0  0  0
  150.2930  139.1696  153.7185 H   0  0  0  0  0  0  0  0  0  0  0  0
  147.9263  140.5412  152.8229 H   0  0  0  0  0  0  0  0  0  0  0  0
  145.5659  140.5634  154.2737 H   0  0  0  0  0  0  0  0  0  0  0  0
  148.7194  139.7097  156.8629 H   0  0  0  0  0  0  0  0  0  0  0  0
  150.4073  141.5064  156.4587 H   0  0  0  0  0  0  0  0  0  0  0  0
  150.7066  142.1227  158.9760 H   0  0  0  0  0  0  0  0  0  0  0  0
  152.4906  141.4050  160.4254 H   0  0  0  0  0  0  0  0  0  0  0  0
  153.7422  141.9785  159.3423 H   0  0  0  0  0  0  0  0  0  0  0  0
  153.2378  143.5570  161.3746 H   0  0  0  0  0  0  0  0  0  0  0  0
  152.2403  145.5617  160.4612 H   0  0  0  0  0  0  0  0  0  0  0  0
  150.4485  144.7926  158.7136 H   0  0  0  0  0  0  0  0  0  0  0  0
  151.8444  145.5833  158.0087 H   0  0  0  0  0  0  0  0  0  0  0  0
  152.8119  143.5172  157.2737 H   0  0  0  0  0  0  0  0  0  0  0  0
  151.1211  143.4004  156.8507 H   0  0  0  0  0  0  0  0  0  0  0  0
  1  2  1  0  0  0  0
  1 18  1  0  0  0  0
  1 19  1  0  0  0  0
  1 20  1  0  0  0  0
  2  3  1  0  0  0  0
  2  9  1  0  0  0  0
  2 21  1  0  0  0  0
  3  4  1  0  0  0  0
  3 22  1  0  0  0  0
  3 23  1  0  0  0  0
  4  8  1  0  0  0  0
  4  5  1  0  0  0  0
  5  6  2  0  0  0  0
  5 24  1  0  0  0  0
  6  7  1  0  0  0  0
  6 25  1  0  0  0  0
  7  8  2  0  0  0  0
  8 26  1  0  0  0  0
  9 10  1  0  0  0  0
  9 27  1  0  0  0  0
 10 11  2  0  0  0  0
 10 12  1  0  0  0  0
 12 17  1  0  0  0  0
 12 13  1  0  0  0  0
 12 28  1  0  0  0  0
 13 14  1  0  0  0  0
 13 29  1  0  0  0  0
 13 30  1  0  0  0  0
 14 15  2  0  0  0  0
 14 31  1  0  0  0  0
 15 16  1  0  0  0  0
 15 32  1  0  0  0  0
 16 17  1  0  0  0  0
 16 33  1  0  0  0  0
 16 34  1  0  0  0  0
 17 35  1  0  0  0  0
 17 36  1  0  0  0  0
M  END
> <s_m_source_file>
AV-unprocessed.smi

> <i_m_source_file_index>
1677

> <i_lp_mmshare_version>
43012

> <i_f3d_flags>
0

> <s_epik_input>
W2NIXTFuW2NIXVtjSF1uMVtDSDJdW0NAQEhdKFtDSDNdKVtOSF1DKD1PKVtDQEBIXTJbQ0gyXVtDSF09W0NIXVtDSDJdW0NIMl0y

> <s_epik_cmdline>
J2VwaWtfcHl0aG9uJywgJy1waCcsICc3LjAnLCAnLXRuJywgJzgnLCAnLW1hJywgJzIwMCcsICctbWV0YWxfYmluZGluZycsICctaW1hZScsICc8aW5maWxlLm1hZT4nLCAnLW9tYWUnLCAnPG91dGZpbGUubWFlPic=

> <r_lp_tautomer_probability>
1

> <r_epik_Ionization_Penalty>
0.640435

> <r_epik_Ionization_Penalty_Charging>
0.640435

> <r_epik_Ionization_Penalty_Neutral>
2.11108e-08

> <r_epik_State_Penalty>
0.658069

> <r_epik_Charging_Adjusted_Penalty>
1.2985

> <i_epik_Tot_Q>
0

> <i_epik_Tot_abs_Q>
0

> <r_epik_Metal_State_Penalty>
0.311689

> <b_epik_Metal_Only>
0

> <s_lp_Force_Field>
OPLS_2005

> <r_lp_Energy>
9.94345

> <b_lp_Chiralities_Consistent>
1

> <s_lp_Variant>
AV-unprocessed.smi:1677-7

> <Gold.Version>
5.8.1

> <Gold.Id.Protein>
6NUR|6NUR_protein|mol2

> <Gold.PLP.Fitness>
43.5948

> <Gold.PLP.PLP>
-35.1642

> <Gold.PLP.part.hbond>
-1.0000

> <Gold.PLP.part.metal>
0.0000

> <Gold.PLP.part.buried>
-0.7977

> <Gold.PLP.part.nonpolar>
-33.1113

> <Gold.PLP.part.repulsive>
0.1172

> <Gold.PLP.ligand.clash>
0.0000

> <Gold.PLP.ligand.torsion>
0.2357

> <Gold.PLP.Chemscore.Hbond>
0.9588

> <Gold.PLP.Chemscore.CHOScore>
1.9998

> <Gold.PLP.Chemscore.Metal>
0.0000

> <Gold.Chemscore.Hbonds>
donor molecule, donor type, donor heavy atom, donor atom, acceptor molecule, acceptor atom, score
      P1  H  7997  8008       L1    11  0.94
      L1  C     5    24       P1  7957  1.00
      L1  C     6    25       P1 10175  0.83

> <Gold.PLP.Chemscore.Internal.Correction>
0.0263

> <Gold.Rescore>
     Score         DG    S(hbond)    S(metal)    S(lipo)     H(rot)  DE(clash)    DE(int)     intcor
     13.84     -15.70       0.89        0.00     100.12       1.75       0.19       1.68       ----

> <Gold.Chemscore.Fitness>
13.8355

> <Gold.Chemscore.DG>
-15.7016

> <Gold.Chemscore.ZeroCoef>
-5.4800

> <Gold.Chemscore.Hbond>
0.8924

> <Gold.Chemscore.Metal>
0.0000

> <Gold.Chemscore.Lipo>
100.1246

> <Gold.Chemscore.Internal_Hbond>
0.0000

> <Gold.Chemscore.DEClash>
0.1857

> <Gold.Chemscore.DEInternal>
1.6804

> <Gold.Chemscore.Rot>
1.7475

> <Gold.Chemscore.Internal.Correction>
   9.000000E+99

> <Gold.Chemscore.Hbonds>
donor molecule, donor type, donor heavy atom, donor atom, acceptor molecule, acceptor atom, score
      P1  H  7997  8008       L1    11  0.81

> <Gold.Chemscore.Hbond.Weighted>
-2.9805

> <Gold.Chemscore.Metal.Weighted>
-0.0000

> <Gold.Chemscore.Lipo.Weighted>
-11.7146

> <Gold.Chemscore.Internal_Hbond.Weighted>
0.0000

> <Gold.Chemscore.DEClash.Weighted>
0.1857

> <Gold.Chemscore.DEInternal.Weighted>
1.6804

> <Gold.Chemscore.Rot.Weighted>
4.4735

> <Gold.Chemscore.Internal.Correction.Weighted>
   9.000000E+99

> <Gold.Protein.RotatedTorsions>
[ 6907 6896 6895 6894 ] final  139.19 input  -60.11 | X-H torsion
[ 7974 7965 7964 7962 ] final  -90.57 input  175.53 | X-H torsion
[ 8008 7997 7996 7995 ] final  -74.36 input   59.86 | X-H torsion
[ 10167 10162 10161 10158 ] final  -78.31 input  -65.29 | X-H torsion
[ 10718 10713 10712 10709 ] final  -33.33 input   66.30 | X-H torsion
[ 10763 10752 10751 10750 ] final   -9.05 input  -60.55 | X-H torsion
[ 11005 11000 10999 10996 ] final  -49.62 input  -57.11 | X-H torsion

> <Gold.Protein.ActiveResidues>
 VAL166  LYS551  ARG553  GLY616  TRP617  ASP618  TYR619  PRO620  LYS621  CYS622 
 ASP623  PHE694  ASN695  SER759  ASP760  ASP761  ALA762  ILE779  LEU786  VAL792 
 PHE793  MET794  SER795  GLU796  ALA797  LYS798  CYS799  TRP800  GLU811  SER814 

> <Gold.Protein.RotatedAtoms>
  152.2578  133.5271  159.5363 H   0  0  0  0  0  0  0  0  0  0  0  0  # atno 6907 bound_to 6896
  150.7115  134.0871  159.3927 H   0  0  0  0  0  0  0  0  0  0  0  0  # atno 6908 bound_to 6896
  151.8789  135.0461  160.0537 H   0  0  0  0  0  0  0  0  0  0  0  0  # atno 6909 bound_to 6896
  145.4247  140.9553  143.2161 H   0  0  0  0  0  0  0  0  0  0  0  0  # atno 7974 bound_to 7965
  154.5324  140.0763  156.8368 H   0  0  0  0  0  0  0  0  0  0  0  0  # atno 8008 bound_to 7997
  155.3347  140.3404  155.4221 H   0  0  0  0  0  0  0  0  0  0  0  0  # atno 8009 bound_to 7997
  156.1794  140.1647  156.8288 H   0  0  0  0  0  0  0  0  0  0  0  0  # atno 8010 bound_to 7997
  140.4693  143.2431  151.8229 H   0  0  0  0  0  0  0  0  0  0  0  0  # atno 10167 bound_to 10162
  156.3639  130.4328  149.7601 H   0  0  0  0  0  0  0  0  0  0  0  0  # atno 10718 bound_to 10713
  153.4493  135.7015  153.6119 H   0  0  0  0  0  0  0  0  0  0  0  0  # atno 10763 bound_to 10752
  153.4461  135.3769  155.2257 H   0  0  0  0  0  0  0  0  0  0  0  0  # atno 10764 bound_to 10752
  154.8728  135.3985  154.3903 H   0  0  0  0  0  0  0  0  0  0  0  0  # atno 10765 bound_to 10752
  141.0770  133.6663  156.3612 H   0  0  0  0  0  0  0  0  0  0  0  0  # atno 11005 bound_to 11000
  144.8222  139.5771  143.6981 LP  0  0  0  0  0  0  0  0  0  0  0  0  # atno 17320 bound_to 7965
  146.2638  139.6473  142.9343 LP  0  0  0  0  0  0  0  0  0  0  0  0  # atno 17321 bound_to 7965
  139.4816  144.4911  151.9183 LP  0  0  0  0  0  0  0  0  0  0  0  0  # atno 17342 bound_to 10162
  140.3996  144.2510  150.5894 LP  0  0  0  0  0  0  0  0  0  0  0  0  # atno 17343 bound_to 10162
  156.4754  130.8016  151.3032 LP  0  0  0  0  0  0  0  0  0  0  0  0  # atno 17370 bound_to 10713
  157.7476  131.0022  150.2994 LP  0  0  0  0  0  0  0  0  0  0  0  0  # atno 17371 bound_to 10713
  140.5553  134.5988  157.5419 LP  0  0  0  0  0  0  0  0  0  0  0  0  # atno 17394 bound_to 11000
  139.9582  134.7498  156.0295 LP  0  0  0  0  0  0  0  0  0  0  0  0  # atno 17395 bound_to 11000

$$$$
