AV-unprocessed.smi:2167|AV-procd|sdf|8817|dock10
  -GOLD-   2272012 03D 1   1.00000     0.00000
 Structure written by MMmdl.
 41 42  0  0  0  0  0  0  0  0  1 V2000
  153.7262  139.2142  160.1452 C   0  0  0  0  0  0  0  0  0  0  0  0
  154.3516  140.5848  160.4424 C   0  0  0  0  0  0  0  0  0  0  0  0
  154.8286  140.7264  161.8951 C   0  0  0  0  0  0  0  0  0  0  0  0
  153.4582  141.7129  160.0317 C   0  0  0  0  0  0  0  0  0  0  0  0
  152.9332  141.8361  158.8089 N   0  0  0  0  0  0  0  0  0  0  0  0
  152.1220  142.9682  158.6784 C   0  0  0  0  0  0  0  0  0  0  0  0
  151.4336  143.2581  157.3738 C   0  0  0  0  0  0  0  0  0  0  0  0
  150.6559  142.0375  156.8704 C   0  0  0  0  0  0  0  0  0  0  0  0
  150.8770  140.9280  157.3548 O   0  0  0  0  0  0  0  0  0  0  0  0
  149.7621  142.2476  155.8888 N   0  0  0  0  0  0  0  0  0  0  0  0
  148.9290  141.2211  155.2602 C   0  0  1  0  0  0  0  0  0  0  0  0
  148.1617  141.8937  154.0988 C   0  0  0  0  0  0  0  0  0  0  0  0
  146.8851  141.1433  153.6816 C   0  0  0  0  0  0  0  0  0  0  0  0
  147.1176  139.7466  153.0854 C   0  0  0  0  0  0  0  0  0  0  0  0
  147.7745  138.7582  154.0639 C   0  0  0  0  0  0  0  0  0  0  0  0
  149.2074  138.9877  154.1947 N   0  0  0  0  0  0  0  0  0  0  0  0
  149.8059  140.0792  154.6953 C   0  0  0  0  0  0  0  0  0  0  0  0
  151.0338  140.1683  154.6973 O   0  0  0  0  0  0  0  0  0  0  0  0
  152.0531  143.7168  159.8274 C   0  0  0  0  0  0  0  0  0  0  0  0
  152.9890  143.0158  161.1182 S   0  0  0  0  0  0  0  0  0  0  0  0
  153.4763  139.1183  159.0882 H   0  0  0  0  0  0  0  0  0  0  0  0
  152.8116  139.0630  160.7196 H   0  0  0  0  0  0  0  0  0  0  0  0
  154.4136  138.4062  160.3966 H   0  0  0  0  0  0  0  0  0  0  0  0
  155.2432  140.6570  159.8181 H   0  0  0  0  0  0  0  0  0  0  0  0
  155.3400  141.6771  162.0491 H   0  0  0  0  0  0  0  0  0  0  0  0
  155.5251  139.9303  162.1592 H   0  0  0  0  0  0  0  0  0  0  0  0
  153.9921  140.6811  162.5933 H   0  0  0  0  0  0  0  0  0  0  0  0
  150.7382  144.0913  157.4806 H   0  0  0  0  0  0  0  0  0  0  0  0
  152.1612  143.5592  156.6189 H   0  0  0  0  0  0  0  0  0  0  0  0
  149.6535  143.1907  155.5453 H   0  0  0  0  0  0  0  0  0  0  0  0
  148.2266  140.8275  155.9973 H   0  0  0  0  0  0  0  0  0  0  0  0
  147.8546  142.8942  154.4086 H   0  0  0  0  0  0  0  0  0  0  0  0
  148.8116  142.0440  153.2347 H   0  0  0  0  0  0  0  0  0  0  0  0
  146.2162  141.0640  154.5395 H   0  0  0  0  0  0  0  0  0  0  0  0
  146.3525  141.7478  152.9466 H   0  0  0  0  0  0  0  0  0  0  0  0
  146.1501  139.3431  152.7849 H   0  0  0  0  0  0  0  0  0  0  0  0
  147.7074  139.8193  152.1706 H   0  0  0  0  0  0  0  0  0  0  0  0
  147.2902  138.7882  155.0409 H   0  0  0  0  0  0  0  0  0  0  0  0
  147.6452  137.7429  153.6886 H   0  0  0  0  0  0  0  0  0  0  0  0
  149.8091  138.2575  153.8420 H   0  0  0  0  0  0  0  0  0  0  0  0
  151.5051  144.6327  159.9935 H   0  0  0  0  0  0  0  0  0  0  0  0
  1  2  1  0  0  0  0
  1 21  1  0  0  0  0
  1 22  1  0  0  0  0
  1 23  1  0  0  0  0
  2  3  1  0  0  0  0
  2  4  1  0  0  0  0
  2 24  1  0  0  0  0
  3 25  1  0  0  0  0
  3 26  1  0  0  0  0
  3 27  1  0  0  0  0
  4 20  1  0  0  0  0
  4  5  2  0  0  0  0
  5  6  1  0  0  0  0
  6  7  1  0  0  0  0
  6 19  2  0  0  0  0
  7  8  1  0  0  0  0
  7 28  1  0  0  0  0
  7 29  1  0  0  0  0
  8  9  2  0  0  0  0
  8 10  1  0  0  0  0
 10 11  1  0  0  0  0
 10 30  1  0  0  0  0
 11 17  1  0  0  0  0
 11 12  1  0  0  0  0
 11 31  1  0  0  0  0
 12 13  1  0  0  0  0
 12 32  1  0  0  0  0
 12 33  1  0  0  0  0
 13 14  1  0  0  0  0
 13 34  1  0  0  0  0
 13 35  1  0  0  0  0
 14 15  1  0  0  0  0
 14 36  1  0  0  0  0
 14 37  1  0  0  0  0
 15 16  1  0  0  0  0
 15 38  1  0  0  0  0
 15 39  1  0  0  0  0
 16 17  1  0  0  0  0
 16 40  1  0  0  0  0
 17 18  2  0  0  0  0
 19 20  1  0  0  0  0
 19 41  1  0  0  0  0
M  END
> <s_m_source_file>
AV-unprocessed.smi

> <i_m_source_file_index>
2167

> <i_lp_mmshare_version>
43012

> <i_f3d_flags>
0

> <s_epik_input>
W0NIM11bQ0hdKFtDSDNdKWMxbmMoW2NIXXMxKVtDSDJdQyg9TylbTkhdW0NAQEhdMltDSDJdW0NIMl1bQ0gyXVtDSDJdW05IXUMyPU8=

> <s_epik_cmdline>
J2VwaWtfcHl0aG9uJywgJy1waCcsICc3LjAnLCAnLXRuJywgJzgnLCAnLW1hJywgJzIwMCcsICctbWV0YWxfYmluZGluZycsICctaW1hZScsICc8aW5maWxlLm1hZT4nLCAnLW9tYWUnLCAnPG91dGZpbGUubWFlPic=

> <r_lp_tautomer_probability>
1

> <r_epik_Ionization_Penalty>
3.1619e-05

> <r_epik_Ionization_Penalty_Charging>
0

> <r_epik_Ionization_Penalty_Neutral>
3.1619e-05

> <r_epik_State_Penalty>
-0

> <r_epik_Charging_Adjusted_Penalty>
0

> <i_epik_Tot_Q>
0

> <i_epik_Tot_abs_Q>
0

> <r_epik_Metal_State_Penalty>
-0

> <b_epik_Metal_Only>
0

> <s_lp_Force_Field>
OPLS_2005

> <r_lp_Energy>
3.21442

> <b_lp_Chiralities_Consistent>
1

> <s_lp_Variant>
AV-unprocessed.smi:2167-2

> <Gold.Version>
5.8.1

> <Gold.Id.Protein>
6NUR|6NUR_protein|mol2

> <Gold.PLP.Fitness>
48.4560

> <Gold.PLP.PLP>
-43.0466

> <Gold.PLP.part.hbond>
-2.4859

> <Gold.PLP.part.metal>
0.0000

> <Gold.PLP.part.buried>
-3.6302

> <Gold.PLP.part.nonpolar>
-37.1858

> <Gold.PLP.part.repulsive>
0.2752

> <Gold.PLP.ligand.clash>
0.0000

> <Gold.PLP.ligand.torsion>
0.3317

> <Gold.PLP.Chemscore.Hbond>
2.0000

> <Gold.PLP.Chemscore.CHOScore>
0.0000

> <Gold.PLP.Chemscore.Metal>
0.0000

> <Gold.Chemscore.Hbonds>
donor molecule, donor type, donor heavy atom, donor atom, acceptor molecule, acceptor atom, score
      L1  H    10    30       P1  8028  0.99
      P1  H  7989  7998       L1    18  0.96

> <Gold.PLP.Chemscore.Internal.Correction>
0.0729

> <Gold.Rescore>
     Score         DG    S(hbond)    S(metal)    S(lipo)     H(rot)  DE(clash)    DE(int)     intcor
     17.47     -20.01       1.99        0.00     101.83       1.57       0.00       2.54       ----

> <Gold.Chemscore.Fitness>
17.4685

> <Gold.Chemscore.DG>
-20.0094

> <Gold.Chemscore.ZeroCoef>
-5.4800

> <Gold.Chemscore.Hbond>
1.9888

> <Gold.Chemscore.Metal>
0.0000

> <Gold.Chemscore.Lipo>
101.8329

> <Gold.Chemscore.Internal_Hbond>
0.0000

> <Gold.Chemscore.DEClash>
0.0038

> <Gold.Chemscore.DEInternal>
2.5371

> <Gold.Chemscore.Rot>
1.5733

> <Gold.Chemscore.Internal.Correction>
   9.000000E+99

> <Gold.Chemscore.Hbonds>
donor molecule, donor type, donor heavy atom, donor atom, acceptor molecule, acceptor atom, score
      L1  H    10    30       P1  8028  0.94
      P1  H  7989  7998       L1    18  0.81

> <Gold.Chemscore.Hbond.Weighted>
-6.6425

> <Gold.Chemscore.Metal.Weighted>
-0.0000

> <Gold.Chemscore.Lipo.Weighted>
-11.9144

> <Gold.Chemscore.Internal_Hbond.Weighted>
0.0000

> <Gold.Chemscore.DEClash.Weighted>
0.0038

> <Gold.Chemscore.DEInternal.Weighted>
2.5371

> <Gold.Chemscore.Rot.Weighted>
4.0276

> <Gold.Chemscore.Internal.Correction.Weighted>
   9.000000E+99

> <Gold.Protein.RotatedTorsions>
[ 6907 6896 6895 6894 ] final   44.34 input  -60.11 | X-H torsion
[ 7974 7965 7964 7962 ] final  -49.19 input  175.53 | X-H torsion
[ 8008 7997 7996 7995 ] final  -30.74 input   59.86 | X-H torsion
[ 10167 10162 10161 10158 ] final   26.67 input  -65.29 | X-H torsion
[ 10718 10713 10712 10709 ] final  -22.38 input   66.30 | X-H torsion
[ 10763 10752 10751 10750 ] final   92.16 input  -60.55 | X-H torsion
[ 11005 11000 10999 10996 ] final -126.65 input  -57.11 | X-H torsion

> <Gold.Protein.ActiveResidues>
 VAL166  LYS551  ARG553  GLY616  TRP617  ASP618  TYR619  PRO620  LYS621  CYS622 
 ASP623  PHE694  ASN695  SER759  ASP760  ASP761  ALA762  ILE779  LEU786  VAL792 
 PHE793  MET794  SER795  GLU796  ALA797  LYS798  CYS799  TRP800  GLU811  SER814 

> <Gold.Protein.RotatedAtoms>
  152.2314  134.8318  160.0472 H   0  0  0  0  0  0  0  0  0  0  0  0  # atno 6907 bound_to 6896
  151.9066  133.3546  159.3857 H   0  0  0  0  0  0  0  0  0  0  0  0  # atno 6908 bound_to 6896
  150.7026  134.4700  159.5465 H   0  0  0  0  0  0  0  0  0  0  0  0  # atno 6909 bound_to 6896
  145.9432  140.7642  142.9541 H   0  0  0  0  0  0  0  0  0  0  0  0  # atno 7974 bound_to 7965
  154.4239  140.1783  156.1455 H   0  0  0  0  0  0  0  0  0  0  0  0  # atno 8008 bound_to 7997
  155.9958  140.3364  155.6772 H   0  0  0  0  0  0  0  0  0  0  0  0  # atno 8009 bound_to 7997
  155.6311  140.0670  157.2639 H   0  0  0  0  0  0  0  0  0  0  0  0  # atno 8010 bound_to 7997
  140.5003  144.0326  150.6330 H   0  0  0  0  0  0  0  0  0  0  0  0  # atno 10167 bound_to 10162
  156.5053  130.4597  149.6678 H   0  0  0  0  0  0  0  0  0  0  0  0  # atno 10718 bound_to 10713
  153.2161  135.4371  155.0436 H   0  0  0  0  0  0  0  0  0  0  0  0  # atno 10763 bound_to 10752
  154.8226  135.3345  154.6996 H   0  0  0  0  0  0  0  0  0  0  0  0  # atno 10764 bound_to 10752
  153.7431  135.7003  153.5018 H   0  0  0  0  0  0  0  0  0  0  0  0  # atno 10765 bound_to 10752
  140.9664  134.0866  157.3916 H   0  0  0  0  0  0  0  0  0  0  0  0  # atno 11005 bound_to 11000
  144.6782  140.2314  143.7355 LP  0  0  0  0  0  0  0  0  0  0  0  0  # atno 17320 bound_to 7965
  145.8271  139.2069  143.1904 LP  0  0  0  0  0  0  0  0  0  0  0  0  # atno 17321 bound_to 7965
  140.3620  143.2903  152.0373 LP  0  0  0  0  0  0  0  0  0  0  0  0  # atno 17342 bound_to 10162
  139.4870  144.6296  151.7097 LP  0  0  0  0  0  0  0  0  0  0  0  0  # atno 17343 bound_to 10162
  156.3293  130.7323  151.2249 LP  0  0  0  0  0  0  0  0  0  0  0  0  # atno 17370 bound_to 10713
  157.7458  131.0434  150.4743 LP  0  0  0  0  0  0  0  0  0  0  0  0  # atno 17371 bound_to 10713
  139.8896  135.0106  156.6688 LP  0  0  0  0  0  0  0  0  0  0  0  0  # atno 17394 bound_to 11000
  140.7393  133.8991  155.8267 LP  0  0  0  0  0  0  0  0  0  0  0  0  # atno 17395 bound_to 11000

$$$$
