AV-unprocessed.smi:2084|AV-procd|sdf|8514|dock2
  -GOLD-   2272011233D 1   1.00000     0.00000
 Structure written by MMmdl.
 39 40  0  0  0  0  0  0  0  0  2 V2000
  146.1242  135.1423  153.8577 C   0  0  0  0  0  0  0  0  0  0  0  0
  146.2891  134.9015  152.3971 N   0  3  0  0  0  0  0  0  0  0  0  0
  145.2910  135.6943  151.6333 C   0  0  0  0  0  0  0  0  0  0  0  0
  146.4230  133.4604  151.9700 C   0  0  0  0  0  0  0  0  0  0  0  0
  147.6167  132.7943  152.7265 C   0  0  0  0  0  0  0  0  0  0  0  0
  147.9729  131.4685  152.2179 N   0  0  0  0  0  0  0  0  0  0  0  0
  148.0465  130.3443  152.9449 C   0  0  0  0  0  0  0  0  0  0  0  0
  147.8136  130.2993  154.1524 O   0  0  0  0  0  0  0  0  0  0  0  0
  148.3944  129.2963  152.1814 N   0  0  0  0  0  0  0  0  0  0  0  0
  148.5765  127.9507  152.5863 C   0  0  0  0  0  0  0  0  0  0  0  0
  148.3215  127.6191  153.8532 N   0  0  0  0  0  0  0  0  0  0  0  0
  148.5468  126.2608  154.0954 C   0  0  0  0  0  0  0  0  0  0  0  0
  148.9746  125.5667  152.9909 C   0  0  0  0  0  0  0  0  0  0  0  0
  149.1157  126.5957  151.5913 S   0  0  0  0  0  0  0  0  0  0  0  0
  145.1111  132.6736  152.2746 C   0  0  0  0  0  0  0  0  0  0  0  0
  144.4726  132.3402  150.9243 C   0  0  0  0  0  0  0  0  0  0  0  0
  145.6552  132.2230  149.9704 C   0  0  0  0  0  0  0  0  0  0  0  0
  146.6155  133.3209  150.4315 C   0  0  0  0  0  0  0  0  0  0  0  0
  145.1360  134.8526  154.2132 H   0  0  0  0  0  0  0  0  0  0  0  0
  146.2386  136.2061  154.0691 H   0  0  0  0  0  0  0  0  0  0  0  0
  146.8651  134.6325  154.4695 H   0  0  0  0  0  0  0  0  0  0  0  0
  144.3077  135.2237  151.6528 H   0  0  0  0  0  0  0  0  0  0  0  0
  145.5920  135.8353  150.5962 H   0  0  0  0  0  0  0  0  0  0  0  0
  145.1871  136.6953  152.0536 H   0  0  0  0  0  0  0  0  0  0  0  0
  148.5262  133.3826  152.6137 H   0  0  0  0  0  0  0  0  0  0  0  0
  147.4045  132.7654  153.7968 H   0  0  0  0  0  0  0  0  0  0  0  0
  148.1803  131.4043  151.2318 H   0  0  0  0  0  0  0  0  0  0  0  0
  148.5466  129.4785  151.2005 H   0  0  0  0  0  0  0  0  0  0  0  0
  148.3765  125.8699  155.0876 H   0  0  0  0  0  0  0  0  0  0  0  0
  149.2149  124.5165  152.9164 H   0  0  0  0  0  0  0  0  0  0  0  0
  145.3164  131.7338  152.7849 H   0  0  0  0  0  0  0  0  0  0  0  0
  144.4247  133.1952  152.9410 H   0  0  0  0  0  0  0  0  0  0  0  0
  143.8705  131.4317  150.9588 H   0  0  0  0  0  0  0  0  0  0  0  0
  143.8228  133.1557  150.6051 H   0  0  0  0  0  0  0  0  0  0  0  0
  146.1235  131.2444  150.0827 H   0  0  0  0  0  0  0  0  0  0  0  0
  145.3638  132.3330  148.9254 H   0  0  0  0  0  0  0  0  0  0  0  0
  146.3630  134.2371  149.9012 H   0  0  0  0  0  0  0  0  0  0  0  0
  147.6453  133.0945  150.1525 H   0  0  0  0  0  0  0  0  0  0  0  0
  147.1818  135.3173  152.1716 H   0  0  0  0  0  0  0  0  0  0  0  0
  1  2  1  0  0  0  0
  1 19  1  0  0  0  0
  1 20  1  0  0  0  0
  1 21  1  0  0  0  0
  2  3  1  0  0  0  0
  2  4  1  0  0  0  0
  2 39  1  0  0  0  0
  3 22  1  0  0  0  0
  3 23  1  0  0  0  0
  3 24  1  0  0  0  0
  4 18  1  0  0  0  0
  4  5  1  0  0  0  0
  4 15  1  0  0  0  0
  5  6  1  0  0  0  0
  5 25  1  0  0  0  0
  5 26  1  0  0  0  0
  6  7  1  0  0  0  0
  6 27  1  0  0  0  0
  7  8  2  0  0  0  0
  7  9  1  0  0  0  0
  9 10  1  0  0  0  0
  9 28  1  0  0  0  0
 10 14  1  0  0  0  0
 10 11  2  0  0  0  0
 11 12  1  0  0  0  0
 12 13  2  0  0  0  0
 12 29  1  0  0  0  0
 13 14  1  0  0  0  0
 13 30  1  0  0  0  0
 15 16  1  0  0  0  0
 15 31  1  0  0  0  0
 15 32  1  0  0  0  0
 16 17  1  0  0  0  0
 16 33  1  0  0  0  0
 16 34  1  0  0  0  0
 17 18  1  0  0  0  0
 17 35  1  0  0  0  0
 17 36  1  0  0  0  0
 18 37  1  0  0  0  0
 18 38  1  0  0  0  0
M  CHG  1   2   1
M  END
> <s_m_source_file>
AV-unprocessed.smi

> <i_m_source_file_index>
2084

> <i_lp_mmshare_version>
43012

> <i_f3d_flags>
0

> <s_epik_input>
W0NIMl0xW0NIMl1bQ0gyXVtDSDJdQzEoTihbQ0gzXSlbQ0gzXSlbQ0gyXVtOSF1DKD1PKVtOSF1jMm5bY0hdW2NIXXMy

> <s_epik_cmdline>
J2VwaWtfcHl0aG9uJywgJy1waCcsICc3LjAnLCAnLXRuJywgJzgnLCAnLW1hJywgJzIwMCcsICctbWV0YWxfYmluZGluZycsICctaW1hZScsICc8aW5maWxlLm1hZT4nLCAnLW9tYWUnLCAnPG91dGZpbGUubWFlPic=

> <r_lp_tautomer_probability>
1

> <r_epik_Ionization_Penalty>
0.0027968

> <r_epik_Ionization_Penalty_Charging>
0.00256589

> <r_epik_Ionization_Penalty_Neutral>
0.000230907

> <r_epik_State_Penalty>
-0

> <r_epik_Charging_Adjusted_Penalty>
0.00256589

> <i_epik_Tot_Q>
1

> <i_epik_Tot_abs_Q>
1

> <r_epik_Metal_State_Penalty>
0.0129581

> <b_epik_Metal_Only>
0

> <s_lp_Force_Field>
OPLS_2005

> <r_lp_Energy>
35.9551

> <b_lp_Chiralities_Consistent>
1

> <s_lp_Variant>
AV-unprocessed.smi:2084-1

> <Gold.Version>
5.8.1

> <Gold.Id.Protein>
6NUR|6NUR_protein|mol2

> <Gold.PLP.Fitness>
38.8995

> <Gold.PLP.PLP>
-27.7985

> <Gold.PLP.part.hbond>
-2.8143

> <Gold.PLP.part.metal>
0.0000

> <Gold.PLP.part.buried>
-4.0835

> <Gold.PLP.part.nonpolar>
-20.5463

> <Gold.PLP.part.repulsive>
0.1438

> <Gold.PLP.ligand.clash>
0.0000

> <Gold.PLP.ligand.torsion>
0.1587

> <Gold.PLP.Chemscore.Hbond>
3.7665

> <Gold.PLP.Chemscore.CHOScore>
0.0000

> <Gold.PLP.Chemscore.Metal>
0.0000

> <Gold.Chemscore.Hbonds>
donor molecule, donor type, donor heavy atom, donor atom, acceptor molecule, acceptor atom, score
      L1  H     2    39       P1  7948  2.00
      L1  H     6    27       P1 10747  0.52
      L1  H     9    28       P1 10747  0.54

> <Gold.PLP.Chemscore.Internal.Correction>
0.1191

> <Gold.Rescore>
     Score         DG    S(hbond)    S(metal)    S(lipo)     H(rot)  DE(clash)    DE(int)     intcor
     14.73     -16.39       2.33        0.00      61.32       1.59       0.04       1.61       ----

> <Gold.Chemscore.Fitness>
14.7298

> <Gold.Chemscore.DG>
-16.3866

> <Gold.Chemscore.ZeroCoef>
-5.4800

> <Gold.Chemscore.Hbond>
2.3323

> <Gold.Chemscore.Metal>
0.0000

> <Gold.Chemscore.Lipo>
61.3199

> <Gold.Chemscore.Internal_Hbond>
0.0000

> <Gold.Chemscore.DEClash>
0.0431

> <Gold.Chemscore.DEInternal>
1.6136

> <Gold.Chemscore.Rot>
1.5850

> <Gold.Chemscore.Internal.Correction>
   9.000000E+99

> <Gold.Chemscore.Hbonds>
donor molecule, donor type, donor heavy atom, donor atom, acceptor molecule, acceptor atom, score
      L1  H     2    39       P1  7948  0.97
      L1  H     6    27       P1 10747  0.50
      L1  H     9    28       P1 10747  0.07

> <Gold.Chemscore.Hbond.Weighted>
-7.7899

> <Gold.Chemscore.Metal.Weighted>
-0.0000

> <Gold.Chemscore.Lipo.Weighted>
-7.1744

> <Gold.Chemscore.Internal_Hbond.Weighted>
0.0000

> <Gold.Chemscore.DEClash.Weighted>
0.0431

> <Gold.Chemscore.DEInternal.Weighted>
1.6136

> <Gold.Chemscore.Rot.Weighted>
4.0577

> <Gold.Chemscore.Internal.Correction.Weighted>
   9.000000E+99

> <Gold.Protein.RotatedTorsions>
[ 6907 6896 6895 6894 ] final   12.01 input  -60.11 | X-H torsion
[ 7974 7965 7964 7962 ] final -104.24 input  175.53 | X-H torsion
[ 8008 7997 7996 7995 ] final  128.60 input   59.86 | X-H torsion
[ 10167 10162 10161 10158 ] final  140.76 input  -65.29 | X-H torsion
[ 10718 10713 10712 10709 ] final  -26.49 input   66.30 | X-H torsion
[ 10763 10752 10751 10750 ] final  -27.86 input  -60.55 | X-H torsion
[ 11005 11000 10999 10996 ] final -132.22 input  -57.11 | X-H torsion

> <Gold.Protein.ActiveResidues>
 VAL166  LYS551  ARG553  GLY616  TRP617  ASP618  TYR619  PRO620  LYS621  CYS622 
 ASP623  PHE694  ASN695  SER759  ASP760  ASP761  ALA762  ILE779  LEU786  VAL792 
 PHE793  MET794  SER795  GLU796  ALA797  LYS798  CYS799  TRP800  GLU811  SER814 

> <Gold.Protein.RotatedAtoms>
  151.7635  135.0804  160.0348 H   0  0  0  0  0  0  0  0  0  0  0  0  # atno 6907 bound_to 6896
  152.3337  133.5983  159.5836 H   0  0  0  0  0  0  0  0  0  0  0  0  # atno 6908 bound_to 6896
  150.7438  133.9744  159.3598 H   0  0  0  0  0  0  0  0  0  0  0  0  # atno 6909 bound_to 6896
  145.2456  140.9220  143.3124 H   0  0  0  0  0  0  0  0  0  0  0  0  # atno 7974 bound_to 7965
  156.2918  140.2641  156.2462 H   0  0  0  0  0  0  0  0  0  0  0  0  # atno 8008 bound_to 7997
  154.9928  140.0388  157.2345 H   0  0  0  0  0  0  0  0  0  0  0  0  # atno 8009 bound_to 7997
  154.7671  140.2771  155.6172 H   0  0  0  0  0  0  0  0  0  0  0  0  # atno 8010 bound_to 7997
  139.5039  144.6214  151.6042 H   0  0  0  0  0  0  0  0  0  0  0  0  # atno 10167 bound_to 10162
  156.4505  130.4483  149.6993 H   0  0  0  0  0  0  0  0  0  0  0  0  # atno 10718 bound_to 10713
  153.7389  135.6934  153.4971 H   0  0  0  0  0  0  0  0  0  0  0  0  # atno 10763 bound_to 10752
  153.2083  135.4412  155.0348 H   0  0  0  0  0  0  0  0  0  0  0  0  # atno 10764 bound_to 10752
  154.8227  135.3430  154.6915 H   0  0  0  0  0  0  0  0  0  0  0  0  # atno 10765 bound_to 10752
  140.9190  134.1469  157.4329 H   0  0  0  0  0  0  0  0  0  0  0  0  # atno 11005 bound_to 11000
  144.9549  139.4042  143.6384 LP  0  0  0  0  0  0  0  0  0  0  0  0  # atno 17320 bound_to 7965
  146.3316  139.8574  142.8862 LP  0  0  0  0  0  0  0  0  0  0  0  0  # atno 17321 bound_to 7965
  140.5917  143.9767  150.6329 LP  0  0  0  0  0  0  0  0  0  0  0  0  # atno 17342 bound_to 10162
  140.2950  143.3298  152.1026 LP  0  0  0  0  0  0  0  0  0  0  0  0  # atno 17343 bound_to 10162
  156.3821  130.7584  151.2578 LP  0  0  0  0  0  0  0  0  0  0  0  0  # atno 17370 bound_to 10713
  157.7503  131.0292  150.4084 LP  0  0  0  0  0  0  0  0  0  0  0  0  # atno 17371 bound_to 10713
  139.8771  134.9964  156.5794 LP  0  0  0  0  0  0  0  0  0  0  0  0  # atno 17394 bound_to 11000
  140.8013  133.8503  155.8729 LP  0  0  0  0  0  0  0  0  0  0  0  0  # atno 17395 bound_to 11000

$$$$
