AV-unprocessed.smi:414|AV-procd|sdf|2514|dock2
  -GOLD-   2262022463D 1   1.00000     0.00000
 Structure written by MMmdl.
 38 39  0  0  0  0  0  0  0  0  1 V2000
  151.5245  145.8532  159.8560 C   0  0  0  0  0  0  0  0  0  0  0  0
  151.7042  144.3642  160.1840 C   0  0  2  0  0  0  0  0  0  0  0  0
  152.3719  144.1661  161.5582 C   0  0  0  0  0  0  0  0  0  0  0  0
  152.5557  142.6760  161.8884 C   0  0  0  0  0  0  0  0  0  0  0  0
  153.3573  141.9507  160.7924 C   0  0  1  0  0  0  0  0  0  0  0  0
  153.4589  140.5315  161.1184 N   0  0  0  0  0  0  0  0  0  0  0  0
  154.1170  139.6135  160.3938 C   0  0  0  0  0  0  0  0  0  0  0  0
  154.7032  139.8773  159.3429 O   0  0  0  0  0  0  0  0  0  0  0  0
  154.0824  138.1769  160.9348 C   0  0  0  0  0  0  0  0  0  0  0  0
  154.5804  138.0694  162.3139 N   0  0  0  0  0  0  0  0  0  0  0  0
  153.8979  137.3021  163.2472 C   0  0  0  0  0  0  0  0  0  0  0  0
  154.3062  137.1500  164.5294 C   0  0  0  0  0  0  0  0  0  0  0  0
  155.5206  137.8071  165.0007 C   0  0  0  0  0  0  0  0  0  0  0  0
  155.9707  137.7317  166.1418 O   0  0  0  0  0  0  0  0  0  0  0  0
  156.1802  138.5680  164.0317 N   0  0  0  0  0  0  0  0  0  0  0  0
  155.7658  138.7275  162.7084 C   0  0  0  0  0  0  0  0  0  0  0  0
  156.4252  139.4190  161.9330 O   0  0  0  0  0  0  0  0  0  0  0  0
  152.6941  142.1478  159.4144 C   0  0  0  0  0  0  0  0  0  0  0  0
  152.5082  143.6385  159.0883 C   0  0  0  0  0  0  0  0  0  0  0  0
  157.0283  139.0392  164.3113 H   0  0  0  0  0  0  0  0  0  0  0  0
  152.4853  146.3660  159.8008 H   0  0  0  0  0  0  0  0  0  0  0  0
  150.9232  146.3530  160.6161 H   0  0  0  0  0  0  0  0  0  0  0  0
  151.0204  145.9862  158.8983 H   0  0  0  0  0  0  0  0  0  0  0  0
  150.7107  143.9150  160.2247 H   0  0  0  0  0  0  0  0  0  0  0  0
  153.3433  144.6627  161.5718 H   0  0  0  0  0  0  0  0  0  0  0  0
  151.7727  144.6403  162.3363 H   0  0  0  0  0  0  0  0  0  0  0  0
  153.0607  142.5739  162.8499 H   0  0  0  0  0  0  0  0  0  0  0  0
  151.5764  142.2087  162.0028 H   0  0  0  0  0  0  0  0  0  0  0  0
  154.3604  142.3815  160.7668 H   0  0  0  0  0  0  0  0  0  0  0  0
  153.0000  140.2257  161.9641 H   0  0  0  0  0  0  0  0  0  0  0  0
  153.0664  137.7816  160.8706 H   0  0  0  0  0  0  0  0  0  0  0  0
  154.6771  137.5504  160.2682 H   0  0  0  0  0  0  0  0  0  0  0  0
  152.9950  136.7929  162.9413 H   0  0  0  0  0  0  0  0  0  0  0  0
  153.7319  136.5379  165.2096 H   0  0  0  0  0  0  0  0  0  0  0  0
  153.2959  141.6784  158.6351 H   0  0  0  0  0  0  0  0  0  0  0  0
  151.7235  141.6499  159.3963 H   0  0  0  0  0  0  0  0  0  0  0  0
  152.0050  143.7408  158.1262 H   0  0  0  0  0  0  0  0  0  0  0  0
  153.4862  144.1085  158.9758 H   0  0  0  0  0  0  0  0  0  0  0  0
  1  2  1  0  0  0  0
  1 21  1  0  0  0  0
  1 22  1  0  0  0  0
  1 23  1  0  0  0  0
  2 19  1  0  0  0  0
  2  3  1  0  0  0  0
  2 24  1  0  0  0  0
  3  4  1  0  0  0  0
  3 25  1  0  0  0  0
  3 26  1  0  0  0  0
  4  5  1  0  0  0  0
  4 27  1  0  0  0  0
  4 28  1  0  0  0  0
  5  6  1  0  0  0  0
  5 18  1  0  0  0  0
  5 29  1  0  0  0  0
  6  7  1  0  0  0  0
  6 30  1  0  0  0  0
  7  8  2  0  0  0  0
  7  9  1  0  0  0  0
  9 10  1  0  0  0  0
  9 31  1  0  0  0  0
  9 32  1  0  0  0  0
 10 16  1  0  0  0  0
 10 11  1  0  0  0  0
 11 12  2  0  0  0  0
 11 33  1  0  0  0  0
 12 13  1  0  0  0  0
 12 34  1  0  0  0  0
 13 14  2  0  0  0  0
 13 15  1  0  0  0  0
 15 20  1  0  0  0  0
 15 16  1  0  0  0  0
 16 17  2  0  0  0  0
 18 19  1  0  0  0  0
 18 35  1  0  0  0  0
 18 36  1  0  0  0  0
 19 37  1  0  0  0  0
 19 38  1  0  0  0  0
M  END
> <s_m_source_file>
AV-unprocessed.smi

> <i_m_source_file_index>
414

> <i_lp_mmshare_version>
43012

> <i_f3d_flags>
0

> <s_epik_input>
W0NIM11bQ0BASF0xW0NIMl1bQ0gyXVtDQEhdKFtDSDJdW0NIMl0xKVtOSF1DKD1PKVtDSDJdbjJbY0hdW2NIXWMoPU8pW25IXWMyPU8=

> <s_epik_cmdline>
J2VwaWtfcHl0aG9uJywgJy1waCcsICc3LjAnLCAnLXRuJywgJzgnLCAnLW1hJywgJzIwMCcsICctbWV0YWxfYmluZGluZycsICctaW1hZScsICc8aW5maWxlLm1hZT4nLCAnLW9tYWUnLCAnPG91dGZpbGUubWFlPic=

> <r_lp_tautomer_probability>
0.999537

> <r_epik_Ionization_Penalty>
0.00309124

> <r_epik_Ionization_Penalty_Charging>
0.00309122

> <r_epik_Ionization_Penalty_Neutral>
1.90469e-08

> <r_epik_State_Penalty>
0.00217484

> <r_epik_Charging_Adjusted_Penalty>
0.00526606

> <i_epik_Tot_Q>
0

> <i_epik_Tot_abs_Q>
0

> <r_epik_Metal_State_Penalty>
0.362537

> <b_epik_Metal_Only>
0

> <s_lp_Force_Field>
OPLS_2005

> <r_lp_Energy>
8.30971

> <b_lp_Chiralities_Consistent>
1

> <s_lp_Variant>
AV-unprocessed.smi:414-1

> <Gold.Version>
5.8.1

> <Gold.Id.Protein>
6NUR|6NUR_protein|mol2

> <Gold.PLP.Fitness>
45.2816

> <Gold.PLP.PLP>
-42.7263

> <Gold.PLP.part.hbond>
-2.1268

> <Gold.PLP.part.metal>
0.0000

> <Gold.PLP.part.buried>
-4.6852

> <Gold.PLP.part.nonpolar>
-35.9497

> <Gold.PLP.part.repulsive>
0.1239

> <Gold.PLP.ligand.clash>
0.0000

> <Gold.PLP.ligand.torsion>
0.2120

> <Gold.PLP.Chemscore.Hbond>
0.9913

> <Gold.PLP.Chemscore.CHOScore>
0.0000

> <Gold.PLP.Chemscore.Metal>
0.0000

> <Gold.Chemscore.Hbonds>
donor molecule, donor type, donor heavy atom, donor atom, acceptor molecule, acceptor atom, score
      P1  H  7997  8008       L1     8  0.96

> <Gold.PLP.Chemscore.Internal.Correction>
0.0056

> <Gold.Rescore>
     Score         DG    S(hbond)    S(metal)    S(lipo)     H(rot)  DE(clash)    DE(int)     intcor
     14.90     -16.33       0.97        0.00     102.12       1.69       0.06       1.38       ----

> <Gold.Chemscore.Fitness>
14.8962

> <Gold.Chemscore.DG>
-16.3312

> <Gold.Chemscore.ZeroCoef>
-5.4800

> <Gold.Chemscore.Hbond>
0.9651

> <Gold.Chemscore.Metal>
0.0000

> <Gold.Chemscore.Lipo>
102.1170

> <Gold.Chemscore.Internal_Hbond>
0.0000

> <Gold.Chemscore.DEClash>
0.0562

> <Gold.Chemscore.DEInternal>
1.3787

> <Gold.Chemscore.Rot>
1.6874

> <Gold.Chemscore.Internal.Correction>
   9.000000E+99

> <Gold.Chemscore.Hbonds>
donor molecule, donor type, donor heavy atom, donor atom, acceptor molecule, acceptor atom, score
      P1  H  7997  8008       L1     8  0.88

> <Gold.Chemscore.Hbond.Weighted>
-3.2233

> <Gold.Chemscore.Metal.Weighted>
-0.0000

> <Gold.Chemscore.Lipo.Weighted>
-11.9477

> <Gold.Chemscore.Internal_Hbond.Weighted>
0.0000

> <Gold.Chemscore.DEClash.Weighted>
0.0562

> <Gold.Chemscore.DEInternal.Weighted>
1.3787

> <Gold.Chemscore.Rot.Weighted>
4.3198

> <Gold.Chemscore.Internal.Correction.Weighted>
   9.000000E+99

> <Gold.Protein.RotatedTorsions>
[ 6907 6896 6895 6894 ] final  -45.01 input  -60.11 | X-H torsion
[ 7974 7965 7964 7962 ] final  -91.87 input  175.53 | X-H torsion
[ 8008 7997 7996 7995 ] final -125.35 input   59.86 | X-H torsion
[ 10167 10162 10161 10158 ] final   56.57 input  -65.29 | X-H torsion
[ 10718 10713 10712 10709 ] final   30.20 input   66.30 | X-H torsion
[ 10763 10752 10751 10750 ] final  132.84 input  -60.55 | X-H torsion
[ 11005 11000 10999 10996 ] final -171.29 input  -57.11 | X-H torsion

> <Gold.Protein.ActiveResidues>
 VAL166  LYS551  ARG553  GLY616  TRP617  ASP618  TYR619  PRO620  LYS621  CYS622 
 ASP623  PHE694  ASN695  SER759  ASP760  ASP761  ALA762  ILE779  LEU786  VAL792 
 PHE793  MET794  SER795  GLU796  ALA797  LYS798  CYS799  TRP800  GLU811  SER814 

> <Gold.Protein.RotatedAtoms>
  150.9266  134.8682  159.7523 H   0  0  0  0  0  0  0  0  0  0  0  0  # atno 6907 bound_to 6896
  152.5018  134.4140  159.9468 H   0  0  0  0  0  0  0  0  0  0  0  0  # atno 6908 bound_to 6896
  151.4170  133.3670  159.2786 H   0  0  0  0  0  0  0  0  0  0  0  0  # atno 6909 bound_to 6896
  145.4074  140.9542  143.2253 H   0  0  0  0  0  0  0  0  0  0  0  0  # atno 7974 bound_to 7965
  155.2118  140.0419  157.2934 H   0  0  0  0  0  0  0  0  0  0  0  0  # atno 8008 bound_to 7997
  154.6006  140.2451  155.7768 H   0  0  0  0  0  0  0  0  0  0  0  0  # atno 8009 bound_to 7997
  156.2319  140.2935  156.0219 H   0  0  0  0  0  0  0  0  0  0  0  0  # atno 8010 bound_to 7997
  140.2073  144.3925  150.6503 H   0  0  0  0  0  0  0  0  0  0  0  0  # atno 10167 bound_to 10162
  157.2564  130.7140  149.6431 H   0  0  0  0  0  0  0  0  0  0  0  0  # atno 10718 bound_to 10713
  153.7973  135.3146  155.3386 H   0  0  0  0  0  0  0  0  0  0  0  0  # atno 10763 bound_to 10752
  154.8102  135.4672  154.0500 H   0  0  0  0  0  0  0  0  0  0  0  0  # atno 10764 bound_to 10752
  153.1837  135.6897  153.8530 H   0  0  0  0  0  0  0  0  0  0  0  0  # atno 10765 bound_to 10752
  140.5099  134.5812  157.5015 H   0  0  0  0  0  0  0  0  0  0  0  0  # atno 11005 bound_to 11000
  144.8332  139.5593  143.6934 LP  0  0  0  0  0  0  0  0  0  0  0  0  # atno 17320 bound_to 7965
  146.2722  139.6663  142.9288 LP  0  0  0  0  0  0  0  0  0  0  0  0  # atno 17321 bound_to 7965
  140.6348  143.2193  151.6418 LP  0  0  0  0  0  0  0  0  0  0  0  0  # atno 17342 bound_to 10162
  139.5193  144.3256  152.0871 LP  0  0  0  0  0  0  0  0  0  0  0  0  # atno 17343 bound_to 10162
  155.9665  130.4411  150.5327 LP  0  0  0  0  0  0  0  0  0  0  0  0  # atno 17370 bound_to 10713
  157.3222  131.0684  151.1923 LP  0  0  0  0  0  0  0  0  0  0  0  0  # atno 17371 bound_to 10713
  139.9665  134.7365  156.0128 LP  0  0  0  0  0  0  0  0  0  0  0  0  # atno 17394 bound_to 11000
  141.1391  133.6568  156.3678 LP  0  0  0  0  0  0  0  0  0  0  0  0  # atno 17395 bound_to 11000

$$$$
