AV-unprocessed.smi:2062|AV-procd|sdf|8398|dock10
  -GOLD-   2272011 83D 1   1.00000     0.00000
 Structure written by MMmdl.
 43 44  0  0  0  0  0  0  0  0  2 V2000
  151.9523  140.1228  156.4839 C   0  0  0  0  0  0  0  0  0  0  0  0
  151.7480  138.9729  155.4832 C   0  0  0  0  0  0  0  0  0  0  0  0
  153.0311  138.7330  154.6737 C   0  0  0  0  0  0  0  0  0  0  0  0
  150.5527  139.2316  154.5396 C   0  0  0  0  0  0  0  0  0  0  0  0
  149.2875  139.5402  155.2616 N   0  3  1  0  0  0  0  0  0  0  0  0
  148.9594  140.9863  155.2873 C   0  0  0  0  0  0  0  0  0  0  0  0
  148.3655  141.4445  153.9437 C   0  0  0  0  0  0  0  0  0  0  0  0
  147.2209  140.6574  153.6429 O   0  0  0  0  0  0  0  0  0  0  0  0
  147.5254  139.2739  153.4930 C   0  0  2  0  0  0  0  0  0  0  0  0
  146.2396  138.5237  153.1024 C   0  0  0  0  0  0  0  0  0  0  0  0
  146.5303  137.2576  152.4378 N   0  0  0  0  0  0  0  0  0  0  0  0
  145.6111  136.3939  151.9833 C   0  0  0  0  0  0  0  0  0  0  0  0
  144.3981  136.5818  152.0783 O   0  0  0  0  0  0  0  0  0  0  0  0
  146.1906  135.3195  151.4201 N   0  0  0  0  0  0  0  0  0  0  0  0
  145.5626  134.1926  150.8277 C   0  0  0  0  0  0  0  0  0  0  0  0
  144.2602  134.1244  150.5280 N   0  0  0  0  0  0  0  0  0  0  0  0
  143.9181  132.8974  149.9541 C   0  0  0  0  0  0  0  0  0  0  0  0
  144.9800  132.0375  149.8233 C   0  0  0  0  0  0  0  0  0  0  0  0
  146.4609  132.7388  150.4181 S   0  0  0  0  0  0  0  0  0  0  0  0
  148.1055  138.7515  154.8264 C   0  0  0  0  0  0  0  0  0  0  0  0
  152.1457  141.0662  155.9723 H   0  0  0  0  0  0  0  0  0  0  0  0
  152.7993  139.9234  157.1412 H   0  0  0  0  0  0  0  0  0  0  0  0
  151.0772  140.2609  157.1190 H   0  0  0  0  0  0  0  0  0  0  0  0
  151.5664  138.0626  156.0531 H   0  0  0  0  0  0  0  0  0  0  0  0
  153.2950  139.6070  154.0774 H   0  0  0  0  0  0  0  0  0  0  0  0
  152.9154  137.8888  153.9933 H   0  0  0  0  0  0  0  0  0  0  0  0
  153.8744  138.5111  155.3286 H   0  0  0  0  0  0  0  0  0  0  0  0
  150.8097  140.0724  153.8937 H   0  0  0  0  0  0  0  0  0  0  0  0
  150.4051  138.3807  153.8747 H   0  0  0  0  0  0  0  0  0  0  0  0
  148.2292  141.1585  156.0792 H   0  0  0  0  0  0  0  0  0  0  0  0
  149.8370  141.5786  155.5480 H   0  0  0  0  0  0  0  0  0  0  0  0
  148.0645  142.4905  154.0049 H   0  0  0  0  0  0  0  0  0  0  0  0
  149.0978  141.3729  153.1383 H   0  0  0  0  0  0  0  0  0  0  0  0
  148.2562  139.1466  152.6931 H   0  0  0  0  0  0  0  0  0  0  0  0
  145.6652  138.2906  153.9993 H   0  0  0  0  0  0  0  0  0  0  0  0
  145.5979  139.1518  152.4819 H   0  0  0  0  0  0  0  0  0  0  0  0
  147.5043  137.0194  152.3203 H   0  0  0  0  0  0  0  0  0  0  0  0
  147.1998  135.3026  151.4175 H   0  0  0  0  0  0  0  0  0  0  0  0
  142.8921  132.7196  149.6668 H   0  0  0  0  0  0  0  0  0  0  0  0
  144.9809  131.0382  149.4143 H   0  0  0  0  0  0  0  0  0  0  0  0
  148.3448  137.6918  154.7527 H   0  0  0  0  0  0  0  0  0  0  0  0
  147.3451  138.8322  155.6044 H   0  0  0  0  0  0  0  0  0  0  0  0
  149.4678  139.2835  156.2219 H   0  0  0  0  0  0  0  0  0  0  0  0
  1  2  1  0  0  0  0
  1 21  1  0  0  0  0
  1 22  1  0  0  0  0
  1 23  1  0  0  0  0
  2  3  1  0  0  0  0
  2  4  1  0  0  0  0
  2 24  1  0  0  0  0
  3 25  1  0  0  0  0
  3 26  1  0  0  0  0
  3 27  1  0  0  0  0
  4  5  1  0  0  0  0
  4 28  1  0  0  0  0
  4 29  1  0  0  0  0
  5 20  1  0  0  0  0
  5  6  1  0  0  0  0
  5 43  1  0  0  0  0
  6  7  1  0  0  0  0
  6 30  1  0  0  0  0
  6 31  1  0  0  0  0
  7  8  1  0  0  0  0
  7 32  1  0  0  0  0
  7 33  1  0  0  0  0
  8  9  1  0  0  0  0
  9 10  1  0  0  0  0
  9 20  1  0  0  0  0
  9 34  1  0  0  0  0
 10 11  1  0  0  0  0
 10 35  1  0  0  0  0
 10 36  1  0  0  0  0
 11 12  1  0  0  0  0
 11 37  1  0  0  0  0
 12 13  2  0  0  0  0
 12 14  1  0  0  0  0
 14 15  1  0  0  0  0
 14 38  1  0  0  0  0
 15 19  1  0  0  0  0
 15 16  2  0  0  0  0
 16 17  1  0  0  0  0
 17 18  2  0  0  0  0
 17 39  1  0  0  0  0
 18 19  1  0  0  0  0
 18 40  1  0  0  0  0
 20 41  1  0  0  0  0
 20 42  1  0  0  0  0
M  CHG  1   5   1
M  END
> <s_m_source_file>
AV-unprocessed.smi

> <i_m_source_file_index>
2062

> <i_lp_mmshare_version>
43012

> <i_f3d_flags>
0

> <s_epik_input>
W0NIM11bQ0hdKFtDSDNdKVtDSDJdTjFbQ0gyXVtDSDJdT1tDQEhdKFtDSDJdMSlbQ0gyXVtOSF1DKD1PKVtOSF1jMm5bY0hdW2NIXXMy

> <s_epik_cmdline>
J2VwaWtfcHl0aG9uJywgJy1waCcsICc3LjAnLCAnLXRuJywgJzgnLCAnLW1hJywgJzIwMCcsICctbWV0YWxfYmluZGluZycsICctaW1hZScsICc8aW5maWxlLm1hZT4nLCAnLW9tYWUnLCAnPG91dGZpbGUubWFlPic=

> <r_lp_tautomer_probability>
0.999

> <r_epik_Ionization_Penalty>
0.0985527

> <r_epik_Ionization_Penalty_Charging>
0.098413

> <r_epik_Ionization_Penalty_Neutral>
0.000139681

> <r_epik_State_Penalty>
0.0884988

> <r_epik_Charging_Adjusted_Penalty>
0.186912

> <i_epik_Tot_Q>
1

> <i_epik_Tot_abs_Q>
1

> <r_epik_Metal_State_Penalty>
0.141792

> <b_epik_Metal_Only>
0

> <s_lp_Force_Field>
OPLS_2005

> <r_lp_Energy>
18.2091

> <b_lp_Chiralities_Consistent>
1

> <s_lp_Variant>
AV-unprocessed.smi:2062-3

> <Gold.Version>
5.8.1

> <Gold.Id.Protein>
6NUR|6NUR_protein|mol2

> <Gold.PLP.Fitness>
42.8014

> <Gold.PLP.PLP>
-35.6898

> <Gold.PLP.part.hbond>
-2.0000

> <Gold.PLP.part.metal>
0.0000

> <Gold.PLP.part.buried>
-3.6655

> <Gold.PLP.part.nonpolar>
-31.7997

> <Gold.PLP.part.repulsive>
1.3103

> <Gold.PLP.ligand.clash>
0.0000

> <Gold.PLP.ligand.torsion>
0.9176

> <Gold.PLP.Chemscore.Hbond>
2.0000

> <Gold.PLP.Chemscore.CHOScore>
0.9615

> <Gold.PLP.Chemscore.Metal>
0.0000

> <Gold.Chemscore.Hbonds>
donor molecule, donor type, donor heavy atom, donor atom, acceptor molecule, acceptor atom, score
      L1  H    11    37       P1  7948  1.00
      L1  H    14    38       P1  7948  1.00
      L1  C    17    39       P1 10186  0.94

> <Gold.PLP.Chemscore.Internal.Correction>
0.0622

> <Gold.Rescore>
     Score         DG    S(hbond)    S(metal)    S(lipo)     H(rot)  DE(clash)    DE(int)     intcor
     15.69     -17.85       1.87        0.00      90.72       1.76       0.13       2.02       ----

> <Gold.Chemscore.Fitness>
15.6947

> <Gold.Chemscore.DG>
-17.8455

> <Gold.Chemscore.ZeroCoef>
-5.4800

> <Gold.Chemscore.Hbond>
1.8733

> <Gold.Chemscore.Metal>
0.0000

> <Gold.Chemscore.Lipo>
90.7186

> <Gold.Chemscore.Internal_Hbond>
0.0000

> <Gold.Chemscore.DEClash>
0.1267

> <Gold.Chemscore.DEInternal>
2.0241

> <Gold.Chemscore.Rot>
1.7599

> <Gold.Chemscore.Internal.Correction>
   9.000000E+99

> <Gold.Chemscore.Hbonds>
donor molecule, donor type, donor heavy atom, donor atom, acceptor molecule, acceptor atom, score
      L1  H    11    37       P1  7948  1.00
      L1  H    14    38       P1  7948  0.83

> <Gold.Chemscore.Hbond.Weighted>
-6.2568

> <Gold.Chemscore.Metal.Weighted>
-0.0000

> <Gold.Chemscore.Lipo.Weighted>
-10.6141

> <Gold.Chemscore.Internal_Hbond.Weighted>
0.0000

> <Gold.Chemscore.DEClash.Weighted>
0.1267

> <Gold.Chemscore.DEInternal.Weighted>
2.0241

> <Gold.Chemscore.Rot.Weighted>
4.5054

> <Gold.Chemscore.Internal.Correction.Weighted>
   9.000000E+99

> <Gold.Protein.RotatedTorsions>
[ 6907 6896 6895 6894 ] final  -34.88 input  -60.11 | X-H torsion
[ 7974 7965 7964 7962 ] final  114.14 input  175.53 | X-H torsion
[ 8008 7997 7996 7995 ] final  -79.22 input   59.86 | X-H torsion
[ 10167 10162 10161 10158 ] final -146.34 input  -65.29 | X-H torsion
[ 10718 10713 10712 10709 ] final  -74.64 input   66.30 | X-H torsion
[ 10763 10752 10751 10750 ] final   88.42 input  -60.55 | X-H torsion
[ 11005 11000 10999 10996 ] final  -16.75 input  -57.11 | X-H torsion

> <Gold.Protein.ActiveResidues>
 VAL166  LYS551  ARG553  GLY616  TRP617  ASP618  TYR619  PRO620  LYS621  CYS622 
 ASP623  PHE694  ASN695  SER759  ASP760  ASP761  ALA762  ILE779  LEU786  VAL792 
 PHE793  MET794  SER795  GLU796  ALA797  LYS798  CYS799  TRP800  GLU811  SER814 

> <Gold.Protein.RotatedAtoms>
  151.0469  134.9646  159.8190 H   0  0  0  0  0  0  0  0  0  0  0  0  # atno 6907 bound_to 6896
  152.5374  134.2587  159.8937 H   0  0  0  0  0  0  0  0  0  0  0  0  # atno 6908 bound_to 6896
  151.2601  133.4263  159.2649 H   0  0  0  0  0  0  0  0  0  0  0  0  # atno 6909 bound_to 6896
  145.2081  139.2919  143.4283 H   0  0  0  0  0  0  0  0  0  0  0  0  # atno 7974 bound_to 7965
  154.5764  140.0682  156.9041 H   0  0  0  0  0  0  0  0  0  0  0  0  # atno 8008 bound_to 7997
  155.2540  140.3354  155.4261 H   0  0  0  0  0  0  0  0  0  0  0  0  # atno 8009 bound_to 7997
  156.2157  140.1777  156.7579 H   0  0  0  0  0  0  0  0  0  0  0  0  # atno 8010 bound_to 7997
  139.7722  143.8221  152.2626 H   0  0  0  0  0  0  0  0  0  0  0  0  # atno 10167 bound_to 10162
  156.0235  130.4422  150.2923 H   0  0  0  0  0  0  0  0  0  0  0  0  # atno 10718 bound_to 10713
  153.1767  135.4507  154.9974 H   0  0  0  0  0  0  0  0  0  0  0  0  # atno 10763 bound_to 10752
  154.8003  135.3253  154.7570 H   0  0  0  0  0  0  0  0  0  0  0  0  # atno 10764 bound_to 10752
  153.8039  135.6960  153.4906 H   0  0  0  0  0  0  0  0  0  0  0  0  # atno 10765 bound_to 10752
  140.8099  133.8148  155.9553 H   0  0  0  0  0  0  0  0  0  0  0  0  # atno 11005 bound_to 11000
  146.3403  140.2348  142.8594 LP  0  0  0  0  0  0  0  0  0  0  0  0  # atno 17320 bound_to 7965
  144.9882  140.8523  143.5355 LP  0  0  0  0  0  0  0  0  0  0  0  0  # atno 17321 bound_to 7965
  139.8259  144.7275  150.9512 LP  0  0  0  0  0  0  0  0  0  0  0  0  # atno 17342 bound_to 10162
  140.7814  143.4115  151.0985 LP  0  0  0  0  0  0  0  0  0  0  0  0  # atno 17343 bound_to 10162
  157.1027  131.0200  151.3079 LP  0  0  0  0  0  0  0  0  0  0  0  0  # atno 17370 bound_to 10713
  157.4767  130.7741  149.7375 LP  0  0  0  0  0  0  0  0  0  0  0  0  # atno 17371 bound_to 10713
  140.9208  134.2144  157.4927 LP  0  0  0  0  0  0  0  0  0  0  0  0  # atno 17394 bound_to 11000
  139.8715  134.9791  156.5025 LP  0  0  0  0  0  0  0  0  0  0  0  0  # atno 17395 bound_to 11000

$$$$
