#       Name:                AV-unprocessed.smi:40
#       Creating user name   scv26
#       Creation time:       Thu Mar 26 16:23:48 2020


#       File generated by GOLD software.
#

@<TRIPOS>MOLECULE
AV-unprocessed.smi:40
    58    59     1
SMALL
NO_CHARGES


@<TRIPOS>ATOM
      1 ****        -6.1649   0.9970   1.0054 C.3            1 S1                 0.0000
      2 ****        -4.6372   0.9055   0.8962 C.3            1 S1                 0.0000
      3 ****        -4.1003  -0.5350   0.8820 C.3            1 S1                 0.0000
      4 ****        -4.4542  -1.3167  -0.3958 C.3            1 S1                 0.0000
      5 ****        -3.8426  -2.7238  -0.4261 C.3            1 S1                 0.0000
      6 ****        -2.4308  -2.6198  -0.5045 O.3            1 S1                 0.0000
      7 ****        -1.6672  -3.7252  -0.5711 C.2            1 S1                 0.0000
      8 ****        -2.1168  -4.8700  -0.6211 O.2            1 S1                 0.0000
      9 ****        -0.2518  -3.3950  -0.6136 N.am           1 S1                 0.0000
     10 ****         0.8177  -4.2257  -0.6825 C.2            1 S1                 0.0000
     11 ****         0.7579  -5.4187  -1.2542 N.2            1 S1                 0.0000
     12 ****         1.8226  -6.2721  -1.3582 C.2            1 S1                 0.0000
     13 ****         1.7007  -7.3678  -1.9050 O.2            1 S1                 0.0000
     14 ****         3.0577  -5.8395  -0.8221 N.am           1 S1                 0.0000
     15 ****         4.2522  -6.7654  -0.9309 C.3            1 S1                 0.0000
     16 ****         5.1560  -6.4833   0.1002 O.3            1 S1                 0.0000
     17 ****         6.3607  -5.9451  -0.4360 C.3            1 S1                 0.0000
     18 ****         7.5335  -6.2451   0.5044 C.3            1 S1                 0.0000
     19 ****         6.4615  -6.6193  -1.8022 C.3            1 S1                 0.0000
     20 ****         7.3395  -5.9475  -2.6858 O.3            1 S1                 0.0000
     21 ****         5.0106  -6.6266  -2.2722 C.3            1 S1                 0.0000
     22 ****         4.6762  -5.4514  -2.9963 O.3            1 S1                 0.0000
     23 ****         3.1495  -4.5829  -0.2407 C.2            1 S1                 0.0000
     24 ****         2.0818  -3.7607  -0.1525 C.2            1 S1                 0.0000
     25 ****         2.1958  -2.5463   0.4130 F              1 S1                 0.0000
     26 ****         3.8718  -7.7731  -0.7558 H              1 S1                 0.0000
     27 ****         6.2434  -4.8673  -0.5586 H              1 S1                 0.0000
     28 ****         6.8004  -7.6490  -1.6778 H              1 S1                 0.0000
     29 ****         4.7972  -7.4899  -2.9034 H              1 S1                 0.0000
     30 ****        -6.4848   2.0368   1.0752 H              1 S1                 0.0000
     31 ****        -6.5283   0.4784   1.8928 H              1 S1                 0.0000
     32 ****        -6.6565   0.5622   0.1353 H              1 S1                 0.0000
     33 ****        -4.2988   1.4350   0.0047 H              1 S1                 0.0000
     34 ****        -4.1980   1.4326   1.7437 H              1 S1                 0.0000
     35 ****        -3.0154  -0.4924   0.9844 H              1 S1                 0.0000
     36 ****        -4.4641  -1.0730   1.7583 H              1 S1                 0.0000
     37 ****        -5.5370  -1.4102  -0.4773 H              1 S1                 0.0000
     38 ****        -4.1270  -0.7602  -1.2748 H              1 S1                 0.0000
     39 ****        -4.1294  -3.2840   0.4650 H              1 S1                 0.0000
     40 ****        -4.2156  -3.2714  -1.2926 H              1 S1                 0.0000
     41 ****        -0.0579  -2.4055  -0.5622 H              1 S1                 0.0000
     42 ****         8.4697  -5.8632   0.0965 H              1 S1                 0.0000
     43 ****         7.6495  -7.3177   0.6626 H              1 S1                 0.0000
     44 ****         7.3795  -5.7792   1.4779 H              1 S1                 0.0000
     45 ****         7.2876  -6.3631  -3.5332 H              1 S1                 0.0000
     46 ****         4.8564  -4.7029  -2.4485 H              1 S1                 0.0000
     47 ****         4.0895  -4.2289   0.1538 H              1 S1                 0.0000
     48 ****        -3.1055  -5.0197  -0.6134 LP             1 S1                 0.0000
     49 ****        -1.4933  -5.6504  -0.6694 LP             1 S1                 0.0000
     50 ****        -0.1191  -5.7140  -1.6332 LP             1 S1                 0.0000
     51 ****         0.8157  -7.6438  -2.2799 LP             1 S1                 0.0000
     52 ****         2.4867  -7.9821  -1.9744 LP             1 S1                 0.0000
     53 ****         5.3631  -7.3256   0.5977 LP             1 S1                 0.0000
     54 ****         4.7469  -5.8188   0.7256 LP             1 S1                 0.0000
     55 ****         8.2757  -6.0042  -2.3390 LP             1 S1                 0.0000
     56 ****         7.0704  -4.9876  -2.7638 LP             1 S1                 0.0000
     57 ****         3.7059  -5.4677  -3.2375 LP             1 S1                 0.0000
     58 ****         5.2261  -5.4002  -3.8299 LP             1 S1                 0.0000
@<TRIPOS>BOND
    1    1    2 1     
    2    1   30 1     
    3    1   31 1     
    4    1   32 1     
    5    2    3 1     
    6    2   33 1     
    7    2   34 1     
    8    3    4 1     
    9    3   35 1     
   10    3   36 1     
   11    4    5 1     
   12    4   37 1     
   13    4   38 1     
   14    5    6 1     
   15    5   39 1     
   16    5   40 1     
   17    6    7 1     
   18    7    8 2     
   19    7    9 am    
   20    9   10 1     
   21    9   41 1     
   22   10   24 1     
   23   10   11 2     
   24   11   12 1     
   25   12   13 2     
   26   12   14 am    
   27   14   15 1     
   28   14   23 1     
   29   15   26 1     
   30   15   21 1     
   31   15   16 1     
   32   16   17 1     
   33   17   27 1     
   34   17   18 1     
   35   17   19 1     
   36   18   42 1     
   37   18   43 1     
   38   18   44 1     
   39   19   28 1     
   40   19   20 1     
   41   19   21 1     
   42   20   45 1     
   43   21   29 1     
   44   21   22 1     
   45   22   46 1     
   46   23   24 2     
   47   23   47 1     
   48   24   25 1     
   49    8   48 1     
   50    8   49 1     
   51   11   50 1     
   52   13   51 1     
   53   13   52 1     
   54   16   53 1     
   55   16   54 1     
   56   20   55 1     
   57   20   56 1     
   58   22   57 1     
   59   22   58 1     
@<TRIPOS>SUBSTRUCTURE
      1 S1             1
@<TRIPOS>SET
LONE_PAIRS      STATIC     ATOMS    <user>   **** ""
11 48 49 50 51 52 53 54 55 56 57 58
DONOR_HYDROGENS      STATIC     ATOMS    <user>   **** ""
3 41 45 46
ATOM$BLUE        STATIC     ATOMS    COLORGROUP SYSTEM
11 48 49 50 51 52 53 54 55 56 57 58
ATOM$RED        STATIC     ATOMS    COLORGROUP SYSTEM
3 41 45 46
