AV-unprocessed.smi:1492|AV-procd|sdf|6037|dock8
  -GOLD-   22720 6143D 1   1.00000     0.00000
 Structure written by MMmdl.
 52 53  0  0  0  0  0  0  0  0  1 V2000
  147.9813  138.9036  153.3447 C   0  0  0  0  0  0  0  0  0  0  0  0
  147.6576  139.1211  154.8349 C   0  0  0  0  0  0  0  0  0  0  0  0
  148.4215  138.2458  155.8862 C   0  0  2  0  0  0  0  0  0  0  0  0
  148.2306  136.7556  155.5065 C   0  0  0  0  0  0  0  0  0  0  0  0
  147.7589  138.4586  157.2836 C   0  0  0  0  0  0  0  0  0  0  0  0
  148.5108  137.7765  158.3327 N   0  0  0  0  0  0  0  0  0  0  0  0
  148.0311  137.3988  159.5258 C   0  0  0  0  0  0  0  0  0  0  0  0
  146.9470  137.7645  159.9782 O   0  0  0  0  0  0  0  0  0  0  0  0
  148.8945  136.4042  160.2994 C   0  0  0  0  0  0  0  0  0  0  0  0
  148.1513  135.1406  160.7314 C   0  0  0  0  0  0  0  0  0  0  0  0
  147.4210  135.0640  161.8824 C   0  0  0  0  0  0  0  0  0  0  0  0
  147.2933  136.2218  162.8571 C   0  0  0  0  0  0  0  0  0  0  0  0
  146.7198  133.9017  162.2322 N   0  0  0  0  0  0  0  0  0  0  0  0
  146.7619  132.8865  161.4339 C   0  0  0  0  0  0  0  0  0  0  0  0
  146.0380  131.5817  161.6891 C   0  0  0  0  0  0  0  0  0  0  0  0
  147.4844  132.9000  160.2425 N   0  0  0  0  0  0  0  0  0  0  0  0
  148.1972  133.9720  159.8308 C   0  0  0  0  0  0  0  0  0  0  0  0
  148.8151  133.9359  158.7678 O   0  0  0  0  0  0  0  0  0  0  0  0
  149.8648  138.6385  155.9212 N   0  0  0  0  0  0  0  0  0  0  0  0
  150.6493  138.2581  154.7384 C   0  0  0  0  0  0  0  0  0  0  0  0
  152.1460  138.5623  154.9122 C   0  0  0  0  0  0  0  0  0  0  0  0
  152.3226  139.9445  155.1931 O   0  0  0  0  0  0  0  0  0  0  0  0
  151.6275  140.3496  156.3649 C   0  0  0  0  0  0  0  0  0  0  0  0
  150.1256  140.0542  156.2117 C   0  0  0  0  0  0  0  0  0  0  0  0
  147.4802  132.0772  159.6578 H   0  0  0  0  0  0  0  0  0  0  0  0
  147.4649  139.6463  152.7366 H   0  0  0  0  0  0  0  0  0  0  0  0
  147.6507  137.9271  152.9920 H   0  0  0  0  0  0  0  0  0  0  0  0
  149.0459  139.0020  153.1361 H   0  0  0  0  0  0  0  0  0  0  0  0
  147.8512  140.1754  155.0315 H   0  0  0  0  0  0  0  0  0  0  0  0
  146.5823  138.9907  154.9652 H   0  0  0  0  0  0  0  0  0  0  0  0
  147.1792  136.4709  155.5149 H   0  0  0  0  0  0  0  0  0  0  0  0
  148.7301  136.0865  156.2063 H   0  0  0  0  0  0  0  0  0  0  0  0
  148.6106  136.5337  154.5095 H   0  0  0  0  0  0  0  0  0  0  0  0
  147.7053  139.5158  157.5395 H   0  0  0  0  0  0  0  0  0  0  0  0
  146.7144  138.1472  157.2751 H   0  0  0  0  0  0  0  0  0  0  0  0
  149.4237  137.4324  158.0716 H   0  0  0  0  0  0  0  0  0  0  0  0
  149.7681  136.1478  159.6988 H   0  0  0  0  0  0  0  0  0  0  0  0
  149.2997  136.9057  161.1783 H   0  0  0  0  0  0  0  0  0  0  0  0
  146.8695  137.0955  162.3622 H   0  0  0  0  0  0  0  0  0  0  0  0
  148.2679  136.4895  163.2653 H   0  0  0  0  0  0  0  0  0  0  0  0
  146.6406  135.9656  163.6927 H   0  0  0  0  0  0  0  0  0  0  0  0
  146.3709  131.1456  162.6311 H   0  0  0  0  0  0  0  0  0  0  0  0
  146.2200  130.8575  160.8942 H   0  0  0  0  0  0  0  0  0  0  0  0
  144.9637  131.7562  161.7524 H   0  0  0  0  0  0  0  0  0  0  0  0
  150.5574  137.1958  154.5266 H   0  0  0  0  0  0  0  0  0  0  0  0
  150.2864  138.7883  153.8580 H   0  0  0  0  0  0  0  0  0  0  0  0
  152.5718  137.9618  155.7164 H   0  0  0  0  0  0  0  0  0  0  0  0
  152.6913  138.3109  154.0026 H   0  0  0  0  0  0  0  0  0  0  0  0
  152.0341  139.8320  157.2343 H   0  0  0  0  0  0  0  0  0  0  0  0
  151.7899  141.4156  156.5238 H   0  0  0  0  0  0  0  0  0  0  0  0
  149.7194  140.6825  155.4190 H   0  0  0  0  0  0  0  0  0  0  0  0
  149.6454  140.3604  157.1387 H   0  0  0  0  0  0  0  0  0  0  0  0
  1  2  1  0  0  0  0
  1 26  1  0  0  0  0
  1 27  1  0  0  0  0
  1 28  1  0  0  0  0
  2  3  1  0  0  0  0
  2 29  1  0  0  0  0
  2 30  1  0  0  0  0
  3  4  1  0  0  0  0
  3  5  1  0  0  0  0
  3 19  1  0  0  0  0
  4 31  1  0  0  0  0
  4 32  1  0  0  0  0
  4 33  1  0  0  0  0
  5  6  1  0  0  0  0
  5 34  1  0  0  0  0
  5 35  1  0  0  0  0
  6  7  1  0  0  0  0
  6 36  1  0  0  0  0
  7  8  2  0  0  0  0
  7  9  1  0  0  0  0
  9 10  1  0  0  0  0
  9 37  1  0  0  0  0
  9 38  1  0  0  0  0
 10 17  1  0  0  0  0
 10 11  2  0  0  0  0
 11 12  1  0  0  0  0
 11 13  1  0  0  0  0
 12 39  1  0  0  0  0
 12 40  1  0  0  0  0
 12 41  1  0  0  0  0
 13 14  2  0  0  0  0
 14 15  1  0  0  0  0
 14 16  1  0  0  0  0
 15 42  1  0  0  0  0
 15 43  1  0  0  0  0
 15 44  1  0  0  0  0
 16 25  1  0  0  0  0
 16 17  1  0  0  0  0
 17 18  2  0  0  0  0
 19 24  1  0  0  0  0
 19 20  1  0  0  0  0
 20 21  1  0  0  0  0
 20 45  1  0  0  0  0
 20 46  1  0  0  0  0
 21 22  1  0  0  0  0
 21 47  1  0  0  0  0
 21 48  1  0  0  0  0
 22 23  1  0  0  0  0
 23 24  1  0  0  0  0
 23 49  1  0  0  0  0
 23 50  1  0  0  0  0
 24 51  1  0  0  0  0
 24 52  1  0  0  0  0
M  END
> <s_m_source_file>
AV-unprocessed.smi

> <i_m_source_file_index>
1492

> <i_lp_mmshare_version>
43012

> <i_f3d_flags>
0

> <s_epik_input>
W0NIMl0xW0NIMl1PW0NIMl1bQ0gyXU4xW0NAQF0oW0NIM10pKFtDSDJdW0NIM10pW0NIMl1bTkhdQyg9TylbQ0gyXWMyYyhbQ0gzXSluYyhbQ0gzXSlbbkhdYzI9Tw==

> <s_epik_cmdline>
J2VwaWtfcHl0aG9uJywgJy1waCcsICc3LjAnLCAnLXRuJywgJzgnLCAnLW1hJywgJzIwMCcsICctbWV0YWxfYmluZGluZycsICctaW1hZScsICc8aW5maWxlLm1hZT4nLCAnLW9tYWUnLCAnPG91dGZpbGUubWFlPic=

> <r_lp_tautomer_probability>
0.839158

> <r_epik_Ionization_Penalty>
0.328652

> <r_epik_Ionization_Penalty_Charging>
0.000364731

> <r_epik_Ionization_Penalty_Neutral>
0.328288

> <r_epik_State_Penalty>
0.414451

> <r_epik_Charging_Adjusted_Penalty>
0.414816

> <i_epik_Tot_Q>
0

> <i_epik_Tot_abs_Q>
0

> <r_epik_Metal_State_Penalty>
0.592978

> <b_epik_Metal_Only>
0

> <s_lp_Force_Field>
OPLS_2005

> <r_lp_Energy>
44.0338

> <b_lp_Chiralities_Consistent>
1

> <s_lp_Variant>
AV-unprocessed.smi:1492-2

> <Gold.Version>
5.8.1

> <Gold.Id.Protein>
6NUR|6NUR_protein|mol2

> <Gold.PLP.Fitness>
37.6693

> <Gold.PLP.PLP>
-29.6238

> <Gold.PLP.part.hbond>
-3.4478

> <Gold.PLP.part.metal>
0.0000

> <Gold.PLP.part.buried>
-1.8043

> <Gold.PLP.part.nonpolar>
-25.9092

> <Gold.PLP.part.repulsive>
0.1790

> <Gold.PLP.ligand.clash>
0.0000

> <Gold.PLP.ligand.torsion>
0.7591

> <Gold.PLP.Chemscore.Hbond>
3.1446

> <Gold.PLP.Chemscore.CHOScore>
0.0000

> <Gold.PLP.Chemscore.Metal>
0.0000

> <Gold.Chemscore.Hbonds>
donor molecule, donor type, donor heavy atom, donor atom, acceptor molecule, acceptor atom, score
      P1  H  6896  6908       L1    18  1.00
      P1  H  6934  6947       L1     8  1.00
      P1  H  7989  7998       L1    22  0.69
      P1  H  7997  8008       L1    22  0.39

> <Gold.PLP.Chemscore.Internal.Correction>
0.1299

> <Gold.Rescore>
     Score         DG    S(hbond)    S(metal)    S(lipo)     H(rot)  DE(clash)    DE(int)     intcor
     13.53     -14.37       1.73        0.00      72.96       2.12       0.00       0.84       ----

> <Gold.Chemscore.Fitness>
13.5324

> <Gold.Chemscore.DG>
-14.3723

> <Gold.Chemscore.ZeroCoef>
-5.4800

> <Gold.Chemscore.Hbond>
1.7281

> <Gold.Chemscore.Metal>
0.0000

> <Gold.Chemscore.Lipo>
72.9603

> <Gold.Chemscore.Internal_Hbond>
0.0000

> <Gold.Chemscore.DEClash>
0.0015

> <Gold.Chemscore.DEInternal>
0.8385

> <Gold.Chemscore.Rot>
2.1155

> <Gold.Chemscore.Internal.Correction>
   9.000000E+99

> <Gold.Chemscore.Hbonds>
donor molecule, donor type, donor heavy atom, donor atom, acceptor molecule, acceptor atom, score
      P1  H  6896  6908       L1    18  0.39
      P1  H  6934  6947       L1     8  0.65
      P1  H  7989  7998       L1    22  0.25
      P1  H  7997  8008       L1    22  0.08

> <Gold.Chemscore.Hbond.Weighted>
-5.7717

> <Gold.Chemscore.Metal.Weighted>
-0.0000

> <Gold.Chemscore.Lipo.Weighted>
-8.5364

> <Gold.Chemscore.Internal_Hbond.Weighted>
0.0000

> <Gold.Chemscore.DEClash.Weighted>
0.0015

> <Gold.Chemscore.DEInternal.Weighted>
0.8385

> <Gold.Chemscore.Rot.Weighted>
5.4157

> <Gold.Chemscore.Internal.Correction.Weighted>
   9.000000E+99

> <Gold.Protein.RotatedTorsions>
[ 6907 6896 6895 6894 ] final  134.96 input  -60.11 | X-H torsion
[ 7974 7965 7964 7962 ] final  175.51 input  175.53 | X-H torsion
[ 8008 7997 7996 7995 ] final  -10.39 input   59.86 | X-H torsion
[ 10167 10162 10161 10158 ] final  -38.40 input  -65.29 | X-H torsion
[ 10718 10713 10712 10709 ] final  -32.19 input   66.30 | X-H torsion
[ 10763 10752 10751 10750 ] final  -21.14 input  -60.55 | X-H torsion
[ 11005 11000 10999 10996 ] final  118.88 input  -57.11 | X-H torsion

> <Gold.Protein.ActiveResidues>
 VAL166  LYS551  ARG553  GLY616  TRP617  ASP618  TYR619  PRO620  LYS621  CYS622 
 ASP623  PHE694  ASN695  SER759  ASP760  ASP761  ALA762  ILE779  LEU786  VAL792 
 PHE793  MET794  SER795  GLU796  ALA797  LYS798  CYS799  TRP800  GLU811  SER814 

> <Gold.Protein.RotatedAtoms>
  152.3056  133.5700  159.5646 H   0  0  0  0  0  0  0  0  0  0  0  0  # atno 6907 bound_to 6896
  150.7298  134.0227  159.3715 H   0  0  0  0  0  0  0  0  0  0  0  0  # atno 6908 bound_to 6896
  151.8124  135.0677  160.0465 H   0  0  0  0  0  0  0  0  0  0  0  0  # atno 6909 bound_to 6896
  144.7200  139.9958  143.6440 H   0  0  0  0  0  0  0  0  0  0  0  0  # atno 7974 bound_to 7965
  154.5559  140.2330  155.8411 H   0  0  0  0  0  0  0  0  0  0  0  0  # atno 8008 bound_to 7997
  156.1988  140.3058  155.9442 H   0  0  0  0  0  0  0  0  0  0  0  0  # atno 8009 bound_to 7997
  155.2981  140.0430  157.3018 H   0  0  0  0  0  0  0  0  0  0  0  0  # atno 8010 bound_to 7997
  140.7093  143.3279  151.2636 H   0  0  0  0  0  0  0  0  0  0  0  0  # atno 10167 bound_to 10162
  156.3780  130.4351  149.7492 H   0  0  0  0  0  0  0  0  0  0  0  0  # atno 10718 bound_to 10713
  153.6314  135.6989  153.5274 H   0  0  0  0  0  0  0  0  0  0  0  0  # atno 10763 bound_to 10752
  153.2856  135.4172  155.1119 H   0  0  0  0  0  0  0  0  0  0  0  0  # atno 10764 bound_to 10752
  154.8521  135.3612  154.5857 H   0  0  0  0  0  0  0  0  0  0  0  0  # atno 10765 bound_to 10752
  139.9126  134.9624  156.7570 H   0  0  0  0  0  0  0  0  0  0  0  0  # atno 11005 bound_to 11000
  146.0375  139.3391  143.0717 LP  0  0  0  0  0  0  0  0  0  0  0  0  # atno 17320 bound_to 7965
  145.8376  140.9598  143.0816 LP  0  0  0  0  0  0  0  0  0  0  0  0  # atno 17321 bound_to 7965
  139.6753  143.9948  152.2777 LP  0  0  0  0  0  0  0  0  0  0  0  0  # atno 17342 bound_to 10162
  139.9560  144.6589  150.8125 LP  0  0  0  0  0  0  0  0  0  0  0  0  # atno 17343 bound_to 10162
  156.4594  130.7944  151.2965 LP  0  0  0  0  0  0  0  0  0  0  0  0  # atno 17370 bound_to 10713
  157.7490  131.0070  150.3175 LP  0  0  0  0  0  0  0  0  0  0  0  0  # atno 17371 bound_to 10713
  140.6728  133.9544  155.7866 LP  0  0  0  0  0  0  0  0  0  0  0  0  # atno 17394 bound_to 11000
  141.0566  134.0408  157.3715 LP  0  0  0  0  0  0  0  0  0  0  0  0  # atno 17395 bound_to 11000

$$$$
