#       Name:                AV-unprocessed.smi:3181
#       Creating user name   scv26
#       Creation time:       Fri Mar 27 17:58:24 2020


#       File generated by GOLD software.
#

@<TRIPOS>MOLECULE
AV-unprocessed.smi:3181
    44    45     1
SMALL
NO_CHARGES


@<TRIPOS>ATOM
      1 ****        -1.5693  -2.4437  -2.0148 C.3            1 S1                 0.0000
      2 ****        -1.1703  -1.5298  -0.8445 C.3            1 S1                 0.0000
      3 ****        -1.6922  -2.0507   0.5123 C.3            1 S1                 0.0000
      4 ****        -3.1375  -2.1723   0.5519 N.pl3          1 S1                 0.0000
      5 ****        -3.9182  -3.2507   0.6402 C.2            1 S1                 0.0000
      6 ****        -5.2140  -2.9723   0.6585 N.2            1 S1                 0.0000
      7 ****        -5.1565  -1.6092   0.5819 C.2            1 S1                 0.0000
      8 ****        -3.9347  -1.0791   0.5195 N.2            1 S1                 0.0000
      9 ****         0.3036  -1.3923  -0.8054 N.4            1 S1                 1.0000
     10 ****         0.8301  -0.0086  -0.7492 C.3            1 S1                 0.0000
     11 ****         2.3472  -0.0245  -0.9916 C.3            1 S1                 0.0000
     12 ****         2.9329   1.3924  -0.9364 C.3            1 S1                 0.0000
     13 ****         2.6338   2.0875   0.4069 C.3            1 S1                 0.0000
     14 ****         3.2579   3.4943   0.4168 C.3            1 S1                 0.0000
     15 ****         1.1072   2.1004   0.6845 C.3            1 S1                 0.0000
     16 ****         0.7501   2.7296   2.0433 C.3            1 S1                 0.0000
     17 ****         0.5197   0.6758   0.5976 C.3            1 S1                 0.0000
     18 ****        -2.6524  -2.5015  -2.1267 H              1 S1                 0.0000
     19 ****        -1.1954  -3.4581  -1.8725 H              1 S1                 0.0000
     20 ****        -1.1684  -2.0700  -2.9576 H              1 S1                 0.0000
     21 ****        -1.6117  -0.5509  -1.0384 H              1 S1                 0.0000
     22 ****        -1.2599  -3.0281   0.7314 H              1 S1                 0.0000
     23 ****        -1.3896  -1.3907   1.3256 H              1 S1                 0.0000
     24 ****        -3.5326  -4.2588   0.6887 H              1 S1                 0.0000
     25 ****        -6.0411  -0.9894   0.5736 H              1 S1                 0.0000
     26 ****         0.6662  -1.9208  -0.0248 H              1 S1                 0.0000
     27 ****         0.3658   0.5615  -1.5558 H              1 S1                 0.0000
     28 ****         2.8383  -0.6494  -0.2440 H              1 S1                 0.0000
     29 ****         2.5670  -0.4717  -1.9618 H              1 S1                 0.0000
     30 ****         4.0104   1.3428  -1.0985 H              1 S1                 0.0000
     31 ****         2.5270   1.9851  -1.7575 H              1 S1                 0.0000
     32 ****         3.1182   1.5087   1.1950 H              1 S1                 0.0000
     33 ****         2.7642   4.1532  -0.2983 H              1 S1                 0.0000
     34 ****         4.3153   3.4551   0.1540 H              1 S1                 0.0000
     35 ****         3.1948   3.9587   1.4006 H              1 S1                 0.0000
     36 ****         0.6284   2.7021  -0.0896 H              1 S1                 0.0000
     37 ****         1.2553   2.2180   2.8630 H              1 S1                 0.0000
     38 ****        -0.3228   2.6747   2.2302 H              1 S1                 0.0000
     39 ****         1.0225   3.7838   2.0866 H              1 S1                 0.0000
     40 ****        -0.5591   0.7337   0.7440 H              1 S1                 0.0000
     41 ****         0.9104   0.0688   1.4160 H              1 S1                 0.0000
     42 ****         0.6593  -1.8045  -1.6563 H              1 S1                 0.0000
     43 ****        -6.0043  -3.5826   0.7127 LP             1 S1                 0.0000
     44 ****        -3.6730  -0.1156   0.4630 LP             1 S1                 0.0000
@<TRIPOS>BOND
    1    1    2 1     
    2    1   18 1     
    3    1   19 1     
    4    1   20 1     
    5    2    3 1     
    6    2    9 1     
    7    2   21 1     
    8    3    4 1     
    9    3   22 1     
   10    3   23 1     
   11    4    8 1     
   12    4    5 1     
   13    5    6 2     
   14    5   24 1     
   15    6    7 1     
   16    7    8 2     
   17    7   25 1     
   18    9   10 1     
   19    9   26 1     
   20    9   42 1     
   21   10   17 1     
   22   10   11 1     
   23   10   27 1     
   24   11   12 1     
   25   11   28 1     
   26   11   29 1     
   27   12   13 1     
   28   12   30 1     
   29   12   31 1     
   30   13   14 1     
   31   13   15 1     
   32   13   32 1     
   33   14   33 1     
   34   14   34 1     
   35   14   35 1     
   36   15   16 1     
   37   15   17 1     
   38   15   36 1     
   39   16   37 1     
   40   16   38 1     
   41   16   39 1     
   42   17   40 1     
   43   17   41 1     
   44    6   43 1     
   45    8   44 1     
@<TRIPOS>SUBSTRUCTURE
      1 S1             1
@<TRIPOS>SET
LONE_PAIRS      STATIC     ATOMS    <user>   **** ""
2 43 44
DONOR_HYDROGENS      STATIC     ATOMS    <user>   **** ""
2 26 42
ATOM$BLUE        STATIC     ATOMS    COLORGROUP SYSTEM
2 43 44
ATOM$RED        STATIC     ATOMS    COLORGROUP SYSTEM
2 26 42
