#       Name:                AV-unprocessed.smi:2826
#       Creating user name   scv26
#       Creation time:       Fri Mar 27 15:34:20 2020


#       File generated by GOLD software.
#

@<TRIPOS>MOLECULE
AV-unprocessed.smi:2826
    57    58     1
SMALL
NO_CHARGES


@<TRIPOS>ATOM
      1 ****        -6.6362   4.0218  -0.3359 C.3            1 S1                 0.0000
      2 ****        -5.3768   4.6720  -0.2061 O.3            1 S1                 0.0000
      3 ****        -4.2788   3.9099   0.1368 C.ar           1 S1                 0.0000
      4 ****        -3.0286   4.5455   0.2597 C.ar           1 S1                 0.0000
      5 ****        -1.9042   3.7728   0.6046 C.ar           1 S1                 0.0000
      6 ****        -2.0604   2.3806   0.8083 C.ar           1 S1                 0.0000
      7 ****        -0.9868   1.5227   1.1773 N.am           1 S1                 0.0000
      8 ****         0.3236   1.6714   0.9190 C.2            1 S1                 0.0000
      9 ****         0.8248   2.6083   0.2976 O.2            1 S1                 0.0000
     10 ****         1.0327   0.6441   1.4076 N.am           1 S1                 0.0000
     11 ****         2.4798   0.4774   1.2786 C.3            1 S1                 0.0000
     12 ****         3.0111  -0.4665   2.3685 C.3            1 S1                 0.0000
     13 ****         2.6288  -1.9284   2.0804 C.3            1 S1                 0.0000
     14 ****         3.0809  -2.3033   0.7839 O.3            1 S1                 0.0000
     15 ****         2.4750  -1.5524  -0.2655 C.3            1 S1                 0.0000
     16 ****         2.9439  -2.1265  -1.6155 C.3            1 S1                 0.0000
     17 ****         2.5548  -3.6004  -1.8639 C.3            1 S1                 0.0000
     18 ****         3.2633  -4.1418  -3.1151 C.3            1 S1                 0.0000
     19 ****         1.0343  -3.8004  -1.9829 C.3            1 S1                 0.0000
     20 ****         2.8679  -0.0691  -0.1083 C.3            1 S1                 0.0000
     21 ****        -3.3624   1.8394   0.6785 C.ar           1 S1                 0.0000
     22 ****        -3.6312   0.3612   0.8998 C.3            1 S1                 0.0000
     23 ****        -4.4423   2.5808   0.3468 N.ar           1 S1                 0.0000
     24 ****        -7.3927   4.7543  -0.6170 H              1 S1                 0.0000
     25 ****        -6.9491   3.5679   0.6053 H              1 S1                 0.0000
     26 ****        -6.6124   3.2564  -1.1129 H              1 S1                 0.0000
     27 ****        -2.9338   5.6088   0.0962 H              1 S1                 0.0000
     28 ****        -0.9503   4.2638   0.7198 H              1 S1                 0.0000
     29 ****        -1.2569   0.6565   1.6198 H              1 S1                 0.0000
     30 ****         0.5354  -0.0831   1.9004 H              1 S1                 0.0000
     31 ****         2.9462   1.4544   1.4186 H              1 S1                 0.0000
     32 ****         4.0985  -0.3895   2.4074 H              1 S1                 0.0000
     33 ****         2.6478  -0.1639   3.3514 H              1 S1                 0.0000
     34 ****         3.0914  -2.5862   2.8162 H              1 S1                 0.0000
     35 ****         1.5506  -2.0761   2.1584 H              1 S1                 0.0000
     36 ****         1.3905  -1.6401  -0.1945 H              1 S1                 0.0000
     37 ****         2.5493  -1.5116  -2.4256 H              1 S1                 0.0000
     38 ****         4.0293  -2.0315  -1.6704 H              1 S1                 0.0000
     39 ****         2.9040  -4.1938  -1.0181 H              1 S1                 0.0000
     40 ****         2.9611  -3.5958  -4.0093 H              1 S1                 0.0000
     41 ****         3.0317  -5.1954  -3.2744 H              1 S1                 0.0000
     42 ****         4.3465  -4.0565  -3.0231 H              1 S1                 0.0000
     43 ****         0.6145  -3.1860  -2.7800 H              1 S1                 0.0000
     44 ****         0.5195  -3.5461  -1.0569 H              1 S1                 0.0000
     45 ****         0.7934  -4.8405  -2.2045 H              1 S1                 0.0000
     46 ****         2.4143   0.5304  -0.8986 H              1 S1                 0.0000
     47 ****         3.9466   0.0297  -0.2362 H              1 S1                 0.0000
     48 ****        -3.0440  -0.2399   0.2050 H              1 S1                 0.0000
     49 ****        -4.6837   0.1172   0.7497 H              1 S1                 0.0000
     50 ****        -3.3622   0.0754   1.9168 H              1 S1                 0.0000
     51 ****        -5.4786   5.3770   0.4958 LP             1 S1                 0.0000
     52 ****        -5.1746   5.1037  -1.0851 LP             1 S1                 0.0000
     53 ****         0.2433   3.3387  -0.0606 LP             1 S1                 0.0000
     54 ****         1.8136   2.6391   0.1511 LP             1 S1                 0.0000
     55 ****         2.8720  -3.2710   0.6428 LP             1 S1                 0.0000
     56 ****         4.0706  -2.1662   0.7413 LP             1 S1                 0.0000
     57 ****        -5.3439   2.1575   0.2581 LP             1 S1                 0.0000
@<TRIPOS>BOND
    1    1    2 1     
    2    1   24 1     
    3    1   25 1     
    4    1   26 1     
    5    2    3 1     
    6    3   23 ar    
    7    3    4 ar    
    8    4    5 ar    
    9    4   27 1     
   10    5    6 ar    
   11    5   28 1     
   12    6    7 1     
   13    6   21 ar    
   14    7    8 am    
   15    7   29 1     
   16    8    9 2     
   17    8   10 am    
   18   10   11 1     
   19   10   30 1     
   20   11   20 1     
   21   11   12 1     
   22   11   31 1     
   23   12   13 1     
   24   12   32 1     
   25   12   33 1     
   26   13   14 1     
   27   13   34 1     
   28   13   35 1     
   29   14   15 1     
   30   15   16 1     
   31   15   20 1     
   32   15   36 1     
   33   16   17 1     
   34   16   37 1     
   35   16   38 1     
   36   17   18 1     
   37   17   19 1     
   38   17   39 1     
   39   18   40 1     
   40   18   41 1     
   41   18   42 1     
   42   19   43 1     
   43   19   44 1     
   44   19   45 1     
   45   20   46 1     
   46   20   47 1     
   47   21   22 1     
   48   21   23 ar    
   49   22   48 1     
   50   22   49 1     
   51   22   50 1     
   52    2   51 1     
   53    2   52 1     
   54    9   53 1     
   55    9   54 1     
   56   14   55 1     
   57   14   56 1     
   58   23   57 1     
@<TRIPOS>SUBSTRUCTURE
      1 S1             1
@<TRIPOS>SET
LONE_PAIRS      STATIC     ATOMS    <user>   **** ""
7 51 52 53 54 55 56 57
DONOR_HYDROGENS      STATIC     ATOMS    <user>   **** ""
2 29 30
ATOM$BLUE        STATIC     ATOMS    COLORGROUP SYSTEM
7 51 52 53 54 55 56 57
ATOM$RED        STATIC     ATOMS    COLORGROUP SYSTEM
2 29 30
