AV-unprocessed.smi:2822|AV-procd|sdf|10871|dock3
  -GOLD-   2272015313D 1   1.00000     0.00000
 Structure written by MMmdl.
 40 42  0  0  0  0  0  0  0  0  2 V2000
  146.5105  142.0433  155.1183 Cl  0  0  0  0  0  0  0  0  0  0  0  0
  147.7860  140.8957  154.9005 C   0  0  0  0  0  0  0  0  0  0  0  0
  149.1222  141.3394  154.8247 C   0  0  0  0  0  0  0  0  0  0  0  0
  150.1729  140.5091  154.6571 N   0  0  0  0  0  0  0  0  0  0  0  0
  149.9201  139.1874  154.5580 C   0  0  0  0  0  0  0  0  0  0  0  0
  148.6237  138.6384  154.6216 C   0  0  0  0  0  0  0  0  0  0  0  0
  147.5237  139.5104  154.7968 C   0  0  0  0  0  0  0  0  0  0  0  0
  146.2000  139.0525  154.8705 N   0  0  0  0  0  0  0  0  0  0  0  0
  145.8764  137.6351  154.7912 C   0  0  0  0  0  0  0  0  0  0  0  0
  146.2188  137.0376  153.4160 C   0  0  1  0  0  0  0  0  0  0  0  0
  146.1570  135.4967  153.3826 C   0  0  0  0  0  0  0  0  0  0  0  0
  146.4376  134.9930  152.0154 N   0  3  1  0  0  0  0  0  0  0  0  0
  146.4303  133.5105  151.9088 C   0  0  0  0  0  0  0  0  0  0  0  0
  145.0027  132.9303  151.9378 C   0  0  0  0  0  0  0  0  0  0  0  0
  144.1179  133.5830  150.8667 C   0  0  0  0  0  0  0  0  0  0  0  0
  144.1411  135.1116  151.0090 C   0  0  0  0  0  0  0  0  0  0  0  0
  145.5892  135.6476  150.9812 C   0  0  1  0  0  0  0  0  0  0  0  0
  145.6606  137.1807  151.1230 C   0  0  0  0  0  0  0  0  0  0  0  0
  145.3250  137.5758  152.4473 O   0  0  0  0  0  0  0  0  0  0  0  0
  149.3546  142.3914  154.9017 H   0  0  0  0  0  0  0  0  0  0  0  0
  150.7780  138.5456  154.4234 H   0  0  0  0  0  0  0  0  0  0  0  0
  148.4981  137.5698  154.5328 H   0  0  0  0  0  0  0  0  0  0  0  0
  145.4489  139.7202  154.9737 H   0  0  0  0  0  0  0  0  0  0  0  0
  146.4220  137.1004  155.5695 H   0  0  0  0  0  0  0  0  0  0  0  0
  144.8131  137.4989  154.9917 H   0  0  0  0  0  0  0  0  0  0  0  0
  147.2323  137.3553  153.1642 H   0  0  0  0  0  0  0  0  0  0  0  0
  146.8870  135.0823  154.0789 H   0  0  0  0  0  0  0  0  0  0  0  0
  145.1775  135.1504  153.7116 H   0  0  0  0  0  0  0  0  0  0  0  0
  146.9134  133.2337  150.9707 H   0  0  0  0  0  0  0  0  0  0  0  0
  147.0361  133.0766  152.7052 H   0  0  0  0  0  0  0  0  0  0  0  0
  145.0396  131.8521  151.7796 H   0  0  0  0  0  0  0  0  0  0  0  0
  144.5565  133.0751  152.9220 H   0  0  0  0  0  0  0  0  0  0  0  0
  144.4751  133.3013  149.8753 H   0  0  0  0  0  0  0  0  0  0  0  0
  143.0952  133.2131  150.9464 H   0  0  0  0  0  0  0  0  0  0  0  0
  143.5632  135.5610  150.2008 H   0  0  0  0  0  0  0  0  0  0  0  0
  143.6438  135.4029  151.9350 H   0  0  0  0  0  0  0  0  0  0  0  0
  146.0137  135.3905  150.0094 H   0  0  0  0  0  0  0  0  0  0  0  0
  146.6595  137.5423  150.8743 H   0  0  0  0  0  0  0  0  0  0  0  0
  144.9742  137.6598  150.4243 H   0  0  0  0  0  0  0  0  0  0  0  0
  147.3856  135.2801  151.8175 H   0  0  0  0  0  0  0  0  0  0  0  0
  1  2  1  0  0  0  0
  2  7  1  0  0  0  0
  2  3  2  0  0  0  0
  3  4  1  0  0  0  0
  3 20  1  0  0  0  0
  4  5  2  0  0  0  0
  5  6  1  0  0  0  0
  5 21  1  0  0  0  0
  6  7  2  0  0  0  0
  6 22  1  0  0  0  0
  7  8  1  0  0  0  0
  8  9  1  0  0  0  0
  8 23  1  0  0  0  0
  9 10  1  0  0  0  0
  9 24  1  0  0  0  0
  9 25  1  0  0  0  0
 10 19  1  0  0  0  0
 10 11  1  0  0  0  0
 10 26  1  0  0  0  0
 11 12  1  0  0  0  0
 11 27  1  0  0  0  0
 11 28  1  0  0  0  0
 12 17  1  0  0  0  0
 12 13  1  0  0  0  0
 12 40  1  0  0  0  0
 13 14  1  0  0  0  0
 13 29  1  0  0  0  0
 13 30  1  0  0  0  0
 14 15  1  0  0  0  0
 14 31  1  0  0  0  0
 14 32  1  0  0  0  0
 15 16  1  0  0  0  0
 15 33  1  0  0  0  0
 15 34  1  0  0  0  0
 16 17  1  0  0  0  0
 16 35  1  0  0  0  0
 16 36  1  0  0  0  0
 17 18  1  0  0  0  0
 17 37  1  0  0  0  0
 18 19  1  0  0  0  0
 18 38  1  0  0  0  0
 18 39  1  0  0  0  0
M  CHG  1  12   1
M  END
> <s_m_source_file>
AV-unprocessed.smi

> <i_m_source_file_index>
2822

> <i_lp_mmshare_version>
43012

> <i_f3d_flags>
0

> <s_epik_input>
Q2xjMVtjSF1uW2NIXVtjSF1jMVtOSF1bQ0gyXVtDQEhdKFtDSDJdMilPW0NIMl1bQ0BASF0oTjIzKVtDSDJdW0NIMl1bQ0gyXVtDSDJdMw==

> <s_epik_cmdline>
J2VwaWtfcHl0aG9uJywgJy1waCcsICc3LjAnLCAnLXRuJywgJzgnLCAnLW1hJywgJzIwMCcsICctbWV0YWxfYmluZGluZycsICctaW1hZScsICc8aW5maWxlLm1hZT4nLCAnLW9tYWUnLCAnPG91dGZpbGUubWFlPic=

> <r_lp_tautomer_probability>
0.999999

> <r_epik_Ionization_Penalty>
0.88937

> <r_epik_Ionization_Penalty_Charging>
0.0803403

> <r_epik_Ionization_Penalty_Neutral>
0.80903

> <r_epik_State_Penalty>
0.931884

> <r_epik_Charging_Adjusted_Penalty>
1.01222

> <i_epik_Tot_Q>
1

> <i_epik_Tot_abs_Q>
1

> <r_epik_Metal_State_Penalty>
0.0782275

> <b_epik_Metal_Only>
0

> <s_lp_Force_Field>
OPLS_2005

> <r_lp_Energy>
33.0779

> <b_lp_Chiralities_Consistent>
1

> <s_lp_Variant>
AV-unprocessed.smi:2822-12

> <Gold.Version>
5.8.1

> <Gold.Id.Protein>
6NUR|6NUR_protein|mol2

> <Gold.PLP.Fitness>
40.2205

> <Gold.PLP.PLP>
-28.7558

> <Gold.PLP.part.hbond>
-2.0000

> <Gold.PLP.part.metal>
0.0000

> <Gold.PLP.part.buried>
-1.1243

> <Gold.PLP.part.nonpolar>
-27.0156

> <Gold.PLP.part.repulsive>
1.0535

> <Gold.PLP.ligand.clash>
0.0000

> <Gold.PLP.ligand.torsion>
0.0683

> <Gold.PLP.Chemscore.Hbond>
2.8800

> <Gold.PLP.Chemscore.CHOScore>
0.9860

> <Gold.PLP.Chemscore.Metal>
0.0000

> <Gold.Chemscore.Hbonds>
donor molecule, donor type, donor heavy atom, donor atom, acceptor molecule, acceptor atom, score
      L1  H    12    40       P1  7948  2.00
      P1  H  7989  7998       L1     4  0.93
      L1  C     3    20       P1  8028  1.00

> <Gold.PLP.Chemscore.Internal.Correction>
0.0035

> <Gold.Rescore>
     Score         DG    S(hbond)    S(metal)    S(lipo)     H(rot)  DE(clash)    DE(int)     intcor
     15.87     -17.82       1.73        0.00      81.56       1.17       1.87       0.08       ----

> <Gold.Chemscore.Fitness>
15.8743

> <Gold.Chemscore.DG>
-17.8209

> <Gold.Chemscore.ZeroCoef>
-5.4800

> <Gold.Chemscore.Hbond>
1.7341

> <Gold.Chemscore.Metal>
0.0000

> <Gold.Chemscore.Lipo>
81.5581

> <Gold.Chemscore.Internal_Hbond>
0.0000

> <Gold.Chemscore.DEClash>
1.8697

> <Gold.Chemscore.DEInternal>
0.0769

> <Gold.Chemscore.Rot>
1.1693

> <Gold.Chemscore.Internal.Correction>
   9.000000E+99

> <Gold.Chemscore.Hbonds>
donor molecule, donor type, donor heavy atom, donor atom, acceptor molecule, acceptor atom, score
      L1  H    12    40       P1  7948  0.97
      P1  H  7989  7998       L1     4  0.54

> <Gold.Chemscore.Hbond.Weighted>
-5.7920

> <Gold.Chemscore.Metal.Weighted>
-0.0000

> <Gold.Chemscore.Lipo.Weighted>
-9.5423

> <Gold.Chemscore.Internal_Hbond.Weighted>
0.0000

> <Gold.Chemscore.DEClash.Weighted>
1.8697

> <Gold.Chemscore.DEInternal.Weighted>
0.0769

> <Gold.Chemscore.Rot.Weighted>
2.9934

> <Gold.Chemscore.Internal.Correction.Weighted>
   9.000000E+99

> <Gold.Protein.RotatedTorsions>
[ 6907 6896 6895 6894 ] final   44.63 input  -60.11 | X-H torsion
[ 7974 7965 7964 7962 ] final  176.86 input  175.53 | X-H torsion
[ 8008 7997 7996 7995 ] final -172.90 input   59.86 | X-H torsion
[ 10167 10162 10161 10158 ] final -125.39 input  -65.29 | X-H torsion
[ 10718 10713 10712 10709 ] final  -42.85 input   66.30 | X-H torsion
[ 10763 10752 10751 10750 ] final    8.60 input  -60.55 | X-H torsion
[ 11005 11000 10999 10996 ] final -106.04 input  -57.11 | X-H torsion

> <Gold.Protein.ActiveResidues>
 VAL166  LYS551  ARG553  GLY616  TRP617  ASP618  TYR619  PRO620  LYS621  CYS622 
 ASP623  PHE694  ASN695  SER759  ASP760  ASP761  ALA762  ILE779  LEU786  VAL792 
 PHE793  MET794  SER795  GLU796  ALA797  LYS798  CYS799  TRP800  GLU811  SER814 

> <Gold.Protein.RotatedAtoms>
  152.2349  134.8286  160.0468 H   0  0  0  0  0  0  0  0  0  0  0  0  # atno 6907 bound_to 6896
  151.9021  133.3535  159.3842 H   0  0  0  0  0  0  0  0  0  0  0  0  # atno 6908 bound_to 6896
  150.7036  134.4743  159.5484 H   0  0  0  0  0  0  0  0  0  0  0  0  # atno 6909 bound_to 6896
  144.7177  140.0160  143.6440 H   0  0  0  0  0  0  0  0  0  0  0  0  # atno 7974 bound_to 7965
  155.9505  140.1125  157.0981 H   0  0  0  0  0  0  0  0  0  0  0  0  # atno 8008 bound_to 7997
  154.4108  140.1201  156.5112 H   0  0  0  0  0  0  0  0  0  0  0  0  # atno 8009 bound_to 7997
  155.6848  140.3473  155.4872 H   0  0  0  0  0  0  0  0  0  0  0  0  # atno 8010 bound_to 7997
  139.9826  143.5726  152.2372 H   0  0  0  0  0  0  0  0  0  0  0  0  # atno 10167 bound_to 10162
  156.2552  130.4192  149.8604 H   0  0  0  0  0  0  0  0  0  0  0  0  # atno 10718 bound_to 10713
  153.2233  135.6884  153.7975 H   0  0  0  0  0  0  0  0  0  0  0  0  # atno 10763 bound_to 10752
  153.7166  135.3274  155.3258 H   0  0  0  0  0  0  0  0  0  0  0  0  # atno 10764 bound_to 10752
  154.8280  135.4603  154.1089 H   0  0  0  0  0  0  0  0  0  0  0  0  # atno 10765 bound_to 10752
  141.1024  133.8860  157.1808 H   0  0  0  0  0  0  0  0  0  0  0  0  # atno 11005 bound_to 11000
  146.0220  139.3259  143.0807 LP  0  0  0  0  0  0  0  0  0  0  0  0  # atno 17320 bound_to 7965
  145.8557  140.9504  143.0726 LP  0  0  0  0  0  0  0  0  0  0  0  0  # atno 17321 bound_to 7965
  139.6399  144.7653  151.2361 LP  0  0  0  0  0  0  0  0  0  0  0  0  # atno 17342 bound_to 10162
  140.7484  143.6335  150.8401 LP  0  0  0  0  0  0  0  0  0  0  0  0  # atno 17343 bound_to 10162
  156.6138  130.8598  151.3460 LP  0  0  0  0  0  0  0  0  0  0  0  0  # atno 17370 bound_to 10713
  157.7230  130.9584  150.1516 LP  0  0  0  0  0  0  0  0  0  0  0  0  # atno 17371 bound_to 10713
  139.9880  135.0075  156.9909 LP  0  0  0  0  0  0  0  0  0  0  0  0  # atno 17394 bound_to 11000
  140.4988  134.1118  155.7246 LP  0  0  0  0  0  0  0  0  0  0  0  0  # atno 17395 bound_to 11000

$$$$
