AV-unprocessed.smi:605|AV-procd|sdf|3039|dock4
  -GOLD-   2262023553D 1   1.00000     0.00000
 Structure written by MMmdl.
 35 36  0  0  0  0  0  0  0  0  1 V2000
  154.4708  136.4327  164.1336 C   0  0  0  0  0  0  0  0  0  0  0  0
  154.3120  135.7283  162.7780 C   0  0  0  0  0  0  0  0  0  0  0  0
  155.4926  134.8090  162.4337 C   0  0  0  0  0  0  0  0  0  0  0  0
  154.0064  136.6914  161.6732 C   0  0  0  0  0  0  0  0  0  0  0  0
  153.6661  136.3004  160.4379 N   0  0  0  0  0  0  0  0  0  0  0  0
  153.4267  137.3730  159.5921 N   0  0  0  0  0  0  0  0  0  0  0  0
  153.5989  138.5502  160.2100 C   0  0  0  0  0  0  0  0  0  0  0  0
  153.4068  139.8225  159.5963 N   0  0  0  0  0  0  0  0  0  0  0  0
  153.4484  141.0757  160.0976 C   0  0  0  0  0  0  0  0  0  0  0  0
  153.6991  141.2713  161.2855 O   0  0  0  0  0  0  0  0  0  0  0  0
  153.2165  142.0715  159.2264 N   0  0  0  0  0  0  0  0  0  0  0  0
  153.2120  143.5011  159.5268 C   0  0  0  0  0  0  0  0  0  0  0  0
  152.1628  143.8289  160.6079 C   0  0  0  0  0  0  0  0  0  0  0  0
  151.2895  144.9465  160.0323 C   0  0  0  0  0  0  0  0  0  0  0  0
  151.3670  144.7523  158.5213 C   0  0  0  0  0  0  0  0  0  0  0  0
  152.8088  144.3078  158.2799 C   0  0  0  0  0  0  0  0  0  0  0  0
  154.0541  138.4361  161.9018 S   0  0  0  0  0  0  0  0  0  0  0  0
  153.5764  137.0026  164.3868 H   0  0  0  0  0  0  0  0  0  0  0  0
  155.3151  137.1229  164.1259 H   0  0  0  0  0  0  0  0  0  0  0  0
  154.6404  135.7118  164.9336 H   0  0  0  0  0  0  0  0  0  0  0  0
  153.4388  135.0815  162.8714 H   0  0  0  0  0  0  0  0  0  0  0  0
  155.3056  134.2602  161.5101 H   0  0  0  0  0  0  0  0  0  0  0  0
  155.6632  134.0771  163.2236 H   0  0  0  0  0  0  0  0  0  0  0  0
  156.4139  135.3776  162.3031 H   0  0  0  0  0  0  0  0  0  0  0  0
  153.2195  139.7789  158.6052 H   0  0  0  0  0  0  0  0  0  0  0  0
  153.0208  141.8144  158.2692 H   0  0  0  0  0  0  0  0  0  0  0  0
  154.1970  143.8347  159.8575 H   0  0  0  0  0  0  0  0  0  0  0  0
  151.5380  142.9589  160.8179 H   0  0  0  0  0  0  0  0  0  0  0  0
  152.6256  144.1244  161.5500 H   0  0  0  0  0  0  0  0  0  0  0  0
  150.2663  144.9152  160.4080 H   0  0  0  0  0  0  0  0  0  0  0  0
  151.7120  145.9164  160.2978 H   0  0  0  0  0  0  0  0  0  0  0  0
  150.6815  143.9607  158.2158 H   0  0  0  0  0  0  0  0  0  0  0  0
  151.1063  145.6540  157.9666 H   0  0  0  0  0  0  0  0  0  0  0  0
  153.4458  145.1900  158.2022 H   0  0  0  0  0  0  0  0  0  0  0  0
  152.9200  143.7514  157.3481 H   0  0  0  0  0  0  0  0  0  0  0  0
  1  2  1  0  0  0  0
  1 18  1  0  0  0  0
  1 19  1  0  0  0  0
  1 20  1  0  0  0  0
  2  3  1  0  0  0  0
  2  4  1  0  0  0  0
  2 21  1  0  0  0  0
  3 22  1  0  0  0  0
  3 23  1  0  0  0  0
  3 24  1  0  0  0  0
  4 17  1  0  0  0  0
  4  5  2  0  0  0  0
  5  6  1  0  0  0  0
  6  7  2  0  0  0  0
  7  8  1  0  0  0  0
  7 17  1  0  0  0  0
  8  9  1  0  0  0  0
  8 25  1  0  0  0  0
  9 10  2  0  0  0  0
  9 11  1  0  0  0  0
 11 12  1  0  0  0  0
 11 26  1  0  0  0  0
 12 16  1  0  0  0  0
 12 13  1  0  0  0  0
 12 27  1  0  0  0  0
 13 14  1  0  0  0  0
 13 28  1  0  0  0  0
 13 29  1  0  0  0  0
 14 15  1  0  0  0  0
 14 30  1  0  0  0  0
 14 31  1  0  0  0  0
 15 16  1  0  0  0  0
 15 32  1  0  0  0  0
 15 33  1  0  0  0  0
 16 34  1  0  0  0  0
 16 35  1  0  0  0  0
M  END
> <s_m_source_file>
AV-unprocessed.smi

> <i_m_source_file_index>
605

> <i_lp_mmshare_version>
43012

> <i_f3d_flags>
0

> <s_epik_input>
W0NIM11bQ0hdKFtDSDNdKWMxbm5jKHMxKVtOSF1DKD1PKVtOSF1bQ0hdMltDSDJdW0NIMl1bQ0gyXVtDSDJdMg==

> <s_epik_cmdline>
J2VwaWtfcHl0aG9uJywgJy1waCcsICc3LjAnLCAnLXRuJywgJzgnLCAnLW1hJywgJzIwMCcsICctbWV0YWxfYmluZGluZycsICctaW1hZScsICc8aW5maWxlLm1hZT4nLCAnLW9tYWUnLCAnPG91dGZpbGUubWFlPic=

> <r_lp_tautomer_probability>
1

> <r_epik_Ionization_Penalty>
0.000375049

> <r_epik_Ionization_Penalty_Charging>
0

> <r_epik_Ionization_Penalty_Neutral>
0.000375049

> <r_epik_State_Penalty>
-0

> <r_epik_Charging_Adjusted_Penalty>
0

> <i_epik_Tot_Q>
0

> <i_epik_Tot_abs_Q>
0

> <r_epik_Metal_State_Penalty>
0.186879

> <b_epik_Metal_Only>
0

> <s_lp_Force_Field>
OPLS_2005

> <r_lp_Energy>
14.8416

> <b_lp_Chiralities_Consistent>
1

> <s_lp_Variant>
AV-unprocessed.smi:605-1

> <Gold.Version>
5.8.1

> <Gold.Id.Protein>
6NUR|6NUR_protein|mol2

> <Gold.PLP.Fitness>
40.5608

> <Gold.PLP.PLP>
-37.6582

> <Gold.PLP.part.hbond>
-0.9745

> <Gold.PLP.part.metal>
0.0000

> <Gold.PLP.part.buried>
-5.4119

> <Gold.PLP.part.nonpolar>
-31.7776

> <Gold.PLP.part.repulsive>
0.1568

> <Gold.PLP.ligand.clash>
0.0000

> <Gold.PLP.ligand.torsion>
0.0769

> <Gold.PLP.Chemscore.Hbond>
0.9913

> <Gold.PLP.Chemscore.CHOScore>
0.0000

> <Gold.PLP.Chemscore.Metal>
0.0000

> <Gold.Chemscore.Hbonds>
donor molecule, donor type, donor heavy atom, donor atom, acceptor molecule, acceptor atom, score
      P1  H  6896  6908       L1     5  1.00

> <Gold.PLP.Chemscore.Internal.Correction>
0.0827

> <Gold.Rescore>
     Score         DG    S(hbond)    S(metal)    S(lipo)     H(rot)  DE(clash)    DE(int)     intcor
     15.40     -16.70       0.96        0.00      94.54       1.20       0.01       1.29       ----

> <Gold.Chemscore.Fitness>
15.4006

> <Gold.Chemscore.DG>
-16.6977

> <Gold.Chemscore.ZeroCoef>
-5.4800

> <Gold.Chemscore.Hbond>
0.9643

> <Gold.Chemscore.Metal>
0.0000

> <Gold.Chemscore.Lipo>
94.5439

> <Gold.Chemscore.Internal_Hbond>
0.0000

> <Gold.Chemscore.DEClash>
0.0058

> <Gold.Chemscore.DEInternal>
1.2912

> <Gold.Chemscore.Rot>
1.1971

> <Gold.Chemscore.Internal.Correction>
   9.000000E+99

> <Gold.Chemscore.Hbonds>
donor molecule, donor type, donor heavy atom, donor atom, acceptor molecule, acceptor atom, score
      P1  H  6896  6908       L1     5  0.61

> <Gold.Chemscore.Hbond.Weighted>
-3.2207

> <Gold.Chemscore.Metal.Weighted>
-0.0000

> <Gold.Chemscore.Lipo.Weighted>
-11.0616

> <Gold.Chemscore.Internal_Hbond.Weighted>
0.0000

> <Gold.Chemscore.DEClash.Weighted>
0.0058

> <Gold.Chemscore.DEInternal.Weighted>
1.2912

> <Gold.Chemscore.Rot.Weighted>
3.0647

> <Gold.Chemscore.Internal.Correction.Weighted>
   9.000000E+99

> <Gold.Protein.RotatedTorsions>
[ 6907 6896 6895 6894 ] final  -75.44 input  -60.11 | X-H torsion
[ 7974 7965 7964 7962 ] final   96.02 input  175.53 | X-H torsion
[ 8008 7997 7996 7995 ] final  -66.41 input   59.86 | X-H torsion
[ 10167 10162 10161 10158 ] final  138.70 input  -65.29 | X-H torsion
[ 10718 10713 10712 10709 ] final -117.14 input   66.30 | X-H torsion
[ 10763 10752 10751 10750 ] final   -0.66 input  -60.55 | X-H torsion
[ 11005 11000 10999 10996 ] final  -50.14 input  -57.11 | X-H torsion

> <Gold.Protein.ActiveResidues>
 VAL166  LYS551  ARG553  GLY616  TRP617  ASP618  TYR619  PRO620  LYS621  CYS622 
 ASP623  PHE694  ASN695  SER759  ASP760  ASP761  ALA762  ILE779  LEU786  VAL792 
 PHE793  MET794  SER795  GLU796  ALA797  LYS798  CYS799  TRP800  GLU811  SER814 

> <Gold.Protein.RotatedAtoms>
  150.7059  134.4721  159.5429 H   0  0  0  0  0  0  0  0  0  0  0  0  # atno 6907 bound_to 6896
  152.2375  134.8258  160.0474 H   0  0  0  0  0  0  0  0  0  0  0  0  # atno 6908 bound_to 6896
  151.9052  133.3512  159.3881 H   0  0  0  0  0  0  0  0  0  0  0  0  # atno 6909 bound_to 6896
  145.4444  139.2298  143.3074 H   0  0  0  0  0  0  0  0  0  0  0  0  # atno 7974 bound_to 7965
  154.4733  140.0913  156.7199 H   0  0  0  0  0  0  0  0  0  0  0  0  # atno 8008 bound_to 7997
  155.4665  140.3463  155.4301 H   0  0  0  0  0  0  0  0  0  0  0  0  # atno 8009 bound_to 7997
  156.1075  140.1438  156.9373 H   0  0  0  0  0  0  0  0  0  0  0  0  # atno 8010 bound_to 7997
  139.5102  144.6338  151.5750 H   0  0  0  0  0  0  0  0  0  0  0  0  # atno 10167 bound_to 10162
  156.1012  130.6174  150.9126 H   0  0  0  0  0  0  0  0  0  0  0  0  # atno 10718 bound_to 10713
  153.3347  135.6977  153.6918 H   0  0  0  0  0  0  0  0  0  0  0  0  # atno 10763 bound_to 10752
  153.5706  135.3517  155.2837 H   0  0  0  0  0  0  0  0  0  0  0  0  # atno 10764 bound_to 10752
  154.8625  135.4271  154.2545 H   0  0  0  0  0  0  0  0  0  0  0  0  # atno 10765 bound_to 10752
  141.0799  133.6656  156.3688 H   0  0  0  0  0  0  0  0  0  0  0  0  # atno 11005 bound_to 11000
  146.2539  140.5196  142.8882 LP  0  0  0  0  0  0  0  0  0  0  0  0  # atno 17320 bound_to 7965
  144.8101  140.6370  143.6421 LP  0  0  0  0  0  0  0  0  0  0  0  0  # atno 17321 bound_to 7965
  140.6079  143.9489  150.6432 LP  0  0  0  0  0  0  0  0  0  0  0  0  # atno 17342 bound_to 10162
  140.2723  143.3447  152.1227 LP  0  0  0  0  0  0  0  0  0  0  0  0  # atno 17343 bound_to 10162
  157.6183  131.0931  150.8670 LP  0  0  0  0  0  0  0  0  0  0  0  0  # atno 17370 bound_to 10713
  156.8797  130.5175  149.5291 LP  0  0  0  0  0  0  0  0  0  0  0  0  # atno 17371 bound_to 10713
  140.5491  134.6045  157.5402 LP  0  0  0  0  0  0  0  0  0  0  0  0  # atno 17394 bound_to 11000
  139.9613  134.7448  156.0232 LP  0  0  0  0  0  0  0  0  0  0  0  0  # atno 17395 bound_to 11000

$$$$
