#       Name:                AV-unprocessed.smi:2753
#       Creating user name   scv26
#       Creation time:       Fri Mar 27 15:06:24 2020


#       File generated by GOLD software.
#

@<TRIPOS>MOLECULE
AV-unprocessed.smi:2753
    29    30     1
SMALL
NO_CHARGES


@<TRIPOS>ATOM
      1 ****        -4.3649   2.2983  -1.7525 F              1 S1                 0.0000
      2 ****        -4.0032   1.0159  -1.7135 C.3            1 S1                 0.0000
      3 ****        -4.6189   0.4262  -0.6890 F              1 S1                 0.0000
      4 ****        -4.3833   0.4217  -2.8444 F              1 S1                 0.0000
      5 ****        -2.5001   0.9061  -1.5503 C.2            1 S1                 0.0000
      6 ****        -1.6461   1.4773  -2.5396 C.2            1 S1                 0.0000
      7 ****        -0.4025   1.2205  -2.1194 N.pl3          1 S1                -1.0000
      8 ****        -0.4453   0.5380  -0.9557 C.2            1 S1                 0.0000
      9 ****         0.7627   0.0730  -0.1689 C.3            1 S1                 0.0000
     10 ****         0.8280  -1.4611  -0.0589 C.3            1 S1                 0.0000
     11 ****         2.0540  -1.8867   0.7636 C.3            1 S1                 0.0000
     12 ****         2.0721  -1.1796   2.1295 C.3            1 S1                 0.0000
     13 ****         2.0273   0.2893   1.9599 N.4            1 S1                 1.0000
     14 ****         0.8362   0.7482   1.2129 C.3            1 S1                 0.0000
     15 ****        -1.7291   0.3438  -0.5996 N.2            1 S1                 0.0000
     16 ****        -1.8323   2.0175  -3.4594 H              1 S1                 0.0000
     17 ****         1.6382   0.3951  -0.7354 H              1 S1                 0.0000
     18 ****        -0.0782  -1.8369   0.4184 H              1 S1                 0.0000
     19 ****         0.8675  -1.9103  -1.0520 H              1 S1                 0.0000
     20 ****         2.0523  -2.9682   0.9019 H              1 S1                 0.0000
     21 ****         2.9651  -1.6463   0.2140 H              1 S1                 0.0000
     22 ****         1.2210  -1.4978   2.7331 H              1 S1                 0.0000
     23 ****         2.9733  -1.4467   2.6818 H              1 S1                 0.0000
     24 ****         2.0300   0.7271   2.8699 H              1 S1                 0.0000
     25 ****         0.8816   1.8322   1.1045 H              1 S1                 0.0000
     26 ****        -0.0579   0.5227   1.7961 H              1 S1                 0.0000
     27 ****         2.8518   0.5799   1.4541 H              1 S1                 0.0000
     28 ****         0.4334   1.4932  -2.5959 LP             1 S1                 0.0000
     29 ****        -2.0510  -0.1305   0.2197 LP             1 S1                 0.0000
@<TRIPOS>BOND
    1    1    2 1     
    2    2    3 1     
    3    2    4 1     
    4    2    5 1     
    5    5   15 1     
    6    5    6 2     
    7    6    7 1     
    8    6   16 1     
    9    7    8 1     
   10    8    9 1     
   11    8   15 2     
   12    9   14 1     
   13    9   10 1     
   14    9   17 1     
   15   10   11 1     
   16   10   18 1     
   17   10   19 1     
   18   11   12 1     
   19   11   20 1     
   20   11   21 1     
   21   12   13 1     
   22   12   22 1     
   23   12   23 1     
   24   13   14 1     
   25   13   24 1     
   26   13   27 1     
   27   14   25 1     
   28   14   26 1     
   29    7   28 1     
   30   15   29 1     
@<TRIPOS>SUBSTRUCTURE
      1 S1             1
@<TRIPOS>SET
LONE_PAIRS      STATIC     ATOMS    <user>   **** ""
2 28 29
DONOR_HYDROGENS      STATIC     ATOMS    <user>   **** ""
2 24 27
ATOM$BLUE        STATIC     ATOMS    COLORGROUP SYSTEM
2 28 29
ATOM$RED        STATIC     ATOMS    COLORGROUP SYSTEM
2 24 27
