#       Name:                AV-unprocessed.smi:2045
#       Creating user name   scv26
#       Creation time:       Fri Mar 27 10:57:45 2020


#       File generated by GOLD software.
#

@<TRIPOS>MOLECULE
AV-unprocessed.smi:2045
    44    45     1
SMALL
NO_CHARGES


@<TRIPOS>ATOM
      1 ****        -7.3169   3.6781   0.2178 C.3            1 S1                 0.0000
      2 ****        -5.8860   3.2698   0.2966 C.2            1 S1                 0.0000
      3 ****        -5.2641   2.0532   0.2990 C.2            1 S1                 0.0000
      4 ****        -3.8888   2.3954   0.3960 C.2            1 S1                 0.0000
      5 ****        -2.8917   1.3846   0.4249 N.am           1 S1                 0.0000
      6 ****        -1.5551   1.5203   0.5035 C.2            1 S1                 0.0000
      7 ****        -1.0451   2.6442   0.5853 O.2            1 S1                 0.0000
      8 ****        -0.9142   0.3194   0.4799 N.pl3          1 S1                -1.0000
      9 ****         0.5356   0.1496   0.5413 C.3            1 S1                 0.0000
     10 ****         0.9205  -1.2143  -0.0623 C.3            1 S1                 0.0000
     11 ****         2.3887  -1.4498  -0.0208 N.4            1 S1                 1.0000
     12 ****         2.7323  -2.8536   0.3302 C.3            1 S1                 0.0000
     13 ****         4.2497  -3.0292   0.5121 C.3            1 S1                 0.0000
     14 ****         5.0121  -2.5787  -0.7405 C.3            1 S1                 0.0000
     15 ****         4.6208  -1.1400  -1.1004 C.3            1 S1                 0.0000
     16 ****         3.0967  -1.0078  -1.2561 C.3            1 S1                 0.0000
     17 ****        -3.6908   3.7042   0.4480 N.2            1 S1                 0.0000
     18 ****        -4.9693   4.2709   0.3854 O.3            1 S1                 0.0000
     19 ****        -7.9713   2.8063   0.2082 H              1 S1                 0.0000
     20 ****        -7.5049   4.2523  -0.6894 H              1 S1                 0.0000
     21 ****        -7.5895   4.2961   1.0732 H              1 S1                 0.0000
     22 ****        -5.7205   1.0764   0.2398 H              1 S1                 0.0000
     23 ****        -3.2319   0.4362   0.3696 H              1 S1                 0.0000
     24 ****         1.0653   0.9339  -0.0012 H              1 S1                 0.0000
     25 ****         0.9017   0.1986   1.5674 H              1 S1                 0.0000
     26 ****         0.4062  -1.9901   0.5077 H              1 S1                 0.0000
     27 ****         0.5565  -1.3063  -1.0872 H              1 S1                 0.0000
     28 ****         2.2298  -3.1348   1.2565 H              1 S1                 0.0000
     29 ****         2.3646  -3.5241  -0.4482 H              1 S1                 0.0000
     30 ****         4.5845  -2.4493   1.3733 H              1 S1                 0.0000
     31 ****         4.4803  -4.0717   0.7331 H              1 S1                 0.0000
     32 ****         6.0875  -2.6478  -0.5742 H              1 S1                 0.0000
     33 ****         4.7805  -3.2441  -1.5732 H              1 S1                 0.0000
     34 ****         4.9702  -0.4583  -0.3237 H              1 S1                 0.0000
     35 ****         5.1172  -0.8386  -2.0233 H              1 S1                 0.0000
     36 ****         2.7550  -1.6023  -2.1049 H              1 S1                 0.0000
     37 ****         2.8509   0.0303  -1.4820 H              1 S1                 0.0000
     38 ****         2.7349  -0.8797   0.7380 H              1 S1                 0.0000
     39 ****        -1.6266   3.4578   0.5933 LP             1 S1                 0.0000
     40 ****        -0.0514   2.7393   0.6435 LP             1 S1                 0.0000
     41 ****        -1.4760  -0.5054   0.4160 LP             1 S1                 0.0000
     42 ****        -2.8162   4.1841   0.5171 LP             1 S1                 0.0000
     43 ****        -5.1390   4.8105   1.2101 LP             1 S1                 0.0000
     44 ****        -5.0368   4.8613  -0.4189 LP             1 S1                 0.0000
@<TRIPOS>BOND
    1    1    2 1     
    2    1   19 1     
    3    1   20 1     
    4    1   21 1     
    5    2   18 1     
    6    2    3 2     
    7    3    4 1     
    8    3   22 1     
    9    4    5 1     
   10    4   17 2     
   11    5    6 am    
   12    5   23 1     
   13    6    7 2     
   14    6    8 1     
   15    8    9 1     
   16    9   10 1     
   17    9   24 1     
   18    9   25 1     
   19   10   11 1     
   20   10   26 1     
   21   10   27 1     
   22   11   16 1     
   23   11   12 1     
   24   11   38 1     
   25   12   13 1     
   26   12   28 1     
   27   12   29 1     
   28   13   14 1     
   29   13   30 1     
   30   13   31 1     
   31   14   15 1     
   32   14   32 1     
   33   14   33 1     
   34   15   16 1     
   35   15   34 1     
   36   15   35 1     
   37   16   36 1     
   38   16   37 1     
   39   17   18 1     
   40    7   39 1     
   41    7   40 1     
   42    8   41 1     
   43   17   42 1     
   44   18   43 1     
   45   18   44 1     
@<TRIPOS>SUBSTRUCTURE
      1 S1             1
@<TRIPOS>SET
LONE_PAIRS      STATIC     ATOMS    <user>   **** ""
6 39 40 41 42 43 44
DONOR_HYDROGENS      STATIC     ATOMS    <user>   **** ""
2 23 38
ATOM$BLUE        STATIC     ATOMS    COLORGROUP SYSTEM
6 39 40 41 42 43 44
ATOM$RED        STATIC     ATOMS    COLORGROUP SYSTEM
2 23 38
