#       Name:                AV-unprocessed.smi:473
#       Creating user name   scv26
#       Creation time:       Thu Mar 26 23:07:51 2020


#       File generated by GOLD software.
#

@<TRIPOS>MOLECULE
AV-unprocessed.smi:473
    49    51     1
SMALL
NO_CHARGES


@<TRIPOS>ATOM
      1 ****        -2.9894   4.2800   1.6684 C.3            1 S1                 0.0000
      2 ****        -2.2092   3.3680   0.7370 C.ar           1 S1                 0.0000
      3 ****        -2.0091   3.7804  -0.6000 C.ar           1 S1                 0.0000
      4 ****        -1.2888   2.9261  -1.4266 C.ar           1 S1                 0.0000
      5 ****        -0.9229   3.0439  -2.7695 N.pl3          1 S1                 1.0000
      6 ****        -0.2141   1.9434  -3.1460 C.2            1 S1                 0.0000
      7 ****        -0.1221   1.1250  -2.0632 N.pl3          1 S1                 0.0000
      8 ****         0.5255  -0.1869  -1.9249 C.3            1 S1                 0.0000
      9 ****         2.0252  -0.0863  -1.5742 C.3            1 S1                 0.0000
     10 ****         2.2550   0.7273  -0.4408 O.3            1 S1                 0.0000
     11 ****         2.6924  -1.4528  -1.3484 C.3            1 S1                 0.0000
     12 ****         1.9162  -2.2140  -0.4379 O.3            1 S1                 0.0000
     13 ****         2.4593  -3.4970  -0.1746 C.3            1 S1                 0.0000
     14 ****         1.5595  -4.1802   0.8066 C.2            1 S1                 0.0000
     15 ****         1.5335  -5.4492   1.3163 C.2            1 S1                 0.0000
     16 ****         0.4378  -5.4988   2.2221 C.2            1 S1                 0.0000
     17 ****        -0.1252  -4.2549   2.2006 C.2            1 S1                 0.0000
     18 ****         0.5461  -3.4387   1.3439 O.3            1 S1                 0.0000
     19 ****        -0.7770   1.6976  -0.9665 C.ar           1 S1                 0.0000
     20 ****        -0.9638   1.2770   0.3485 C.ar           1 S1                 0.0000
     21 ****        -1.6919   2.1325   1.2053 C.ar           1 S1                 0.0000
     22 ****        -1.9086   1.7000   2.6457 C.3            1 S1                 0.0000
     23 ****        -3.3563   5.1643   1.1465 H              1 S1                 0.0000
     24 ****        -2.3574   4.6153   2.4910 H              1 S1                 0.0000
     25 ****        -3.8520   3.7582   2.0837 H              1 S1                 0.0000
     26 ****        -2.3980   4.7205  -0.9628 H              1 S1                 0.0000
     27 ****         0.1982   1.7534  -4.1267 H              1 S1                 0.0000
     28 ****        -0.0229  -0.7703  -1.1853 H              1 S1                 0.0000
     29 ****         0.4025  -0.7118  -2.8730 H              1 S1                 0.0000
     30 ****         2.5383   0.4051  -2.4018 H              1 S1                 0.0000
     31 ****         1.9056   1.5878  -0.6142 H              1 S1                 0.0000
     32 ****         2.7520  -1.9882  -2.2973 H              1 S1                 0.0000
     33 ****         3.7130  -1.3297  -0.9817 H              1 S1                 0.0000
     34 ****         2.5233  -4.0797  -1.0945 H              1 S1                 0.0000
     35 ****         3.4646  -3.4082   0.2393 H              1 S1                 0.0000
     36 ****         2.2203  -6.2447   1.0675 H              1 S1                 0.0000
     37 ****         0.1043  -6.3376   2.8151 H              1 S1                 0.0000
     38 ****        -0.9641  -3.8015   2.7078 H              1 S1                 0.0000
     39 ****        -0.5655   0.3392   0.7078 H              1 S1                 0.0000
     40 ****        -1.4298   0.7418   2.8509 H              1 S1                 0.0000
     41 ****        -2.9726   1.5922   2.8574 H              1 S1                 0.0000
     42 ****        -1.4900   2.4344   3.3341 H              1 S1                 0.0000
     43 ****        -1.1405   3.8165  -3.3860 H              1 S1                 0.0000
     44 ****         3.2373   0.7912  -0.2648 LP             1 S1                 0.0000
     45 ****         1.7985   0.3321   0.3564 LP             1 S1                 0.0000
     46 ****         0.9999  -2.3297  -0.8213 LP             1 S1                 0.0000
     47 ****         1.8555  -1.7118   0.4247 LP             1 S1                 0.0000
     48 ****        -0.0669  -3.1186   0.6216 LP             1 S1                 0.0000
     49 ****         0.9186  -2.6528   1.8375 LP             1 S1                 0.0000
@<TRIPOS>BOND
    1    1    2 1     
    2    1   23 1     
    3    1   24 1     
    4    1   25 1     
    5    2   21 ar    
    6    2    3 ar    
    7    3    4 ar    
    8    3   26 1     
    9    4   19 ar    
   10    4    5 1     
   11    5    6 2     
   12    5   43 1     
   13    6    7 1     
   14    6   27 1     
   15    7    8 1     
   16    7   19 1     
   17    8    9 1     
   18    8   28 1     
   19    8   29 1     
   20    9   10 1     
   21    9   11 1     
   22    9   30 1     
   23   10   31 1     
   24   11   12 1     
   25   11   32 1     
   26   11   33 1     
   27   12   13 1     
   28   13   14 1     
   29   13   34 1     
   30   13   35 1     
   31   14   18 1     
   32   14   15 2     
   33   15   16 1     
   34   15   36 1     
   35   16   17 2     
   36   16   37 1     
   37   17   18 1     
   38   17   38 1     
   39   19   20 ar    
   40   20   21 ar    
   41   20   39 1     
   42   21   22 1     
   43   22   40 1     
   44   22   41 1     
   45   22   42 1     
   46   10   44 1     
   47   10   45 1     
   48   12   46 1     
   49   12   47 1     
   50   18   48 1     
   51   18   49 1     
@<TRIPOS>SUBSTRUCTURE
      1 S1             1
@<TRIPOS>SET
LONE_PAIRS      STATIC     ATOMS    <user>   **** ""
6 44 45 46 47 48 49
DONOR_HYDROGENS      STATIC     ATOMS    <user>   **** ""
2 43 31
ATOM$BLUE        STATIC     ATOMS    COLORGROUP SYSTEM
6 44 45 46 47 48 49
ATOM$RED        STATIC     ATOMS    COLORGROUP SYSTEM
2 43 31
