#       Name:                AV-unprocessed.smi:788
#       Creating user name   scv26
#       Creation time:       Fri Mar 27 01:16:55 2020


#       File generated by GOLD software.
#

@<TRIPOS>MOLECULE
AV-unprocessed.smi:788
    39    40     1
SMALL
NO_CHARGES


@<TRIPOS>ATOM
      1 ****        -0.7130   0.5217  -2.5708 C.3            1 S1                 0.0000
      2 ****        -1.2156  -0.1467  -1.2781 C.3            1 S1                 0.0000
      3 ****        -2.7557  -0.1557  -1.2417 C.3            1 S1                 0.0000
      4 ****        -3.2874  -0.8402   0.0239 C.3            1 S1                 0.0000
      5 ****        -2.7283  -0.1696   1.2850 C.3            1 S1                 0.0000
      6 ****        -1.1877  -0.1593   1.2881 C.3            1 S1                 0.0000
      7 ****        -0.6580   0.4975   2.5761 C.3            1 S1                 0.0000
      8 ****        -0.6410   0.5140   0.0021 C.3            1 S1                 0.0000
      9 ****         0.8207   0.4400  -0.0142 N.am           1 S1                 0.0000
     10 ****         1.6719   1.4801  -0.0179 C.2            1 S1                 0.0000
     11 ****         1.2969   2.6511  -0.0057 O.2            1 S1                 0.0000
     12 ****         2.9871   1.1763  -0.0479 N.am           1 S1                 0.0000
     13 ****         4.1516   1.9981  -0.0606 C.2            1 S1                 0.0000
     14 ****         4.1414   3.3345  -0.1955 N.2            1 S1                 0.0000
     15 ****         5.4217   3.8715  -0.1828 N.2            1 S1                 0.0000
     16 ****         6.3499   2.9206  -0.0471 C.2            1 S1                 0.0000
     17 ****         5.7495   1.2766   0.0759 S.3            1 S1                 0.0000
     18 ****        -0.9695   1.5810  -2.5927 H              1 S1                 0.0000
     19 ****        -1.1556   0.0542  -3.4507 H              1 S1                 0.0000
     20 ****         0.3689   0.4385  -2.6745 H              1 S1                 0.0000
     21 ****        -0.8821  -1.1856  -1.2998 H              1 S1                 0.0000
     22 ****        -3.1314   0.8675  -1.2872 H              1 S1                 0.0000
     23 ****        -3.1477  -0.6671  -2.1217 H              1 S1                 0.0000
     24 ****        -4.3770  -0.8032   0.0358 H              1 S1                 0.0000
     25 ****        -3.0132  -1.8961   0.0149 H              1 S1                 0.0000
     26 ****        -3.1042   0.8524   1.3504 H              1 S1                 0.0000
     27 ****        -3.1004  -0.6914   2.1673 H              1 S1                 0.0000
     28 ****        -0.8526  -1.1979   1.2930 H              1 S1                 0.0000
     29 ****        -0.9171   1.5560   2.6153 H              1 S1                 0.0000
     30 ****         0.4262   0.4165   2.6548 H              1 S1                 0.0000
     31 ****        -1.0795   0.0196   3.4606 H              1 S1                 0.0000
     32 ****        -0.9619   1.5574   0.0106 H              1 S1                 0.0000
     33 ****         1.2214  -0.4873  -0.0245 H              1 S1                 0.0000
     34 ****         3.1812   0.1857  -0.0640 H              1 S1                 0.0000
     35 ****         7.3959   3.1883  -0.0221 H              1 S1                 0.0000
     36 ****         0.3197   2.8631   0.0077 LP             1 S1                 0.0000
     37 ****         1.9691   3.3915  -0.0091 LP             1 S1                 0.0000
     38 ****         3.3086   3.8793  -0.2936 LP             1 S1                 0.0000
     39 ****         5.6236   4.8475  -0.2650 LP             1 S1                 0.0000
@<TRIPOS>BOND
    1    1    2 1     
    2    1   18 1     
    3    1   19 1     
    4    1   20 1     
    5    2    8 1     
    6    2    3 1     
    7    2   21 1     
    8    3    4 1     
    9    3   22 1     
   10    3   23 1     
   11    4    5 1     
   12    4   24 1     
   13    4   25 1     
   14    5    6 1     
   15    5   26 1     
   16    5   27 1     
   17    6    7 1     
   18    6    8 1     
   19    6   28 1     
   20    7   29 1     
   21    7   30 1     
   22    7   31 1     
   23    8    9 1     
   24    8   32 1     
   25    9   10 am    
   26    9   33 1     
   27   10   11 2     
   28   10   12 am    
   29   12   13 1     
   30   12   34 1     
   31   13   17 1     
   32   13   14 2     
   33   14   15 1     
   34   15   16 2     
   35   16   17 1     
   36   16   35 1     
   37   11   36 1     
   38   11   37 1     
   39   14   38 1     
   40   15   39 1     
@<TRIPOS>SUBSTRUCTURE
      1 S1             1
@<TRIPOS>SET
LONE_PAIRS      STATIC     ATOMS    <user>   **** ""
4 36 37 38 39
DONOR_HYDROGENS      STATIC     ATOMS    <user>   **** ""
2 33 34
ATOM$BLUE        STATIC     ATOMS    COLORGROUP SYSTEM
4 36 37 38 39
ATOM$RED        STATIC     ATOMS    COLORGROUP SYSTEM
2 33 34
