#       Name:                AV-unprocessed.smi:276
#       Creating user name   scv26
#       Creation time:       Thu Mar 26 21:34:54 2020


#       File generated by GOLD software.
#

@<TRIPOS>MOLECULE
AV-unprocessed.smi:276
    67    71     1
SMALL
NO_CHARGES


@<TRIPOS>ATOM
      1 ****        -6.3671   0.7839  -3.7657 C.3            1 S1                 0.0000
      2 ****        -4.9528   0.7016  -3.7670 O.3            1 S1                 0.0000
      3 ****        -4.4202   0.4312  -2.4804 C.3            1 S1                 0.0000
      4 ****        -4.3773   1.6451  -1.5451 C.3            1 S1                 0.0000
      5 ****        -3.0283   1.1108  -1.0459 C.3            1 S1                 0.0000
      6 ****        -2.0714   2.1743  -0.7306 N.3            1 S1                 0.0000
      7 ****        -2.4342   3.0564   0.3715 C.3            1 S1                 0.0000
      8 ****        -0.7771   1.7988  -0.6173 C.ar           1 S1                 0.0000
      9 ****         0.1447   2.5840  -1.2291 N.ar           1 S1                 0.0000
     10 ****         1.4416   2.2683  -1.1668 C.ar           1 S1                 0.0000
     11 ****         2.0212   1.2366  -0.5496 N.ar           1 S1                 0.0000
     12 ****         1.0990   0.4581   0.0861 C.ar           1 S1                 0.0000
     13 ****        -0.3092   0.6661   0.1096 C.ar           1 S1                 0.0000
     14 ****        -0.9184  -0.3232   0.8736 N.2            1 S1                 0.0000
     15 ****         0.0703  -1.0785   1.2673 C.2            1 S1                 0.0000
     16 ****         1.3161  -0.6811   0.8402 N.pl3          1 S1                 0.0000
     17 ****         2.5812  -1.3303   1.1360 C.3            1 S1                 0.0000
     18 ****         3.1362  -0.9359   2.5192 C.3            1 S1                 0.0000
     19 ****         3.3234   0.4662   2.5657 O.3            1 S1                 0.0000
     20 ****         4.4761  -1.6290   2.8293 C.3            1 S1                 0.0000
     21 ****         5.0571  -1.2972   4.2047 C.3            1 S1                 0.0000
     22 ****         5.9592  -2.4846   4.4496 C.3            1 S1                 0.0000
     23 ****         5.1422  -3.6285   3.8558 C.3            1 S1                 0.0000
     24 ****         4.3108  -3.0451   2.8551 O.3            1 S1                 0.0000
     25 ****        -2.8797   0.4255  -2.4313 C.3            1 S1                 0.0000
     26 ****        -2.1012  -0.8848  -2.6070 C.3            1 S1                 0.0000
     27 ****        -1.0537  -0.1264  -3.4285 C.3            1 S1                 0.0000
     28 ****        -2.0519   1.0255  -3.5865 C.3            1 S1                 0.0000
     29 ****        -6.7223   0.9877  -4.7757 H              1 S1                 0.0000
     30 ****        -6.7180   1.5880  -3.1179 H              1 S1                 0.0000
     31 ****        -6.8150  -0.1537  -3.4340 H              1 S1                 0.0000
     32 ****        -4.8476  -0.4561  -2.0077 H              1 S1                 0.0000
     33 ****        -4.2997   2.5919  -2.0836 H              1 S1                 0.0000
     34 ****        -5.1659   1.6697  -0.7930 H              1 S1                 0.0000
     35 ****        -3.1770   0.3885  -0.2422 H              1 S1                 0.0000
     36 ****        -2.4427   2.5112   1.3161 H              1 S1                 0.0000
     37 ****        -3.4255   3.4824   0.2167 H              1 S1                 0.0000
     38 ****        -1.7309   3.8855   0.4593 H              1 S1                 0.0000
     39 ****         2.1104   2.9376  -1.6873 H              1 S1                 0.0000
     40 ****        -0.0822  -1.9493   1.8882 H              1 S1                 0.0000
     41 ****         2.4271  -2.4085   1.0833 H              1 S1                 0.0000
     42 ****         3.2961  -1.0812   0.3508 H              1 S1                 0.0000
     43 ****         2.4083  -1.2014   3.2871 H              1 S1                 0.0000
     44 ****         3.9188   0.7128   1.8743 H              1 S1                 0.0000
     45 ****         5.2143  -1.3924   2.0609 H              1 S1                 0.0000
     46 ****         5.5904  -0.3466   4.2244 H              1 S1                 0.0000
     47 ****         4.2697  -1.2644   4.9592 H              1 S1                 0.0000
     48 ****         6.8929  -2.3635   3.8987 H              1 S1                 0.0000
     49 ****         6.1993  -2.6325   5.5028 H              1 S1                 0.0000
     50 ****         5.7746  -4.4127   3.4388 H              1 S1                 0.0000
     51 ****         4.5033  -4.0778   4.6168 H              1 S1                 0.0000
     52 ****        -1.7210  -1.3195  -1.6828 H              1 S1                 0.0000
     53 ****        -2.6466  -1.6194  -3.2009 H              1 S1                 0.0000
     54 ****        -0.1732   0.1457  -2.8466 H              1 S1                 0.0000
     55 ****        -0.7777  -0.6139  -4.3638 H              1 S1                 0.0000
     56 ****        -2.5620   0.9877  -4.5494 H              1 S1                 0.0000
     57 ****        -1.6354   2.0158  -3.4054 H              1 S1                 0.0000
     58 ****        -4.5817   1.5720  -4.0906 LP             1 S1                 0.0000
     59 ****        -4.6753  -0.0308  -4.3888 LP             1 S1                 0.0000
     60 ****        -2.1453   2.7105  -1.5714 LP             1 S1                 0.0000
     61 ****        -0.1469   3.4004  -1.7275 LP             1 S1                 0.0000
     62 ****         3.0050   1.0574  -0.5528 LP             1 S1                 0.0000
     63 ****        -1.8919  -0.4312   1.0753 LP             1 S1                 0.0000
     64 ****         3.7089   0.7258   3.4512 LP             1 S1                 0.0000
     65 ****         2.4460   0.9280   2.4358 LP             1 S1                 0.0000
     66 ****         4.5579  -3.4213   1.9621 LP             1 S1                 0.0000
     67 ****         3.3550  -3.2609   3.0549 LP             1 S1                 0.0000
@<TRIPOS>BOND
    1    1    2 1     
    2    1   29 1     
    3    1   30 1     
    4    1   31 1     
    5    2    3 1     
    6    3   25 1     
    7    3    4 1     
    8    3   32 1     
    9    4    5 1     
   10    4   33 1     
   11    4   34 1     
   12    5    6 1     
   13    5   25 1     
   14    5   35 1     
   15    6    7 1     
   16    6    8 1     
   17    7   36 1     
   18    7   37 1     
   19    7   38 1     
   20    8   13 ar    
   21    8    9 ar    
   22    9   10 ar    
   23   10   11 ar    
   24   10   39 1     
   25   11   12 ar    
   26   12   16 1     
   27   12   13 ar    
   28   13   14 1     
   29   14   15 2     
   30   15   16 1     
   31   15   40 1     
   32   16   17 1     
   33   17   18 1     
   34   17   41 1     
   35   17   42 1     
   36   18   19 1     
   37   18   20 1     
   38   18   43 1     
   39   19   44 1     
   40   20   24 1     
   41   20   21 1     
   42   20   45 1     
   43   21   22 1     
   44   21   46 1     
   45   21   47 1     
   46   22   23 1     
   47   22   48 1     
   48   22   49 1     
   49   23   24 1     
   50   23   50 1     
   51   23   51 1     
   52   25   28 1     
   53   25   26 1     
   54   26   27 1     
   55   26   52 1     
   56   26   53 1     
   57   27   28 1     
   58   27   54 1     
   59   27   55 1     
   60   28   56 1     
   61   28   57 1     
   62    2   58 1     
   63    2   59 1     
   64    6   60 1     
   65    9   61 1     
   66   11   62 1     
   67   14   63 1     
   68   19   64 1     
   69   19   65 1     
   70   24   66 1     
   71   24   67 1     
@<TRIPOS>SUBSTRUCTURE
      1 S1             1
@<TRIPOS>SET
LONE_PAIRS      STATIC     ATOMS    <user>   **** ""
10 58 59 60 61 62 63 64 65 66 67
DONOR_HYDROGENS      STATIC     ATOMS    <user>   **** ""
1 44
ATOM$BLUE        STATIC     ATOMS    COLORGROUP SYSTEM
10 58 59 60 61 62 63 64 65 66 67
ATOM$RED        STATIC     ATOMS    COLORGROUP SYSTEM
1 44
