#       Name:                AV-unprocessed.smi:1033
#       Creating user name   scv26
#       Creation time:       Fri Mar 27 02:50:59 2020


#       File generated by GOLD software.
#

@<TRIPOS>MOLECULE
AV-unprocessed.smi:1033
    62    64     1
SMALL
NO_CHARGES


@<TRIPOS>ATOM
      1 ****        -1.8289   4.9649  -3.8584 C.3            1 S1                 0.0000
      2 ****        -2.0333   4.2374  -2.5411 C.ar           1 S1                 0.0000
      3 ****        -3.1416   3.3726  -2.3984 C.ar           1 S1                 0.0000
      4 ****        -3.3680   2.6788  -1.1898 C.ar           1 S1                 0.0000
      5 ****        -4.3698   1.7915  -0.8363 N.2            1 S1                 0.0000
      6 ****        -4.0323   1.4885   0.4133 C.2            1 S1                 0.0000
      7 ****        -2.9219   2.0675   0.9094 N.pl3          1 S1                 0.0000
      8 ****        -2.3558   1.8763   2.2321 C.3            1 S1                 0.0000
      9 ****        -1.4989   0.5985   2.3264 C.3            1 S1                 0.0000
     10 ****        -1.0143   0.5006   3.6502 O.3            1 S1                 0.0000
     11 ****        -0.2946   0.5946   1.3584 C.3            1 S1                 0.0000
     12 ****         0.4938  -0.6625   1.4258 N.4            1 S1                 1.0000
     13 ****         1.8912  -0.4740   0.9637 C.3            1 S1                 0.0000
     14 ****         2.7125  -1.7656   1.1235 C.3            1 S1                 0.0000
     15 ****         2.0700  -2.8997   0.4156 N.4            1 S1                 1.0000
     16 ****         2.8892  -4.1383   0.4641 C.3            1 S1                 0.0000
     17 ****         2.5953  -5.0873  -0.7144 C.3            1 S1                 0.0000
     18 ****         3.3877  -6.3968  -0.6069 C.3            1 S1                 0.0000
     19 ****         2.9629  -4.4476  -1.9196 O.3            1 S1                 0.0000
     20 ****         0.6733  -3.0930   0.8819 C.3            1 S1                 0.0000
     21 ****        -0.1494  -1.8019   0.7221 C.3            1 S1                 0.0000
     22 ****        -2.4478   2.8755  -0.1189 C.ar           1 S1                 0.0000
     23 ****        -1.3414   3.7336  -0.2484 C.ar           1 S1                 0.0000
     24 ****        -1.1303   4.4192  -1.4629 C.ar           1 S1                 0.0000
     25 ****         0.0662   5.3447  -1.5932 C.3            1 S1                 0.0000
     26 ****        -2.5880   4.6861  -4.5898 H              1 S1                 0.0000
     27 ****        -0.8538   4.7240  -4.2823 H              1 S1                 0.0000
     28 ****        -1.8866   6.0436  -3.7108 H              1 S1                 0.0000
     29 ****        -3.8301   3.2355  -3.2192 H              1 S1                 0.0000
     30 ****        -4.6219   0.7997   1.0006 H              1 S1                 0.0000
     31 ****        -1.7633   2.7558   2.4880 H              1 S1                 0.0000
     32 ****        -3.1765   1.8362   2.9499 H              1 S1                 0.0000
     33 ****        -2.1430  -0.2601   2.1391 H              1 S1                 0.0000
     34 ****        -1.7499   0.5288   4.2443 H              1 S1                 0.0000
     35 ****        -0.6159   0.7470   0.3277 H              1 S1                 0.0000
     36 ****         0.3447   1.4440   1.6047 H              1 S1                 0.0000
     37 ****         1.8885  -0.1582  -0.0810 H              1 S1                 0.0000
     38 ****         2.3641   0.3255   1.5357 H              1 S1                 0.0000
     39 ****         3.7154  -1.6040   0.7262 H              1 S1                 0.0000
     40 ****         2.8247  -2.0118   2.1809 H              1 S1                 0.0000
     41 ****         3.9495  -3.8796   0.4398 H              1 S1                 0.0000
     42 ****         2.7239  -4.6451   1.4162 H              1 S1                 0.0000
     43 ****         1.5342  -5.3297  -0.7628 H              1 S1                 0.0000
     44 ****         3.1252  -6.9389   0.3020 H              1 S1                 0.0000
     45 ****         4.4628  -6.2130  -0.5849 H              1 S1                 0.0000
     46 ****         3.1798  -7.0545  -1.4517 H              1 S1                 0.0000
     47 ****         2.8181  -5.0474  -2.6367 H              1 S1                 0.0000
     48 ****         0.1922  -3.8922   0.3192 H              1 S1                 0.0000
     49 ****         0.6778  -3.4032   1.9282 H              1 S1                 0.0000
     50 ****        -1.1529  -1.9715   1.1105 H              1 S1                 0.0000
     51 ****        -0.2590  -1.5609  -0.3366 H              1 S1                 0.0000
     52 ****        -0.6604   3.8638   0.5794 H              1 S1                 0.0000
     53 ****         0.6473   5.3774  -0.6712 H              1 S1                 0.0000
     54 ****        -0.2589   6.3606  -1.8194 H              1 S1                 0.0000
     55 ****         0.7256   5.0060  -2.3926 H              1 S1                 0.0000
     56 ****         2.0267  -2.6352  -0.5587 H              1 S1                 0.0000
     57 ****         0.5479  -0.9056   2.4053 H              1 S1                 0.0000
     58 ****        -5.1439   1.4644  -1.3783 LP             1 S1                 0.0000
     59 ****        -0.3982   1.2648   3.8407 LP             1 S1                 0.0000
     60 ****        -0.5213  -0.3618   3.7654 LP             1 S1                 0.0000
     61 ****         3.9290  -4.1921  -1.8841 LP             1 S1                 0.0000
     62 ****         2.4057  -3.6273  -2.0489 LP             1 S1                 0.0000
@<TRIPOS>BOND
    1    1    2 1     
    2    1   26 1     
    3    1   27 1     
    4    1   28 1     
    5    2   24 ar    
    6    2    3 ar    
    7    3    4 ar    
    8    3   29 1     
    9    4   22 ar    
   10    4    5 1     
   11    5    6 2     
   12    6    7 1     
   13    6   30 1     
   14    7    8 1     
   15    7   22 1     
   16    8    9 1     
   17    8   31 1     
   18    8   32 1     
   19    9   10 1     
   20    9   11 1     
   21    9   33 1     
   22   10   34 1     
   23   11   12 1     
   24   11   35 1     
   25   11   36 1     
   26   12   21 1     
   27   12   13 1     
   28   12   57 1     
   29   13   14 1     
   30   13   37 1     
   31   13   38 1     
   32   14   15 1     
   33   14   39 1     
   34   14   40 1     
   35   15   16 1     
   36   15   20 1     
   37   15   56 1     
   38   16   17 1     
   39   16   41 1     
   40   16   42 1     
   41   17   18 1     
   42   17   19 1     
   43   17   43 1     
   44   18   44 1     
   45   18   45 1     
   46   18   46 1     
   47   19   47 1     
   48   20   21 1     
   49   20   48 1     
   50   20   49 1     
   51   21   50 1     
   52   21   51 1     
   53   22   23 ar    
   54   23   24 ar    
   55   23   52 1     
   56   24   25 1     
   57   25   53 1     
   58   25   54 1     
   59   25   55 1     
   60    5   58 1     
   61   10   59 1     
   62   10   60 1     
   63   19   61 1     
   64   19   62 1     
@<TRIPOS>SUBSTRUCTURE
      1 S1             1
@<TRIPOS>SET
LONE_PAIRS      STATIC     ATOMS    <user>   **** ""
5 58 59 60 61 62
DONOR_HYDROGENS      STATIC     ATOMS    <user>   **** ""
4 34 57 56 47
ATOM$BLUE        STATIC     ATOMS    COLORGROUP SYSTEM
5 58 59 60 61 62
ATOM$RED        STATIC     ATOMS    COLORGROUP SYSTEM
4 34 57 56 47
