AV-unprocessed.smi:3249|AV-procd|sdf|12420|dock2
  -GOLD-   2272018303D 1   1.00000     0.00000
 Structure written by MMmdl.
 44 45  0  0  0  0  0  0  0  0  2 V2000
  147.0872  141.5109  154.3321 C   0  0  0  0  0  0  0  0  0  0  0  0
  148.4226  140.8360  154.4578 C   0  0  0  0  0  0  0  0  0  0  0  0
  149.6381  141.3874  154.9531 C   0  0  0  0  0  0  0  0  0  0  0  0
  150.6405  140.5248  154.9293 N   0  0  0  0  0  0  0  0  0  0  0  0
  150.1037  139.3930  154.4213 N   0  0  0  0  0  0  0  0  0  0  0  0
  150.9302  138.2062  154.2399 C   0  0  1  0  0  0  0  0  0  0  0  0
  152.4100  138.5549  154.4888 C   0  0  0  0  0  0  0  0  0  0  0  0
  150.4376  137.0129  155.1029 C   0  0  1  0  0  0  0  0  0  0  0  0
  150.4586  137.3102  156.6133 C   0  0  0  0  0  0  0  0  0  0  0  0
  149.0632  136.6263  154.7123 N   0  3  0  0  0  0  0  0  0  0  0  0
  148.4392  135.5979  155.5710 C   0  0  0  0  0  0  0  0  0  0  0  0
  147.9401  134.4011  154.7475 C   0  0  2  0  0  0  0  0  0  0  0  0
  149.0826  133.6483  154.0340 C   0  0  0  0  0  0  0  0  0  0  0  0
  148.5213  132.5288  153.1496 C   0  0  0  0  0  0  0  0  0  0  0  0
  147.4585  133.0992  152.2050 C   0  0  0  0  0  0  0  0  0  0  0  0
  146.4030  133.8836  153.0003 C   0  0  0  0  0  0  0  0  0  0  0  0
  147.0337  134.9038  153.7691 O   0  0  0  0  0  0  0  0  0  0  0  0
  148.7664  139.5565  154.1251 C   0  0  0  0  0  0  0  0  0  0  0  0
  147.0776  142.4856  154.8204 H   0  0  0  0  0  0  0  0  0  0  0  0
  146.2921  140.9180  154.7844 H   0  0  0  0  0  0  0  0  0  0  0  0
  146.8155  141.6719  153.2889 H   0  0  0  0  0  0  0  0  0  0  0  0
  149.8204  142.3845  155.3267 H   0  0  0  0  0  0  0  0  0  0  0  0
  150.8345  137.9207  153.1910 H   0  0  0  0  0  0  0  0  0  0  0  0
  153.0674  137.7280  154.2206 H   0  0  0  0  0  0  0  0  0  0  0  0
  152.5935  138.7990  155.5355 H   0  0  0  0  0  0  0  0  0  0  0  0
  152.7147  139.4140  153.8901 H   0  0  0  0  0  0  0  0  0  0  0  0
  151.1062  136.1662  154.9356 H   0  0  0  0  0  0  0  0  0  0  0  0
  151.4688  137.5010  156.9761 H   0  0  0  0  0  0  0  0  0  0  0  0
  150.0711  136.4649  157.1828 H   0  0  0  0  0  0  0  0  0  0  0  0
  149.8485  138.1813  156.8543 H   0  0  0  0  0  0  0  0  0  0  0  0
  148.4829  137.4526  154.7405 H   0  0  0  0  0  0  0  0  0  0  0  0
  149.1796  135.2544  156.2944 H   0  0  0  0  0  0  0  0  0  0  0  0
  147.6191  136.0383  156.1397 H   0  0  0  0  0  0  0  0  0  0  0  0
  147.3982  133.7199  155.4064 H   0  0  0  0  0  0  0  0  0  0  0  0
  149.6552  134.3439  153.4191 H   0  0  0  0  0  0  0  0  0  0  0  0
  149.7779  133.2288  154.7612 H   0  0  0  0  0  0  0  0  0  0  0  0
  149.3214  132.0548  152.5803 H   0  0  0  0  0  0  0  0  0  0  0  0
  148.0783  131.7529  153.7751 H   0  0  0  0  0  0  0  0  0  0  0  0
  147.9310  133.7597  151.4769 H   0  0  0  0  0  0  0  0  0  0  0  0
  146.9861  132.2959  151.6389 H   0  0  0  0  0  0  0  0  0  0  0  0
  145.6889  134.3469  152.3193 H   0  0  0  0  0  0  0  0  0  0  0  0
  145.8343  133.2198  153.6534 H   0  0  0  0  0  0  0  0  0  0  0  0
  148.1736  138.7563  153.7064 H   0  0  0  0  0  0  0  0  0  0  0  0
  149.0872  136.2843  153.7621 H   0  0  0  0  0  0  0  0  0  0  0  0
  1  2  1  0  0  0  0
  1 19  1  0  0  0  0
  1 20  1  0  0  0  0
  1 21  1  0  0  0  0
  2 18  2  0  0  0  0
  2  3  1  0  0  0  0
  3  4  2  0  0  0  0
  3 22  1  0  0  0  0
  4  5  1  0  0  0  0
  5  6  1  0  0  0  0
  5 18  1  0  0  0  0
  6  7  1  0  0  0  0
  6  8  1  0  0  0  0
  6 23  1  0  0  0  0
  7 24  1  0  0  0  0
  7 25  1  0  0  0  0
  7 26  1  0  0  0  0
  8  9  1  0  0  0  0
  8 10  1  0  0  0  0
  8 27  1  0  0  0  0
  9 28  1  0  0  0  0
  9 29  1  0  0  0  0
  9 30  1  0  0  0  0
 10 11  1  0  0  0  0
 10 31  1  0  0  0  0
 10 44  1  0  0  0  0
 11 12  1  0  0  0  0
 11 32  1  0  0  0  0
 11 33  1  0  0  0  0
 12 17  1  0  0  0  0
 12 13  1  0  0  0  0
 12 34  1  0  0  0  0
 13 14  1  0  0  0  0
 13 35  1  0  0  0  0
 13 36  1  0  0  0  0
 14 15  1  0  0  0  0
 14 37  1  0  0  0  0
 14 38  1  0  0  0  0
 15 16  1  0  0  0  0
 15 39  1  0  0  0  0
 15 40  1  0  0  0  0
 16 17  1  0  0  0  0
 16 41  1  0  0  0  0
 16 42  1  0  0  0  0
 18 43  1  0  0  0  0
M  CHG  1  10   1
M  END
> <s_m_source_file>
AV-unprocessed.smi

> <i_m_source_file_index>
3249

> <i_lp_mmshare_version>
43012

> <i_f3d_flags>
0

> <s_epik_input>
W0NIM11jMVtjSF1ubihbY0hdMSlbQ0BIXShbQ0gzXSlbQ0BIXShbQ0gzXSlbTkhdW0NIMl1bQ0BASF0yW0NIMl1bQ0gyXVtDSDJdW0NIMl1PMg==

> <s_epik_cmdline>
J2VwaWtfcHl0aG9uJywgJy1waCcsICc3LjAnLCAnLXRuJywgJzgnLCAnLW1hJywgJzIwMCcsICctbWV0YWxfYmluZGluZycsICctaW1hZScsICc8aW5maWxlLm1hZT4nLCAnLW9tYWUnLCAnPG91dGZpbGUubWFlPic=

> <r_lp_tautomer_probability>
1

> <r_epik_Ionization_Penalty>
0.00659207

> <r_epik_Ionization_Penalty_Charging>
0.00656881

> <r_epik_Ionization_Penalty_Neutral>
2.32662e-05

> <r_epik_State_Penalty>
0.0048654

> <r_epik_Charging_Adjusted_Penalty>
0.0114342

> <i_epik_Tot_Q>
1

> <i_epik_Tot_abs_Q>
1

> <r_epik_Metal_State_Penalty>
-0

> <b_epik_Metal_Only>
0

> <s_lp_Force_Field>
OPLS_2005

> <r_lp_Energy>
19.2424

> <b_lp_Chiralities_Consistent>
1

> <s_lp_Variant>
AV-unprocessed.smi:3249-4

> <Gold.Version>
5.8.1

> <Gold.Id.Protein>
6NUR|6NUR_protein|mol2

> <Gold.PLP.Fitness>
44.7397

> <Gold.PLP.PLP>
-34.0631

> <Gold.PLP.part.hbond>
-2.0000

> <Gold.PLP.part.metal>
0.0000

> <Gold.PLP.part.buried>
-2.7992

> <Gold.PLP.part.nonpolar>
-29.4982

> <Gold.PLP.part.repulsive>
0.8120

> <Gold.PLP.ligand.clash>
0.0000

> <Gold.PLP.ligand.torsion>
0.5155

> <Gold.PLP.Chemscore.Hbond>
2.8500

> <Gold.PLP.Chemscore.CHOScore>
0.9977

> <Gold.PLP.Chemscore.Metal>
0.0000

> <Gold.Chemscore.Hbonds>
donor molecule, donor type, donor heavy atom, donor atom, acceptor molecule, acceptor atom, score
      L1  H    10    44       P1  7948  2.00
      P1  H  7989  7998       L1     4  0.75
      L1  C     3    22       P1  8028  0.99

> <Gold.PLP.Chemscore.Internal.Correction>
0.1643

> <Gold.Rescore>
     Score         DG    S(hbond)    S(metal)    S(lipo)     H(rot)  DE(clash)    DE(int)     intcor
     13.10     -14.02       0.95        0.00      79.39       1.53       0.09       0.83       ----

> <Gold.Chemscore.Fitness>
13.1033

> <Gold.Chemscore.DG>
-14.0219

> <Gold.Chemscore.ZeroCoef>
-5.4800

> <Gold.Chemscore.Hbond>
0.9518

> <Gold.Chemscore.Metal>
0.0000

> <Gold.Chemscore.Lipo>
79.3862

> <Gold.Chemscore.Internal_Hbond>
0.0000

> <Gold.Chemscore.DEClash>
0.0913

> <Gold.Chemscore.DEInternal>
0.8273

> <Gold.Chemscore.Rot>
1.5333

> <Gold.Chemscore.Internal.Correction>
   9.000000E+99

> <Gold.Chemscore.Hbonds>
donor molecule, donor type, donor heavy atom, donor atom, acceptor molecule, acceptor atom, score
      L1  H    10    44       P1  7948  0.97
      P1  H  7989  7998       L1     4  0.06

> <Gold.Chemscore.Hbond.Weighted>
-3.1789

> <Gold.Chemscore.Metal.Weighted>
-0.0000

> <Gold.Chemscore.Lipo.Weighted>
-9.2882

> <Gold.Chemscore.Internal_Hbond.Weighted>
0.0000

> <Gold.Chemscore.DEClash.Weighted>
0.0913

> <Gold.Chemscore.DEInternal.Weighted>
0.8273

> <Gold.Chemscore.Rot.Weighted>
3.9252

> <Gold.Chemscore.Internal.Correction.Weighted>
   9.000000E+99

> <Gold.Protein.RotatedTorsions>
[ 6907 6896 6895 6894 ] final -165.99 input  -60.11 | X-H torsion
[ 7974 7965 7964 7962 ] final  146.74 input  175.53 | X-H torsion
[ 8008 7997 7996 7995 ] final  133.26 input   59.86 | X-H torsion
[ 10167 10162 10161 10158 ] final   31.57 input  -65.29 | X-H torsion
[ 10718 10713 10712 10709 ] final -125.53 input   66.30 | X-H torsion
[ 10763 10752 10751 10750 ] final -160.00 input  -60.55 | X-H torsion
[ 11005 11000 10999 10996 ] final  -48.74 input  -57.11 | X-H torsion

> <Gold.Protein.ActiveResidues>
 VAL166  LYS551  ARG553  GLY616  TRP617  ASP618  TYR619  PRO620  LYS621  CYS622 
 ASP623  PHE694  ASN695  SER759  ASP760  ASP761  ALA762  ILE779  LEU786  VAL792 
 PHE793  MET794  SER795  GLU796  ALA797  LYS798  CYS799  TRP800  GLU811  SER814 

> <Gold.Protein.RotatedAtoms>
  151.4364  133.3655  159.2775 H   0  0  0  0  0  0  0  0  0  0  0  0  # atno 6907 bound_to 6896
  150.9188  134.8607  159.7486 H   0  0  0  0  0  0  0  0  0  0  0  0  # atno 6908 bound_to 6896
  152.4971  134.4300  159.9561 H   0  0  0  0  0  0  0  0  0  0  0  0  # atno 6909 bound_to 6896
  144.8646  139.5943  143.5914 H   0  0  0  0  0  0  0  0  0  0  0  0  # atno 7974 bound_to 7965
  156.2990  140.2526  156.3223 H   0  0  0  0  0  0  0  0  0  0  0  0  # atno 8008 bound_to 7997
  154.9223  140.0400  157.2023 H   0  0  0  0  0  0  0  0  0  0  0  0  # atno 8009 bound_to 7997
  154.8299  140.2874  155.5734 H   0  0  0  0  0  0  0  0  0  0  0  0  # atno 8010 bound_to 7997
  140.4576  144.0954  150.6205 H   0  0  0  0  0  0  0  0  0  0  0  0  # atno 10167 bound_to 10162
  156.1684  130.6650  151.0146 H   0  0  0  0  0  0  0  0  0  0  0  0  # atno 10718 bound_to 10713
  154.7428  135.3072  154.8699 H   0  0  0  0  0  0  0  0  0  0  0  0  # atno 10763 bound_to 10752
  153.9508  135.6764  153.4748 H   0  0  0  0  0  0  0  0  0  0  0  0  # atno 10764 bound_to 10752
  153.1025  135.4905  154.8818 H   0  0  0  0  0  0  0  0  0  0  0  0  # atno 10765 bound_to 10752
  141.0718  133.6677  156.3485 H   0  0  0  0  0  0  0  0  0  0  0  0  # atno 11005 bound_to 11000
  146.2886  139.7075  142.9177 LP  0  0  0  0  0  0  0  0  0  0  0  0  # atno 17320 bound_to 7965
  145.4245  141.0409  143.2945 LP  0  0  0  0  0  0  0  0  0  0  0  0  # atno 17321 bound_to 7965
  140.4132  143.2647  151.9807 LP  0  0  0  0  0  0  0  0  0  0  0  0  # atno 17342 bound_to 10162
  139.4803  144.5897  151.7793 LP  0  0  0  0  0  0  0  0  0  0  0  0  # atno 17343 bound_to 10162
  157.6785  131.0844  150.7433 LP  0  0  0  0  0  0  0  0  0  0  0  0  # atno 17370 bound_to 10713
  156.7493  130.4763  149.5460 LP  0  0  0  0  0  0  0  0  0  0  0  0  # atno 17371 bound_to 10713
  140.5656  134.5891  157.5445 LP  0  0  0  0  0  0  0  0  0  0  0  0  # atno 17394 bound_to 11000
  139.9531  134.7581  156.0402 LP  0  0  0  0  0  0  0  0  0  0  0  0  # atno 17395 bound_to 11000

$$$$
