AV-unprocessed.smi:652|AV-procd|sdf|3194|dock10
  -GOLD-   22720 0123D 1   1.00000     0.00000
 Structure written by MMmdl.
 48 49  0  0  0  0  0  0  0  0  2 V2000
  149.4898  133.1401  153.5744 C   0  0  0  0  0  0  0  0  0  0  0  0
  148.0121  133.4253  153.2759 C   0  0  0  0  0  0  0  0  0  0  0  0
  147.6326  133.0379  151.8391 C   0  0  0  0  0  0  0  0  0  0  0  0
  147.7367  134.8403  153.5064 N   0  0  0  0  0  0  0  0  0  0  0  0
  146.8041  135.3308  154.3382 C   0  0  0  0  0  0  0  0  0  0  0  0
  146.0443  134.6255  155.0012 O   0  0  0  0  0  0  0  0  0  0  0  0
  146.7191  136.8543  154.4436 C   0  0  0  0  0  0  0  0  0  0  0  0
  148.0403  137.4563  154.9638 C   0  0  0  0  0  0  0  0  0  0  0  0
  148.7242  138.3261  153.9667 N   0  3  1  0  0  0  0  0  0  0  0  0
  147.8075  139.2817  153.2973 C   0  0  0  0  0  0  0  0  0  0  0  0
  147.4737  140.4736  154.2162 C   0  0  0  0  0  0  0  0  0  0  0  0
  148.6752  141.1033  154.6495 O   0  0  0  0  0  0  0  0  0  0  0  0
  149.5126  140.2253  155.3942 C   0  0  2  0  0  0  0  0  0  0  0  0
  150.7213  141.0306  155.9079 C   0  0  0  0  0  0  0  0  0  0  0  0
  150.3408  142.2734  156.5729 N   0  0  0  0  0  0  0  0  0  0  0  0
  150.8536  142.6190  157.8318 C   0  0  0  0  0  0  0  0  0  0  0  0
  151.3989  143.9055  158.0137 C   0  0  0  0  0  0  0  0  0  0  0  0
  151.9185  144.2213  159.2811 C   0  0  0  0  0  0  0  0  0  0  0  0
  151.8501  143.2258  160.2726 C   0  0  0  0  0  0  0  0  0  0  0  0
  151.3149  142.0057  160.0430 N   0  0  0  0  0  0  0  0  0  0  0  0
  150.8188  141.7084  158.8368 N   0  0  0  0  0  0  0  0  0  0  0  0
  149.9174  139.0498  154.4766 C   0  0  0  0  0  0  0  0  0  0  0  0
  149.7221  132.0848  153.4292 H   0  0  0  0  0  0  0  0  0  0  0  0
  149.7346  133.3900  154.6072 H   0  0  0  0  0  0  0  0  0  0  0  0
  150.1483  133.7184  152.9253 H   0  0  0  0  0  0  0  0  0  0  0  0
  147.4164  132.8226  153.9638 H   0  0  0  0  0  0  0  0  0  0  0  0
  147.8250  131.9806  151.6557 H   0  0  0  0  0  0  0  0  0  0  0  0
  148.2035  133.6111  151.1078 H   0  0  0  0  0  0  0  0  0  0  0  0
  146.5734  133.2154  151.6495 H   0  0  0  0  0  0  0  0  0  0  0  0
  148.3092  135.4989  152.9985 H   0  0  0  0  0  0  0  0  0  0  0  0
  146.4565  137.2492  153.4631 H   0  0  0  0  0  0  0  0  0  0  0  0
  145.8983  137.1176  155.1115 H   0  0  0  0  0  0  0  0  0  0  0  0
  147.8124  138.0561  155.8463 H   0  0  0  0  0  0  0  0  0  0  0  0
  148.7094  136.6669  155.3063 H   0  0  0  0  0  0  0  0  0  0  0  0
  148.2963  139.6509  152.3946 H   0  0  0  0  0  0  0  0  0  0  0  0
  146.8979  138.7788  152.9672 H   0  0  0  0  0  0  0  0  0  0  0  0
  146.8715  141.2037  153.6754 H   0  0  0  0  0  0  0  0  0  0  0  0
  146.8831  140.1566  155.0769 H   0  0  0  0  0  0  0  0  0  0  0  0
  148.9499  139.8604  156.2527 H   0  0  0  0  0  0  0  0  0  0  0  0
  151.2887  140.4281  156.6176 H   0  0  0  0  0  0  0  0  0  0  0  0
  151.4014  141.2548  155.0853 H   0  0  0  0  0  0  0  0  0  0  0  0
  149.8813  142.9846  156.0226 H   0  0  0  0  0  0  0  0  0  0  0  0
  151.4233  144.6264  157.2097 H   0  0  0  0  0  0  0  0  0  0  0  0
  152.3535  145.1883  159.4860 H   0  0  0  0  0  0  0  0  0  0  0  0
  152.2345  143.4078  161.2651 H   0  0  0  0  0  0  0  0  0  0  0  0
  150.5998  138.3730  154.9860 H   0  0  0  0  0  0  0  0  0  0  0  0
  150.4729  139.4366  153.6211 H   0  0  0  0  0  0  0  0  0  0  0  0
  149.0500  137.6996  153.2446 H   0  0  0  0  0  0  0  0  0  0  0  0
  1  2  1  0  0  0  0
  1 23  1  0  0  0  0
  1 24  1  0  0  0  0
  1 25  1  0  0  0  0
  2  3  1  0  0  0  0
  2  4  1  0  0  0  0
  2 26  1  0  0  0  0
  3 27  1  0  0  0  0
  3 28  1  0  0  0  0
  3 29  1  0  0  0  0
  4  5  1  0  0  0  0
  4 30  1  0  0  0  0
  5  6  2  0  0  0  0
  5  7  1  0  0  0  0
  7  8  1  0  0  0  0
  7 31  1  0  0  0  0
  7 32  1  0  0  0  0
  8  9  1  0  0  0  0
  8 33  1  0  0  0  0
  8 34  1  0  0  0  0
  9 22  1  0  0  0  0
  9 10  1  0  0  0  0
  9 48  1  0  0  0  0
 10 11  1  0  0  0  0
 10 35  1  0  0  0  0
 10 36  1  0  0  0  0
 11 12  1  0  0  0  0
 11 37  1  0  0  0  0
 11 38  1  0  0  0  0
 12 13  1  0  0  0  0
 13 14  1  0  0  0  0
 13 22  1  0  0  0  0
 13 39  1  0  0  0  0
 14 15  1  0  0  0  0
 14 40  1  0  0  0  0
 14 41  1  0  0  0  0
 15 16  1  0  0  0  0
 15 42  1  0  0  0  0
 16 21  1  0  0  0  0
 16 17  2  0  0  0  0
 17 18  1  0  0  0  0
 17 43  1  0  0  0  0
 18 19  2  0  0  0  0
 18 44  1  0  0  0  0
 19 20  1  0  0  0  0
 19 45  1  0  0  0  0
 20 21  2  0  0  0  0
 22 46  1  0  0  0  0
 22 47  1  0  0  0  0
M  CHG  1   9   1
M  END
> <s_m_source_file>
AV-unprocessed.smi

> <i_m_source_file_index>
652

> <i_lp_mmshare_version>
43012

> <i_f3d_flags>
0

> <s_epik_input>
W0NIM11bQ0hdKFtDSDNdKVtOSF1DKD1PKVtDSDJdW0NIMl1OMVtDSDJdW0NIMl1PW0NASF0oW0NIMl0xKVtDSDJdW05IXWMyW2NIXVtjSF1bY0hdbm4y

> <s_epik_cmdline>
J2VwaWtfcHl0aG9uJywgJy1waCcsICc3LjAnLCAnLXRuJywgJzgnLCAnLW1hJywgJzIwMCcsICctbWV0YWxfYmluZGluZycsICctaW1hZScsICc8aW5maWxlLm1hZT4nLCAnLW9tYWUnLCAnPG91dGZpbGUubWFlPic=

> <r_lp_tautomer_probability>
0.999978

> <r_epik_Ionization_Penalty>
0.433079

> <r_epik_Ionization_Penalty_Charging>
0.413784

> <r_epik_Ionization_Penalty_Neutral>
0.0192945

> <r_epik_State_Penalty>
0.425138

> <r_epik_Charging_Adjusted_Penalty>
0.838922

> <i_epik_Tot_Q>
1

> <i_epik_Tot_abs_Q>
1

> <r_epik_Metal_State_Penalty>
0.422073

> <b_epik_Metal_Only>
0

> <s_lp_Force_Field>
OPLS_2005

> <r_lp_Energy>
22.7305

> <b_lp_Chiralities_Consistent>
1

> <s_lp_Variant>
AV-unprocessed.smi:652-3

> <Gold.Version>
5.8.1

> <Gold.Id.Protein>
6NUR|6NUR_protein|mol2

> <Gold.PLP.Fitness>
49.2012

> <Gold.PLP.PLP>
-39.0248

> <Gold.PLP.part.hbond>
-3.4701

> <Gold.PLP.part.metal>
0.0000

> <Gold.PLP.part.buried>
-3.0070

> <Gold.PLP.part.nonpolar>
-33.2046

> <Gold.PLP.part.repulsive>
0.2905

> <Gold.PLP.ligand.clash>
0.0000

> <Gold.PLP.ligand.torsion>
0.9980

> <Gold.PLP.Chemscore.Hbond>
4.0000

> <Gold.PLP.Chemscore.CHOScore>
0.0000

> <Gold.PLP.Chemscore.Metal>
0.0000

> <Gold.Chemscore.Hbonds>
donor molecule, donor type, donor heavy atom, donor atom, acceptor molecule, acceptor atom, score
      L1  H     4    30       P1  7948  0.88
      L1  H     9    48       P1  7948  2.00
      L1  H    15    42       P1  8028  0.99

> <Gold.PLP.Chemscore.Internal.Correction>
0.1724

> <Gold.Rescore>
     Score         DG    S(hbond)    S(metal)    S(lipo)     H(rot)  DE(clash)    DE(int)     intcor
     19.33     -20.24       2.95        0.00      91.49       2.26       0.08       0.83       ----

> <Gold.Chemscore.Fitness>
19.3275

> <Gold.Chemscore.DG>
-20.2382

> <Gold.Chemscore.ZeroCoef>
-5.4800

> <Gold.Chemscore.Hbond>
2.9454

> <Gold.Chemscore.Metal>
0.0000

> <Gold.Chemscore.Lipo>
91.4929

> <Gold.Chemscore.Internal_Hbond>
0.0000

> <Gold.Chemscore.DEClash>
0.0814

> <Gold.Chemscore.DEInternal>
0.8293

> <Gold.Chemscore.Rot>
2.2594

> <Gold.Chemscore.Internal.Correction>
   9.000000E+99

> <Gold.Chemscore.Hbonds>
donor molecule, donor type, donor heavy atom, donor atom, acceptor molecule, acceptor atom, score
      L1  H     4    30       P1  7948  0.85
      L1  H     9    48       P1  7948  0.96
      L1  H    15    42       P1  8028  0.91

> <Gold.Chemscore.Hbond.Weighted>
-9.8377

> <Gold.Chemscore.Metal.Weighted>
-0.0000

> <Gold.Chemscore.Lipo.Weighted>
-10.7047

> <Gold.Chemscore.Internal_Hbond.Weighted>
0.0000

> <Gold.Chemscore.DEClash.Weighted>
0.0814

> <Gold.Chemscore.DEInternal.Weighted>
0.8293

> <Gold.Chemscore.Rot.Weighted>
5.7841

> <Gold.Chemscore.Internal.Correction.Weighted>
   9.000000E+99

> <Gold.Protein.RotatedTorsions>
[ 6907 6896 6895 6894 ] final   30.43 input  -60.11 | X-H torsion
[ 7974 7965 7964 7962 ] final  104.66 input  175.53 | X-H torsion
[ 8008 7997 7996 7995 ] final  122.92 input   59.86 | X-H torsion
[ 10167 10162 10161 10158 ] final   85.57 input  -65.29 | X-H torsion
[ 10718 10713 10712 10709 ] final  -37.29 input   66.30 | X-H torsion
[ 10763 10752 10751 10750 ] final -100.78 input  -60.55 | X-H torsion
[ 11005 11000 10999 10996 ] final  171.34 input  -57.11 | X-H torsion

> <Gold.Protein.ActiveResidues>
 VAL166  LYS551  ARG553  GLY616  TRP617  ASP618  TYR619  PRO620  LYS621  CYS622 
 ASP623  PHE694  ASN695  SER759  ASP760  ASP761  ALA762  ILE779  LEU786  VAL792 
 PHE793  MET794  SER795  GLU796  ALA797  LYS798  CYS799  TRP800  GLU811  SER814 

> <Gold.Protein.RotatedAtoms>
  152.0458  134.9683  160.0574 H   0  0  0  0  0  0  0  0  0  0  0  0  # atno 6907 bound_to 6896
  152.1104  133.4293  159.4636 H   0  0  0  0  0  0  0  0  0  0  0  0  # atno 6908 bound_to 6896
  150.6843  134.2574  159.4578 H   0  0  0  0  0  0  0  0  0  0  0  0  # atno 6909 bound_to 6896
  145.3298  139.2490  143.3667 H   0  0  0  0  0  0  0  0  0  0  0  0  # atno 7974 bound_to 7965
  156.2746  140.2775  156.1544 H   0  0  0  0  0  0  0  0  0  0  0  0  # atno 8008 bound_to 7997
  155.0820  140.0388  157.2659 H   0  0  0  0  0  0  0  0  0  0  0  0  # atno 8009 bound_to 7997
  154.6957  140.2638  155.6774 H   0  0  0  0  0  0  0  0  0  0  0  0  # atno 8010 bound_to 7997
  139.8963  144.6356  150.8684 H   0  0  0  0  0  0  0  0  0  0  0  0  # atno 10167 bound_to 10162
  156.3170  130.4260  149.7996 H   0  0  0  0  0  0  0  0  0  0  0  0  # atno 10718 bound_to 10713
  154.7606  135.4922  153.9456 H   0  0  0  0  0  0  0  0  0  0  0  0  # atno 10763 bound_to 10752
  153.1246  135.6739  153.9285 H   0  0  0  0  0  0  0  0  0  0  0  0  # atno 10764 bound_to 10752
  153.9007  135.3110  155.3427 H   0  0  0  0  0  0  0  0  0  0  0  0  # atno 10765 bound_to 10752
  140.3179  134.7462  157.4042 H   0  0  0  0  0  0  0  0  0  0  0  0  # atno 11005 bound_to 11000
  146.3050  140.3873  142.8690 LP  0  0  0  0  0  0  0  0  0  0  0  0  # atno 17320 bound_to 7965
  144.8873  140.7478  143.5949 LP  0  0  0  0  0  0  0  0  0  0  0  0  # atno 17321 bound_to 7965
  140.7716  143.3471  151.2090 LP  0  0  0  0  0  0  0  0  0  0  0  0  # atno 17342 bound_to 10162
  139.7064  143.9448  152.2929 LP  0  0  0  0  0  0  0  0  0  0  0  0  # atno 17343 bound_to 10162
  156.5318  130.8261  151.3240 LP  0  0  0  0  0  0  0  0  0  0  0  0  # atno 17370 bound_to 10713
  157.7403  130.9849  150.2372 LP  0  0  0  0  0  0  0  0  0  0  0  0  # atno 17371 bound_to 10713
  140.0967  134.5528  155.8392 LP  0  0  0  0  0  0  0  0  0  0  0  0  # atno 17394 bound_to 11000
  141.2093  133.6682  156.6431 LP  0  0  0  0  0  0  0  0  0  0  0  0  # atno 17395 bound_to 11000

$$$$
