AV-unprocessed.smi:218|AV-procd|sdf|1669|dock6
  -GOLD-   2262020 83D 1   1.00000     0.00000
 Structure written by MMmdl.
 54 57  0  0  0  0  0  0  0  0  1 V2000
  152.3650  144.3653  157.8552 C   0  0  0  0  0  0  0  0  0  0  0  0
  151.3757  144.3842  159.0266 C   0  0  0  0  0  0  0  0  0  0  0  0
  152.0502  144.8815  160.3169 C   0  0  0  0  0  0  0  0  0  0  0  0
  150.9055  143.0450  159.1943 O   0  0  0  0  0  0  0  0  0  0  0  0
  149.7977  142.6055  158.4952 C   0  0  0  0  0  0  0  0  0  0  0  0
  149.9967  141.7247  157.4122 C   0  0  0  0  0  0  0  0  0  0  0  0
  148.8758  141.2741  156.6855 C   0  0  0  0  0  0  0  0  0  0  0  0
  149.0453  140.3253  155.5180 C   0  0  0  0  0  0  0  0  0  0  0  0
  147.9472  139.3768  155.3967 N   0  0  0  0  0  0  0  0  0  0  0  0
  147.4038  139.1238  154.1872 C   0  0  0  0  0  0  0  0  0  0  0  0
  147.3724  140.0783  153.2200 N   0  0  0  0  0  0  0  0  0  0  0  0
  146.8307  139.8044  152.0292 C   0  0  0  0  0  0  0  0  0  0  0  0
  146.2776  138.6657  151.6070 N   0  0  0  0  0  0  0  0  0  0  0  0
  146.3046  137.7054  152.5757 C   0  0  0  0  0  0  0  0  0  0  0  0
  146.8479  137.8545  153.8816 C   0  0  0  0  0  0  0  0  0  0  0  0
  146.7022  136.6684  154.5894 N   0  0  0  0  0  0  0  0  0  0  0  0
  146.1071  135.8679  153.7459 C   0  0  0  0  0  0  0  0  0  0  0  0
  145.8360  136.4093  152.5086 N   0  0  0  0  0  0  0  0  0  0  0  0
  145.1604  135.7503  151.3452 C   0  0  1  0  0  0  0  0  0  0  0  0
  145.9169  134.6322  150.9996 O   0  0  0  0  0  0  0  0  0  0  0  0
  145.0388  133.5751  150.6510 C   0  0  1  0  0  0  0  0  0  0  0  0
  145.7575  132.2146  150.7093 C   0  0  0  0  0  0  0  0  0  0  0  0
  146.6570  132.0360  149.6349 O   0  0  0  0  0  0  0  0  0  0  0  0
  143.8178  133.7615  151.5577 C   0  0  2  0  0  0  0  0  0  0  0  0
  142.6631  133.2218  150.9467 O   0  0  0  0  0  0  0  0  0  0  0  0
  143.7163  135.2804  151.6568 C   0  0  1  0  0  0  0  0  0  0  0  0
  143.2270  135.6750  152.9261 O   0  0  0  0  0  0  0  0  0  0  0  0
  147.5961  141.7194  157.0720 C   0  0  0  0  0  0  0  0  0  0  0  0
  147.4969  142.5996  158.1667 C   0  0  0  0  0  0  0  0  0  0  0  0
  148.5660  143.0373  158.8647 N   0  0  0  0  0  0  0  0  0  0  0  0
  145.1961  136.4934  150.5475 H   0  0  0  0  0  0  0  0  0  0  0  0
  144.7468  133.7638  149.6157 H   0  0  0  0  0  0  0  0  0  0  0  0
  143.9773  133.3187  152.5415 H   0  0  0  0  0  0  0  0  0  0  0  0
  143.0668  135.6811  150.8769 H   0  0  0  0  0  0  0  0  0  0  0  0
  152.7638  145.3614  157.6610 H   0  0  0  0  0  0  0  0  0  0  0  0
  151.8801  144.0192  156.9421 H   0  0  0  0  0  0  0  0  0  0  0  0
  153.2057  143.7013  158.0577 H   0  0  0  0  0  0  0  0  0  0  0  0
  150.5614  145.0550  158.7487 H   0  0  0  0  0  0  0  0  0  0  0  0
  152.4463  145.8888  160.1861 H   0  0  0  0  0  0  0  0  0  0  0  0
  152.8786  144.2329  160.6026 H   0  0  0  0  0  0  0  0  0  0  0  0
  151.3521  144.9128  161.1530 H   0  0  0  0  0  0  0  0  0  0  0  0
  150.9924  141.4029  157.1442 H   0  0  0  0  0  0  0  0  0  0  0  0
  149.1319  140.8999  154.5948 H   0  0  0  0  0  0  0  0  0  0  0  0
  149.9822  139.7819  155.6480 H   0  0  0  0  0  0  0  0  0  0  0  0
  147.6159  138.9635  156.2567 H   0  0  0  0  0  0  0  0  0  0  0  0
  146.8410  140.6116  151.3116 H   0  0  0  0  0  0  0  0  0  0  0  0
  145.8491  134.8514  154.0052 H   0  0  0  0  0  0  0  0  0  0  0  0
  146.3291  132.1435  151.6347 H   0  0  0  0  0  0  0  0  0  0  0  0
  145.0338  131.3993  150.7190 H   0  0  0  0  0  0  0  0  0  0  0  0
  147.4955  131.7767  149.9853 H   0  0  0  0  0  0  0  0  0  0  0  0
  142.2025  133.9230  150.5113 H   0  0  0  0  0  0  0  0  0  0  0  0
  142.3786  136.0745  152.8044 H   0  0  0  0  0  0  0  0  0  0  0  0
  146.7099  141.3960  156.5460 H   0  0  0  0  0  0  0  0  0  0  0  0
  146.5327  142.9619  158.4909 H   0  0  0  0  0  0  0  0  0  0  0  0
  1  2  1  0  0  0  0
  1 35  1  0  0  0  0
  1 36  1  0  0  0  0
  1 37  1  0  0  0  0
  2  3  1  0  0  0  0
  2  4  1  0  0  0  0
  2 38  1  0  0  0  0
  3 39  1  0  0  0  0
  3 40  1  0  0  0  0
  3 41  1  0  0  0  0
  4  5  1  0  0  0  0
  5 30  1  0  0  0  0
  5  6  2  0  0  0  0
  6  7  1  0  0  0  0
  6 42  1  0  0  0  0
  7  8  1  0  0  0  0
  7 28  2  0  0  0  0
  8  9  1  0  0  0  0
  8 43  1  0  0  0  0
  8 44  1  0  0  0  0
  9 10  1  0  0  0  0
  9 45  1  0  0  0  0
 10 15  1  0  0  0  0
 10 11  2  0  0  0  0
 11 12  1  0  0  0  0
 12 13  2  0  0  0  0
 12 46  1  0  0  0  0
 13 14  1  0  0  0  0
 14 18  1  0  0  0  0
 14 15  2  0  0  0  0
 15 16  1  0  0  0  0
 16 17  2  0  0  0  0
 17 18  1  0  0  0  0
 17 47  1  0  0  0  0
 18 19  1  0  0  0  0
 19 31  1  0  0  0  0
 19 26  1  0  0  0  0
 19 20  1  0  0  0  0
 20 21  1  0  0  0  0
 21 32  1  0  0  0  0
 21 22  1  0  0  0  0
 21 24  1  0  0  0  0
 22 23  1  0  0  0  0
 22 48  1  0  0  0  0
 22 49  1  0  0  0  0
 23 50  1  0  0  0  0
 24 33  1  0  0  0  0
 24 25  1  0  0  0  0
 24 26  1  0  0  0  0
 25 51  1  0  0  0  0
 26 34  1  0  0  0  0
 26 27  1  0  0  0  0
 27 52  1  0  0  0  0
 28 29  1  0  0  0  0
 28 53  1  0  0  0  0
 29 30  2  0  0  0  0
 29 54  1  0  0  0  0
M  END
> <s_m_source_file>
AV-unprocessed.smi

> <i_m_source_file_index>
218

> <i_lp_mmshare_version>
43012

> <i_f3d_flags>
0

> <s_epik_input>
W0NIM11bQ0hdKFtDSDNdKU9jMVtjSF1jKFtjSF1bY0hdbjEpW0NIMl1bTkhdYyhuW2NIXW4yKWMoYzIzKW5bY0hdbjNbQ0BASF00T1tDQEhdKFtDSDJdW09IXSlbQ0BASF0oW09IXSlbQ0BIXTRbT0hd

> <s_epik_cmdline>
J2VwaWtfcHl0aG9uJywgJy1waCcsICc3LjAnLCAnLXRuJywgJzgnLCAnLW1hJywgJzIwMCcsICctbWV0YWxfYmluZGluZycsICctaW1hZScsICc8aW5maWxlLm1hZT4nLCAnLW9tYWUnLCAnPG91dGZpbGUubWFlPic=

> <r_lp_tautomer_probability>
1

> <r_epik_Ionization_Penalty>
0.00457014

> <r_epik_Ionization_Penalty_Charging>
0

> <r_epik_Ionization_Penalty_Neutral>
0.00457014

> <r_epik_State_Penalty>
-0

> <r_epik_Charging_Adjusted_Penalty>
0

> <i_epik_Tot_Q>
0

> <i_epik_Tot_abs_Q>
0

> <r_epik_Metal_State_Penalty>
-0

> <b_epik_Metal_Only>
0

> <s_epik_Chemistry_Notes>
This compound contains an acetal/aminal-like group ( X-CH(R)-Y where X, Y are N, S, or O) that may be acid/base labile, releasing an aldehyde.

> <s_lp_Force_Field>
OPLS_2005

> <r_lp_Energy>
42.4644

> <b_lp_Chiralities_Consistent>
1

> <s_lp_Variant>
AV-unprocessed.smi:218-8

> <Gold.Version>
5.8.1

> <Gold.Id.Protein>
6NUR|6NUR_protein|mol2

> <Gold.PLP.Fitness>
46.1206

> <Gold.PLP.PLP>
-42.4043

> <Gold.PLP.part.hbond>
-2.1209

> <Gold.PLP.part.metal>
0.0000

> <Gold.PLP.part.buried>
-7.1025

> <Gold.PLP.part.nonpolar>
-35.8907

> <Gold.PLP.part.repulsive>
1.8850

> <Gold.PLP.ligand.clash>
0.0000

> <Gold.PLP.ligand.torsion>
1.2612

> <Gold.PLP.Chemscore.Hbond>
2.0000

> <Gold.PLP.Chemscore.CHOScore>
0.0414

> <Gold.PLP.Chemscore.Metal>
0.0000

> <Gold.Chemscore.Hbonds>
donor molecule, donor type, donor heavy atom, donor atom, acceptor molecule, acceptor atom, score
      L1  H    23    50       P1 10747  1.00
      L1  H    25    51       P1 10186  1.00
      L1  C    12    46       P1  7957  0.04

> <Gold.PLP.Chemscore.Internal.Correction>
0.1143

> <Gold.Rescore>
     Score         DG    S(hbond)    S(metal)    S(lipo)     H(rot)  DE(clash)    DE(int)     intcor
      5.21      -8.44       1.83        0.00      80.22       4.90       1.00       2.23       ----

> <Gold.Chemscore.Fitness>
5.2130

> <Gold.Chemscore.DG>
-8.4393

> <Gold.Chemscore.ZeroCoef>
-5.4800

> <Gold.Chemscore.Hbond>
1.8338

> <Gold.Chemscore.Metal>
0.0000

> <Gold.Chemscore.Lipo>
80.2208

> <Gold.Chemscore.Internal_Hbond>
0.0000

> <Gold.Chemscore.DEClash>
0.9999

> <Gold.Chemscore.DEInternal>
2.2263

> <Gold.Chemscore.Rot>
4.9029

> <Gold.Chemscore.Internal.Correction>
   9.000000E+99

> <Gold.Chemscore.Hbonds>
donor molecule, donor type, donor heavy atom, donor atom, acceptor molecule, acceptor atom, score
      L1  H    23    50       P1 10747  1.00
      L1  H    25    51       P1 10186  0.77

> <Gold.Chemscore.Hbond.Weighted>
-6.1250

> <Gold.Chemscore.Metal.Weighted>
-0.0000

> <Gold.Chemscore.Lipo.Weighted>
-9.3858

> <Gold.Chemscore.Internal_Hbond.Weighted>
0.0000

> <Gold.Chemscore.DEClash.Weighted>
0.9999

> <Gold.Chemscore.DEInternal.Weighted>
2.2263

> <Gold.Chemscore.Rot.Weighted>
12.5515

> <Gold.Chemscore.Internal.Correction.Weighted>
   9.000000E+99

> <Gold.Protein.RotatedTorsions>
[ 6907 6896 6895 6894 ] final  -47.39 input  -60.11 | X-H torsion
[ 7974 7965 7964 7962 ] final  143.37 input  175.53 | X-H torsion
[ 8008 7997 7996 7995 ] final  -43.63 input   59.86 | X-H torsion
[ 10167 10162 10161 10158 ] final  -98.68 input  -65.29 | X-H torsion
[ 10718 10713 10712 10709 ] final -101.85 input   66.30 | X-H torsion
[ 10763 10752 10751 10750 ] final -143.87 input  -60.55 | X-H torsion
[ 11005 11000 10999 10996 ] final   -4.13 input  -57.11 | X-H torsion

> <Gold.Protein.ActiveResidues>
 VAL166  LYS551  ARG553  GLY616  TRP617  ASP618  TYR619  PRO620  LYS621  CYS622 
 ASP623  PHE694  ASN695  SER759  ASP760  ASP761  ALA762  ILE779  LEU786  VAL792 
 PHE793  MET794  SER795  GLU796  ALA797  LYS798  CYS799  TRP800  GLU811  SER814 

> <Gold.Protein.RotatedAtoms>
  150.9013  134.8425  159.7361 H   0  0  0  0  0  0  0  0  0  0  0  0  # atno 6907 bound_to 6896
  152.4894  134.4499  159.9581 H   0  0  0  0  0  0  0  0  0  0  0  0  # atno 6908 bound_to 6896
  151.4550  133.3568  159.2836 H   0  0  0  0  0  0  0  0  0  0  0  0  # atno 6909 bound_to 6896
  144.8927  139.5535  143.5791 H   0  0  0  0  0  0  0  0  0  0  0  0  # atno 7974 bound_to 7965
  154.3997  140.1443  156.3550 H   0  0  0  0  0  0  0  0  0  0  0  0  # atno 8008 bound_to 7997
  155.8234  140.3468  155.5507 H   0  0  0  0  0  0  0  0  0  0  0  0  # atno 8009 bound_to 7997
  155.8264  140.0905  157.1809 H   0  0  0  0  0  0  0  0  0  0  0  0  # atno 8010 bound_to 7997
  140.2704  143.3348  152.0540 H   0  0  0  0  0  0  0  0  0  0  0  0  # atno 10167 bound_to 10162
  156.0208  130.5392  150.7023 H   0  0  0  0  0  0  0  0  0  0  0  0  # atno 10718 bound_to 10713
  154.8452  135.3456  154.6256 H   0  0  0  0  0  0  0  0  0  0  0  0  # atno 10763 bound_to 10752
  153.6866  135.6977  153.5107 H   0  0  0  0  0  0  0  0  0  0  0  0  # atno 10764 bound_to 10752
  153.2627  135.4317  155.0866 H   0  0  0  0  0  0  0  0  0  0  0  0  # atno 10765 bound_to 10752
  140.6768  133.9188  155.8530 H   0  0  0  0  0  0  0  0  0  0  0  0  # atno 11005 bound_to 11000
  146.3063  139.7591  142.9054 LP  0  0  0  0  0  0  0  0  0  0  0  0  # atno 17320 bound_to 7965
  145.3755  141.0350  143.3207 LP  0  0  0  0  0  0  0  0  0  0  0  0  # atno 17321 bound_to 7965
  139.4990  144.6660  151.6355 LP  0  0  0  0  0  0  0  0  0  0  0  0  # atno 17342 bound_to 10162
  140.5894  143.9806  150.6315 LP  0  0  0  0  0  0  0  0  0  0  0  0  # atno 17343 bound_to 10162
  157.4680  131.0890  151.0673 LP  0  0  0  0  0  0  0  0  0  0  0  0  # atno 17370 bound_to 10713
  157.1142  130.6034  149.5489 LP  0  0  0  0  0  0  0  0  0  0  0  0  # atno 17371 bound_to 10713
  141.0349  134.0704  157.3971 LP  0  0  0  0  0  0  0  0  0  0  0  0  # atno 17394 bound_to 11000
  139.8964  135.0145  156.7049 LP  0  0  0  0  0  0  0  0  0  0  0  0  # atno 17395 bound_to 11000

$$$$
