AV-unprocessed.smi:1703|AV-procd|sdf|6865|dock8
  -GOLD-   22720 8 63D 1   1.00000     0.00000
 Structure written by MMmdl.
 49 51  0  0  0  0  0  0  0  0  2 V2000
  150.1535  133.5800  155.0818 C   0  0  0  0  0  0  0  0  0  0  0  0
  149.5738  134.9361  154.6651 C   0  0  2  0  0  0  0  0  0  0  0  0
  150.6383  136.0496  154.6663 C   0  0  0  0  0  0  0  0  0  0  0  0
  150.0191  137.3542  154.3274 N   0  3  2  0  0  0  0  0  0  0  0  0
  150.9905  138.4748  154.2399 C   0  0  0  0  0  0  0  0  0  0  0  0
  151.6586  138.7826  155.5944 C   0  0  1  0  0  0  0  0  0  0  0  0
  152.9268  139.3622  155.3530 O   0  0  0  0  0  0  0  0  0  0  0  0
  150.8056  139.7423  156.4485 C   0  0  0  0  0  0  0  0  0  0  0  0
  151.4857  140.1707  157.6640 N   0  0  0  0  0  0  0  0  0  0  0  0
  152.0897  139.3994  158.6033 C   0  0  0  0  0  0  0  0  0  0  0  0
  152.1279  137.9049  158.5090 C   0  0  0  0  0  0  0  0  0  0  0  0
  152.5971  137.2964  159.6929 O   0  0  0  0  0  0  0  0  0  0  0  0
  152.6461  140.0547  159.6224 N   0  0  0  0  0  0  0  0  0  0  0  0
  152.3745  141.3745  159.3200 C   0  0  0  0  0  0  0  0  0  0  0  0
  152.7027  142.5614  160.0134 C   0  0  0  0  0  0  0  0  0  0  0  0
  152.3140  143.8171  159.5026 C   0  0  0  0  0  0  0  0  0  0  0  0
  151.5918  143.9040  158.2949 C   0  0  0  0  0  0  0  0  0  0  0  0
  151.2534  142.7338  157.5888 C   0  0  0  0  0  0  0  0  0  0  0  0
  151.6461  141.4825  158.1014 C   0  0  0  0  0  0  0  0  0  0  0  0
  148.8941  137.6441  155.2474 C   0  0  0  0  0  0  0  0  0  0  0  0
  147.8759  136.4878  155.2349 C   0  0  2  0  0  0  0  0  0  0  0  0
  146.7340  136.7113  156.2324 C   0  0  0  0  0  0  0  0  0  0  0  0
  148.5414  135.2788  155.5837 O   0  0  0  0  0  0  0  0  0  0  0  0
  150.9490  133.2677  154.4047 H   0  0  0  0  0  0  0  0  0  0  0  0
  149.3844  132.8072  155.0688 H   0  0  0  0  0  0  0  0  0  0  0  0
  150.5681  133.6200  156.0896 H   0  0  0  0  0  0  0  0  0  0  0  0
  149.1469  134.8379  153.6653 H   0  0  0  0  0  0  0  0  0  0  0  0
  151.1138  136.1152  155.6465 H   0  0  0  0  0  0  0  0  0  0  0  0
  151.4200  135.8013  153.9491 H   0  0  0  0  0  0  0  0  0  0  0  0
  151.7706  138.2279  153.5178 H   0  0  0  0  0  0  0  0  0  0  0  0
  150.4859  139.3603  153.8502 H   0  0  0  0  0  0  0  0  0  0  0  0
  151.8132  137.8618  156.1550 H   0  0  0  0  0  0  0  0  0  0  0  0
  153.5075  138.6941  155.0213 H   0  0  0  0  0  0  0  0  0  0  0  0
  150.5390  140.6285  155.8709 H   0  0  0  0  0  0  0  0  0  0  0  0
  149.8620  139.2693  156.7203 H   0  0  0  0  0  0  0  0  0  0  0  0
  151.1353  137.5225  158.2732 H   0  0  0  0  0  0  0  0  0  0  0  0
  152.7804  137.6127  157.6857 H   0  0  0  0  0  0  0  0  0  0  0  0
  152.6495  137.9549  160.3687 H   0  0  0  0  0  0  0  0  0  0  0  0
  153.2547  142.5053  160.9397 H   0  0  0  0  0  0  0  0  0  0  0  0
  152.5712  144.7177  160.0404 H   0  0  0  0  0  0  0  0  0  0  0  0
  151.2978  144.8699  157.9112 H   0  0  0  0  0  0  0  0  0  0  0  0
  150.7012  142.7991  156.6634 H   0  0  0  0  0  0  0  0  0  0  0  0
  149.2802  137.7998  156.2563 H   0  0  0  0  0  0  0  0  0  0  0  0
  148.4005  138.5688  154.9452 H   0  0  0  0  0  0  0  0  0  0  0  0
  147.4472  136.3857  154.2363 H   0  0  0  0  0  0  0  0  0  0  0  0
  146.1883  137.6275  156.0057 H   0  0  0  0  0  0  0  0  0  0  0  0
  147.1096  136.7886  157.2531 H   0  0  0  0  0  0  0  0  0  0  0  0
  146.0224  135.8857  156.2014 H   0  0  0  0  0  0  0  0  0  0  0  0
  149.6140  137.2598  153.4065 H   0  0  0  0  0  0  0  0  0  0  0  0
  1  2  1  0  0  0  0
  1 24  1  0  0  0  0
  1 25  1  0  0  0  0
  1 26  1  0  0  0  0
  2 23  1  0  0  0  0
  2  3  1  0  0  0  0
  2 27  1  0  0  0  0
  3  4  1  0  0  0  0
  3 28  1  0  0  0  0
  3 29  1  0  0  0  0
  4  5  1  0  0  0  0
  4 20  1  0  0  0  0
  4 49  1  0  0  0  0
  5  6  1  0  0  0  0
  5 30  1  0  0  0  0
  5 31  1  0  0  0  0
  6  7  1  0  0  0  0
  6  8  1  0  0  0  0
  6 32  1  0  0  0  0
  7 33  1  0  0  0  0
  8  9  1  0  0  0  0
  8 34  1  0  0  0  0
  8 35  1  0  0  0  0
  9 19  1  0  0  0  0
  9 10  1  0  0  0  0
 10 11  1  0  0  0  0
 10 13  2  0  0  0  0
 11 12  1  0  0  0  0
 11 36  1  0  0  0  0
 11 37  1  0  0  0  0
 12 38  1  0  0  0  0
 13 14  1  0  0  0  0
 14 19  2  0  0  0  0
 14 15  1  0  0  0  0
 15 16  2  0  0  0  0
 15 39  1  0  0  0  0
 16 17  1  0  0  0  0
 16 40  1  0  0  0  0
 17 18  2  0  0  0  0
 17 41  1  0  0  0  0
 18 19  1  0  0  0  0
 18 42  1  0  0  0  0
 20 21  1  0  0  0  0
 20 43  1  0  0  0  0
 20 44  1  0  0  0  0
 21 22  1  0  0  0  0
 21 23  1  0  0  0  0
 21 45  1  0  0  0  0
 22 46  1  0  0  0  0
 22 47  1  0  0  0  0
 22 48  1  0  0  0  0
M  CHG  1   4   1
M  END
> <s_m_source_file>
AV-unprocessed.smi

> <i_m_source_file_index>
1703

> <i_lp_mmshare_version>
43012

> <i_f3d_flags>
0

> <s_epik_input>
W0NIM11bQ0BASF0xW0NIMl1OKFtDSDJdW0NASF0oTzEpW0NIM10pW0NIMl1bQ0BIXShbT0hdKVtDSDJdbihjKG4yKVtDSDJdW09IXSljKGMyMylbY0hdW2NIXVtjSF1bY0hdMw==

> <s_epik_cmdline>
J2VwaWtfcHl0aG9uJywgJy1waCcsICc3LjAnLCAnLXRuJywgJzgnLCAnLW1hJywgJzIwMCcsICctbWV0YWxfYmluZGluZycsICctaW1hZScsICc8aW5maWxlLm1hZT4nLCAnLW9tYWUnLCAnPG91dGZpbGUubWFlPic=

> <r_epik_Ionization_Penalty>
0.655661

> <r_epik_Ionization_Penalty_Charging>
0.608065

> <r_epik_Ionization_Penalty_Neutral>
0.0475963

> <r_epik_State_Penalty>
0.695267

> <r_epik_Charging_Adjusted_Penalty>
1.30333

> <i_epik_Tot_Q>
1

> <i_epik_Tot_abs_Q>
1

> <r_epik_Metal_State_Penalty>
0.653591

> <b_epik_Metal_Only>
0

> <s_lp_Force_Field>
OPLS_2005

> <r_lp_Energy>
21.6457

> <b_lp_Chiralities_Consistent>
1

> <s_lp_Variant>
AV-unprocessed.smi:1703-13

> <Gold.Version>
5.8.1

> <Gold.Id.Protein>
6NUR|6NUR_protein|mol2

> <Gold.PLP.Fitness>
50.6515

> <Gold.PLP.PLP>
-39.6140

> <Gold.PLP.part.hbond>
-3.2230

> <Gold.PLP.part.metal>
0.0000

> <Gold.PLP.part.buried>
-5.1919

> <Gold.PLP.part.nonpolar>
-31.7742

> <Gold.PLP.part.repulsive>
0.1032

> <Gold.PLP.ligand.clash>
0.0000

> <Gold.PLP.ligand.torsion>
0.4989

> <Gold.PLP.Chemscore.Hbond>
3.9920

> <Gold.PLP.Chemscore.CHOScore>
0.0000

> <Gold.PLP.Chemscore.Metal>
0.0000

> <Gold.Chemscore.Hbonds>
donor molecule, donor type, donor heavy atom, donor atom, acceptor molecule, acceptor atom, score
      L1  H     4    49       P1  7948  2.00
      P1  H  6896  6909       L1    12  0.28
      P1  H  7997  8008       L1     7  0.50

> <Gold.PLP.Chemscore.Internal.Correction>
0.0593

> <Gold.Rescore>
     Score         DG    S(hbond)    S(metal)    S(lipo)     H(rot)  DE(clash)    DE(int)     intcor
     17.24     -18.49       2.61        0.00     101.42       2.96       0.00       1.24       ----

> <Gold.Chemscore.Fitness>
17.2423

> <Gold.Chemscore.DG>
-18.4873

> <Gold.Chemscore.ZeroCoef>
-5.4800

> <Gold.Chemscore.Hbond>
2.6112

> <Gold.Chemscore.Metal>
0.0000

> <Gold.Chemscore.Lipo>
101.4216

> <Gold.Chemscore.Internal_Hbond>
0.0000

> <Gold.Chemscore.DEClash>
0.0004

> <Gold.Chemscore.DEInternal>
1.2446

> <Gold.Chemscore.Rot>
2.9611

> <Gold.Chemscore.Internal.Correction>
   9.000000E+99

> <Gold.Chemscore.Hbonds>
donor molecule, donor type, donor heavy atom, donor atom, acceptor molecule, acceptor atom, score
      L1  H     4    49       P1  7948  0.76
      P1  H  6896  6909       L1    12  0.25
      P1  H  7997  8008       L1     7  0.02

> <Gold.Chemscore.Hbond.Weighted>
-8.7214

> <Gold.Chemscore.Metal.Weighted>
-0.0000

> <Gold.Chemscore.Lipo.Weighted>
-11.8663

> <Gold.Chemscore.Internal_Hbond.Weighted>
0.0000

> <Gold.Chemscore.DEClash.Weighted>
0.0004

> <Gold.Chemscore.DEInternal.Weighted>
1.2446

> <Gold.Chemscore.Rot.Weighted>
7.5803

> <Gold.Chemscore.Internal.Correction.Weighted>
   9.000000E+99

> <Gold.Protein.RotatedTorsions>
[ 6907 6896 6895 6894 ] final  141.38 input  -60.11 | X-H torsion
[ 7974 7965 7964 7962 ] final   55.90 input  175.53 | X-H torsion
[ 8008 7997 7996 7995 ] final  -44.61 input   59.86 | X-H torsion
[ 10167 10162 10161 10158 ] final -121.92 input  -65.29 | X-H torsion
[ 10718 10713 10712 10709 ] final   73.07 input   66.30 | X-H torsion
[ 10763 10752 10751 10750 ] final  116.91 input  -60.55 | X-H torsion
[ 11005 11000 10999 10996 ] final  -67.37 input  -57.11 | X-H torsion

> <Gold.Protein.ActiveResidues>
 VAL166  LYS551  ARG553  GLY616  TRP617  ASP618  TYR619  PRO620  LYS621  CYS622 
 ASP623  PHE694  ASN695  SER759  ASP760  ASP761  ALA762  ILE779  LEU786  VAL792 
 PHE793  MET794  SER795  GLU796  ALA797  LYS798  CYS799  TRP800  GLU811  SER814 

> <Gold.Protein.RotatedAtoms>
  152.2316  133.5063  159.5218 H   0  0  0  0  0  0  0  0  0  0  0  0  # atno 6907 bound_to 6896
  150.7039  134.1208  159.4043 H   0  0  0  0  0  0  0  0  0  0  0  0  # atno 6908 bound_to 6896
  151.9129  135.0331  160.0566 H   0  0  0  0  0  0  0  0  0  0  0  0  # atno 6909 bound_to 6896
  145.9456  139.3926  143.0337 H   0  0  0  0  0  0  0  0  0  0  0  0  # atno 7974 bound_to 7965
  154.3998  140.1418  156.3711 H   0  0  0  0  0  0  0  0  0  0  0  0  # atno 8008 bound_to 7997
  155.8092  140.3473  155.5427 H   0  0  0  0  0  0  0  0  0  0  0  0  # atno 8009 bound_to 7997
  155.8404  140.0926  157.1728 H   0  0  0  0  0  0  0  0  0  0  0  0  # atno 8010 bound_to 7997
  140.0199  143.5355  152.2225 H   0  0  0  0  0  0  0  0  0  0  0  0  # atno 10167 bound_to 10162
  157.6531  130.9610  150.1018 H   0  0  0  0  0  0  0  0  0  0  0  0  # atno 10718 bound_to 10713
  153.5443  135.3552  155.2732 H   0  0  0  0  0  0  0  0  0  0  0  0  # atno 10763 bound_to 10752
  154.8714  135.4098  154.3008 H   0  0  0  0  0  0  0  0  0  0  0  0  # atno 10764 bound_to 10752
  153.3722  135.7064  153.6697 H   0  0  0  0  0  0  0  0  0  0  0  0  # atno 10765 bound_to 10752
  141.1506  133.6718  156.6283 H   0  0  0  0  0  0  0  0  0  0  0  0  # atno 11005 bound_to 11000
  145.8241  140.9664  143.0883 LP  0  0  0  0  0  0  0  0  0  0  0  0  # atno 17320 bound_to 7965
  144.6786  140.0079  143.7484 LP  0  0  0  0  0  0  0  0  0  0  0  0  # atno 17321 bound_to 7965
  139.6147  144.7617  151.2873 LP  0  0  0  0  0  0  0  0  0  0  0  0  # atno 17342 bound_to 10162
  140.7347  143.6759  150.8042 LP  0  0  0  0  0  0  0  0  0  0  0  0  # atno 17343 bound_to 10162
  156.1938  130.3656  149.8875 LP  0  0  0  0  0  0  0  0  0  0  0  0  # atno 17370 bound_to 10713
  156.6796  130.8853  151.3574 LP  0  0  0  0  0  0  0  0  0  0  0  0  # atno 17371 bound_to 10713
  140.3487  134.7787  157.4451 LP  0  0  0  0  0  0  0  0  0  0  0  0  # atno 17394 bound_to 11000
  140.0879  134.5642  155.8474 LP  0  0  0  0  0  0  0  0  0  0  0  0  # atno 17395 bound_to 11000

$$$$
