AV-unprocessed.smi:2153|AV-procd|sdf|8766|dock6
  -GOLD-   2272011543D 1   1.00000     0.00000
 Structure written by MMmdl.
 48 49  0  0  0  0  0  0  0  0  1 V2000
  152.7195  142.1422  161.8036 C   0  0  0  0  0  0  0  0  0  0  0  0
  152.6156  143.2530  160.7458 C   0  0  2  0  0  0  0  0  0  0  0  0
  151.7102  144.3966  161.2471 C   0  0  0  0  0  0  0  0  0  0  0  0
  151.5816  145.5197  160.2072 C   0  0  0  0  0  0  0  0  0  0  0  0
  151.0672  144.9731  158.8686 C   0  0  0  0  0  0  0  0  0  0  0  0
  151.9685  143.8419  158.3533 C   0  0  0  0  0  0  0  0  0  0  0  0
  152.1083  142.7078  159.3912 C   0  0  1  0  0  0  0  0  0  0  0  0
  153.0534  141.7548  158.9209 O   0  0  0  0  0  0  0  0  0  0  0  0
  152.7172  140.4040  159.2040 C   0  0  0  0  0  0  0  0  0  0  0  0
  153.1248  139.5299  158.0136 C   0  0  0  0  0  0  0  0  0  0  0  0
  151.9495  139.0857  157.2770 N   0  0  0  0  0  0  0  0  0  0  0  0
  151.7128  139.3632  155.9877 C   0  0  0  0  0  0  0  0  0  0  0  0
  152.4794  140.0314  155.2925 O   0  0  0  0  0  0  0  0  0  0  0  0
  150.4011  138.8086  155.4140 C   0  0  0  0  0  0  0  0  0  0  0  0
  149.3400  139.8182  155.2995 N   0  0  0  0  0  0  0  0  0  0  0  0
  148.8915  140.1954  154.0466 C   0  0  0  0  0  0  0  0  0  0  0  0
  147.9158  141.1080  153.8475 C   0  0  0  0  0  0  0  0  0  0  0  0
  147.2644  141.7616  154.9754 C   0  0  0  0  0  0  0  0  0  0  0  0
  146.3764  142.6061  154.8492 O   0  0  0  0  0  0  0  0  0  0  0  0
  147.7350  141.3543  156.2446 N   0  0  0  0  0  0  0  0  0  0  0  0
  147.1152  141.9836  157.3923 C   0  0  0  0  0  0  0  0  0  0  0  0
  148.7605  140.4011  156.4481 C   0  0  0  0  0  0  0  0  0  0  0  0
  149.1495  140.0773  157.5726 O   0  0  0  0  0  0  0  0  0  0  0  0
  151.7493  141.6811  161.9905 H   0  0  0  0  0  0  0  0  0  0  0  0
  153.0886  142.5363  162.7508 H   0  0  0  0  0  0  0  0  0  0  0  0
  153.4060  141.3558  161.4890 H   0  0  0  0  0  0  0  0  0  0  0  0
  153.6161  143.6609  160.5941 H   0  0  0  0  0  0  0  0  0  0  0  0
  150.7188  144.0062  161.4815 H   0  0  0  0  0  0  0  0  0  0  0  0
  152.1065  144.8065  162.1767 H   0  0  0  0  0  0  0  0  0  0  0  0
  150.9082  146.2939  160.5762 H   0  0  0  0  0  0  0  0  0  0  0  0
  152.5515  145.9969  160.0610 H   0  0  0  0  0  0  0  0  0  0  0  0
  150.0483  144.6035  158.9902 H   0  0  0  0  0  0  0  0  0  0  0  0
  151.0204  145.7761  158.1325 H   0  0  0  0  0  0  0  0  0  0  0  0
  151.5624  143.4591  157.4175 H   0  0  0  0  0  0  0  0  0  0  0  0
  152.9548  144.2441  158.1183 H   0  0  0  0  0  0  0  0  0  0  0  0
  151.1378  142.2332  159.5515 H   0  0  0  0  0  0  0  0  0  0  0  0
  153.2521  140.0767  160.0966 H   0  0  0  0  0  0  0  0  0  0  0  0
  151.6511  140.2926  159.4038 H   0  0  0  0  0  0  0  0  0  0  0  0
  153.7932  140.0827  157.3518 H   0  0  0  0  0  0  0  0  0  0  0  0
  153.6729  138.6564  158.3697 H   0  0  0  0  0  0  0  0  0  0  0  0
  151.2690  138.5387  157.7843 H   0  0  0  0  0  0  0  0  0  0  0  0
  150.5960  138.3516  154.4422 H   0  0  0  0  0  0  0  0  0  0  0  0
  150.0649  137.9942  156.0574 H   0  0  0  0  0  0  0  0  0  0  0  0
  149.3420  139.7353  153.1791 H   0  0  0  0  0  0  0  0  0  0  0  0
  147.6132  141.3573  152.8410 H   0  0  0  0  0  0  0  0  0  0  0  0
  147.4601  141.5385  158.3248 H   0  0  0  0  0  0  0  0  0  0  0  0
  146.0369  141.8395  157.3030 H   0  0  0  0  0  0  0  0  0  0  0  0
  147.3792  143.0420  157.3580 H   0  0  0  0  0  0  0  0  0  0  0  0
  1  2  1  0  0  0  0
  1 24  1  0  0  0  0
  1 25  1  0  0  0  0
  1 26  1  0  0  0  0
  2  7  1  0  0  0  0
  2  3  1  0  0  0  0
  2 27  1  0  0  0  0
  3  4  1  0  0  0  0
  3 28  1  0  0  0  0
  3 29  1  0  0  0  0
  4  5  1  0  0  0  0
  4 30  1  0  0  0  0
  4 31  1  0  0  0  0
  5  6  1  0  0  0  0
  5 32  1  0  0  0  0
  5 33  1  0  0  0  0
  6  7  1  0  0  0  0
  6 34  1  0  0  0  0
  6 35  1  0  0  0  0
  7  8  1  0  0  0  0
  7 36  1  0  0  0  0
  8  9  1  0  0  0  0
  9 10  1  0  0  0  0
  9 37  1  0  0  0  0
  9 38  1  0  0  0  0
 10 11  1  0  0  0  0
 10 39  1  0  0  0  0
 10 40  1  0  0  0  0
 11 12  1  0  0  0  0
 11 41  1  0  0  0  0
 12 13  2  0  0  0  0
 12 14  1  0  0  0  0
 14 15  1  0  0  0  0
 14 42  1  0  0  0  0
 14 43  1  0  0  0  0
 15 22  1  0  0  0  0
 15 16  1  0  0  0  0
 16 17  2  0  0  0  0
 16 44  1  0  0  0  0
 17 18  1  0  0  0  0
 17 45  1  0  0  0  0
 18 19  2  0  0  0  0
 18 20  1  0  0  0  0
 20 21  1  0  0  0  0
 20 22  1  0  0  0  0
 21 46  1  0  0  0  0
 21 47  1  0  0  0  0
 21 48  1  0  0  0  0
 22 23  2  0  0  0  0
M  END
> <s_m_source_file>
AV-unprocessed.smi

> <i_m_source_file_index>
2153

> <i_lp_mmshare_version>
43012

> <i_f3d_flags>
0

> <s_epik_input>
W0NIM11bQ0BASF0xW0NIMl1bQ0gyXVtDSDJdW0NIMl1bQ0BIXTFPW0NIMl1bQ0gyXVtOSF1DKD1PKVtDSDJdbjJbY0hdW2NIXWMoPU8pbihbQ0gzXSljMj1P

> <s_epik_cmdline>
J2VwaWtfcHl0aG9uJywgJy1waCcsICc3LjAnLCAnLXRuJywgJzgnLCAnLW1hJywgJzIwMCcsICctbWV0YWxfYmluZGluZycsICctaW1hZScsICc8aW5maWxlLm1hZT4nLCAnLW9tYWUnLCAnPG91dGZpbGUubWFlPic=

> <r_lp_tautomer_probability>
1

> <r_epik_Ionization_Penalty>
4.02205e-08

> <r_epik_Ionization_Penalty_Charging>
1.23606e-08

> <r_epik_Ionization_Penalty_Neutral>
2.78599e-08

> <r_epik_State_Penalty>
-0

> <r_epik_Charging_Adjusted_Penalty>
1.23606e-08

> <i_epik_Tot_Q>
0

> <i_epik_Tot_abs_Q>
0

> <r_epik_Metal_State_Penalty>
-0

> <b_epik_Metal_Only>
0

> <s_lp_Force_Field>
OPLS_2005

> <r_lp_Energy>
20.2875

> <b_lp_Chiralities_Consistent>
1

> <s_lp_Variant>
AV-unprocessed.smi:2153-1

> <Gold.Version>
5.8.1

> <Gold.Id.Protein>
6NUR|6NUR_protein|mol2

> <Gold.PLP.Fitness>
49.3873

> <Gold.PLP.PLP>
-45.0753

> <Gold.PLP.part.hbond>
-2.0000

> <Gold.PLP.part.metal>
0.0000

> <Gold.PLP.part.buried>
0.4875

> <Gold.PLP.part.nonpolar>
-42.7323

> <Gold.PLP.part.repulsive>
0.7766

> <Gold.PLP.ligand.clash>
0.0000

> <Gold.PLP.ligand.torsion>
1.4023

> <Gold.PLP.Chemscore.Hbond>
1.3502

> <Gold.PLP.Chemscore.CHOScore>
1.0000

> <Gold.PLP.Chemscore.Metal>
0.0000

> <Gold.Chemscore.Hbonds>
donor molecule, donor type, donor heavy atom, donor atom, acceptor molecule, acceptor atom, score
      P1  H  7989  7998       L1    13  0.44
      P1  H  7997  8010       L1    13  0.93
      L1  C    16    44       P1  7957  1.00

> <Gold.PLP.Chemscore.Internal.Correction>
0.0662

> <Gold.Rescore>
     Score         DG    S(hbond)    S(metal)    S(lipo)     H(rot)  DE(clash)    DE(int)     intcor
     14.06     -17.19       1.09        0.00     117.05       2.20       1.26       1.87       ----

> <Gold.Chemscore.Fitness>
14.0604

> <Gold.Chemscore.DG>
-17.1934

> <Gold.Chemscore.ZeroCoef>
-5.4800

> <Gold.Chemscore.Hbond>
1.0906

> <Gold.Chemscore.Metal>
0.0000

> <Gold.Chemscore.Lipo>
117.0487

> <Gold.Chemscore.Internal_Hbond>
0.0000

> <Gold.Chemscore.DEClash>
1.2580

> <Gold.Chemscore.DEInternal>
1.8750

> <Gold.Chemscore.Rot>
2.1968

> <Gold.Chemscore.Internal.Correction>
   9.000000E+99

> <Gold.Chemscore.Hbonds>
donor molecule, donor type, donor heavy atom, donor atom, acceptor molecule, acceptor atom, score
      P1  H  7989  7998       L1    13  0.42
      P1  H  7997  8010       L1    13  0.73

> <Gold.Chemscore.Hbond.Weighted>
-3.6424

> <Gold.Chemscore.Metal.Weighted>
-0.0000

> <Gold.Chemscore.Lipo.Weighted>
-13.6947

> <Gold.Chemscore.Internal_Hbond.Weighted>
0.0000

> <Gold.Chemscore.DEClash.Weighted>
1.2580

> <Gold.Chemscore.DEInternal.Weighted>
1.8750

> <Gold.Chemscore.Rot.Weighted>
5.6238

> <Gold.Chemscore.Internal.Correction.Weighted>
   9.000000E+99

> <Gold.Protein.RotatedTorsions>
[ 6907 6896 6895 6894 ] final  -63.79 input  -60.11 | X-H torsion
[ 7974 7965 7964 7962 ] final  -37.75 input  175.53 | X-H torsion
[ 8008 7997 7996 7995 ] final   89.88 input   59.86 | X-H torsion
[ 10167 10162 10161 10158 ] final  -71.45 input  -65.29 | X-H torsion
[ 10718 10713 10712 10709 ] final -160.53 input   66.30 | X-H torsion
[ 10763 10752 10751 10750 ] final   34.75 input  -60.55 | X-H torsion
[ 11005 11000 10999 10996 ] final  119.51 input  -57.11 | X-H torsion

> <Gold.Protein.ActiveResidues>
 VAL166  LYS551  ARG553  GLY616  TRP617  ASP618  TYR619  PRO620  LYS621  CYS622 
 ASP623  PHE694  ASN695  SER759  ASP760  ASP761  ALA762  ILE779  LEU786  VAL792 
 PHE793  MET794  SER795  GLU796  ALA797  LYS798  CYS799  TRP800  GLU811  SER814 

> <Gold.Protein.RotatedAtoms>
  150.7627  134.6387  159.6225 H   0  0  0  0  0  0  0  0  0  0  0  0  # atno 6907 bound_to 6896
  152.3642  134.6825  160.0206 H   0  0  0  0  0  0  0  0  0  0  0  0  # atno 6908 bound_to 6896
  151.7205  133.3278  159.3350 H   0  0  0  0  0  0  0  0  0  0  0  0  # atno 6909 bound_to 6896
  146.0548  140.6432  142.9025 H   0  0  0  0  0  0  0  0  0  0  0  0  # atno 7974 bound_to 7965
  156.0052  140.3356  155.6886 H   0  0  0  0  0  0  0  0  0  0  0  0  # atno 8008 bound_to 7997
  155.6234  140.0677  157.2689 H   0  0  0  0  0  0  0  0  0  0  0  0  # atno 8009 bound_to 7997
  154.4262  140.1772  156.1384 H   0  0  0  0  0  0  0  0  0  0  0  0  # atno 8010 bound_to 7997
  140.5272  143.2325  151.7326 H   0  0  0  0  0  0  0  0  0  0  0  0  # atno 10167 bound_to 10162
  156.5834  130.8739  151.2871 H   0  0  0  0  0  0  0  0  0  0  0  0  # atno 10718 bound_to 10713
  153.0150  135.6352  154.1719 H   0  0  0  0  0  0  0  0  0  0  0  0  # atno 10763 bound_to 10752
  154.1458  135.2832  155.3150 H   0  0  0  0  0  0  0  0  0  0  0  0  # atno 10764 bound_to 10752
  154.6090  135.5562  153.7514 H   0  0  0  0  0  0  0  0  0  0  0  0  # atno 10765 bound_to 10752
  139.9149  134.9629  156.7667 H   0  0  0  0  0  0  0  0  0  0  0  0  # atno 11005 bound_to 11000
  144.7142  140.4149  143.7057 LP  0  0  0  0  0  0  0  0  0  0  0  0  # atno 17320 bound_to 7965
  145.6663  139.1590  143.2780 LP  0  0  0  0  0  0  0  0  0  0  0  0  # atno 17321 bound_to 7965
  139.4942  144.4168  152.0021 LP  0  0  0  0  0  0  0  0  0  0  0  0  # atno 17342 bound_to 10162
  140.3268  144.3364  150.5996 LP  0  0  0  0  0  0  0  0  0  0  0  0  # atno 17343 bound_to 10162
  157.7321  130.9710  150.1912 LP  0  0  0  0  0  0  0  0  0  0  0  0  # atno 17370 bound_to 10713
  156.2612  130.3711  149.8129 LP  0  0  0  0  0  0  0  0  0  0  0  0  # atno 17371 bound_to 10713
  140.6654  133.9607  155.7827 LP  0  0  0  0  0  0  0  0  0  0  0  0  # atno 17394 bound_to 11000
  141.0614  134.0340  157.3653 LP  0  0  0  0  0  0  0  0  0  0  0  0  # atno 17395 bound_to 11000

$$$$
