AV-unprocessed.smi:3117|AV-procd|sdf|11881|dock7
  -GOLD-   2272017273D 1   1.00000     0.00000
 Structure written by MMmdl.
 37 37  0  0  0  0  0  0  0  0  2 V2000
  149.2368  142.6077  158.5607 C   0  0  0  0  0  0  0  0  0  0  0  0
  150.3043  141.9995  157.6364 C   0  0  1  0  0  0  0  0  0  0  0  0
  149.8156  142.0206  156.2389 N   0  3  0  0  0  0  0  0  0  0  0  0
  148.8512  140.9549  155.8941 C   0  0  0  0  0  0  0  0  0  0  0  0
  148.4644  140.9809  154.4001 C   0  0  0  0  0  0  0  0  0  0  0  0
  147.7864  139.6588  154.0036 C   0  0  0  0  0  0  0  0  0  0  0  0
  147.5559  142.1733  154.0487 C   0  0  0  0  0  0  0  0  0  0  0  0
  149.6512  141.0786  153.6364 O   0  0  0  0  0  0  0  0  0  0  0  0
  151.6816  142.7012  157.7638 C   0  0  1  0  0  0  0  0  0  0  0  0
  151.5890  144.2333  157.6309 C   0  0  0  0  0  0  0  0  0  0  0  0
  152.4203  142.3048  158.9592 N   0  0  0  0  0  0  0  0  0  0  0  0
  152.7976  143.0948  160.0263 C   0  0  0  0  0  0  0  0  0  0  0  0
  153.4828  142.3025  160.9019 C   0  0  0  0  0  0  0  0  0  0  0  0
  153.4785  141.0252  160.2765 C   0  0  0  0  0  0  0  0  0  0  0  0
  152.8472  141.0303  159.1137 N   0  0  0  0  0  0  0  0  0  0  0  0
  149.5685  142.6030  159.5992 H   0  0  0  0  0  0  0  0  0  0  0  0
  148.3073  142.0396  158.5110 H   0  0  0  0  0  0  0  0  0  0  0  0
  149.0065  143.6386  158.2896 H   0  0  0  0  0  0  0  0  0  0  0  0
  150.4416  140.9618  157.9453 H   0  0  0  0  0  0  0  0  0  0  0  0
  149.3870  142.9171  156.0599 H   0  0  0  0  0  0  0  0  0  0  0  0
  149.2901  139.9886  156.1482 H   0  0  0  0  0  0  0  0  0  0  0  0
  147.9607  141.0725  156.5135 H   0  0  0  0  0  0  0  0  0  0  0  0
  146.8592  139.5106  154.5583 H   0  0  0  0  0  0  0  0  0  0  0  0
  148.4309  138.8026  154.2067 H   0  0  0  0  0  0  0  0  0  0  0  0
  147.5394  139.6391  152.9414 H   0  0  0  0  0  0  0  0  0  0  0  0
  146.6330  142.1487  154.6293 H   0  0  0  0  0  0  0  0  0  0  0  0
  147.2788  142.1618  152.9939 H   0  0  0  0  0  0  0  0  0  0  0  0
  148.0433  143.1289  154.2442 H   0  0  0  0  0  0  0  0  0  0  0  0
  149.4368  140.9419  152.7256 H   0  0  0  0  0  0  0  0  0  0  0  0
  152.2792  142.3640  156.9154 H   0  0  0  0  0  0  0  0  0  0  0  0
  151.1164  144.5159  156.6899 H   0  0  0  0  0  0  0  0  0  0  0  0
  152.5803  144.6871  157.6482 H   0  0  0  0  0  0  0  0  0  0  0  0
  151.0082  144.6802  158.4384 H   0  0  0  0  0  0  0  0  0  0  0  0
  152.5502  144.1452  160.0741 H   0  0  0  0  0  0  0  0  0  0  0  0
  153.9206  142.5916  161.8460 H   0  0  0  0  0  0  0  0  0  0  0  0
  153.9146  140.1021  160.6287 H   0  0  0  0  0  0  0  0  0  0  0  0
  150.6148  141.9262  155.6273 H   0  0  0  0  0  0  0  0  0  0  0  0
  1  2  1  0  0  0  0
  1 16  1  0  0  0  0
  1 17  1  0  0  0  0
  1 18  1  0  0  0  0
  2  3  1  0  0  0  0
  2  9  1  0  0  0  0
  2 19  1  0  0  0  0
  3  4  1  0  0  0  0
  3 20  1  0  0  0  0
  3 37  1  0  0  0  0
  4  5  1  0  0  0  0
  4 21  1  0  0  0  0
  4 22  1  0  0  0  0
  5  6  1  0  0  0  0
  5  7  1  0  0  0  0
  5  8  1  0  0  0  0
  6 23  1  0  0  0  0
  6 24  1  0  0  0  0
  6 25  1  0  0  0  0
  7 26  1  0  0  0  0
  7 27  1  0  0  0  0
  7 28  1  0  0  0  0
  8 29  1  0  0  0  0
  9 10  1  0  0  0  0
  9 11  1  0  0  0  0
  9 30  1  0  0  0  0
 10 31  1  0  0  0  0
 10 32  1  0  0  0  0
 10 33  1  0  0  0  0
 11 15  1  0  0  0  0
 11 12  1  0  0  0  0
 12 13  2  0  0  0  0
 12 34  1  0  0  0  0
 13 14  1  0  0  0  0
 13 35  1  0  0  0  0
 14 15  2  0  0  0  0
 14 36  1  0  0  0  0
M  CHG  1   3   1
M  END
> <s_m_source_file>
AV-unprocessed.smi

> <i_m_source_file_index>
3117

> <i_lp_mmshare_version>
43012

> <i_f3d_flags>
0

> <s_epik_input>
W0NIM11DKFtDSDNdKShbT0hdKVtDSDJdW05IXVtDQEBIXShbQ0gzXSlbQ0BIXShbQ0gzXSluMVtjSF1bY0hdW2NIXW4x

> <s_epik_cmdline>
J2VwaWtfcHl0aG9uJywgJy1waCcsICc3LjAnLCAnLXRuJywgJzgnLCAnLW1hJywgJzIwMCcsICctbWV0YWxfYmluZGluZycsICctaW1hZScsICc8aW5maWxlLm1hZT4nLCAnLW9tYWUnLCAnPG91dGZpbGUubWFlPic=

> <r_lp_tautomer_probability>
1

> <r_epik_Ionization_Penalty>
0.0164263

> <r_epik_Ionization_Penalty_Charging>
0.0164138

> <r_epik_Ionization_Penalty_Neutral>
1.24697e-05

> <r_epik_State_Penalty>
0.0129543

> <r_epik_Charging_Adjusted_Penalty>
0.0293681

> <i_epik_Tot_Q>
1

> <i_epik_Tot_abs_Q>
1

> <r_epik_Metal_State_Penalty>
0.0129806

> <b_epik_Metal_Only>
0

> <s_lp_Force_Field>
OPLS_2005

> <r_lp_Energy>
13.722

> <b_lp_Chiralities_Consistent>
1

> <s_lp_Variant>
AV-unprocessed.smi:3117-4

> <Gold.Version>
5.8.1

> <Gold.Id.Protein>
6NUR|6NUR_protein|mol2

> <Gold.PLP.Fitness>
44.3252

> <Gold.PLP.PLP>
-36.0628

> <Gold.PLP.part.hbond>
-4.0000

> <Gold.PLP.part.metal>
0.0000

> <Gold.PLP.part.buried>
-4.4402

> <Gold.PLP.part.nonpolar>
-27.4822

> <Gold.PLP.part.repulsive>
0.0752

> <Gold.PLP.ligand.clash>
0.0000

> <Gold.PLP.ligand.torsion>
0.7423

> <Gold.PLP.Chemscore.Hbond>
3.1897

> <Gold.PLP.Chemscore.CHOScore>
0.0000

> <Gold.PLP.Chemscore.Metal>
0.0000

> <Gold.Chemscore.Hbonds>
donor molecule, donor type, donor heavy atom, donor atom, acceptor molecule, acceptor atom, score
      L1  H     3    20       P1  8028  2.00
      L1  H     8    29       P1  7957  1.00
      P1  H  7989  7998       L1     8  0.24

> <Gold.PLP.Chemscore.Internal.Correction>
0.1779

> <Gold.Rescore>
     Score         DG    S(hbond)    S(metal)    S(lipo)     H(rot)  DE(clash)    DE(int)     intcor
     16.31     -16.90       2.02        0.00      89.67       2.27       0.03       0.55       ----

> <Gold.Chemscore.Fitness>
16.3127

> <Gold.Chemscore.DG>
-16.8953

> <Gold.Chemscore.ZeroCoef>
-5.4800

> <Gold.Chemscore.Hbond>
2.0184

> <Gold.Chemscore.Metal>
0.0000

> <Gold.Chemscore.Lipo>
89.6715

> <Gold.Chemscore.Internal_Hbond>
0.0000

> <Gold.Chemscore.DEClash>
0.0347

> <Gold.Chemscore.DEInternal>
0.5479

> <Gold.Chemscore.Rot>
2.2725

> <Gold.Chemscore.Internal.Correction>
   9.000000E+99

> <Gold.Chemscore.Hbonds>
donor molecule, donor type, donor heavy atom, donor atom, acceptor molecule, acceptor atom, score
      L1  H     3    20       P1  8028  1.00
      L1  H     8    29       P1  7957  0.96
      P1  H  7989  7998       L1     8  0.04

> <Gold.Chemscore.Hbond.Weighted>
-6.7413

> <Gold.Chemscore.Metal.Weighted>
-0.0000

> <Gold.Chemscore.Lipo.Weighted>
-10.4916

> <Gold.Chemscore.Internal_Hbond.Weighted>
0.0000

> <Gold.Chemscore.DEClash.Weighted>
0.0347

> <Gold.Chemscore.DEInternal.Weighted>
0.5479

> <Gold.Chemscore.Rot.Weighted>
5.8176

> <Gold.Chemscore.Internal.Correction.Weighted>
   9.000000E+99

> <Gold.Protein.RotatedTorsions>
[ 6907 6896 6895 6894 ] final -167.39 input  -60.11 | X-H torsion
[ 7974 7965 7964 7962 ] final -128.54 input  175.53 | X-H torsion
[ 8008 7997 7996 7995 ] final -152.14 input   59.86 | X-H torsion
[ 10167 10162 10161 10158 ] final -129.74 input  -65.29 | X-H torsion
[ 10718 10713 10712 10709 ] final  164.15 input   66.30 | X-H torsion
[ 10763 10752 10751 10750 ] final -109.51 input  -60.55 | X-H torsion
[ 11005 11000 10999 10996 ] final  145.06 input  -57.11 | X-H torsion

> <Gold.Protein.ActiveResidues>
 VAL166  LYS551  ARG553  GLY616  TRP617  ASP618  TYR619  PRO620  LYS621  CYS622 
 ASP623  PHE694  ASN695  SER759  ASP760  ASP761  ALA762  ILE779  LEU786  VAL792 
 PHE793  MET794  SER795  GLU796  ALA797  LYS798  CYS799  TRP800  GLU811  SER814 

> <Gold.Protein.RotatedAtoms>
  151.4588  133.3598  159.2805 H   0  0  0  0  0  0  0  0  0  0  0  0  # atno 6907 bound_to 6896
  150.9040  134.8455  159.7390 H   0  0  0  0  0  0  0  0  0  0  0  0  # atno 6908 bound_to 6896
  152.4895  134.4511  159.9627 H   0  0  0  0  0  0  0  0  0  0  0  0  # atno 6909 bound_to 6896
  144.9660  140.7497  143.4699 H   0  0  0  0  0  0  0  0  0  0  0  0  # atno 7974 bound_to 7965
  155.6505  140.0711  157.2588 H   0  0  0  0  0  0  0  0  0  0  0  0  # atno 8008 bound_to 7997
  154.4163  140.1734  156.1719 H   0  0  0  0  0  0  0  0  0  0  0  0  # atno 8009 bound_to 7997
  155.9781  140.3356  155.6640 H   0  0  0  0  0  0  0  0  0  0  0  0  # atno 8010 bound_to 7997
  139.9366  143.6211  152.2515 H   0  0  0  0  0  0  0  0  0  0  0  0  # atno 10167 bound_to 10162
  157.0985  131.0436  151.2508 H   0  0  0  0  0  0  0  0  0  0  0  0  # atno 10718 bound_to 10713
  154.8197  135.4598  154.0744 H   0  0  0  0  0  0  0  0  0  0  0  0  # atno 10763 bound_to 10752
  153.2107  135.6881  153.8123 H   0  0  0  0  0  0  0  0  0  0  0  0  # atno 10764 bound_to 10752
  153.7576  135.3289  155.3308 H   0  0  0  0  0  0  0  0  0  0  0  0  # atno 10765 bound_to 10752
  140.0682  134.9167  157.1300 H   0  0  0  0  0  0  0  0  0  0  0  0  # atno 11005 bound_to 11000
  145.2628  139.1985  143.4883 LP  0  0  0  0  0  0  0  0  0  0  0  0  # atno 17320 bound_to 7965
  146.3368  140.2562  142.8600 LP  0  0  0  0  0  0  0  0  0  0  0  0  # atno 17321 bound_to 7965
  139.6739  144.7659  151.1733 LP  0  0  0  0  0  0  0  0  0  0  0  0  # atno 17342 bound_to 10162
  140.7623  143.5825  150.8880 LP  0  0  0  0  0  0  0  0  0  0  0  0  # atno 17343 bound_to 10162
  157.4661  130.7681  149.7280 LP  0  0  0  0  0  0  0  0  0  0  0  0  # atno 17370 bound_to 10713
  155.9879  130.3963  150.3140 LP  0  0  0  0  0  0  0  0  0  0  0  0  # atno 17371 bound_to 10713
  140.3667  134.2435  155.7181 LP  0  0  0  0  0  0  0  0  0  0  0  0  # atno 17394 bound_to 11000
  141.2001  133.7995  157.0504 LP  0  0  0  0  0  0  0  0  0  0  0  0  # atno 17395 bound_to 11000

$$$$
