AV-unprocessed.smi:3239|AV-procd|sdf|12379|dock7
  -GOLD-   2272018243D 1   1.00000     0.00000
 Structure written by MMmdl.
 35 35  0  0  0  0  0  0  0  0  1 V2000
  152.0037  144.4360  160.6894 C   0  0  0  0  0  0  0  0  0  0  0  0
  152.3672  143.3344  160.3082 C   0  0  0  0  0  0  0  0  0  0  0  0
  152.7876  142.0029  159.8384 C   0  0  0  0  0  0  0  0  0  0  0  0
  152.0925  141.5866  158.6255 N   0  0  0  0  0  0  0  0  0  0  0  0
  152.3609  140.4743  157.9206 C   0  0  0  0  0  0  0  0  0  0  0  0
  153.2265  139.6591  158.2396 O   0  0  0  0  0  0  0  0  0  0  0  0
  151.4806  140.2325  156.7288 C   0  0  0  0  0  0  0  0  0  0  0  0
  151.8361  139.3148  155.7149 C   0  0  0  0  0  0  0  0  0  0  0  0
  150.9546  139.1127  154.6350 C   0  0  0  0  0  0  0  0  0  0  0  0
  149.7398  139.8282  154.6032 C   0  0  0  0  0  0  0  0  0  0  0  0
  148.8705  139.6235  153.5211 N   0  0  0  0  0  0  0  0  0  0  0  0
  147.4439  139.3753  153.7056 C   0  0  2  0  0  0  0  0  0  0  0  0
  146.7726  139.0047  152.3712 C   0  0  0  0  0  0  0  0  0  0  0  0
  146.7784  140.6030  154.3465 C   0  0  0  0  0  0  0  0  0  0  0  0
  146.8952  141.7142  153.4731 O   0  0  0  0  0  0  0  0  0  0  0  0
  146.2522  142.8721  153.9762 C   0  0  0  0  0  0  0  0  0  0  0  0
  149.3905  140.7029  155.5754 N   0  0  0  0  0  0  0  0  0  0  0  0
  150.2372  140.8907  156.6101 C   0  0  0  0  0  0  0  0  0  0  0  0
  151.6811  145.3977  161.0201 H   0  0  0  0  0  0  0  0  0  0  0  0
  153.8581  142.0404  159.6366 H   0  0  0  0  0  0  0  0  0  0  0  0
  152.6380  141.2840  160.6454 H   0  0  0  0  0  0  0  0  0  0  0  0
  151.3454  142.1840  158.3026 H   0  0  0  0  0  0  0  0  0  0  0  0
  152.7655  138.7653  155.7561 H   0  0  0  0  0  0  0  0  0  0  0  0
  151.2092  138.4169  153.8488 H   0  0  0  0  0  0  0  0  0  0  0  0
  149.2484  139.5726  152.5861 H   0  0  0  0  0  0  0  0  0  0  0  0
  147.3272  138.5439  154.4018 H   0  0  0  0  0  0  0  0  0  0  0  0
  145.7113  138.7965  152.5086 H   0  0  0  0  0  0  0  0  0  0  0  0
  147.2210  138.1141  151.9305 H   0  0  0  0  0  0  0  0  0  0  0  0
  146.8610  139.8135  151.6451 H   0  0  0  0  0  0  0  0  0  0  0  0
  145.7211  140.4005  154.5265 H   0  0  0  0  0  0  0  0  0  0  0  0
  147.2368  140.8266  155.3116 H   0  0  0  0  0  0  0  0  0  0  0  0
  146.3701  143.6926  153.2683 H   0  0  0  0  0  0  0  0  0  0  0  0
  146.6869  143.1832  154.9271 H   0  0  0  0  0  0  0  0  0  0  0  0
  145.1843  142.7010  154.1181 H   0  0  0  0  0  0  0  0  0  0  0  0
  149.9072  141.5942  157.3608 H   0  0  0  0  0  0  0  0  0  0  0  0
  1  2  3  0  0  0  0
  1 19  1  0  0  0  0
  2  3  1  0  0  0  0
  3  4  1  0  0  0  0
  3 20  1  0  0  0  0
  3 21  1  0  0  0  0
  4  5  1  0  0  0  0
  4 22  1  0  0  0  0
  5  6  2  0  0  0  0
  5  7  1  0  0  0  0
  7 18  1  0  0  0  0
  7  8  2  0  0  0  0
  8  9  1  0  0  0  0
  8 23  1  0  0  0  0
  9 10  2  0  0  0  0
  9 24  1  0  0  0  0
 10 11  1  0  0  0  0
 10 17  1  0  0  0  0
 11 12  1  0  0  0  0
 11 25  1  0  0  0  0
 12 13  1  0  0  0  0
 12 14  1  0  0  0  0
 12 26  1  0  0  0  0
 13 27  1  0  0  0  0
 13 28  1  0  0  0  0
 13 29  1  0  0  0  0
 14 15  1  0  0  0  0
 14 30  1  0  0  0  0
 14 31  1  0  0  0  0
 15 16  1  0  0  0  0
 16 32  1  0  0  0  0
 16 33  1  0  0  0  0
 16 34  1  0  0  0  0
 17 18  2  0  0  0  0
 18 35  1  0  0  0  0
M  END
> <s_m_source_file>
AV-unprocessed.smi

> <i_m_source_file_index>
3239

> <i_lp_mmshare_version>
43012

> <i_f3d_flags>
0

> <s_epik_input>
W0NIXSNDW0NIMl1bTkhdQyg9TyljMVtjSF1bY0hdYyhuW2NIXTEpW05IXVtDQEhdKFtDSDNdKVtDSDJdT1tDSDNd

> <s_epik_cmdline>
J2VwaWtfcHl0aG9uJywgJy1waCcsICc3LjAnLCAnLXRuJywgJzgnLCAnLW1hJywgJzIwMCcsICctbWV0YWxfYmluZGluZycsICctaW1hZScsICc8aW5maWxlLm1hZT4nLCAnLW9tYWUnLCAnPG91dGZpbGUubWFlPic=

> <r_lp_tautomer_probability>
1

> <r_epik_Ionization_Penalty>
0.00321854

> <r_epik_Ionization_Penalty_Charging>
0

> <r_epik_Ionization_Penalty_Neutral>
0.00321854

> <r_epik_State_Penalty>
0.00226446

> <r_epik_Charging_Adjusted_Penalty>
0.00226446

> <i_epik_Tot_Q>
0

> <i_epik_Tot_abs_Q>
0

> <r_epik_Metal_State_Penalty>
-0

> <b_epik_Metal_Only>
0

> <s_lp_Force_Field>
OPLS_2005

> <r_lp_Energy>
6.08626

> <b_lp_Chiralities_Consistent>
1

> <s_lp_Variant>
AV-unprocessed.smi:3239-1

> <Gold.Version>
5.8.1

> <Gold.Id.Protein>
6NUR|6NUR_protein|mol2

> <Gold.PLP.Fitness>
42.1666

> <Gold.PLP.PLP>
-37.3608

> <Gold.PLP.part.hbond>
-1.9418

> <Gold.PLP.part.metal>
0.0000

> <Gold.PLP.part.buried>
-3.5334

> <Gold.PLP.part.nonpolar>
-32.3653

> <Gold.PLP.part.repulsive>
0.4871

> <Gold.PLP.ligand.clash>
0.0000

> <Gold.PLP.ligand.torsion>
0.6248

> <Gold.PLP.Chemscore.Hbond>
2.0000

> <Gold.PLP.Chemscore.CHOScore>
0.0000

> <Gold.PLP.Chemscore.Metal>
0.0000

> <Gold.Chemscore.Hbonds>
donor molecule, donor type, donor heavy atom, donor atom, acceptor molecule, acceptor atom, score
      L1  H    11    25       P1  7957  1.00
      P1  H  7997  8009       L1     6  1.00

> <Gold.PLP.Chemscore.Internal.Correction>
0.0553

> <Gold.Rescore>
     Score         DG    S(hbond)    S(metal)    S(lipo)     H(rot)  DE(clash)    DE(int)     intcor
     15.49     -17.35       1.89        0.00      83.01       1.62       0.04       1.82       ----

> <Gold.Chemscore.Fitness>
15.4902

> <Gold.Chemscore.DG>
-17.3515

> <Gold.Chemscore.ZeroCoef>
-5.4800

> <Gold.Chemscore.Hbond>
1.8875

> <Gold.Chemscore.Metal>
0.0000

> <Gold.Chemscore.Lipo>
83.0077

> <Gold.Chemscore.Internal_Hbond>
0.0000

> <Gold.Chemscore.DEClash>
0.0414

> <Gold.Chemscore.DEInternal>
1.8200

> <Gold.Chemscore.Rot>
1.6190

> <Gold.Chemscore.Internal.Correction>
   9.000000E+99

> <Gold.Chemscore.Hbonds>
donor molecule, donor type, donor heavy atom, donor atom, acceptor molecule, acceptor atom, score
      L1  H    11    25       P1  7957  0.94
      P1  H  7997  8009       L1     6  0.61

> <Gold.Chemscore.Hbond.Weighted>
-6.3043

> <Gold.Chemscore.Metal.Weighted>
-0.0000

> <Gold.Chemscore.Lipo.Weighted>
-9.7119

> <Gold.Chemscore.Internal_Hbond.Weighted>
0.0000

> <Gold.Chemscore.DEClash.Weighted>
0.0414

> <Gold.Chemscore.DEInternal.Weighted>
1.8200

> <Gold.Chemscore.Rot.Weighted>
4.1447

> <Gold.Chemscore.Internal.Correction.Weighted>
   9.000000E+99

> <Gold.Protein.RotatedTorsions>
[ 6907 6896 6895 6894 ] final  115.35 input  -60.11 | X-H torsion
[ 7974 7965 7964 7962 ] final  -95.17 input  175.53 | X-H torsion
[ 8008 7997 7996 7995 ] final  136.94 input   59.86 | X-H torsion
[ 10167 10162 10161 10158 ] final -128.62 input  -65.29 | X-H torsion
[ 10718 10713 10712 10709 ] final  156.24 input   66.30 | X-H torsion
[ 10763 10752 10751 10750 ] final -156.24 input  -60.55 | X-H torsion
[ 11005 11000 10999 10996 ] final -127.92 input  -57.11 | X-H torsion

> <Gold.Protein.ActiveResidues>
 VAL166  LYS551  ARG553  GLY616  TRP617  ASP618  TYR619  PRO620  LYS621  CYS622 
 ASP623  PHE694  ASN695  SER759  ASP760  ASP761  ALA762  ILE779  LEU786  VAL792 
 PHE793  MET794  SER795  GLU796  ALA797  LYS798  CYS799  TRP800  GLU811  SER814 

> <Gold.Protein.RotatedAtoms>
  152.4746  133.8109  159.7002 H   0  0  0  0  0  0  0  0  0  0  0  0  # atno 6907 bound_to 6896
  150.8756  133.7434  159.2954 H   0  0  0  0  0  0  0  0  0  0  0  0  # atno 6908 bound_to 6896
  151.4955  135.1063  159.9867 H   0  0  0  0  0  0  0  0  0  0  0  0  # atno 6909 bound_to 6896
  145.3636  140.9495  143.2486 H   0  0  0  0  0  0  0  0  0  0  0  0  # atno 7974 bound_to 7965
  156.3003  140.2432  156.3828 H   0  0  0  0  0  0  0  0  0  0  0  0  # atno 8008 bound_to 7997
  154.8685  140.0417  157.1730 H   0  0  0  0  0  0  0  0  0  0  0  0  # atno 8009 bound_to 7997
  154.8820  140.2950  155.5423 H   0  0  0  0  0  0  0  0  0  0  0  0  # atno 8010 bound_to 7997
  139.9484  143.6084  152.2483 H   0  0  0  0  0  0  0  0  0  0  0  0  # atno 10167 bound_to 10162
  157.2076  131.0690  151.1988 H   0  0  0  0  0  0  0  0  0  0  0  0  # atno 10718 bound_to 10713
  154.7727  135.3150  154.8156 H   0  0  0  0  0  0  0  0  0  0  0  0  # atno 10763 bound_to 10752
  153.8887  135.6827  153.4766 H   0  0  0  0  0  0  0  0  0  0  0  0  # atno 10764 bound_to 10752
  153.1344  135.4766  154.9335 H   0  0  0  0  0  0  0  0  0  0  0  0  # atno 10765 bound_to 10752
  140.9559  134.1002  157.4016 H   0  0  0  0  0  0  0  0  0  0  0  0  # atno 11005 bound_to 11000
  144.8628  139.5152  143.6804 LP  0  0  0  0  0  0  0  0  0  0  0  0  # atno 17320 bound_to 7965
  146.2916  139.7156  142.9156 LP  0  0  0  0  0  0  0  0  0  0  0  0  # atno 17321 bound_to 7965
  139.6648  144.7662  151.1894 LP  0  0  0  0  0  0  0  0  0  0  0  0  # atno 17342 bound_to 10162
  140.7590  143.5954  150.8753 LP  0  0  0  0  0  0  0  0  0  0  0  0  # atno 17343 bound_to 10162
  157.3705  130.7178  149.6561 LP  0  0  0  0  0  0  0  0  0  0  0  0  # atno 17370 bound_to 10713
  155.9694  130.4200  150.4403 LP  0  0  0  0  0  0  0  0  0  0  0  0  # atno 17371 bound_to 10713
  139.8862  135.0079  156.6484 LP  0  0  0  0  0  0  0  0  0  0  0  0  # atno 17394 bound_to 11000
  140.7536  133.8876  155.8365 LP  0  0  0  0  0  0  0  0  0  0  0  0  # atno 17395 bound_to 11000

$$$$
