AV-unprocessed.smi:1703|AV-procd|sdf|6866|dock7
  -GOLD-   22720 8 63D 1   1.00000     0.00000
 Structure written by MMmdl.
 49 51  0  0  0  0  0  0  0  0  2 V2000
  146.3756  143.5055  154.3329 C   0  0  0  0  0  0  0  0  0  0  0  0
  146.5861  142.0369  154.7432 C   0  0  1  0  0  0  0  0  0  0  0  0
  148.0679  141.6147  154.7720 C   0  0  0  0  0  0  0  0  0  0  0  0
  148.7636  142.2038  155.9423 N   0  3  2  0  0  0  0  0  0  0  0  0
  150.2163  141.8998  155.9895 C   0  0  0  0  0  0  0  0  0  0  0  0
  150.5303  140.6743  156.8695 C   0  0  1  0  0  0  0  0  0  0  0  0
  150.1492  139.5038  156.1712 O   0  0  0  0  0  0  0  0  0  0  0  0
  152.0270  140.5981  157.2317 C   0  0  0  0  0  0  0  0  0  0  0  0
  152.2880  140.9532  158.6205 N   0  0  0  0  0  0  0  0  0  0  0  0
  152.8504  140.1877  159.5899 C   0  0  0  0  0  0  0  0  0  0  0  0
  153.2931  138.7782  159.3417 C   0  0  0  0  0  0  0  0  0  0  0  0
  154.2779  138.6855  158.3348 O   0  0  0  0  0  0  0  0  0  0  0  0
  152.9815  140.7669  160.7836 N   0  0  0  0  0  0  0  0  0  0  0  0
  152.4496  142.0239  160.5721 C   0  0  0  0  0  0  0  0  0  0  0  0
  152.2985  143.1177  161.4543 C   0  0  0  0  0  0  0  0  0  0  0  0
  151.7167  144.3217  161.0059 C   0  0  0  0  0  0  0  0  0  0  0  0
  151.2780  144.4490  159.6721 C   0  0  0  0  0  0  0  0  0  0  0  0
  151.4190  143.3716  158.7766 C   0  0  0  0  0  0  0  0  0  0  0  0
  152.0021  142.1721  159.2286 C   0  0  0  0  0  0  0  0  0  0  0  0
  148.0613  141.8373  157.1931 C   0  0  0  0  0  0  0  0  0  0  0  0
  146.5918  142.2928  157.1354 C   0  0  2  0  0  0  0  0  0  0  0  0
  145.8056  141.8512  158.3747 C   0  0  0  0  0  0  0  0  0  0  0  0
  145.9620  141.7255  155.9892 O   0  0  0  0  0  0  0  0  0  0  0  0
  146.7493  143.6814  153.3239 H   0  0  0  0  0  0  0  0  0  0  0  0
  146.8935  144.2001  154.9937 H   0  0  0  0  0  0  0  0  0  0  0  0
  145.3163  143.7629  154.3402 H   0  0  0  0  0  0  0  0  0  0  0  0
  146.0823  141.4262  153.9933 H   0  0  0  0  0  0  0  0  0  0  0  0
  148.1361  140.5269  154.8284 H   0  0  0  0  0  0  0  0  0  0  0  0
  148.5499  141.9098  153.8407 H   0  0  0  0  0  0  0  0  0  0  0  0
  150.5859  141.7059  154.9810 H   0  0  0  0  0  0  0  0  0  0  0  0
  150.7560  142.7783  156.3468 H   0  0  0  0  0  0  0  0  0  0  0  0
  149.9509  140.7152  157.7907 H   0  0  0  0  0  0  0  0  0  0  0  0
  149.2091  139.4162  156.2160 H   0  0  0  0  0  0  0  0  0  0  0  0
  152.4106  139.5926  157.0531 H   0  0  0  0  0  0  0  0  0  0  0  0
  152.6060  141.2569  156.5845 H   0  0  0  0  0  0  0  0  0  0  0  0
  153.6750  138.3406  160.2636 H   0  0  0  0  0  0  0  0  0  0  0  0
  152.4330  138.1777  159.0430 H   0  0  0  0  0  0  0  0  0  0  0  0
  154.4330  137.7722  158.1486 H   0  0  0  0  0  0  0  0  0  0  0  0
  152.6307  143.0304  162.4781 H   0  0  0  0  0  0  0  0  0  0  0  0
  151.6065  145.1515  161.6886 H   0  0  0  0  0  0  0  0  0  0  0  0
  150.8336  145.3745  159.3369 H   0  0  0  0  0  0  0  0  0  0  0  0
  151.0844  143.4681  157.7547 H   0  0  0  0  0  0  0  0  0  0  0  0
  148.1223  140.7579  157.3422 H   0  0  0  0  0  0  0  0  0  0  0  0
  148.5541  142.3076  158.0449 H   0  0  0  0  0  0  0  0  0  0  0  0
  146.5476  143.3805  157.0783 H   0  0  0  0  0  0  0  0  0  0  0  0
  146.2389  142.2683  159.2839 H   0  0  0  0  0  0  0  0  0  0  0  0
  145.8002  140.7654  158.4742 H   0  0  0  0  0  0  0  0  0  0  0  0
  144.7693  142.1855  158.3180 H   0  0  0  0  0  0  0  0  0  0  0  0
  148.6885  143.2081  155.8589 H   0  0  0  0  0  0  0  0  0  0  0  0
  1  2  1  0  0  0  0
  1 24  1  0  0  0  0
  1 25  1  0  0  0  0
  1 26  1  0  0  0  0
  2 23  1  0  0  0  0
  2  3  1  0  0  0  0
  2 27  1  0  0  0  0
  3  4  1  0  0  0  0
  3 28  1  0  0  0  0
  3 29  1  0  0  0  0
  4  5  1  0  0  0  0
  4 20  1  0  0  0  0
  4 49  1  0  0  0  0
  5  6  1  0  0  0  0
  5 30  1  0  0  0  0
  5 31  1  0  0  0  0
  6  7  1  0  0  0  0
  6  8  1  0  0  0  0
  6 32  1  0  0  0  0
  7 33  1  0  0  0  0
  8  9  1  0  0  0  0
  8 34  1  0  0  0  0
  8 35  1  0  0  0  0
  9 19  1  0  0  0  0
  9 10  1  0  0  0  0
 10 11  1  0  0  0  0
 10 13  2  0  0  0  0
 11 12  1  0  0  0  0
 11 36  1  0  0  0  0
 11 37  1  0  0  0  0
 12 38  1  0  0  0  0
 13 14  1  0  0  0  0
 14 19  2  0  0  0  0
 14 15  1  0  0  0  0
 15 16  2  0  0  0  0
 15 39  1  0  0  0  0
 16 17  1  0  0  0  0
 16 40  1  0  0  0  0
 17 18  2  0  0  0  0
 17 41  1  0  0  0  0
 18 19  1  0  0  0  0
 18 42  1  0  0  0  0
 20 21  1  0  0  0  0
 20 43  1  0  0  0  0
 20 44  1  0  0  0  0
 21 22  1  0  0  0  0
 21 23  1  0  0  0  0
 21 45  1  0  0  0  0
 22 46  1  0  0  0  0
 22 47  1  0  0  0  0
 22 48  1  0  0  0  0
M  CHG  1   4   1
M  END
> <s_m_source_file>
AV-unprocessed.smi

> <i_m_source_file_index>
1703

> <i_lp_mmshare_version>
43012

> <i_f3d_flags>
0

> <s_epik_input>
W0NIM11bQ0BASF0xW0NIMl1OKFtDSDJdW0NASF0oTzEpW0NIM10pW0NIMl1bQ0BIXShbT0hdKVtDSDJdbihjKG4yKVtDSDJdW09IXSljKGMyMylbY0hdW2NIXVtjSF1bY0hdMw==

> <s_epik_cmdline>
J2VwaWtfcHl0aG9uJywgJy1waCcsICc3LjAnLCAnLXRuJywgJzgnLCAnLW1hJywgJzIwMCcsICctbWV0YWxfYmluZGluZycsICctaW1hZScsICc8aW5maWxlLm1hZT4nLCAnLW9tYWUnLCAnPG91dGZpbGUubWFlPic=

> <r_epik_Ionization_Penalty>
0.655661

> <r_epik_Ionization_Penalty_Charging>
0.608065

> <r_epik_Ionization_Penalty_Neutral>
0.0475963

> <r_epik_State_Penalty>
0.695267

> <r_epik_Charging_Adjusted_Penalty>
1.30333

> <i_epik_Tot_Q>
1

> <i_epik_Tot_abs_Q>
1

> <r_epik_Metal_State_Penalty>
0.653591

> <b_epik_Metal_Only>
0

> <s_lp_Force_Field>
OPLS_2005

> <r_lp_Energy>
24.2834

> <b_lp_Chiralities_Consistent>
1

> <s_lp_Variant>
AV-unprocessed.smi:1703-14

> <Gold.Version>
5.8.1

> <Gold.Id.Protein>
6NUR|6NUR_protein|mol2

> <Gold.PLP.Fitness>
53.4830

> <Gold.PLP.PLP>
-46.9376

> <Gold.PLP.part.hbond>
-2.0000

> <Gold.PLP.part.metal>
0.0000

> <Gold.PLP.part.buried>
-6.9525

> <Gold.PLP.part.nonpolar>
-37.4273

> <Gold.PLP.part.repulsive>
0.1965

> <Gold.PLP.ligand.clash>
0.0613

> <Gold.PLP.ligand.torsion>
1.1915

> <Gold.PLP.Chemscore.Hbond>
2.9840

> <Gold.PLP.Chemscore.CHOScore>
0.0000

> <Gold.PLP.Chemscore.Metal>
0.0000

> <Gold.Chemscore.Hbonds>
donor molecule, donor type, donor heavy atom, donor atom, acceptor molecule, acceptor atom, score
      L1  H     4    49       P1  8028  2.00
      P1  H  7997  8009       L1    12  0.98

> <Gold.PLP.Chemscore.Internal.Correction>
0.0377

> <Gold.Rescore>
     Score         DG    S(hbond)    S(metal)    S(lipo)     H(rot)  DE(clash)    DE(int)     intcor
     16.82     -18.33       1.91        0.00     119.94       2.96       0.03       1.48       ----

> <Gold.Chemscore.Fitness>
16.8223

> <Gold.Chemscore.DG>
-18.3276

> <Gold.Chemscore.ZeroCoef>
-5.4800

> <Gold.Chemscore.Hbond>
1.9147

> <Gold.Chemscore.Metal>
0.0000

> <Gold.Chemscore.Lipo>
119.9400

> <Gold.Chemscore.Internal_Hbond>
0.0000

> <Gold.Chemscore.DEClash>
0.0297

> <Gold.Chemscore.DEInternal>
1.4756

> <Gold.Chemscore.Rot>
2.9611

> <Gold.Chemscore.Internal.Correction>
   9.000000E+99

> <Gold.Chemscore.Hbonds>
donor molecule, donor type, donor heavy atom, donor atom, acceptor molecule, acceptor atom, score
      L1  H     4    49       P1  8028  0.93
      P1  H  7997  8009       L1    12  0.90

> <Gold.Chemscore.Hbond.Weighted>
-6.3949

> <Gold.Chemscore.Metal.Weighted>
-0.0000

> <Gold.Chemscore.Lipo.Weighted>
-14.0330

> <Gold.Chemscore.Internal_Hbond.Weighted>
0.0000

> <Gold.Chemscore.DEClash.Weighted>
0.0297

> <Gold.Chemscore.DEInternal.Weighted>
1.4756

> <Gold.Chemscore.Rot.Weighted>
7.5803

> <Gold.Chemscore.Internal.Correction.Weighted>
   9.000000E+99

> <Gold.Protein.RotatedTorsions>
[ 6907 6896 6895 6894 ] final -154.81 input  -60.11 | X-H torsion
[ 7974 7965 7964 7962 ] final    0.76 input  175.53 | X-H torsion
[ 8008 7997 7996 7995 ] final  115.07 input   59.86 | X-H torsion
[ 10167 10162 10161 10158 ] final   16.23 input  -65.29 | X-H torsion
[ 10718 10713 10712 10709 ] final  105.65 input   66.30 | X-H torsion
[ 10763 10752 10751 10750 ] final   83.40 input  -60.55 | X-H torsion
[ 11005 11000 10999 10996 ] final   -8.05 input  -57.11 | X-H torsion

> <Gold.Protein.ActiveResidues>
 VAL166  LYS551  ARG553  GLY616  TRP617  ASP618  TYR619  PRO620  LYS621  CYS622 
 ASP623  PHE694  ASN695  SER759  ASP760  ASP761  ALA762  ILE779  LEU786  VAL792 
 PHE793  MET794  SER795  GLU796  ALA797  LYS798  CYS799  TRP800  GLU811  SER814 

> <Gold.Protein.RotatedAtoms>
  151.2631  133.4292  159.2616 H   0  0  0  0  0  0  0  0  0  0  0  0  # atno 6907 bound_to 6896
  151.0512  134.9674  159.8223 H   0  0  0  0  0  0  0  0  0  0  0  0  # atno 6908 bound_to 6896
  152.5383  134.2585  159.8979 H   0  0  0  0  0  0  0  0  0  0  0  0  # atno 6909 bound_to 6896
  146.2436  140.1089  142.8344 H   0  0  0  0  0  0  0  0  0  0  0  0  # atno 7974 bound_to 7965
  156.2359  140.2946  156.0313 H   0  0  0  0  0  0  0  0  0  0  0  0  # atno 8008 bound_to 7997
  155.2091  140.0412  157.2947 H   0  0  0  0  0  0  0  0  0  0  0  0  # atno 8009 bound_to 7997
  154.6079  140.2444  155.7714 H   0  0  0  0  0  0  0  0  0  0  0  0  # atno 8010 bound_to 7997
  140.5811  143.8978  150.6791 H   0  0  0  0  0  0  0  0  0  0  0  0  # atno 10167 bound_to 10162
  157.6697  131.0832  150.5889 H   0  0  0  0  0  0  0  0  0  0  0  0  # atno 10718 bound_to 10713
  153.1288  135.4692  154.9316 H   0  0  0  0  0  0  0  0  0  0  0  0  # atno 10763 bound_to 10752
  154.7645  135.3141  154.8316 H   0  0  0  0  0  0  0  0  0  0  0  0  # atno 10764 bound_to 10752
  153.8863  135.6889  153.4817 H   0  0  0  0  0  0  0  0  0  0  0  0  # atno 10765 bound_to 10752
  140.7194  133.8841  155.8809 H   0  0  0  0  0  0  0  0  0  0  0  0  # atno 11005 bound_to 11000
  145.0504  140.9013  143.4999 LP  0  0  0  0  0  0  0  0  0  0  0  0  # atno 17320 bound_to 7965
  145.1186  139.2709  143.5600 LP  0  0  0  0  0  0  0  0  0  0  0  0  # atno 17321 bound_to 7965
  140.2477  143.3616  152.1432 LP  0  0  0  0  0  0  0  0  0  0  0  0  # atno 17342 bound_to 10162
  139.5171  144.6986  151.5558 LP  0  0  0  0  0  0  0  0  0  0  0  0  # atno 17343 bound_to 10162
  156.6189  130.4400  149.5830 LP  0  0  0  0  0  0  0  0  0  0  0  0  # atno 17370 bound_to 10713
  156.2371  130.6829  151.1520 LP  0  0  0  0  0  0  0  0  0  0  0  0  # atno 17371 bound_to 10713
  141.0017  134.1142  157.4311 LP  0  0  0  0  0  0  0  0  0  0  0  0  # atno 17394 bound_to 11000
  139.8852  135.0070  156.6418 LP  0  0  0  0  0  0  0  0  0  0  0  0  # atno 17395 bound_to 11000

$$$$
