AV-unprocessed.smi:415|AV-procd|sdf|2520|dock8
  -GOLD-   2262022473D 1   1.00000     0.00000
 Structure written by MMmdl.
 53 54  0  0  0  0  0  0  0  0  1 V2000
  145.1293  137.1262  157.8303 C   0  0  0  0  0  0  0  0  0  0  0  0
  145.9031  136.8574  156.6749 O   0  0  0  0  0  0  0  0  0  0  0  0
  147.1918  137.4458  156.7323 C   0  0  0  0  0  0  0  0  0  0  0  0
  148.0302  136.9974  155.5238 C   0  0  0  0  0  0  0  0  0  0  0  0
  149.3375  137.6252  155.4741 N   0  0  0  0  0  0  0  0  0  0  0  0
  149.7547  138.4233  154.4128 C   0  0  0  0  0  0  0  0  0  0  0  0
  148.8921  138.6622  153.3580 N   0  0  0  0  0  0  0  0  0  0  0  0
  150.9848  138.9826  154.3923 C   0  0  0  0  0  0  0  0  0  0  0  0
  151.9376  138.7857  155.4755 C   0  0  0  0  0  0  0  0  0  0  0  0
  153.0745  139.2577  155.4595 O   0  0  0  0  0  0  0  0  0  0  0  0
  151.4822  137.9985  156.5578 N   0  0  0  0  0  0  0  0  0  0  0  0
  152.4046  137.7404  157.6893 C   0  0  0  0  0  0  0  0  0  0  0  0
  153.0107  139.0039  158.3267 C   0  0  0  0  0  0  0  0  0  0  0  0
  154.2007  139.0067  158.6388 O   0  0  0  0  0  0  0  0  0  0  0  0
  152.2075  140.0660  158.5061 N   0  0  0  0  0  0  0  0  0  0  0  0
  152.6071  141.3711  159.0237 C   0  0  2  0  0  0  0  0  0  0  0  0
  152.9936  141.2400  160.5094 C   0  0  0  0  0  0  0  0  0  0  0  0
  153.3774  142.5982  161.1038 C   0  0  0  0  0  0  0  0  0  0  0  0
  152.2350  143.6051  160.9321 C   0  0  0  0  0  0  0  0  0  0  0  0
  151.8332  143.7731  159.4528 C   0  0  2  0  0  0  0  0  0  0  0  0
  150.7047  144.8150  159.3433 C   0  0  0  0  0  0  0  0  0  0  0  0
  151.4665  142.4038  158.8129 C   0  0  1  0  0  0  0  0  0  0  0  0
  151.1078  142.5389  157.3158 C   0  0  0  0  0  0  0  0  0  0  0  0
  150.1942  137.4153  156.5852 C   0  0  0  0  0  0  0  0  0  0  0  0
  149.8441  136.7321  157.5511 O   0  0  0  0  0  0  0  0  0  0  0  0
  144.1515  136.6546  157.7338 H   0  0  0  0  0  0  0  0  0  0  0  0
  144.9747  138.1979  157.9616 H   0  0  0  0  0  0  0  0  0  0  0  0
  145.6082  136.7286  158.7262 H   0  0  0  0  0  0  0  0  0  0  0  0
  147.0918  138.5318  156.7185 H   0  0  0  0  0  0  0  0  0  0  0  0
  147.6932  137.1788  157.6638 H   0  0  0  0  0  0  0  0  0  0  0  0
  148.1509  135.9140  155.4789 H   0  0  0  0  0  0  0  0  0  0  0  0
  147.5330  137.2595  154.5902 H   0  0  0  0  0  0  0  0  0  0  0  0
  147.9604  138.2729  153.3324 H   0  0  0  0  0  0  0  0  0  0  0  0
  149.1663  139.2175  152.5604 H   0  0  0  0  0  0  0  0  0  0  0  0
  151.2804  139.5936  153.5511 H   0  0  0  0  0  0  0  0  0  0  0  0
  151.9137  137.1687  158.4779 H   0  0  0  0  0  0  0  0  0  0  0  0
  153.2242  137.0929  157.3738 H   0  0  0  0  0  0  0  0  0  0  0  0
  151.2424  139.9713  158.2250 H   0  0  0  0  0  0  0  0  0  0  0  0
  153.4808  141.7160  158.4670 H   0  0  0  0  0  0  0  0  0  0  0  0
  152.1613  140.8173  161.0741 H   0  0  0  0  0  0  0  0  0  0  0  0
  153.8276  140.5468  160.6236 H   0  0  0  0  0  0  0  0  0  0  0  0
  153.6199  142.4866  162.1609 H   0  0  0  0  0  0  0  0  0  0  0  0
  154.2776  142.9735  160.6160 H   0  0  0  0  0  0  0  0  0  0  0  0
  151.3726  143.2781  161.5147 H   0  0  0  0  0  0  0  0  0  0  0  0
  152.5396  144.5664  161.3476 H   0  0  0  0  0  0  0  0  0  0  0  0
  152.6985  144.1724  158.9212 H   0  0  0  0  0  0  0  0  0  0  0  0
  149.7767  144.4421  159.7776 H   0  0  0  0  0  0  0  0  0  0  0  0
  150.5054  145.0932  158.3091 H   0  0  0  0  0  0  0  0  0  0  0  0
  150.9687  145.7337  159.8680 H   0  0  0  0  0  0  0  0  0  0  0  0
  150.5799  142.0266  159.3259 H   0  0  0  0  0  0  0  0  0  0  0  0
  151.9394  142.9560  156.7472 H   0  0  0  0  0  0  0  0  0  0  0  0
  150.2417  143.1811  157.1625 H   0  0  0  0  0  0  0  0  0  0  0  0
  150.8524  141.5787  156.8679 H   0  0  0  0  0  0  0  0  0  0  0  0
  1  2  1  0  0  0  0
  1 26  1  0  0  0  0
  1 27  1  0  0  0  0
  1 28  1  0  0  0  0
  2  3  1  0  0  0  0
  3  4  1  0  0  0  0
  3 29  1  0  0  0  0
  3 30  1  0  0  0  0
  4  5  1  0  0  0  0
  4 31  1  0  0  0  0
  4 32  1  0  0  0  0
  5 24  1  0  0  0  0
  5  6  1  0  0  0  0
  6  7  1  0  0  0  0
  6  8  2  0  0  0  0
  7 33  1  0  0  0  0
  7 34  1  0  0  0  0
  8  9  1  0  0  0  0
  8 35  1  0  0  0  0
  9 10  2  0  0  0  0
  9 11  1  0  0  0  0
 11 12  1  0  0  0  0
 11 24  1  0  0  0  0
 12 13  1  0  0  0  0
 12 36  1  0  0  0  0
 12 37  1  0  0  0  0
 13 14  2  0  0  0  0
 13 15  1  0  0  0  0
 15 16  1  0  0  0  0
 15 38  1  0  0  0  0
 16 22  1  0  0  0  0
 16 17  1  0  0  0  0
 16 39  1  0  0  0  0
 17 18  1  0  0  0  0
 17 40  1  0  0  0  0
 17 41  1  0  0  0  0
 18 19  1  0  0  0  0
 18 42  1  0  0  0  0
 18 43  1  0  0  0  0
 19 20  1  0  0  0  0
 19 44  1  0  0  0  0
 19 45  1  0  0  0  0
 20 21  1  0  0  0  0
 20 22  1  0  0  0  0
 20 46  1  0  0  0  0
 21 47  1  0  0  0  0
 21 48  1  0  0  0  0
 21 49  1  0  0  0  0
 22 23  1  0  0  0  0
 22 50  1  0  0  0  0
 23 51  1  0  0  0  0
 23 52  1  0  0  0  0
 23 53  1  0  0  0  0
 24 25  2  0  0  0  0
M  END
> <s_m_source_file>
AV-unprocessed.smi

> <i_m_source_file_index>
415

> <i_lp_mmshare_version>
43012

> <i_f3d_flags>
0

> <s_epik_input>
W0NIM11PW0NIMl1bQ0gyXW4xYyhbTkgyXSlbY0hdYyg9TyluKGMxPU8pW0NIMl1DKD1PKVtOSF1bQ0BASF0yW0NIMl1bQ0gyXVtDSDJdW0NAQEhdKFtDSDNdKVtDQEhdMltDSDNd

> <s_epik_cmdline>
J2VwaWtfcHl0aG9uJywgJy1waCcsICc3LjAnLCAnLXRuJywgJzgnLCAnLW1hJywgJzIwMCcsICctbWV0YWxfYmluZGluZycsICctaW1hZScsICc8aW5maWxlLm1hZT4nLCAnLW9tYWUnLCAnPG91dGZpbGUubWFlPic=

> <r_lp_tautomer_probability>
1

> <r_epik_Ionization_Penalty>
8.6647e-06

> <r_epik_Ionization_Penalty_Charging>
1.81162e-08

> <r_epik_Ionization_Penalty_Neutral>
8.64658e-06

> <r_epik_State_Penalty>
-0

> <r_epik_Charging_Adjusted_Penalty>
1.81162e-08

> <i_epik_Tot_Q>
0

> <i_epik_Tot_abs_Q>
0

> <r_epik_Metal_State_Penalty>
-0

> <b_epik_Metal_Only>
0

> <s_lp_Force_Field>
OPLS_2005

> <r_lp_Energy>
21.9512

> <b_lp_Chiralities_Consistent>
1

> <s_lp_Variant>
AV-unprocessed.smi:415-3

> <Gold.Version>
5.8.1

> <Gold.Id.Protein>
6NUR|6NUR_protein|mol2

> <Gold.PLP.Fitness>
47.9678

> <Gold.PLP.PLP>
-39.7138

> <Gold.PLP.part.hbond>
-4.0000

> <Gold.PLP.part.metal>
0.0000

> <Gold.PLP.part.buried>
-6.1794

> <Gold.PLP.part.nonpolar>
-29.2016

> <Gold.PLP.part.repulsive>
0.1769

> <Gold.PLP.ligand.clash>
0.0000

> <Gold.PLP.ligand.torsion>
0.4033

> <Gold.PLP.Chemscore.Hbond>
3.0000

> <Gold.PLP.Chemscore.CHOScore>
0.0000

> <Gold.PLP.Chemscore.Metal>
0.0000

> <Gold.Chemscore.Hbonds>
donor molecule, donor type, donor heavy atom, donor atom, acceptor molecule, acceptor atom, score
      L1  H     7    34       P1  7957  1.00
      P1  H  7997  8008       L1    14  1.00
      P1  H  7997  8009       L1    10  1.00

> <Gold.PLP.Chemscore.Internal.Correction>
0.0607

> <Gold.Rescore>
     Score         DG    S(hbond)    S(metal)    S(lipo)     H(rot)  DE(clash)    DE(int)     intcor
     18.44     -20.08       2.87        0.00      92.29       2.26       0.00       1.65       ----

> <Gold.Chemscore.Fitness>
18.4365

> <Gold.Chemscore.DG>
-20.0816

> <Gold.Chemscore.ZeroCoef>
-5.4800

> <Gold.Chemscore.Hbond>
2.8746

> <Gold.Chemscore.Metal>
0.0000

> <Gold.Chemscore.Lipo>
92.2872

> <Gold.Chemscore.Internal_Hbond>
0.0000

> <Gold.Chemscore.DEClash>
0.0000

> <Gold.Chemscore.DEInternal>
1.6451

> <Gold.Chemscore.Rot>
2.2645

> <Gold.Chemscore.Internal.Correction>
   9.000000E+99

> <Gold.Chemscore.Hbonds>
donor molecule, donor type, donor heavy atom, donor atom, acceptor molecule, acceptor atom, score
      L1  H     7    34       P1  7957  1.00
      P1  H  7997  8008       L1    14  0.68
      P1  H  7997  8009       L1    10  0.94

> <Gold.Chemscore.Hbond.Weighted>
-9.6012

> <Gold.Chemscore.Metal.Weighted>
-0.0000

> <Gold.Chemscore.Lipo.Weighted>
-10.7976

> <Gold.Chemscore.Internal_Hbond.Weighted>
0.0000

> <Gold.Chemscore.DEClash.Weighted>
0.0000

> <Gold.Chemscore.DEInternal.Weighted>
1.6451

> <Gold.Chemscore.Rot.Weighted>
5.7972

> <Gold.Chemscore.Internal.Correction.Weighted>
   9.000000E+99

> <Gold.Protein.RotatedTorsions>
[ 6907 6896 6895 6894 ] final -100.65 input  -60.11 | X-H torsion
[ 7974 7965 7964 7962 ] final   10.02 input  175.53 | X-H torsion
[ 8008 7997 7996 7995 ] final -126.49 input   59.86 | X-H torsion
[ 10167 10162 10161 10158 ] final  -90.55 input  -65.29 | X-H torsion
[ 10718 10713 10712 10709 ] final -107.31 input   66.30 | X-H torsion
[ 10763 10752 10751 10750 ] final  138.63 input  -60.55 | X-H torsion
[ 11005 11000 10999 10996 ] final    5.40 input  -57.11 | X-H torsion

> <Gold.Protein.ActiveResidues>
 VAL166  LYS551  ARG553  GLY616  TRP617  ASP618  TYR619  PRO620  LYS621  CYS622 
 ASP623  PHE694  ASN695  SER759  ASP760  ASP761  ALA762  ILE779  LEU786  VAL792 
 PHE793  MET794  SER795  GLU796  ALA797  LYS798  CYS799  TRP800  GLU811  SER814 

> <Gold.Protein.RotatedAtoms>
  150.7124  134.0854  159.3912 H   0  0  0  0  0  0  0  0  0  0  0  0  # atno 6907 bound_to 6896
  151.8839  135.0441  160.0500 H   0  0  0  0  0  0  0  0  0  0  0  0  # atno 6908 bound_to 6896
  152.2546  133.5209  159.5382 H   0  0  0  0  0  0  0  0  0  0  0  0  # atno 6909 bound_to 6896
  146.2395  139.9697  142.8448 H   0  0  0  0  0  0  0  0  0  0  0  0  # atno 7974 bound_to 7965
  155.2306  140.0425  157.2961 H   0  0  0  0  0  0  0  0  0  0  0  0  # atno 8008 bound_to 7997
  154.5891  140.2421  155.7917 H   0  0  0  0  0  0  0  0  0  0  0  0  # atno 8009 bound_to 7997
  156.2246  140.2958  156.0045 H   0  0  0  0  0  0  0  0  0  0  0  0  # atno 8010 bound_to 7997
  140.3537  143.2877  151.9695 H   0  0  0  0  0  0  0  0  0  0  0  0  # atno 10167 bound_to 10162
  156.0430  130.5656  150.7803 H   0  0  0  0  0  0  0  0  0  0  0  0  # atno 10718 bound_to 10713
  153.8927  135.3031  155.3447 H   0  0  0  0  0  0  0  0  0  0  0  0  # atno 10763 bound_to 10752
  154.7708  135.4886  153.9649 H   0  0  0  0  0  0  0  0  0  0  0  0  # atno 10764 bound_to 10752
  153.1288  135.6799  153.9310 H   0  0  0  0  0  0  0  0  0  0  0  0  # atno 10765 bound_to 10752
  140.5711  134.0101  155.8009 H   0  0  0  0  0  0  0  0  0  0  0  0  # atno 11005 bound_to 11000
  145.1693  140.9712  143.4331 LP  0  0  0  0  0  0  0  0  0  0  0  0  # atno 17320 bound_to 7965
  145.0043  139.3568  143.6151 LP  0  0  0  0  0  0  0  0  0  0  0  0  # atno 17321 bound_to 7965
  139.4823  144.6053  151.7532 LP  0  0  0  0  0  0  0  0  0  0  0  0  # atno 17342 bound_to 10162
  140.5194  144.0903  150.6018 LP  0  0  0  0  0  0  0  0  0  0  0  0  # atno 17343 bound_to 10162
  157.5272  131.0935  151.0002 LP  0  0  0  0  0  0  0  0  0  0  0  0  # atno 17370 bound_to 10713
  157.0317  130.5714  149.5344 LP  0  0  0  0  0  0  0  0  0  0  0  0  # atno 17371 bound_to 10713
  141.1055  133.9700  157.3004 LP  0  0  0  0  0  0  0  0  0  0  0  0  # atno 17394 bound_to 11000
  139.9361  135.0196  156.8561 LP  0  0  0  0  0  0  0  0  0  0  0  0  # atno 17395 bound_to 11000

$$$$
