AV-unprocessed.smi:112|AV-procd|sdf|1087|dock7
  -GOLD-   2262018183D 1   1.00000     0.00000
 Structure written by MMmdl.
 54 57  0  0  0  0  0  0  0  0  3 V2000
  147.9746  136.6511  159.6372 C   0  0  0  0  0  0  0  0  0  0  0  0
  149.1000  136.8985  158.6454 C   0  0  0  0  0  0  0  0  0  0  0  0
  149.5911  138.1363  158.4089 C   0  0  0  0  0  0  0  0  0  0  0  0
  150.6155  138.3943  157.5181 N   0  0  0  0  0  0  0  0  0  0  0  0
  151.1055  139.8060  157.3087 C   0  0  2  0  0  0  0  0  0  0  0  0
  150.3196  140.7979  158.1541 C   0  0  0  0  0  0  0  0  0  0  0  0
  150.4567  142.0624  157.3278 C   0  0  1  0  0  0  0  0  0  0  0  0
  151.6017  142.7892  157.7310 O   0  0  0  0  0  0  0  0  0  0  0  0
  150.6276  141.5573  155.8792 C   0  0  2  0  0  0  0  0  0  0  0  0
  149.3509  141.7285  155.0393 C   0  0  0  0  0  0  0  0  0  0  0  0
  149.4925  141.0600  153.8043 O   0  0  0  0  0  0  0  0  0  0  0  0
  150.8919  140.1567  155.9805 O   0  0  0  0  0  0  0  0  0  0  0  0
  151.2123  137.3323  156.8099 C   0  0  0  0  0  0  0  0  0  0  0  0
  152.1512  137.5326  156.0363 O   0  0  0  0  0  0  0  0  0  0  0  0
  150.7140  136.0270  157.0246 N   0  0  0  0  0  0  0  0  0  0  0  0
  151.3417  134.8999  156.2977 C   0  0  0  0  0  0  0  0  0  0  0  0
  150.3567  134.1084  155.4090 C   0  0  0  0  0  0  0  0  0  0  0  0
  149.4517  134.7170  154.8367 O   0  0  0  0  0  0  0  0  0  0  0  0
  150.5356  132.7680  155.3017 N   0  0  0  0  0  0  0  0  0  0  0  0
  151.6081  132.0332  155.9947 C   0  0  0  0  0  0  0  0  0  0  0  0
  151.4384  130.5483  155.6054 C   0  0  0  0  0  0  0  0  0  0  0  0
  150.2508  130.5713  154.6894 C   0  0  0  0  0  0  0  0  0  0  0  0
  149.6698  129.4682  154.0409 C   0  0  0  0  0  0  0  0  0  0  0  0
  148.5453  129.6798  153.2051 C   0  0  0  0  0  0  0  0  0  0  0  0
  147.9089  128.5452  152.5070 N   0  3  0  0  0  0  0  0  0  0  0  0
  148.3360  127.4156  152.7232 O   0  0  0  0  0  0  0  0  0  0  0  0
  146.9803  128.7816  151.7411 O   0  5  0  0  0  0  0  0  0  0  0  0
  148.0402  130.9980  153.0483 C   0  0  0  0  0  0  0  0  0  0  0  0
  148.6365  132.0951  153.7077 C   0  0  0  0  0  0  0  0  0  0  0  0
  149.7557  131.8610  154.5359 C   0  0  0  0  0  0  0  0  0  0  0  0
  149.6639  135.7482  157.9347 C   0  0  0  0  0  0  0  0  0  0  0  0
  149.2730  134.5919  158.1070 O   0  0  0  0  0  0  0  0  0  0  0  0
  147.6280  137.5774  160.0966 H   0  0  0  0  0  0  0  0  0  0  0  0
  148.3089  135.9877  160.4357 H   0  0  0  0  0  0  0  0  0  0  0  0
  147.1224  136.1870  159.1396 H   0  0  0  0  0  0  0  0  0  0  0  0
  149.1641  138.9685  158.9504 H   0  0  0  0  0  0  0  0  0  0  0  0
  152.1789  139.8342  157.4997 H   0  0  0  0  0  0  0  0  0  0  0  0
  149.2731  140.4938  158.1998 H   0  0  0  0  0  0  0  0  0  0  0  0
  150.7162  140.8654  159.1681 H   0  0  0  0  0  0  0  0  0  0  0  0
  149.5882  142.7109  157.4490 H   0  0  0  0  0  0  0  0  0  0  0  0
  152.3718  142.2852  157.5162 H   0  0  0  0  0  0  0  0  0  0  0  0
  151.4653  142.0622  155.3939 H   0  0  0  0  0  0  0  0  0  0  0  0
  148.4710  141.3641  155.5703 H   0  0  0  0  0  0  0  0  0  0  0  0
  149.1819  142.7825  154.8170 H   0  0  0  0  0  0  0  0  0  0  0  0
  149.2818  140.1477  153.9335 H   0  0  0  0  0  0  0  0  0  0  0  0
  152.1659  135.2600  155.6805 H   0  0  0  0  0  0  0  0  0  0  0  0
  151.8157  134.2127  157.0000 H   0  0  0  0  0  0  0  0  0  0  0  0
  152.5886  132.3963  155.6836 H   0  0  0  0  0  0  0  0  0  0  0  0
  151.5248  132.1527  157.0757 H   0  0  0  0  0  0  0  0  0  0  0  0
  152.3152  130.1613  155.0853 H   0  0  0  0  0  0  0  0  0  0  0  0
  151.2372  129.9213  156.4744 H   0  0  0  0  0  0  0  0  0  0  0  0
  150.0850  128.4818  154.1865 H   0  0  0  0  0  0  0  0  0  0  0  0
  147.1845  131.1826  152.4157 H   0  0  0  0  0  0  0  0  0  0  0  0
  148.2222  133.0796  153.5598 H   0  0  0  0  0  0  0  0  0  0  0  0
  1  2  1  0  0  0  0
  1 33  1  0  0  0  0
  1 34  1  0  0  0  0
  1 35  1  0  0  0  0
  2 31  1  0  0  0  0
  2  3  2  0  0  0  0
  3  4  1  0  0  0  0
  3 36  1  0  0  0  0
  4  5  1  0  0  0  0
  4 13  1  0  0  0  0
  5 12  1  0  0  0  0
  5  6  1  0  0  0  0
  5 37  1  0  0  0  0
  6  7  1  0  0  0  0
  6 38  1  0  0  0  0
  6 39  1  0  0  0  0
  7  8  1  0  0  0  0
  7  9  1  0  0  0  0
  7 40  1  0  0  0  0
  8 41  1  0  0  0  0
  9 10  1  0  0  0  0
  9 12  1  0  0  0  0
  9 42  1  0  0  0  0
 10 11  1  0  0  0  0
 10 43  1  0  0  0  0
 10 44  1  0  0  0  0
 11 45  1  0  0  0  0
 13 14  2  0  0  0  0
 13 15  1  0  0  0  0
 15 16  1  0  0  0  0
 15 31  1  0  0  0  0
 16 17  1  0  0  0  0
 16 46  1  0  0  0  0
 16 47  1  0  0  0  0
 17 18  2  0  0  0  0
 17 19  1  0  0  0  0
 19 30  1  0  0  0  0
 19 20  1  0  0  0  0
 20 21  1  0  0  0  0
 20 48  1  0  0  0  0
 20 49  1  0  0  0  0
 21 22  1  0  0  0  0
 21 50  1  0  0  0  0
 21 51  1  0  0  0  0
 22 30  2  0  0  0  0
 22 23  1  0  0  0  0
 23 24  2  0  0  0  0
 23 52  1  0  0  0  0
 24 25  1  0  0  0  0
 24 28  1  0  0  0  0
 25 26  2  0  0  0  0
 25 27  1  0  0  0  0
 28 29  2  0  0  0  0
 28 53  1  0  0  0  0
 29 30  1  0  0  0  0
 29 54  1  0  0  0  0
 31 32  2  0  0  0  0
M  CHG  1  25   1
M  CHG  1  27  -1
M  END
> <s_m_source_file>
AV-unprocessed.smi

> <i_m_source_file_index>
112

> <i_lp_mmshare_version>
43012

> <i_f3d_flags>
0

> <s_epik_input>
W09IXVtDSDJdW0NAQEhdKE8xKVtDQEhdKFtPSF0pW0NIMl1bQ0BIXTFuKFtjSF1jMltDSDNdKWMoPU8pbihjMj1PKVtDSDJdQyg9TylOKFtDSDJdW0NIMl0zKWMoYzM0KVtjSF1bY0hdYyhbY0hdNClbTitdKD1PKVtPLV0=

> <s_epik_cmdline>
J2VwaWtfcHl0aG9uJywgJy1waCcsICc3LjAnLCAnLXRuJywgJzgnLCAnLW1hJywgJzIwMCcsICctbWV0YWxfYmluZGluZycsICctaW1hZScsICc8aW5maWxlLm1hZT4nLCAnLW9tYWUnLCAnPG91dGZpbGUubWFlPic=

> <r_lp_tautomer_probability>
1

> <r_epik_Ionization_Penalty>
2.5696e-07

> <r_epik_Ionization_Penalty_Charging>
1.04886e-08

> <r_epik_Ionization_Penalty_Neutral>
2.46472e-07

> <r_epik_State_Penalty>
-0

> <r_epik_Charging_Adjusted_Penalty>
1.04886e-08

> <i_epik_Tot_Q>
0

> <i_epik_Tot_abs_Q>
2

> <r_epik_Metal_State_Penalty>
-0

> <b_epik_Metal_Only>
0

> <s_epik_Chemistry_Notes>
This compound contains an acetal/aminal-like group ( X-CH(R)-Y where X, Y are N, S, or O) that may be acid/base labile, releasing an aldehyde.

> <s_lp_Force_Field>
OPLS_2005

> <r_lp_Energy>
58.3709

> <b_lp_Chiralities_Consistent>
1

> <s_lp_Variant>
AV-unprocessed.smi:112-5

> <Gold.Version>
5.8.1

> <Gold.Id.Protein>
6NUR|6NUR_protein|mol2

> <Gold.PLP.Fitness>
50.4192

> <Gold.PLP.PLP>
-44.6977

> <Gold.PLP.part.hbond>
-4.0000

> <Gold.PLP.part.metal>
0.0000

> <Gold.PLP.part.buried>
-3.1778

> <Gold.PLP.part.nonpolar>
-36.4173

> <Gold.PLP.part.repulsive>
0.3273

> <Gold.PLP.ligand.clash>
0.0000

> <Gold.PLP.ligand.torsion>
0.3880

> <Gold.PLP.Chemscore.Hbond>
2.1561

> <Gold.PLP.Chemscore.CHOScore>
0.0000

> <Gold.PLP.Chemscore.Metal>
0.0000

> <Gold.Chemscore.Hbonds>
donor molecule, donor type, donor heavy atom, donor atom, acceptor molecule, acceptor atom, score
      P1  H  6896  6908       L1    32  0.90
      P1  H  7989  7998       L1    11  0.26
      P1  H  8011  8017       L1    11  0.93

> <Gold.PLP.Chemscore.Internal.Correction>
0.0293

> <Gold.Rescore>
     Score         DG    S(hbond)    S(metal)    S(lipo)     H(rot)  DE(clash)    DE(int)     intcor
      6.57     -11.21       1.36        0.00      82.14       3.29       0.80       3.84       ----

> <Gold.Chemscore.Fitness>
6.5701

> <Gold.Chemscore.DG>
-11.2125

> <Gold.Chemscore.ZeroCoef>
-5.4800

> <Gold.Chemscore.Hbond>
1.3620

> <Gold.Chemscore.Metal>
0.0000

> <Gold.Chemscore.Lipo>
82.1373

> <Gold.Chemscore.Internal_Hbond>
0.0000

> <Gold.Chemscore.DEClash>
0.7998

> <Gold.Chemscore.DEInternal>
3.8425

> <Gold.Chemscore.Rot>
3.2916

> <Gold.Chemscore.Internal.Correction>
   9.000000E+99

> <Gold.Chemscore.Hbonds>
donor molecule, donor type, donor heavy atom, donor atom, acceptor molecule, acceptor atom, score
      P1  H  6896  6908       L1    32  0.17
      P1  H  7989  7998       L1    11  0.03
      P1  H  8011  8017       L1    11  0.64

> <Gold.Chemscore.Hbond.Weighted>
-4.5490

> <Gold.Chemscore.Metal.Weighted>
-0.0000

> <Gold.Chemscore.Lipo.Weighted>
-9.6101

> <Gold.Chemscore.Internal_Hbond.Weighted>
0.0000

> <Gold.Chemscore.DEClash.Weighted>
0.7998

> <Gold.Chemscore.DEInternal.Weighted>
3.8425

> <Gold.Chemscore.Rot.Weighted>
8.4265

> <Gold.Chemscore.Internal.Correction.Weighted>
   9.000000E+99

> <Gold.Protein.RotatedTorsions>
[ 6907 6896 6895 6894 ] final  131.56 input  -60.11 | X-H torsion
[ 7974 7965 7964 7962 ] final  -83.40 input  175.53 | X-H torsion
[ 8008 7997 7996 7995 ] final  149.81 input   59.86 | X-H torsion
[ 10167 10162 10161 10158 ] final -118.99 input  -65.29 | X-H torsion
[ 10718 10713 10712 10709 ] final    4.28 input   66.30 | X-H torsion
[ 10763 10752 10751 10750 ] final -115.57 input  -60.55 | X-H torsion
[ 11005 11000 10999 10996 ] final -125.22 input  -57.11 | X-H torsion

> <Gold.Protein.ActiveResidues>
 VAL166  LYS551  ARG553  GLY616  TRP617  ASP618  TYR619  PRO620  LYS621  CYS622 
 ASP623  PHE694  ASN695  SER759  ASP760  ASP761  ALA762  ILE779  LEU786  VAL792 
 PHE793  MET794  SER795  GLU796  ALA797  LYS798  CYS799  TRP800  GLU811  SER814 

> <Gold.Protein.RotatedAtoms>
  152.3414  133.6071  159.5878 H   0  0  0  0  0  0  0  0  0  0  0  0  # atno 6907 bound_to 6896
  150.7481  133.9717  159.3556 H   0  0  0  0  0  0  0  0  0  0  0  0  # atno 6908 bound_to 6896
  151.7580  135.0817  160.0392 H   0  0  0  0  0  0  0  0  0  0  0  0  # atno 6909 bound_to 6896
  145.5205  140.9532  143.1658 H   0  0  0  0  0  0  0  0  0  0  0  0  # atno 7974 bound_to 7965
  156.2740  140.2091  156.5918 H   0  0  0  0  0  0  0  0  0  0  0  0  # atno 8008 bound_to 7997
  154.6976  140.0524  157.0450 H   0  0  0  0  0  0  0  0  0  0  0  0  # atno 8009 bound_to 7997
  155.0779  140.3183  155.4613 H   0  0  0  0  0  0  0  0  0  0  0  0  # atno 8010 bound_to 7997
  140.0515  143.5055  152.2079 H   0  0  0  0  0  0  0  0  0  0  0  0  # atno 10167 bound_to 10162
  156.8903  130.5685  149.5650 H   0  0  0  0  0  0  0  0  0  0  0  0  # atno 10718 bound_to 10713
  154.8486  135.4377  154.1684 H   0  0  0  0  0  0  0  0  0  0  0  0  # atno 10763 bound_to 10752
  153.2804  135.6953  153.7397 H   0  0  0  0  0  0  0  0  0  0  0  0  # atno 10764 bound_to 10752
  153.6604  135.3436  155.3100 H   0  0  0  0  0  0  0  0  0  0  0  0  # atno 10765 bound_to 10752
  140.9779  134.0714  157.3798 H   0  0  0  0  0  0  0  0  0  0  0  0  # atno 11005 bound_to 11000
  144.7678  139.6804  143.7207 LP  0  0  0  0  0  0  0  0  0  0  0  0  # atno 17320 bound_to 7965
  146.2109  139.5464  142.9682 LP  0  0  0  0  0  0  0  0  0  0  0  0  # atno 17321 bound_to 7965
  139.5950  144.7564  151.3308 LP  0  0  0  0  0  0  0  0  0  0  0  0  # atno 17342 bound_to 10162
  140.7214  143.7124  150.7759 LP  0  0  0  0  0  0  0  0  0  0  0  0  # atno 17343 bound_to 10162
  156.0632  130.5681  150.9236 LP  0  0  0  0  0  0  0  0  0  0  0  0  # atno 17370 bound_to 10713
  157.6088  131.0937  150.8832 LP  0  0  0  0  0  0  0  0  0  0  0  0  # atno 17371 bound_to 10713
  139.8938  135.0132  156.6918 LP  0  0  0  0  0  0  0  0  0  0  0  0  # atno 17394 bound_to 11000
  140.7231  133.9124  155.8160 LP  0  0  0  0  0  0  0  0  0  0  0  0  # atno 17395 bound_to 11000

$$$$
