AV-unprocessed.smi:2877|AV-procd|sdf|11043|dock1
  -GOLD-   2272015513D 1   1.00000     0.00000
 Structure written by MMmdl.
 41 42  0  0  0  0  0  0  0  0  1 V2000
  149.6945  132.5781  155.8303 O   0  0  0  0  0  0  0  0  0  0  0  0
  149.1830  133.0848  154.8301 C   0  0  0  0  0  0  0  0  0  0  0  0
  148.9976  134.6116  154.7809 C   0  0  0  0  0  0  0  0  0  0  0  0
  149.7664  135.3732  155.8808 C   0  0  0  0  0  0  0  0  0  0  0  0
  150.2787  136.6479  155.3903 N   0  0  0  0  0  0  0  0  0  0  0  0
  151.4901  137.1568  155.6696 C   0  0  0  0  0  0  0  0  0  0  0  0
  152.3049  136.5801  156.3924 O   0  0  0  0  0  0  0  0  0  0  0  0
  151.8280  138.5052  155.0102 C   0  0  0  0  0  0  0  0  0  0  0  0
  153.0912  138.4475  154.5837 F   0  0  0  0  0  0  0  0  0  0  0  0
  151.0459  138.6718  153.9407 F   0  0  0  0  0  0  0  0  0  0  0  0
  151.6474  139.6812  155.9698 C   0  0  0  0  0  0  0  0  0  0  0  0
  152.1991  139.6509  157.2713 C   0  0  0  0  0  0  0  0  0  0  0  0
  151.9939  140.7569  158.1181 C   0  0  0  0  0  0  0  0  0  0  0  0
  151.2476  141.8497  157.6382 C   0  0  0  0  0  0  0  0  0  0  0  0
  150.7350  141.7863  156.3277 C   0  0  0  0  0  0  0  0  0  0  0  0
  150.9257  140.7307  155.5078 N   0  0  0  0  0  0  0  0  0  0  0  0
  148.7747  132.3402  153.7730 N   0  0  0  0  0  0  0  0  0  0  0  0
  148.8459  130.8726  153.7625 C   0  0  0  0  0  0  0  0  0  0  0  0
  147.4168  130.3037  153.8374 C   0  0  0  0  0  0  0  0  0  0  0  0
  146.5443  130.8506  152.6919 C   0  0  0  0  0  0  0  0  0  0  0  0
  146.6270  132.3857  152.5975 C   0  0  0  0  0  0  0  0  0  0  0  0
  148.0928  132.8559  152.5769 C   0  0  0  0  0  0  0  0  0  0  0  0
  149.3243  134.9688  153.8039 H   0  0  0  0  0  0  0  0  0  0  0  0
  147.9334  134.8341  154.8695 H   0  0  0  0  0  0  0  0  0  0  0  0
  149.1079  135.5858  156.7239 H   0  0  0  0  0  0  0  0  0  0  0  0
  150.5880  134.7686  156.2693 H   0  0  0  0  0  0  0  0  0  0  0  0
  149.6692  137.1831  154.7886 H   0  0  0  0  0  0  0  0  0  0  0  0
  152.7626  138.7982  157.6200 H   0  0  0  0  0  0  0  0  0  0  0  0
  152.4008  140.7659  159.1185 H   0  0  0  0  0  0  0  0  0  0  0  0
  151.0708  142.7147  158.2602 H   0  0  0  0  0  0  0  0  0  0  0  0
  150.1564  142.6055  155.9271 H   0  0  0  0  0  0  0  0  0  0  0  0
  149.3344  130.5411  152.8451 H   0  0  0  0  0  0  0  0  0  0  0  0
  149.4474  130.4703  154.5787 H   0  0  0  0  0  0  0  0  0  0  0  0
  147.4432  129.2144  153.7993 H   0  0  0  0  0  0  0  0  0  0  0  0
  146.9704  130.5698  154.7965 H   0  0  0  0  0  0  0  0  0  0  0  0
  146.8827  130.4181  151.7495 H   0  0  0  0  0  0  0  0  0  0  0  0
  145.5088  130.5349  152.8212 H   0  0  0  0  0  0  0  0  0  0  0  0
  146.1083  132.7326  151.7034 H   0  0  0  0  0  0  0  0  0  0  0  0
  146.1125  132.8339  153.4486 H   0  0  0  0  0  0  0  0  0  0  0  0
  148.1291  133.9396  152.4798 H   0  0  0  0  0  0  0  0  0  0  0  0
  148.5936  132.4705  151.6876 H   0  0  0  0  0  0  0  0  0  0  0  0
  1  2  2  0  0  0  0
  2  3  1  0  0  0  0
  2 17  1  0  0  0  0
  3  4  1  0  0  0  0
  3 23  1  0  0  0  0
  3 24  1  0  0  0  0
  4  5  1  0  0  0  0
  4 25  1  0  0  0  0
  4 26  1  0  0  0  0
  5  6  1  0  0  0  0
  5 27  1  0  0  0  0
  6  7  2  0  0  0  0
  6  8  1  0  0  0  0
  8  9  1  0  0  0  0
  8 10  1  0  0  0  0
  8 11  1  0  0  0  0
 11 16  1  0  0  0  0
 11 12  2  0  0  0  0
 12 13  1  0  0  0  0
 12 28  1  0  0  0  0
 13 14  2  0  0  0  0
 13 29  1  0  0  0  0
 14 15  1  0  0  0  0
 14 30  1  0  0  0  0
 15 16  2  0  0  0  0
 15 31  1  0  0  0  0
 17 22  1  0  0  0  0
 17 18  1  0  0  0  0
 18 19  1  0  0  0  0
 18 32  1  0  0  0  0
 18 33  1  0  0  0  0
 19 20  1  0  0  0  0
 19 34  1  0  0  0  0
 19 35  1  0  0  0  0
 20 21  1  0  0  0  0
 20 36  1  0  0  0  0
 20 37  1  0  0  0  0
 21 22  1  0  0  0  0
 21 38  1  0  0  0  0
 21 39  1  0  0  0  0
 22 40  1  0  0  0  0
 22 41  1  0  0  0  0
M  END
> <s_m_source_file>
AV-unprocessed.smi

> <i_m_source_file_index>
2877

> <i_lp_mmshare_version>
43012

> <i_f3d_flags>
0

> <s_epik_input>
W0NIMl0xW0NIMl1bQ0gyXVtDSDJdW0NIMl1OMUMoPU8pW0NIMl1bQ0gyXVtOSF1DKD1PKUMoRikoRiljMltjSF1bY0hdW2NIXVtjSF1uMg==

> <s_epik_cmdline>
J2VwaWtfcHl0aG9uJywgJy1waCcsICc3LjAnLCAnLXRuJywgJzgnLCAnLW1hJywgJzIwMCcsICctbWV0YWxfYmluZGluZycsICctaW1hZScsICc8aW5maWxlLm1hZT4nLCAnLW9tYWUnLCAnPG91dGZpbGUubWFlPic=

> <r_lp_tautomer_probability>
1

> <r_epik_Ionization_Penalty>
7.88991e-05

> <r_epik_Ionization_Penalty_Charging>
0

> <r_epik_Ionization_Penalty_Neutral>
7.88991e-05

> <r_epik_State_Penalty>
-0

> <r_epik_Charging_Adjusted_Penalty>
0

> <i_epik_Tot_Q>
0

> <i_epik_Tot_abs_Q>
0

> <r_epik_Metal_State_Penalty>
0.0639978

> <b_epik_Metal_Only>
0

> <s_lp_Force_Field>
OPLS_2005

> <r_lp_Energy>
32.8241

> <b_lp_Chiralities_Consistent>
1

> <s_lp_Variant>
AV-unprocessed.smi:2877-1

> <Gold.Version>
5.8.1

> <Gold.Id.Protein>
6NUR|6NUR_protein|mol2

> <Gold.PLP.Fitness>
44.7852

> <Gold.PLP.PLP>
-39.5880

> <Gold.PLP.part.hbond>
-2.0000

> <Gold.PLP.part.metal>
0.0000

> <Gold.PLP.part.buried>
-2.8343

> <Gold.PLP.part.nonpolar>
-34.2255

> <Gold.PLP.part.repulsive>
0.1052

> <Gold.PLP.ligand.clash>
0.0000

> <Gold.PLP.ligand.torsion>
1.7081

> <Gold.PLP.Chemscore.Hbond>
1.8320

> <Gold.PLP.Chemscore.CHOScore>
1.0000

> <Gold.PLP.Chemscore.Metal>
0.0000

> <Gold.Chemscore.Hbonds>
donor molecule, donor type, donor heavy atom, donor atom, acceptor molecule, acceptor atom, score
      P1  H  7989  7998       L1    16  0.64
      P1  H 10752 10763       L1     7  0.95
      L1  C    15    31       P1  8028  1.00

> <Gold.PLP.Chemscore.Internal.Correction>
0.1174

> <Gold.Rescore>
     Score         DG    S(hbond)    S(metal)    S(lipo)     H(rot)  DE(clash)    DE(int)     intcor
     11.14     -12.31       0.98        0.00      73.06       1.95       0.07       1.09       ----

> <Gold.Chemscore.Fitness>
11.1417

> <Gold.Chemscore.DG>
-12.3052

> <Gold.Chemscore.ZeroCoef>
-5.4800

> <Gold.Chemscore.Hbond>
0.9776

> <Gold.Chemscore.Metal>
0.0000

> <Gold.Chemscore.Lipo>
73.0643

> <Gold.Chemscore.Internal_Hbond>
0.0000

> <Gold.Chemscore.DEClash>
0.0750

> <Gold.Chemscore.DEInternal>
1.0885

> <Gold.Chemscore.Rot>
1.9487

> <Gold.Chemscore.Internal.Correction>
   9.000000E+99

> <Gold.Chemscore.Hbonds>
donor molecule, donor type, donor heavy atom, donor atom, acceptor molecule, acceptor atom, score
      P1  H  7989  7998       L1    16  0.21
      P1  H 10752 10763       L1     7  0.21

> <Gold.Chemscore.Hbond.Weighted>
-3.2653

> <Gold.Chemscore.Metal.Weighted>
-0.0000

> <Gold.Chemscore.Lipo.Weighted>
-8.5485

> <Gold.Chemscore.Internal_Hbond.Weighted>
0.0000

> <Gold.Chemscore.DEClash.Weighted>
0.0750

> <Gold.Chemscore.DEInternal.Weighted>
1.0885

> <Gold.Chemscore.Rot.Weighted>
4.9886

> <Gold.Chemscore.Internal.Correction.Weighted>
   9.000000E+99

> <Gold.Protein.RotatedTorsions>
[ 6907 6896 6895 6894 ] final  -23.39 input  -60.11 | X-H torsion
[ 7974 7965 7964 7962 ] final   13.63 input  175.53 | X-H torsion
[ 8008 7997 7996 7995 ] final   55.57 input   59.86 | X-H torsion
[ 10167 10162 10161 10158 ] final  -94.27 input  -65.29 | X-H torsion
[ 10718 10713 10712 10709 ] final  102.45 input   66.30 | X-H torsion
[ 10763 10752 10751 10750 ] final   89.49 input  -60.55 | X-H torsion
[ 11005 11000 10999 10996 ] final -117.13 input  -57.11 | X-H torsion

> <Gold.Protein.ActiveResidues>
 VAL166  LYS551  ARG553  GLY616  TRP617  ASP618  TYR619  PRO620  LYS621  CYS622 
 ASP623  PHE694  ASN695  SER759  ASP760  ASP761  ALA762  ILE779  LEU786  VAL792 
 PHE793  MET794  SER795  GLU796  ALA797  LYS798  CYS799  TRP800  GLU811  SER814 

> <Gold.Protein.RotatedAtoms>
  151.2047  135.0457  159.8886 H   0  0  0  0  0  0  0  0  0  0  0  0  # atno 6907 bound_to 6896
  152.5430  134.0811  159.8246 H   0  0  0  0  0  0  0  0  0  0  0  0  # atno 6908 bound_to 6896
  151.0957  133.5234  159.2644 H   0  0  0  0  0  0  0  0  0  0  0  0  # atno 6909 bound_to 6896
  146.2325  139.9160  142.8517 H   0  0  0  0  0  0  0  0  0  0  0  0  # atno 7974 bound_to 7965
  155.5033  140.3475  155.4375 H   0  0  0  0  0  0  0  0  0  0  0  0  # atno 8008 bound_to 7997
  156.0899  140.1408  156.9633 H   0  0  0  0  0  0  0  0  0  0  0  0  # atno 8009 bound_to 7997
  154.4628  140.0928  156.6917 H   0  0  0  0  0  0  0  0  0  0  0  0  # atno 8010 bound_to 7997
  140.3161  143.3076  152.0096 H   0  0  0  0  0  0  0  0  0  0  0  0  # atno 10167 bound_to 10162
  157.6801  131.0753  150.5406 H   0  0  0  0  0  0  0  0  0  0  0  0  # atno 10718 bound_to 10713
  153.1876  135.4468  155.0108 H   0  0  0  0  0  0  0  0  0  0  0  0  # atno 10763 bound_to 10752
  154.8070  135.3278  154.7408 H   0  0  0  0  0  0  0  0  0  0  0  0  # atno 10764 bound_to 10752
  153.7865  135.6973  153.4934 H   0  0  0  0  0  0  0  0  0  0  0  0  # atno 10765 bound_to 10752
  141.0375  133.9887  157.3047 H   0  0  0  0  0  0  0  0  0  0  0  0  # atno 11005 bound_to 11000
  145.2183  140.9924  143.4061 LP  0  0  0  0  0  0  0  0  0  0  0  0  # atno 17320 bound_to 7965
  144.9632  139.3957  143.6345 LP  0  0  0  0  0  0  0  0  0  0  0  0  # atno 17321 bound_to 7965
  139.4883  144.6347  151.7000 LP  0  0  0  0  0  0  0  0  0  0  0  0  # atno 17342 bound_to 10162
  140.5525  144.0402  150.6133 LP  0  0  0  0  0  0  0  0  0  0  0  0  # atno 17343 bound_to 10162
  156.5714  130.4280  149.6018 LP  0  0  0  0  0  0  0  0  0  0  0  0  # atno 17370 bound_to 10713
  156.2738  130.7032  151.1837 LP  0  0  0  0  0  0  0  0  0  0  0  0  # atno 17371 bound_to 10713
  139.9251  135.0201  156.8206 LP  0  0  0  0  0  0  0  0  0  0  0  0  # atno 17394 bound_to 11000
  140.6295  133.9919  155.7655 LP  0  0  0  0  0  0  0  0  0  0  0  0  # atno 17395 bound_to 11000

$$$$
