AV-unprocessed.smi:2961|AV-procd|sdf|11314|dock10
  -GOLD-   2272016213D 1   1.00000     0.00000
 Structure written by MMmdl.
 49 51  0  0  0  0  0  0  0  0  2 V2000
  145.9335  143.2441  153.9993 C   0  0  0  0  0  0  0  0  0  0  0  0
  146.8625  142.0470  154.1683 C   0  0  0  0  0  0  0  0  0  0  0  0
  146.4383  140.9054  153.9940 O   0  0  0  0  0  0  0  0  0  0  0  0
  148.1327  142.3232  154.4986 N   0  0  0  0  0  0  0  0  0  0  0  0
  149.1808  141.3293  154.7150 C   0  0  0  0  0  0  0  0  0  0  0  0
  149.1128  140.6584  156.1027 C   0  0  0  0  0  0  0  0  0  0  0  0
  150.0994  141.2214  157.0774 C   0  0  0  0  0  0  0  0  0  0  0  0
  150.3625  142.5453  157.2678 N   0  3  0  0  0  0  0  0  0  0  0  0
  151.3327  142.6973  158.2585 C   0  0  0  0  0  0  0  0  0  0  0  0
  151.9206  143.8413  158.7893 C   0  0  0  0  0  0  0  0  0  0  0  0
  152.8927  143.6460  159.7922 C   0  0  0  0  0  0  0  0  0  0  0  0
  153.2456  142.3532  160.2307 C   0  0  0  0  0  0  0  0  0  0  0  0
  152.6395  141.2012  159.6875 C   0  0  0  0  0  0  0  0  0  0  0  0
  151.6787  141.4023  158.6964 C   0  0  0  0  0  0  0  0  0  0  0  0
  150.8898  140.5237  157.9432 N   0  0  0  0  0  0  0  0  0  0  0  0
  151.0174  139.0732  158.1528 C   0  0  0  0  0  0  0  0  0  0  0  0
  149.7522  138.4624  158.7720 C   0  0  0  0  0  0  0  0  0  0  0  0
  149.7998  137.0474  158.6478 O   0  0  0  0  0  0  0  0  0  0  0  0
  148.9968  136.2893  159.4713 C   0  0  0  0  0  0  0  0  0  0  0  0
  148.4718  135.0190  159.1244 C   0  0  0  0  0  0  0  0  0  0  0  0
  147.6603  134.3127  160.0333 C   0  0  0  0  0  0  0  0  0  0  0  0
  147.3629  134.8641  161.2932 C   0  0  0  0  0  0  0  0  0  0  0  0
  147.8760  136.1271  161.6475 C   0  0  0  0  0  0  0  0  0  0  0  0
  147.5572  136.7189  163.0050 C   0  0  0  0  0  0  0  0  0  0  0  0
  148.6891  136.8316  160.7360 C   0  0  0  0  0  0  0  0  0  0  0  0
  146.0269  143.9265  154.8451 H   0  0  0  0  0  0  0  0  0  0  0  0
  144.8937  142.9212  153.9357 H   0  0  0  0  0  0  0  0  0  0  0  0
  146.1798  143.7879  153.0869 H   0  0  0  0  0  0  0  0  0  0  0  0
  148.3893  143.2919  154.6248 H   0  0  0  0  0  0  0  0  0  0  0  0
  149.0719  140.5724  153.9384 H   0  0  0  0  0  0  0  0  0  0  0  0
  150.1615  141.7825  154.5630 H   0  0  0  0  0  0  0  0  0  0  0  0
  148.1084  140.7609  156.5138 H   0  0  0  0  0  0  0  0  0  0  0  0
  149.2913  139.5869  156.0070 H   0  0  0  0  0  0  0  0  0  0  0  0
  151.6535  144.8325  158.4530 H   0  0  0  0  0  0  0  0  0  0  0  0
  153.3793  144.5044  160.2322 H   0  0  0  0  0  0  0  0  0  0  0  0
  153.9974  142.2422  160.9986 H   0  0  0  0  0  0  0  0  0  0  0  0
  152.9220  140.2159  160.0275 H   0  0  0  0  0  0  0  0  0  0  0  0
  151.2619  138.5927  157.2054 H   0  0  0  0  0  0  0  0  0  0  0  0
  151.8703  138.9038  158.8095 H   0  0  0  0  0  0  0  0  0  0  0  0
  149.6867  138.7457  159.8233 H   0  0  0  0  0  0  0  0  0  0  0  0
  148.8730  138.8573  158.2603 H   0  0  0  0  0  0  0  0  0  0  0  0
  148.6760  134.5646  158.1670 H   0  0  0  0  0  0  0  0  0  0  0  0
  147.2649  133.3448  159.7623 H   0  0  0  0  0  0  0  0  0  0  0  0
  146.7402  134.3161  161.9854 H   0  0  0  0  0  0  0  0  0  0  0  0
  147.7824  137.7856  163.0342 H   0  0  0  0  0  0  0  0  0  0  0  0
  148.1443  136.2234  163.7783 H   0  0  0  0  0  0  0  0  0  0  0  0
  146.5003  136.5898  163.2400 H   0  0  0  0  0  0  0  0  0  0  0  0
  149.0856  137.7994  161.0065 H   0  0  0  0  0  0  0  0  0  0  0  0
  149.9096  143.2892  156.7524 H   0  0  0  0  0  0  0  0  0  0  0  0
  1  2  1  0  0  0  0
  1 26  1  0  0  0  0
  1 27  1  0  0  0  0
  1 28  1  0  0  0  0
  2  3  2  0  0  0  0
  2  4  1  0  0  0  0
  4  5  1  0  0  0  0
  4 29  1  0  0  0  0
  5  6  1  0  0  0  0
  5 30  1  0  0  0  0
  5 31  1  0  0  0  0
  6  7  1  0  0  0  0
  6 32  1  0  0  0  0
  6 33  1  0  0  0  0
  7 15  1  0  0  0  0
  7  8  2  0  0  0  0
  8  9  1  0  0  0  0
  8 49  1  0  0  0  0
  9 14  2  0  0  0  0
  9 10  1  0  0  0  0
 10 11  2  0  0  0  0
 10 34  1  0  0  0  0
 11 12  1  0  0  0  0
 11 35  1  0  0  0  0
 12 13  2  0  0  0  0
 12 36  1  0  0  0  0
 13 14  1  0  0  0  0
 13 37  1  0  0  0  0
 14 15  1  0  0  0  0
 15 16  1  0  0  0  0
 16 17  1  0  0  0  0
 16 38  1  0  0  0  0
 16 39  1  0  0  0  0
 17 18  1  0  0  0  0
 17 40  1  0  0  0  0
 17 41  1  0  0  0  0
 18 19  1  0  0  0  0
 19 25  1  0  0  0  0
 19 20  2  0  0  0  0
 20 21  1  0  0  0  0
 20 42  1  0  0  0  0
 21 22  2  0  0  0  0
 21 43  1  0  0  0  0
 22 23  1  0  0  0  0
 22 44  1  0  0  0  0
 23 24  1  0  0  0  0
 23 25  2  0  0  0  0
 24 45  1  0  0  0  0
 24 46  1  0  0  0  0
 24 47  1  0  0  0  0
 25 48  1  0  0  0  0
M  CHG  1   8   1
M  END
> <s_m_source_file>
AV-unprocessed.smi

> <i_m_source_file_index>
2961

> <i_lp_mmshare_version>
43012

> <i_f3d_flags>
0

> <s_epik_input>
W0NIM11DKD1PKVtOSF1bQ0gyXVtDSDJdYyhuMSluKGMoYzEyKVtjSF1bY0hdW2NIXVtjSF0yKVtDSDJdW0NIMl1PYzNbY0hdW2NIXVtjSF1jKFtDSDNdKVtjSF0z

> <s_epik_cmdline>
J2VwaWtfcHl0aG9uJywgJy1waCcsICc3LjAnLCAnLXRuJywgJzgnLCAnLW1hJywgJzIwMCcsICctbWV0YWxfYmluZGluZycsICctaW1hZScsICc8aW5maWxlLm1hZT4nLCAnLW9tYWUnLCAnPG91dGZpbGUubWFlPic=

> <r_lp_tautomer_probability>
1

> <r_epik_Ionization_Penalty>
1.11168

> <r_epik_Ionization_Penalty_Charging>
1.11168

> <r_epik_Ionization_Penalty_Neutral>
3.05925e-07

> <r_epik_State_Penalty>
1.16973

> <r_epik_Charging_Adjusted_Penalty>
2.28141

> <i_epik_Tot_Q>
1

> <i_epik_Tot_abs_Q>
1

> <r_epik_Metal_State_Penalty>
1.2554

> <b_epik_Metal_Only>
0

> <s_lp_Force_Field>
OPLS_2005

> <r_lp_Energy>
19.5135

> <b_lp_Chiralities_Consistent>
1

> <s_lp_Variant>
AV-unprocessed.smi:2961-2

> <Gold.Version>
5.8.1

> <Gold.Id.Protein>
6NUR|6NUR_protein|mol2

> <Gold.PLP.Fitness>
58.0223

> <Gold.PLP.PLP>
-51.3637

> <Gold.PLP.part.hbond>
-2.0000

> <Gold.PLP.part.metal>
0.0000

> <Gold.PLP.part.buried>
-6.2487

> <Gold.PLP.part.nonpolar>
-45.0061

> <Gold.PLP.part.repulsive>
0.7050

> <Gold.PLP.ligand.clash>
0.0000

> <Gold.PLP.ligand.torsion>
1.2006

> <Gold.PLP.Chemscore.Hbond>
3.0000

> <Gold.PLP.Chemscore.CHOScore>
0.0000

> <Gold.PLP.Chemscore.Metal>
0.0000

> <Gold.Chemscore.Hbonds>
donor molecule, donor type, donor heavy atom, donor atom, acceptor molecule, acceptor atom, score
      L1  H     4    29       P1  8028  1.00
      L1  H     8    49       P1  8028  1.82

> <Gold.PLP.Chemscore.Internal.Correction>
0.0597

> <Gold.Rescore>
     Score         DG    S(hbond)    S(metal)    S(lipo)     H(rot)  DE(clash)    DE(int)     intcor
     19.47     -21.11       1.92        0.00     126.42       2.18       0.57       1.08       ----

> <Gold.Chemscore.Fitness>
19.4670

> <Gold.Chemscore.DG>
-21.1121

> <Gold.Chemscore.ZeroCoef>
-5.4800

> <Gold.Chemscore.Hbond>
1.9223

> <Gold.Chemscore.Metal>
0.0000

> <Gold.Chemscore.Lipo>
126.4177

> <Gold.Chemscore.Internal_Hbond>
0.0000

> <Gold.Chemscore.DEClash>
0.5652

> <Gold.Chemscore.DEInternal>
1.0799

> <Gold.Chemscore.Rot>
2.1793

> <Gold.Chemscore.Internal.Correction>
   9.000000E+99

> <Gold.Chemscore.Hbonds>
donor molecule, donor type, donor heavy atom, donor atom, acceptor molecule, acceptor atom, score
      L1  H     4    29       P1  8028  0.97
      L1  H     8    49       P1  8028  0.87

> <Gold.Chemscore.Hbond.Weighted>
-6.4204

> <Gold.Chemscore.Metal.Weighted>
-0.0000

> <Gold.Chemscore.Lipo.Weighted>
-14.7909

> <Gold.Chemscore.Internal_Hbond.Weighted>
0.0000

> <Gold.Chemscore.DEClash.Weighted>
0.5652

> <Gold.Chemscore.DEInternal.Weighted>
1.0799

> <Gold.Chemscore.Rot.Weighted>
5.5791

> <Gold.Chemscore.Internal.Correction.Weighted>
   9.000000E+99

> <Gold.Protein.RotatedTorsions>
[ 6907 6896 6895 6894 ] final  109.42 input  -60.11 | X-H torsion
[ 7974 7965 7964 7962 ] final   48.80 input  175.53 | X-H torsion
[ 8008 7997 7996 7995 ] final   31.82 input   59.86 | X-H torsion
[ 10167 10162 10161 10158 ] final  -32.78 input  -65.29 | X-H torsion
[ 10718 10713 10712 10709 ] final -125.01 input   66.30 | X-H torsion
[ 10763 10752 10751 10750 ] final  -40.87 input  -60.55 | X-H torsion
[ 11005 11000 10999 10996 ] final   87.06 input  -57.11 | X-H torsion

> <Gold.Protein.ActiveResidues>
 VAL166  LYS551  ARG553  GLY616  TRP617  ASP618  TYR619  PRO620  LYS621  CYS622 
 ASP623  PHE694  ASN695  SER759  ASP760  ASP761  ALA762  ILE779  LEU786  VAL792 
 PHE793  MET794  SER795  GLU796  ALA797  LYS798  CYS799  TRP800  GLU811  SER814 

> <Gold.Protein.RotatedAtoms>
  152.5068  133.8947  159.7410 H   0  0  0  0  0  0  0  0  0  0  0  0  # atno 6907 bound_to 6896
  150.9377  133.6684  159.2804 H   0  0  0  0  0  0  0  0  0  0  0  0  # atno 6908 bound_to 6896
  151.4006  135.0975  159.9607 H   0  0  0  0  0  0  0  0  0  0  0  0  # atno 6909 bound_to 6896
  146.0170  139.4607  142.9921 H   0  0  0  0  0  0  0  0  0  0  0  0  # atno 7974 bound_to 7965
  155.1126  140.3240  155.4517 H   0  0  0  0  0  0  0  0  0  0  0  0  # atno 8008 bound_to 7997
  156.2686  140.2041  156.6198 H   0  0  0  0  0  0  0  0  0  0  0  0  # atno 8009 bound_to 7997
  154.6744  140.0533  157.0187 H   0  0  0  0  0  0  0  0  0  0  0  0  # atno 8010 bound_to 7997
  140.7215  143.3669  151.1854 H   0  0  0  0  0  0  0  0  0  0  0  0  # atno 10167 bound_to 10162
  156.1637  130.6620  151.0086 H   0  0  0  0  0  0  0  0  0  0  0  0  # atno 10718 bound_to 10713
  153.9531  135.6748  153.4744 H   0  0  0  0  0  0  0  0  0  0  0  0  # atno 10763 bound_to 10752
  153.0875  135.4892  154.8621 H   0  0  0  0  0  0  0  0  0  0  0  0  # atno 10764 bound_to 10752
  154.7314  135.3139  154.8844 H   0  0  0  0  0  0  0  0  0  0  0  0  # atno 10765 bound_to 10752
  139.8929  134.8397  156.2807 H   0  0  0  0  0  0  0  0  0  0  0  0  # atno 11005 bound_to 11000
  145.7253  141.0061  143.1380 LP  0  0  0  0  0  0  0  0  0  0  0  0  # atno 17320 bound_to 7965
  144.6974  139.8920  143.7453 LP  0  0  0  0  0  0  0  0  0  0  0  0  # atno 17321 bound_to 7965
  139.7232  143.9190  152.2993 LP  0  0  0  0  0  0  0  0  0  0  0  0  # atno 17342 bound_to 10162
  139.8954  144.6942  150.8724 LP  0  0  0  0  0  0  0  0  0  0  0  0  # atno 17343 bound_to 10162
  157.6752  131.0852  150.7512 LP  0  0  0  0  0  0  0  0  0  0  0  0  # atno 17370 bound_to 10713
  156.7574  130.4788  149.5444 LP  0  0  0  0  0  0  0  0  0  0  0  0  # atno 17371 bound_to 10713
  141.0040  133.7134  156.1006 LP  0  0  0  0  0  0  0  0  0  0  0  0  # atno 17394 bound_to 11000
  140.7458  134.4099  157.5548 LP  0  0  0  0  0  0  0  0  0  0  0  0  # atno 17395 bound_to 11000

$$$$
