AV-unprocessed.smi:1699|AV-procd|sdf|6817|dock10
  -GOLD-   22720 7593D 1   1.00000     0.00000
 Structure written by MMmdl.
 37 38  0  0  0  0  0  0  0  0  1 V2000
  146.1319  134.5717  151.4846 C   0  0  0  0  0  0  0  0  0  0  0  0
  146.3040  133.0895  151.7759 C   0  0  0  0  0  0  0  0  0  0  0  0
  145.3463  132.1743  151.2892 C   0  0  0  0  0  0  0  0  0  0  0  0
  145.5083  130.8044  151.5579 C   0  0  0  0  0  0  0  0  0  0  0  0
  146.6287  130.4052  152.3064 C   0  0  0  0  0  0  0  0  0  0  0  0
  147.5480  131.2728  152.7761 N   0  0  0  0  0  0  0  0  0  0  0  0
  147.4065  132.5990  152.5259 C   0  0  0  0  0  0  0  0  0  0  0  0
  148.3335  133.5725  152.9944 N   0  0  0  0  0  0  0  0  0  0  0  0
  149.2260  133.4669  153.9945 C   0  0  0  0  0  0  0  0  0  0  0  0
  149.4113  132.4621  154.6815 O   0  0  0  0  0  0  0  0  0  0  0  0
  149.9088  134.6109  154.1524 N   0  0  0  0  0  0  0  0  0  0  0  0
  150.9721  134.8414  155.1278 C   0  0  2  0  0  0  0  0  0  0  0  0
  150.5054  134.3145  156.4934 C   0  0  0  0  0  0  0  0  0  0  0  0
  151.3240  136.3427  155.1686 C   0  0  1  0  0  0  0  0  0  0  0  0
  152.4152  136.7196  156.1723 C   0  0  0  0  0  0  0  0  0  0  0  0
  153.0137  137.9941  155.5960 C   0  0  0  0  0  0  0  0  0  0  0  0
  152.4853  138.0390  154.1601 C   0  0  0  0  0  0  0  0  0  0  0  0
  151.9033  136.7624  153.9425 O   0  0  0  0  0  0  0  0  0  0  0  0
  145.2336  134.7593  150.8958 H   0  0  0  0  0  0  0  0  0  0  0  0
  146.9861  134.9514  150.9233 H   0  0  0  0  0  0  0  0  0  0  0  0
  146.0479  135.1367  152.4134 H   0  0  0  0  0  0  0  0  0  0  0  0
  144.4965  132.5149  150.7162 H   0  0  0  0  0  0  0  0  0  0  0  0
  144.7932  130.0791  151.1998 H   0  0  0  0  0  0  0  0  0  0  0  0
  146.7918  129.3624  152.5352 H   0  0  0  0  0  0  0  0  0  0  0  0
  148.3102  134.4572  152.5100 H   0  0  0  0  0  0  0  0  0  0  0  0
  149.6877  135.3809  153.5384 H   0  0  0  0  0  0  0  0  0  0  0  0
  151.8627  134.2777  154.8437 H   0  0  0  0  0  0  0  0  0  0  0  0
  151.2888  134.4102  157.2455 H   0  0  0  0  0  0  0  0  0  0  0  0
  150.2400  133.2583  156.4353 H   0  0  0  0  0  0  0  0  0  0  0  0
  149.6311  134.8587  156.8524 H   0  0  0  0  0  0  0  0  0  0  0  0
  150.4280  136.9385  155.3549 H   0  0  0  0  0  0  0  0  0  0  0  0
  152.0287  136.8540  157.1830 H   0  0  0  0  0  0  0  0  0  0  0  0
  153.1806  135.9432  156.2065 H   0  0  0  0  0  0  0  0  0  0  0  0
  152.6938  138.8762  156.1521 H   0  0  0  0  0  0  0  0  0  0  0  0
  154.1033  137.9563  155.6225 H   0  0  0  0  0  0  0  0  0  0  0  0
  151.7151  138.8049  154.0580 H   0  0  0  0  0  0  0  0  0  0  0  0
  153.2687  138.2439  153.4303 H   0  0  0  0  0  0  0  0  0  0  0  0
  1  2  1  0  0  0  0
  1 19  1  0  0  0  0
  1 20  1  0  0  0  0
  1 21  1  0  0  0  0
  2  7  1  0  0  0  0
  2  3  2  0  0  0  0
  3  4  1  0  0  0  0
  3 22  1  0  0  0  0
  4  5  2  0  0  0  0
  4 23  1  0  0  0  0
  5  6  1  0  0  0  0
  5 24  1  0  0  0  0
  6  7  2  0  0  0  0
  7  8  1  0  0  0  0
  8  9  1  0  0  0  0
  8 25  1  0  0  0  0
  9 10  2  0  0  0  0
  9 11  1  0  0  0  0
 11 12  1  0  0  0  0
 11 26  1  0  0  0  0
 12 13  1  0  0  0  0
 12 14  1  0  0  0  0
 12 27  1  0  0  0  0
 13 28  1  0  0  0  0
 13 29  1  0  0  0  0
 13 30  1  0  0  0  0
 14 18  1  0  0  0  0
 14 15  1  0  0  0  0
 14 31  1  0  0  0  0
 15 16  1  0  0  0  0
 15 32  1  0  0  0  0
 15 33  1  0  0  0  0
 16 17  1  0  0  0  0
 16 34  1  0  0  0  0
 16 35  1  0  0  0  0
 17 18  1  0  0  0  0
 17 36  1  0  0  0  0
 17 37  1  0  0  0  0
M  END
> <s_m_source_file>
AV-unprocessed.smi

> <i_m_source_file_index>
1699

> <i_lp_mmshare_version>
43012

> <i_f3d_flags>
0

> <s_epik_input>
W0NIM11jMVtjSF1bY0hdW2NIXW5jMVtOSF1DKD1PKVtOSF1bQ0BIXShbQ0gzXSlbQ0BASF0yW0NIMl1bQ0gyXVtDSDJdTzI=

> <s_epik_cmdline>
J2VwaWtfcHl0aG9uJywgJy1waCcsICc3LjAnLCAnLXRuJywgJzgnLCAnLW1hJywgJzIwMCcsICctbWV0YWxfYmluZGluZycsICctaW1hZScsICc8aW5maWxlLm1hZT4nLCAnLW9tYWUnLCAnPG91dGZpbGUubWFlPic=

> <r_lp_tautomer_probability>
1

> <r_epik_Ionization_Penalty>
5.52788e-05

> <r_epik_Ionization_Penalty_Charging>
0

> <r_epik_Ionization_Penalty_Neutral>
5.52788e-05

> <r_epik_State_Penalty>
-0

> <r_epik_Charging_Adjusted_Penalty>
0

> <i_epik_Tot_Q>
0

> <i_epik_Tot_abs_Q>
0

> <r_epik_Metal_State_Penalty>
-0

> <b_epik_Metal_Only>
0

> <s_lp_Force_Field>
OPLS_2005

> <r_lp_Energy>
21.1127

> <b_lp_Chiralities_Consistent>
1

> <s_lp_Variant>
AV-unprocessed.smi:1699-3

> <Gold.Version>
5.8.1

> <Gold.Id.Protein>
6NUR|6NUR_protein|mol2

> <Gold.PLP.Fitness>
38.9892

> <Gold.PLP.PLP>
-30.4380

> <Gold.PLP.part.hbond>
-3.0000

> <Gold.PLP.part.metal>
0.0000

> <Gold.PLP.part.buried>
-5.8915

> <Gold.PLP.part.nonpolar>
-22.9210

> <Gold.PLP.part.repulsive>
1.2248

> <Gold.PLP.ligand.clash>
0.0000

> <Gold.PLP.ligand.torsion>
0.2354

> <Gold.PLP.Chemscore.Hbond>
3.0000

> <Gold.PLP.Chemscore.CHOScore>
0.0000

> <Gold.PLP.Chemscore.Metal>
0.0000

> <Gold.Chemscore.Hbonds>
donor molecule, donor type, donor heavy atom, donor atom, acceptor molecule, acceptor atom, score
      L1  H     8    25       P1  7948  0.85
      L1  H    11    26       P1  7948  0.60
      P1  H 10752 10764       L1    18  0.20

> <Gold.PLP.Chemscore.Internal.Correction>
0.0220

> <Gold.Rescore>
     Score         DG    S(hbond)    S(metal)    S(lipo)     H(rot)  DE(clash)    DE(int)     intcor
     14.20     -16.98       2.19        0.00      62.50       1.22       0.14       2.64       ----

> <Gold.Chemscore.Fitness>
14.1964

> <Gold.Chemscore.DG>
-16.9806

> <Gold.Chemscore.ZeroCoef>
-5.4800

> <Gold.Chemscore.Hbond>
2.1890

> <Gold.Chemscore.Metal>
0.0000

> <Gold.Chemscore.Lipo>
62.5009

> <Gold.Chemscore.Internal_Hbond>
0.0000

> <Gold.Chemscore.DEClash>
0.1417

> <Gold.Chemscore.DEInternal>
2.6426

> <Gold.Chemscore.Rot>
1.2200

> <Gold.Chemscore.Internal.Correction>
   9.000000E+99

> <Gold.Chemscore.Hbonds>
donor molecule, donor type, donor heavy atom, donor atom, acceptor molecule, acceptor atom, score
      L1  H     8    25       P1  7948  0.14
      L1  H    11    26       P1  7948  0.04

> <Gold.Chemscore.Hbond.Weighted>
-7.3112

> <Gold.Chemscore.Metal.Weighted>
-0.0000

> <Gold.Chemscore.Lipo.Weighted>
-7.3126

> <Gold.Chemscore.Internal_Hbond.Weighted>
0.0000

> <Gold.Chemscore.DEClash.Weighted>
0.1417

> <Gold.Chemscore.DEInternal.Weighted>
2.6426

> <Gold.Chemscore.Rot.Weighted>
3.1232

> <Gold.Chemscore.Internal.Correction.Weighted>
   9.000000E+99

> <Gold.Protein.RotatedTorsions>
[ 6907 6896 6895 6894 ] final    0.69 input  -60.11 | X-H torsion
[ 7974 7965 7964 7962 ] final   91.85 input  175.53 | X-H torsion
[ 8008 7997 7996 7995 ] final  -40.19 input   59.86 | X-H torsion
[ 10167 10162 10161 10158 ] final -179.87 input  -65.29 | X-H torsion
[ 10718 10713 10712 10709 ] final   10.87 input   66.30 | X-H torsion
[ 10763 10752 10751 10750 ] final  -79.08 input  -60.55 | X-H torsion
[ 11005 11000 10999 10996 ] final   56.53 input  -57.11 | X-H torsion

> <Gold.Protein.ActiveResidues>
 VAL166  LYS551  ARG553  GLY616  TRP617  ASP618  TYR619  PRO620  LYS621  CYS622 
 ASP623  PHE694  ASN695  SER759  ASP760  ASP761  ALA762  ILE779  LEU786  VAL792 
 PHE793  MET794  SER795  GLU796  ALA797  LYS798  CYS799  TRP800  GLU811  SER814 

> <Gold.Protein.RotatedAtoms>
  151.5805  135.1058  160.0015 H   0  0  0  0  0  0  0  0  0  0  0  0  # atno 6907 bound_to 6896
  152.4356  133.7351  159.6620 H   0  0  0  0  0  0  0  0  0  0  0  0  # atno 6908 bound_to 6896
  150.8254  133.8112  159.3144 H   0  0  0  0  0  0  0  0  0  0  0  0  # atno 6909 bound_to 6896
  145.5002  139.2276  143.2782 H   0  0  0  0  0  0  0  0  0  0  0  0  # atno 7974 bound_to 7965
  154.4014  140.1532  156.2987 H   0  0  0  0  0  0  0  0  0  0  0  0  # atno 8008 bound_to 7997
  155.8720  140.3448  155.5806 H   0  0  0  0  0  0  0  0  0  0  0  0  # atno 8009 bound_to 7997
  155.7763  140.0837  157.2072 H   0  0  0  0  0  0  0  0  0  0  0  0  # atno 8010 bound_to 7997
  139.5367  144.2478  152.0809 H   0  0  0  0  0  0  0  0  0  0  0  0  # atno 10167 bound_to 10162
  156.9872  130.6028  149.5682 H   0  0  0  0  0  0  0  0  0  0  0  0  # atno 10718 bound_to 10713
  154.5340  135.5708  153.6783 H   0  0  0  0  0  0  0  0  0  0  0  0  # atno 10763 bound_to 10752
  152.9946  135.6212  154.2590 H   0  0  0  0  0  0  0  0  0  0  0  0  # atno 10764 bound_to 10752
  154.2518  135.2859  155.2793 H   0  0  0  0  0  0  0  0  0  0  0  0  # atno 10765 bound_to 10752
  140.0522  134.5721  155.9250 H   0  0  0  0  0  0  0  0  0  0  0  0  # atno 11005 bound_to 11000
  146.2231  140.5802  142.9008 LP  0  0  0  0  0  0  0  0  0  0  0  0  # atno 17320 bound_to 7965
  144.7784  140.5789  143.6622 LP  0  0  0  0  0  0  0  0  0  0  0  0  # atno 17321 bound_to 7965
  140.1950  144.4715  150.6460 LP  0  0  0  0  0  0  0  0  0  0  0  0  # atno 17342 bound_to 10162
  140.6577  143.2242  151.5930 LP  0  0  0  0  0  0  0  0  0  0  0  0  # atno 17343 bound_to 10162
  156.0221  130.5316  150.8305 LP  0  0  0  0  0  0  0  0  0  0  0  0  # atno 17370 bound_to 10713
  157.5484  131.0943  150.9730 LP  0  0  0  0  0  0  0  0  0  0  0  0  # atno 17371 bound_to 10713
  141.1935  133.6579  156.5552 LP  0  0  0  0  0  0  0  0  0  0  0  0  # atno 17394 bound_to 11000
  140.3900  134.7448  157.4715 LP  0  0  0  0  0  0  0  0  0  0  0  0  # atno 17395 bound_to 11000

$$$$
