AV-unprocessed.smi:1527|AV-procd|sdf|6149|dock4
  -GOLD-   22720 6293D 1   1.00000     0.00000
 Structure written by MMmdl.
 31 31  0  0  0  0  0  0  0  0  1 V2000
  153.1387  142.4165  162.3596 C   0  0  0  0  0  0  0  0  0  0  0  0
  152.5164  143.1121  161.1397 C   0  0  0  0  0  0  0  0  0  0  0  0
  152.9498  142.5002  159.7946 C   0  0  2  0  0  0  0  0  0  0  0  0
  152.5075  143.3645  158.6043 C   0  0  0  0  0  0  0  0  0  0  0  0
  152.4044  141.1518  159.6567 N   0  0  0  0  0  0  0  0  0  0  0  0
  153.1132  140.0454  159.3854 C   0  0  0  0  0  0  0  0  0  0  0  0
  154.3278  140.0508  159.1810 O   0  0  0  0  0  0  0  0  0  0  0  0
  152.3173  138.7346  159.3162 C   0  0  0  0  0  0  0  0  0  0  0  0
  152.0153  138.3225  157.9383 N   0  0  0  0  0  0  0  0  0  0  0  0
  152.6309  139.0958  156.9658 N   0  0  0  0  0  0  0  0  0  0  0  0
  152.4515  138.8238  155.7175 C   0  0  0  0  0  0  0  0  0  0  0  0
  153.0836  139.6126  154.7881 O   0  0  0  0  0  0  0  0  0  0  0  0
  151.6101  137.7225  155.3041 C   0  0  0  0  0  0  0  0  0  0  0  0
  151.0117  136.9771  156.2588 C   0  0  0  0  0  0  0  0  0  0  0  0
  151.1952  137.2564  157.6841 C   0  0  0  0  0  0  0  0  0  0  0  0
  150.6626  136.5944  158.5750 O   0  0  0  0  0  0  0  0  0  0  0  0
  152.4858  140.3236  154.6151 H   0  0  0  0  0  0  0  0  0  0  0  0
  152.8368  142.9114  163.2827 H   0  0  0  0  0  0  0  0  0  0  0  0
  154.2278  142.4393  162.3115 H   0  0  0  0  0  0  0  0  0  0  0  0
  152.8292  141.3734  162.4299 H   0  0  0  0  0  0  0  0  0  0  0  0
  151.4293  143.0867  161.2258 H   0  0  0  0  0  0  0  0  0  0  0  0
  152.7969  144.1658  161.1602 H   0  0  0  0  0  0  0  0  0  0  0  0
  154.0405  142.4560  159.7908 H   0  0  0  0  0  0  0  0  0  0  0  0
  152.9192  144.3715  158.6770 H   0  0  0  0  0  0  0  0  0  0  0  0
  151.4214  143.4517  158.5572 H   0  0  0  0  0  0  0  0  0  0  0  0
  152.8494  142.9386  157.6604 H   0  0  0  0  0  0  0  0  0  0  0  0
  151.4104  141.0493  159.8023 H   0  0  0  0  0  0  0  0  0  0  0  0
  152.8611  137.9391  159.8298 H   0  0  0  0  0  0  0  0  0  0  0  0
  151.3945  138.8714  159.8827 H   0  0  0  0  0  0  0  0  0  0  0  0
  151.4696  137.5091  154.2546 H   0  0  0  0  0  0  0  0  0  0  0  0
  150.3804  136.1516  155.9645 H   0  0  0  0  0  0  0  0  0  0  0  0
  1  2  1  0  0  0  0
  1 18  1  0  0  0  0
  1 19  1  0  0  0  0
  1 20  1  0  0  0  0
  2  3  1  0  0  0  0
  2 21  1  0  0  0  0
  2 22  1  0  0  0  0
  3  4  1  0  0  0  0
  3  5  1  0  0  0  0
  3 23  1  0  0  0  0
  4 24  1  0  0  0  0
  4 25  1  0  0  0  0
  4 26  1  0  0  0  0
  5  6  1  0  0  0  0
  5 27  1  0  0  0  0
  6  7  2  0  0  0  0
  6  8  1  0  0  0  0
  8 28  1  0  0  0  0
  8 29  1  0  0  0  0
  8  9  1  0  0  0  0
  9 10  1  0  0  0  0
  9 15  1  0  0  0  0
 10 11  2  0  0  0  0
 11 12  1  0  0  0  0
 11 13  1  0  0  0  0
 12 17  1  0  0  0  0
 13 30  1  0  0  0  0
 13 14  2  0  0  0  0
 14 31  1  0  0  0  0
 14 15  1  0  0  0  0
 15 16  2  0  0  0  0
M  END
> <s_m_source_file>
AV-unprocessed.smi

> <i_m_source_file_index>
1527

> <i_lp_mmshare_version>
43012

> <i_f3d_flags>
0

> <s_epik_input>
W0NIM11bQ0gyXVtDQEhdKFtDSDNdKVtOSF1DKD1PKVtDSDJdbjFbbkhdYyg9TylbY0hdW2NIXWMxPU8=

> <s_epik_cmdline>
J2VwaWtfcHl0aG9uJywgJy1waCcsICc3LjAnLCAnLXRuJywgJzgnLCAnLW1hJywgJzIwMCcsICctbWV0YWxfYmluZGluZycsICctaW1hZScsICc8aW5maWxlLm1hZT4nLCAnLW9tYWUnLCAnPG91dGZpbGUubWFlPic=

> <r_lp_tautomer_probability>
0.9996

> <r_epik_Ionization_Penalty>
2.12171

> <r_epik_Ionization_Penalty_Charging>
3.79077e-08

> <r_epik_Ionization_Penalty_Neutral>
2.12171

> <r_epik_State_Penalty>
1.69857

> <r_epik_Charging_Adjusted_Penalty>
1.69857

> <i_epik_Tot_Q>
0

> <i_epik_Tot_abs_Q>
0

> <r_epik_Metal_State_Penalty>
1.69857

> <b_epik_Metal_Only>
0

> <s_lp_Force_Field>
OPLS_2005

> <r_lp_Energy>
14.661

> <b_lp_Chiralities_Consistent>
1

> <s_lp_Variant>
AV-unprocessed.smi:1527-3

> <Gold.Version>
5.8.1

> <Gold.Id.Protein>
6NUR|6NUR_protein|mol2

> <Gold.PLP.Fitness>
40.0661

> <Gold.PLP.PLP>
-32.2931

> <Gold.PLP.part.hbond>
-4.9999

> <Gold.PLP.part.metal>
0.0000

> <Gold.PLP.part.buried>
-4.8916

> <Gold.PLP.part.nonpolar>
-23.3602

> <Gold.PLP.part.repulsive>
0.1330

> <Gold.PLP.ligand.clash>
0.0000

> <Gold.PLP.ligand.torsion>
0.4284

> <Gold.PLP.Chemscore.Hbond>
2.8720

> <Gold.PLP.Chemscore.CHOScore>
0.0000

> <Gold.PLP.Chemscore.Metal>
0.0000

> <Gold.Chemscore.Hbonds>
donor molecule, donor type, donor heavy atom, donor atom, acceptor molecule, acceptor atom, score
      P1  H  6896  6909       L1    16  0.93
      P1  H  7997  8009       L1     7  0.93
      P1  H  7997  8010       L1    12  1.00

> <Gold.PLP.Chemscore.Internal.Correction>
0.0138

> <Gold.Rescore>
     Score         DG    S(hbond)    S(metal)    S(lipo)     H(rot)  DE(clash)    DE(int)     intcor
     12.34     -13.93       2.32        0.00      62.30       2.58       0.00       1.59       ----

> <Gold.Chemscore.Fitness>
12.3376

> <Gold.Chemscore.DG>
-13.9254

> <Gold.Chemscore.ZeroCoef>
-5.4800

> <Gold.Chemscore.Hbond>
2.3242

> <Gold.Chemscore.Metal>
0.0000

> <Gold.Chemscore.Lipo>
62.2968

> <Gold.Chemscore.Internal_Hbond>
0.0000

> <Gold.Chemscore.DEClash>
0.0000

> <Gold.Chemscore.DEInternal>
1.5878

> <Gold.Chemscore.Rot>
2.5806

> <Gold.Chemscore.Internal.Correction>
   9.000000E+99

> <Gold.Chemscore.Hbonds>
donor molecule, donor type, donor heavy atom, donor atom, acceptor molecule, acceptor atom, score
      P1  H  6896  6909       L1    16  0.84
      P1  H  7997  8009       L1     7  0.86
      P1  H  7997  8010       L1    12  0.26

> <Gold.Chemscore.Hbond.Weighted>
-7.7630

> <Gold.Chemscore.Metal.Weighted>
-0.0000

> <Gold.Chemscore.Lipo.Weighted>
-7.2887

> <Gold.Chemscore.Internal_Hbond.Weighted>
0.0000

> <Gold.Chemscore.DEClash.Weighted>
0.0000

> <Gold.Chemscore.DEInternal.Weighted>
1.5878

> <Gold.Chemscore.Rot.Weighted>
6.6063

> <Gold.Chemscore.Internal.Correction.Weighted>
   9.000000E+99

> <Gold.Protein.RotatedTorsions>
[ 6907 6896 6895 6894 ] final   78.61 input  -60.11 | X-H torsion
[ 7974 7965 7964 7962 ] final  -24.38 input  175.53 | X-H torsion
[ 8008 7997 7996 7995 ] final  114.93 input   59.86 | X-H torsion
[ 10167 10162 10161 10158 ] final   71.34 input  -65.29 | X-H torsion
[ 10718 10713 10712 10709 ] final  -92.49 input   66.30 | X-H torsion
[ 10763 10752 10751 10750 ] final   19.70 input  -60.55 | X-H torsion
[ 11005 11000 10999 10996 ] final  153.74 input  -57.11 | X-H torsion

> <Gold.Protein.ActiveResidues>
 VAL166  LYS551  ARG553  GLY616  TRP617  ASP618  TYR619  PRO620  LYS621  CYS622 
 ASP623  PHE694  ASN695  SER759  ASP760  ASP761  ALA762  ILE779  LEU786  VAL792 
 PHE793  MET794  SER795  GLU796  ALA797  LYS798  CYS799  TRP800  GLU811  SER814 

> <Gold.Protein.RotatedAtoms>
  152.5166  134.3638  159.9293 H   0  0  0  0  0  0  0  0  0  0  0  0  # atno 6907 bound_to 6896
  151.3590  133.3890  159.2695 H   0  0  0  0  0  0  0  0  0  0  0  0  # atno 6908 bound_to 6896
  150.9667  134.9065  159.7821 H   0  0  0  0  0  0  0  0  0  0  0  0  # atno 6909 bound_to 6896
  146.1558  140.4744  142.8592 H   0  0  0  0  0  0  0  0  0  0  0  0  # atno 7974 bound_to 7965
  156.2351  140.2949  156.0290 H   0  0  0  0  0  0  0  0  0  0  0  0  # atno 8008 bound_to 7997
  155.2115  140.0412  157.2951 H   0  0  0  0  0  0  0  0  0  0  0  0  # atno 8009 bound_to 7997
  154.6064  140.2440  155.7733 H   0  0  0  0  0  0  0  0  0  0  0  0  # atno 8010 bound_to 7997
  140.0472  144.5341  150.7390 H   0  0  0  0  0  0  0  0  0  0  0  0  # atno 10167 bound_to 10162
  156.0003  130.4989  150.5634 H   0  0  0  0  0  0  0  0  0  0  0  0  # atno 10718 bound_to 10713
  153.1139  135.6703  153.9451 H   0  0  0  0  0  0  0  0  0  0  0  0  # atno 10763 bound_to 10752
  153.8986  135.3038  155.3449 H   0  0  0  0  0  0  0  0  0  0  0  0  # atno 10764 bound_to 10752
  154.7557  135.5013  153.9448 H   0  0  0  0  0  0  0  0  0  0  0  0  # atno 10765 bound_to 10752
  140.1425  134.8729  157.2350 H   0  0  0  0  0  0  0  0  0  0  0  0  # atno 11005 bound_to 11000
  144.7961  140.6126  143.6509 LP  0  0  0  0  0  0  0  0  0  0  0  0  # atno 17320 bound_to 7965
  145.4712  139.1503  143.3813 LP  0  0  0  0  0  0  0  0  0  0  0  0  # atno 17321 bound_to 7965
  140.7233  143.2611  151.4204 LP  0  0  0  0  0  0  0  0  0  0  0  0  # atno 17342 bound_to 10162
  139.5976  144.1364  152.2162 LP  0  0  0  0  0  0  0  0  0  0  0  0  # atno 17343 bound_to 10162
  157.3540  131.0738  151.1691 LP  0  0  0  0  0  0  0  0  0  0  0  0  # atno 17370 bound_to 10713
  157.2498  130.6608  149.5926 LP  0  0  0  0  0  0  0  0  0  0  0  0  # atno 17371 bound_to 10713
  140.2704  134.3467  155.7375 LP  0  0  0  0  0  0  0  0  0  0  0  0  # atno 17394 bound_to 11000
  141.2188  133.7420  156.9214 LP  0  0  0  0  0  0  0  0  0  0  0  0  # atno 17395 bound_to 11000

$$$$
