AV-unprocessed.smi:2439|AV-procd|sdf|9612|dock2
  -GOLD-   2272013243D 1   1.00000     0.00000
 Structure written by MMmdl.
 40 42  0  0  0  0  0  0  0  0  1 V2000
  154.1598  141.0140  161.1659 N   0  0  0  0  0  0  0  0  0  0  0  0
  153.4005  141.7544  160.7033 C   0  0  0  0  0  0  0  0  0  0  0  0
  152.4441  142.6875  160.1201 C   0  0  0  0  0  0  0  0  0  0  0  0
  152.1816  143.9021  160.7878 C   0  0  0  0  0  0  0  0  0  0  0  0
  151.2587  144.8060  160.2307 C   0  0  0  0  0  0  0  0  0  0  0  0
  150.6317  144.4564  159.0210 C   0  0  0  0  0  0  0  0  0  0  0  0
  150.8732  143.2986  158.3717 N   0  0  0  0  0  0  0  0  0  0  0  0
  151.7630  142.4232  158.9013 C   0  0  0  0  0  0  0  0  0  0  0  0
  151.9938  141.2263  158.2003 N   0  0  0  0  0  0  0  0  0  0  0  0
  151.0794  140.7744  157.1610 C   0  0  0  0  0  0  0  0  0  0  0  0
  151.8400  140.3064  155.9059 C   0  0  1  0  0  0  0  0  0  0  0  0
  152.4936  138.9223  156.0816 C   0  0  0  0  0  0  0  0  0  0  0  0
  151.5201  137.8367  156.1023 N   0  0  0  0  0  0  0  0  0  0  0  0
  152.1814  136.5405  156.2470 C   0  0  0  0  0  0  0  0  0  0  0  0
  151.1821  135.3748  156.3103 C   0  0  0  0  0  0  0  0  0  0  0  0
  150.2847  135.3754  155.0649 C   0  0  0  0  0  0  0  0  0  0  0  0
  149.6345  136.7558  154.8847 C   0  0  0  0  0  0  0  0  0  0  0  0
  150.6967  137.8754  154.8905 C   0  0  1  0  0  0  0  0  0  0  0  0
  150.0257  139.2529  154.7216 C   0  0  0  0  0  0  0  0  0  0  0  0
  151.0036  140.2901  154.7472 O   0  0  0  0  0  0  0  0  0  0  0  0
  152.6789  144.1431  161.7166 H   0  0  0  0  0  0  0  0  0  0  0  0
  151.0368  145.7433  160.7189 H   0  0  0  0  0  0  0  0  0  0  0  0
  149.9168  145.1233  158.5622 H   0  0  0  0  0  0  0  0  0  0  0  0
  152.8794  140.7513  158.3017 H   0  0  0  0  0  0  0  0  0  0  0  0
  150.4936  139.9449  157.5585 H   0  0  0  0  0  0  0  0  0  0  0  0
  150.3723  141.5669  156.9161 H   0  0  0  0  0  0  0  0  0  0  0  0
  152.6364  141.0263  155.7129 H   0  0  0  0  0  0  0  0  0  0  0  0
  153.1969  138.7613  155.2632 H   0  0  0  0  0  0  0  0  0  0  0  0
  153.0837  138.9102  156.9990 H   0  0  0  0  0  0  0  0  0  0  0  0
  152.8696  136.3812  155.4154 H   0  0  0  0  0  0  0  0  0  0  0  0
  152.7877  136.5381  157.1534 H   0  0  0  0  0  0  0  0  0  0  0  0
  151.7145  134.4267  156.3899 H   0  0  0  0  0  0  0  0  0  0  0  0
  150.5692  135.4658  157.2079 H   0  0  0  0  0  0  0  0  0  0  0  0
  150.8808  135.1339  154.1841 H   0  0  0  0  0  0  0  0  0  0  0  0
  149.5197  134.6033  155.1480 H   0  0  0  0  0  0  0  0  0  0  0  0
  149.0689  136.7769  153.9526 H   0  0  0  0  0  0  0  0  0  0  0  0
  148.9156  136.9254  155.6877 H   0  0  0  0  0  0  0  0  0  0  0  0
  151.3469  137.7205  154.0276 H   0  0  0  0  0  0  0  0  0  0  0  0
  149.4995  139.3014  153.7681 H   0  0  0  0  0  0  0  0  0  0  0  0
  149.2775  139.4220  155.4965 H   0  0  0  0  0  0  0  0  0  0  0  0
  1  2  3  0  0  0  0
  2  3  1  0  0  0  0
  3  8  1  0  0  0  0
  3  4  2  0  0  0  0
  4  5  1  0  0  0  0
  4 21  1  0  0  0  0
  5  6  2  0  0  0  0
  5 22  1  0  0  0  0
  6  7  1  0  0  0  0
  6 23  1  0  0  0  0
  7  8  2  0  0  0  0
  8  9  1  0  0  0  0
  9 10  1  0  0  0  0
  9 24  1  0  0  0  0
 10 11  1  0  0  0  0
 10 25  1  0  0  0  0
 10 26  1  0  0  0  0
 11 20  1  0  0  0  0
 11 12  1  0  0  0  0
 11 27  1  0  0  0  0
 12 13  1  0  0  0  0
 12 28  1  0  0  0  0
 12 29  1  0  0  0  0
 13 18  1  0  0  0  0
 13 14  1  0  0  0  0
 14 15  1  0  0  0  0
 14 30  1  0  0  0  0
 14 31  1  0  0  0  0
 15 16  1  0  0  0  0
 15 32  1  0  0  0  0
 15 33  1  0  0  0  0
 16 17  1  0  0  0  0
 16 34  1  0  0  0  0
 16 35  1  0  0  0  0
 17 18  1  0  0  0  0
 17 36  1  0  0  0  0
 17 37  1  0  0  0  0
 18 19  1  0  0  0  0
 18 38  1  0  0  0  0
 19 20  1  0  0  0  0
 19 39  1  0  0  0  0
 19 40  1  0  0  0  0
M  END
> <s_m_source_file>
AV-unprocessed.smi

> <i_m_source_file_index>
2439

> <i_lp_mmshare_version>
43012

> <i_f3d_flags>
0

> <s_epik_input>
TiNDYzFbY0hdW2NIXVtjSF1uYzFbTkhdW0NIMl1bQ0BIXShbQ0gyXTIpT1tDSDJdW0NAQEhdKE4yMylbQ0gyXVtDSDJdW0NIMl1bQ0gyXTM=

> <s_epik_cmdline>
J2VwaWtfcHl0aG9uJywgJy1waCcsICc3LjAnLCAnLXRuJywgJzgnLCAnLW1hJywgJzIwMCcsICctbWV0YWxfYmluZGluZycsICctaW1hZScsICc8aW5maWxlLm1hZT4nLCAnLW9tYWUnLCAnPG91dGZpbGUubWFlPic=

> <r_epik_Ionization_Penalty>
1.22355

> <r_epik_Ionization_Penalty_Charging>
0

> <r_epik_Ionization_Penalty_Neutral>
1.22355

> <r_epik_State_Penalty>
1.29103

> <r_epik_Charging_Adjusted_Penalty>
1.29103

> <i_epik_Tot_Q>
0

> <i_epik_Tot_abs_Q>
0

> <r_epik_Metal_State_Penalty>
1.29103

> <b_epik_Metal_Only>
0

> <s_lp_Force_Field>
OPLS_2005

> <r_lp_Energy>
40.6054

> <b_lp_Chiralities_Consistent>
1

> <s_lp_Variant>
AV-unprocessed.smi:2439-10

> <Gold.Version>
5.8.1

> <Gold.Id.Protein>
6NUR|6NUR_protein|mol2

> <Gold.PLP.Fitness>
43.3599

> <Gold.PLP.PLP>
-38.1161

> <Gold.PLP.part.hbond>
-0.9382

> <Gold.PLP.part.metal>
0.0000

> <Gold.PLP.part.buried>
-6.0097

> <Gold.PLP.part.nonpolar>
-31.9889

> <Gold.PLP.part.repulsive>
0.2908

> <Gold.PLP.ligand.clash>
0.0000

> <Gold.PLP.ligand.torsion>
0.2965

> <Gold.PLP.Chemscore.Hbond>
0.9913

> <Gold.PLP.Chemscore.CHOScore>
0.9506

> <Gold.PLP.Chemscore.Metal>
0.0000

> <Gold.Chemscore.Hbonds>
donor molecule, donor type, donor heavy atom, donor atom, acceptor molecule, acceptor atom, score
      P1  H  7989  7998       L1    20  0.96
      L1  C     6    23       P1  8029  1.00

> <Gold.PLP.Chemscore.Internal.Correction>
0.0113

> <Gold.Rescore>
     Score         DG    S(hbond)    S(metal)    S(lipo)     H(rot)  DE(clash)    DE(int)     intcor
     16.56     -16.85       0.96        0.00      97.18       1.25       0.10       0.18       ----

> <Gold.Chemscore.Fitness>
16.5603

> <Gold.Chemscore.DG>
-16.8451

> <Gold.Chemscore.ZeroCoef>
-5.4800

> <Gold.Chemscore.Hbond>
0.9554

> <Gold.Chemscore.Metal>
0.0000

> <Gold.Chemscore.Lipo>
97.1809

> <Gold.Chemscore.Internal_Hbond>
0.0000

> <Gold.Chemscore.DEClash>
0.1018

> <Gold.Chemscore.DEInternal>
0.1830

> <Gold.Chemscore.Rot>
1.2485

> <Gold.Chemscore.Internal.Correction>
   9.000000E+99

> <Gold.Chemscore.Hbonds>
donor molecule, donor type, donor heavy atom, donor atom, acceptor molecule, acceptor atom, score
      P1  H  7989  7998       L1    20  0.81

> <Gold.Chemscore.Hbond.Weighted>
-3.1910

> <Gold.Chemscore.Metal.Weighted>
-0.0000

> <Gold.Chemscore.Lipo.Weighted>
-11.3702

> <Gold.Chemscore.Internal_Hbond.Weighted>
0.0000

> <Gold.Chemscore.DEClash.Weighted>
0.1018

> <Gold.Chemscore.DEInternal.Weighted>
0.1830

> <Gold.Chemscore.Rot.Weighted>
3.1961

> <Gold.Chemscore.Internal.Correction.Weighted>
   9.000000E+99

> <Gold.Protein.RotatedTorsions>
[ 6907 6896 6895 6894 ] final  -44.51 input  -60.11 | X-H torsion
[ 7974 7965 7964 7962 ] final    0.02 input  175.53 | X-H torsion
[ 8008 7997 7996 7995 ] final   59.45 input   59.86 | X-H torsion
[ 10167 10162 10161 10158 ] final -119.90 input  -65.29 | X-H torsion
[ 10718 10713 10712 10709 ] final   79.08 input   66.30 | X-H torsion
[ 10763 10752 10751 10750 ] final -163.33 input  -60.55 | X-H torsion
[ 11005 11000 10999 10996 ] final  113.58 input  -57.11 | X-H torsion

> <Gold.Protein.ActiveResidues>
 VAL166  LYS551  ARG553  GLY616  TRP617  ASP618  TYR619  PRO620  LYS621  CYS622 
 ASP623  PHE694  ASN695  SER759  ASP760  ASP761  ALA762  ILE779  LEU786  VAL792 
 PHE793  MET794  SER795  GLU796  ALA797  LYS798  CYS799  TRP800  GLU811  SER814 

> <Gold.Protein.RotatedAtoms>
  150.9320  134.8735  159.7557 H   0  0  0  0  0  0  0  0  0  0  0  0  # atno 6907 bound_to 6896
  152.5042  134.4065  159.9444 H   0  0  0  0  0  0  0  0  0  0  0  0  # atno 6908 bound_to 6896
  151.4091  133.3693  159.2776 H   0  0  0  0  0  0  0  0  0  0  0  0  # atno 6909 bound_to 6896
  146.2431  140.1200  142.8341 H   0  0  0  0  0  0  0  0  0  0  0  0  # atno 7974 bound_to 7965
  155.5664  140.3489  155.4504 H   0  0  0  0  0  0  0  0  0  0  0  0  # atno 8008 bound_to 7997
  156.0476  140.1310  157.0112 H   0  0  0  0  0  0  0  0  0  0  0  0  # atno 8009 bound_to 7997
  154.4420  140.1011  156.6314 H   0  0  0  0  0  0  0  0  0  0  0  0  # atno 8010 bound_to 7997
  140.0416  143.5147  152.2127 H   0  0  0  0  0  0  0  0  0  0  0  0  # atno 10167 bound_to 10162
  157.6765  130.9897  150.1880 H   0  0  0  0  0  0  0  0  0  0  0  0  # atno 10718 bound_to 10713
  154.7133  135.3010  154.9163 H   0  0  0  0  0  0  0  0  0  0  0  0  # atno 10763 bound_to 10752
  154.0058  135.6701  153.4766 H   0  0  0  0  0  0  0  0  0  0  0  0  # atno 10764 bound_to 10752
  153.0772  135.5028  154.8344 H   0  0  0  0  0  0  0  0  0  0  0  0  # atno 10765 bound_to 10752
  139.8957  134.9552  156.6760 H   0  0  0  0  0  0  0  0  0  0  0  0  # atno 11005 bound_to 11000
  145.0414  140.8948  143.5050 LP  0  0  0  0  0  0  0  0  0  0  0  0  # atno 17320 bound_to 7965
  145.1282  139.2649  143.5553 LP  0  0  0  0  0  0  0  0  0  0  0  0  # atno 17321 bound_to 7965
  139.6010  144.7582  151.3172 LP  0  0  0  0  0  0  0  0  0  0  0  0  # atno 17342 bound_to 10162
  140.7257  143.7010  150.7845 LP  0  0  0  0  0  0  0  0  0  0  0  0  # atno 17343 bound_to 10162
  156.2597  130.3709  149.8143 LP  0  0  0  0  0  0  0  0  0  0  0  0  # atno 17370 bound_to 10713
  156.5892  130.8499  151.3403 LP  0  0  0  0  0  0  0  0  0  0  0  0  # atno 17371 bound_to 10713
  140.7336  133.9038  155.8228 LP  0  0  0  0  0  0  0  0  0  0  0  0  # atno 17394 bound_to 11000
  141.0134  134.0989  157.4198 LP  0  0  0  0  0  0  0  0  0  0  0  0  # atno 17395 bound_to 11000

$$$$
