AV-unprocessed.smi:265|AV-procd|sdf|2026|dock8
  -GOLD-   2262021233D 1   1.00000     0.00000
 Structure written by MMmdl.
 52 56  0  0  0  0  0  0  0  0  1 V2000
  151.3184  133.4492  156.2881 C   0  0  0  0  0  0  0  0  0  0  0  0
  149.9474  134.1277  156.4280 C   0  0  1  0  0  0  0  0  0  0  0  0
  149.8794  134.8848  157.6336 O   0  0  0  0  0  0  0  0  0  0  0  0
  149.0679  136.0405  157.4435 C   0  0  0  0  0  0  0  0  0  0  0  0
  148.4731  135.9034  156.0450 C   0  0  0  0  0  0  0  0  0  0  0  0
  149.5379  135.1016  155.3068 C   0  0  2  0  0  0  0  0  0  0  0  0
  148.9230  134.3983  154.2441 O   0  0  0  0  0  0  0  0  0  0  0  0
  150.7091  135.9631  154.7589 C   0  0  0  0  0  0  0  0  0  0  0  0
  151.1794  136.9824  155.6833 N   0  0  0  0  0  0  0  0  0  0  0  0
  151.9239  136.7811  156.8236 C   0  0  0  0  0  0  0  0  0  0  0  0
  152.2244  137.8619  157.4902 N   0  0  0  0  0  0  0  0  0  0  0  0
  151.6610  138.8899  156.7431 C   0  0  0  0  0  0  0  0  0  0  0  0
  151.6074  140.3053  156.8867 C   0  0  0  0  0  0  0  0  0  0  0  0
  152.1999  140.9599  157.9178 N   0  0  0  0  0  0  0  0  0  0  0  0
  152.2393  140.2891  159.2170 C   0  0  0  0  0  0  0  0  0  0  0  0
  153.2679  140.9566  160.1427 C   0  0  0  0  0  0  0  0  0  0  0  0
  153.0307  142.4706  160.2649 C   0  0  2  0  0  0  0  0  0  0  0  0
  151.8224  142.7246  160.9696 O   0  0  0  0  0  0  0  0  0  0  0  0
  151.6175  144.1029  161.2848 C   0  0  0  0  0  0  0  0  0  0  0  0
  151.8269  145.0207  160.0657 C   0  0  0  0  0  0  0  0  0  0  0  0
  151.4143  146.1777  160.0916 O   0  0  0  0  0  0  0  0  0  0  0  0
  152.5013  144.5305  159.0132 N   0  0  0  0  0  0  0  0  0  0  0  0
  152.9099  143.1365  158.8768 C   0  0  2  0  0  0  0  0  0  0  0  0
  151.9045  142.3902  157.9764 C   0  0  0  0  0  0  0  0  0  0  0  0
  150.9322  141.0046  155.9351 N   0  0  0  0  0  0  0  0  0  0  0  0
  150.3591  140.3691  154.9090 C   0  0  0  0  0  0  0  0  0  0  0  0
  150.3359  139.0614  154.6455 N   0  0  0  0  0  0  0  0  0  0  0  0
  151.0002  138.3524  155.6023 C   0  0  0  0  0  0  0  0  0  0  0  0
  153.8612  142.9077  160.8227 H   0  0  0  0  0  0  0  0  0  0  0  0
  153.8875  143.1199  158.3936 H   0  0  0  0  0  0  0  0  0  0  0  0
  151.3891  132.8979  155.3501 H   0  0  0  0  0  0  0  0  0  0  0  0
  151.4817  132.7415  157.1009 H   0  0  0  0  0  0  0  0  0  0  0  0
  152.1331  134.1725  156.3191 H   0  0  0  0  0  0  0  0  0  0  0  0
  149.1846  133.3511  156.5150 H   0  0  0  0  0  0  0  0  0  0  0  0
  148.3003  136.1181  158.2136 H   0  0  0  0  0  0  0  0  0  0  0  0
  149.7009  136.9261  157.5065 H   0  0  0  0  0  0  0  0  0  0  0  0
  147.5482  135.3274  156.1129 H   0  0  0  0  0  0  0  0  0  0  0  0
  148.2209  136.8597  155.5891 H   0  0  0  0  0  0  0  0  0  0  0  0
  149.0296  134.8998  153.4502 H   0  0  0  0  0  0  0  0  0  0  0  0
  151.5574  135.3289  154.4991 H   0  0  0  0  0  0  0  0  0  0  0  0
  150.4131  136.4638  153.8365 H   0  0  0  0  0  0  0  0  0  0  0  0
  152.2311  135.7990  157.1528 H   0  0  0  0  0  0  0  0  0  0  0  0
  151.2485  140.3261  159.6723 H   0  0  0  0  0  0  0  0  0  0  0  0
  152.4974  139.2367  159.0910 H   0  0  0  0  0  0  0  0  0  0  0  0
  153.2445  140.4912  161.1284 H   0  0  0  0  0  0  0  0  0  0  0  0
  154.2684  140.7835  159.7443 H   0  0  0  0  0  0  0  0  0  0  0  0
  150.6074  144.2321  161.6736 H   0  0  0  0  0  0  0  0  0  0  0  0
  152.3085  144.4009  162.0742 H   0  0  0  0  0  0  0  0  0  0  0  0
  152.6724  145.1420  158.2282 H   0  0  0  0  0  0  0  0  0  0  0  0
  151.9075  142.8397  156.9839 H   0  0  0  0  0  0  0  0  0  0  0  0
  150.8925  142.5118  158.3656 H   0  0  0  0  0  0  0  0  0  0  0  0
  149.8454  140.9985  154.1972 H   0  0  0  0  0  0  0  0  0  0  0  0
  1  2  1  0  0  0  0
  1 31  1  0  0  0  0
  1 32  1  0  0  0  0
  1 33  1  0  0  0  0
  2  6  1  0  0  0  0
  2  3  1  0  0  0  0
  2 34  1  0  0  0  0
  3  4  1  0  0  0  0
  4  5  1  0  0  0  0
  4 35  1  0  0  0  0
  4 36  1  0  0  0  0
  5  6  1  0  0  0  0
  5 37  1  0  0  0  0
  5 38  1  0  0  0  0
  6  7  1  0  0  0  0
  6  8  1  0  0  0  0
  7 39  1  0  0  0  0
  8  9  1  0  0  0  0
  8 40  1  0  0  0  0
  8 41  1  0  0  0  0
  9 28  1  0  0  0  0
  9 10  1  0  0  0  0
 10 11  2  0  0  0  0
 10 42  1  0  0  0  0
 11 12  1  0  0  0  0
 12 28  2  0  0  0  0
 12 13  1  0  0  0  0
 13 14  1  0  0  0  0
 13 25  2  0  0  0  0
 14 24  1  0  0  0  0
 14 15  1  0  0  0  0
 15 16  1  0  0  0  0
 15 43  1  0  0  0  0
 15 44  1  0  0  0  0
 16 17  1  0  0  0  0
 16 45  1  0  0  0  0
 16 46  1  0  0  0  0
 17 29  1  0  0  0  0
 17 23  1  0  0  0  0
 17 18  1  0  0  0  0
 18 19  1  0  0  0  0
 19 20  1  0  0  0  0
 19 47  1  0  0  0  0
 19 48  1  0  0  0  0
 20 21  2  0  0  0  0
 20 22  1  0  0  0  0
 22 23  1  0  0  0  0
 22 49  1  0  0  0  0
 23 30  1  0  0  0  0
 23 24  1  0  0  0  0
 24 50  1  0  0  0  0
 24 51  1  0  0  0  0
 25 26  1  0  0  0  0
 26 27  2  0  0  0  0
 26 52  1  0  0  0  0
 27 28  1  0  0  0  0
M  END
> <s_m_source_file>
AV-unprocessed.smi

> <i_m_source_file_index>
265

> <i_lp_mmshare_version>
43012

> <i_f3d_flags>
0

> <s_epik_input>
W0NIMl0xW0NIMl1PW0NAQEhdKFtDSDNdKVtDQEBdMShbT0hdKVtDSDJdbihbY0hdbjIpYyhjMjMpbltjSF1uYzNOKFtDSDJdW0NIMl00KVtDSDJdW0NAQEhdKFtDQEhdNDUpW05IXUMoPU8pW0NIMl1PNQ==

> <s_epik_cmdline>
J2VwaWtfcHl0aG9uJywgJy1waCcsICc3LjAnLCAnLXRuJywgJzgnLCAnLW1hJywgJzIwMCcsICctbWV0YWxfYmluZGluZycsICctaW1hZScsICc8aW5maWxlLm1hZT4nLCAnLW9tYWUnLCAnPG91dGZpbGUubWFlPic=

> <r_lp_tautomer_probability>
1

> <r_epik_Ionization_Penalty>
0.00221504

> <r_epik_Ionization_Penalty_Charging>
0

> <r_epik_Ionization_Penalty_Neutral>
0.00221504

> <r_epik_State_Penalty>
-0

> <r_epik_Charging_Adjusted_Penalty>
0

> <i_epik_Tot_Q>
0

> <i_epik_Tot_abs_Q>
0

> <r_epik_Metal_State_Penalty>
-0

> <b_epik_Metal_Only>
0

> <s_lp_Force_Field>
OPLS_2005

> <r_lp_Energy>
44.4274

> <b_lp_Chiralities_Consistent>
1

> <s_lp_Variant>
AV-unprocessed.smi:265-12

> <Gold.Version>
5.8.1

> <Gold.Id.Protein>
6NUR|6NUR_protein|mol2

> <Gold.PLP.Fitness>
48.6564

> <Gold.PLP.PLP>
-43.8697

> <Gold.PLP.part.hbond>
-5.0506

> <Gold.PLP.part.metal>
0.0000

> <Gold.PLP.part.buried>
-5.7964

> <Gold.PLP.part.nonpolar>
-32.5346

> <Gold.PLP.part.repulsive>
0.5440

> <Gold.PLP.ligand.clash>
0.0000

> <Gold.PLP.ligand.torsion>
0.7096

> <Gold.PLP.Chemscore.Hbond>
1.9454

> <Gold.PLP.Chemscore.CHOScore>
0.0000

> <Gold.PLP.Chemscore.Metal>
0.0000

> <Gold.Chemscore.Hbonds>
donor molecule, donor type, donor heavy atom, donor atom, acceptor molecule, acceptor atom, score
      L1  H     7    39       P1  7948  0.94
      P1  H  6896  6909       L1     3  0.90
      P1  H  6933  6945       L1    18  0.05

> <Gold.PLP.Chemscore.Internal.Correction>
0.3697

> <Gold.Rescore>
     Score         DG    S(hbond)    S(metal)    S(lipo)     H(rot)  DE(clash)    DE(int)     intcor
     10.14     -15.85       1.71        0.00      89.06       2.25       0.24       5.46       ----

> <Gold.Chemscore.Fitness>
10.1446

> <Gold.Chemscore.DG>
-15.8472

> <Gold.Chemscore.ZeroCoef>
-5.4800

> <Gold.Chemscore.Hbond>
1.7051

> <Gold.Chemscore.Metal>
0.0000

> <Gold.Chemscore.Lipo>
89.0602

> <Gold.Chemscore.Internal_Hbond>
0.0000

> <Gold.Chemscore.DEClash>
0.2399

> <Gold.Chemscore.DEInternal>
5.4628

> <Gold.Chemscore.Rot>
2.2453

> <Gold.Chemscore.Internal.Correction>
   9.000000E+99

> <Gold.Chemscore.Hbonds>
donor molecule, donor type, donor heavy atom, donor atom, acceptor molecule, acceptor atom, score
      L1  H     7    39       P1  7948  0.20
      P1  H  6896  6909       L1     3  0.81
      P1  H  6933  6945       L1    18  0.01

> <Gold.Chemscore.Hbond.Weighted>
-5.6951

> <Gold.Chemscore.Metal.Weighted>
-0.0000

> <Gold.Chemscore.Lipo.Weighted>
-10.4200

> <Gold.Chemscore.Internal_Hbond.Weighted>
0.0000

> <Gold.Chemscore.DEClash.Weighted>
0.2399

> <Gold.Chemscore.DEInternal.Weighted>
5.4628

> <Gold.Chemscore.Rot.Weighted>
5.7479

> <Gold.Chemscore.Internal.Correction.Weighted>
   9.000000E+99

> <Gold.Protein.RotatedTorsions>
[ 6907 6896 6895 6894 ] final   30.45 input  -60.11 | X-H torsion
[ 7974 7965 7964 7962 ] final -144.99 input  175.53 | X-H torsion
[ 8008 7997 7996 7995 ] final -100.05 input   59.86 | X-H torsion
[ 10167 10162 10161 10158 ] final  127.17 input  -65.29 | X-H torsion
[ 10718 10713 10712 10709 ] final  176.79 input   66.30 | X-H torsion
[ 10763 10752 10751 10750 ] final   97.75 input  -60.55 | X-H torsion
[ 11005 11000 10999 10996 ] final -157.89 input  -57.11 | X-H torsion

> <Gold.Protein.ActiveResidues>
 VAL166  LYS551  ARG553  GLY616  TRP617  ASP618  TYR619  PRO620  LYS621  CYS622 
 ASP623  PHE694  ASN695  SER759  ASP760  ASP761  ALA762  ILE779  LEU786  VAL792 
 PHE793  MET794  SER795  GLU796  ALA797  LYS798  CYS799  TRP800  GLU811  SER814 

> <Gold.Protein.RotatedAtoms>
  152.0461  134.9682  160.0574 H   0  0  0  0  0  0  0  0  0  0  0  0  # atno 6907 bound_to 6896
  152.1102  133.4291  159.4635 H   0  0  0  0  0  0  0  0  0  0  0  0  # atno 6908 bound_to 6896
  150.6843  134.2576  159.4579 H   0  0  0  0  0  0  0  0  0  0  0  0  # atno 6909 bound_to 6896
  144.8258  140.5640  143.5548 H   0  0  0  0  0  0  0  0  0  0  0  0  # atno 7974 bound_to 7965
  154.8233  140.0443  157.1426 H   0  0  0  0  0  0  0  0  0  0  0  0  # atno 8008 bound_to 7997
  154.9235  140.3030  155.5184 H   0  0  0  0  0  0  0  0  0  0  0  0  # atno 8009 bound_to 7997
  156.2982  140.2336  156.4288 H   0  0  0  0  0  0  0  0  0  0  0  0  # atno 8010 bound_to 7997
  139.5592  144.6870  151.4092 H   0  0  0  0  0  0  0  0  0  0  0  0  # atno 10167 bound_to 10162
  156.9148  130.9921  151.3014 H   0  0  0  0  0  0  0  0  0  0  0  0  # atno 10718 bound_to 10713
  153.2807  135.4172  155.1075 H   0  0  0  0  0  0  0  0  0  0  0  0  # atno 10763 bound_to 10752
  154.8488  135.3494  154.6116 H   0  0  0  0  0  0  0  0  0  0  0  0  # atno 10764 bound_to 10752
  153.6537  135.7051  153.5258 H   0  0  0  0  0  0  0  0  0  0  0  0  # atno 10765 bound_to 10752
  140.6597  134.4363  157.5234 H   0  0  0  0  0  0  0  0  0  0  0  0  # atno 11005 bound_to 11000
  145.5003  139.1484  143.3661 LP  0  0  0  0  0  0  0  0  0  0  0  0  # atno 17320 bound_to 7965
  146.2564  140.5142  142.8872 LP  0  0  0  0  0  0  0  0  0  0  0  0  # atno 17321 bound_to 7965
  140.6870  143.7951  150.7200 LP  0  0  0  0  0  0  0  0  0  0  0  0  # atno 17342 bound_to 10162
  140.1422  143.4431  152.2186 LP  0  0  0  0  0  0  0  0  0  0  0  0  # atno 17343 bound_to 10162
  157.5944  130.8467  149.8708 LP  0  0  0  0  0  0  0  0  0  0  0  0  # atno 17370 bound_to 10713
  156.0518  130.3716  150.1182 LP  0  0  0  0  0  0  0  0  0  0  0  0  # atno 17371 bound_to 10713
  139.9017  134.8540  156.1868 LP  0  0  0  0  0  0  0  0  0  0  0  0  # atno 17394 bound_to 11000
  141.0475  133.6906  156.1710 LP  0  0  0  0  0  0  0  0  0  0  0  0  # atno 17395 bound_to 11000

$$$$
