AV-unprocessed.smi:2362|AV-procd|sdf|9414|dock7
  -GOLD-   2272013 53D 1   1.00000     0.00000
 Structure written by MMmdl.
 45 46  0  0  0  0  0  0  0  0  2 V2000
  152.1723  145.3998  159.3033 C   0  0  0  0  0  0  0  0  0  0  0  0
  151.8954  143.9622  158.9160 C   0  0  0  0  0  0  0  0  0  0  0  0
  152.4733  142.8908  159.6233 C   0  0  0  0  0  0  0  0  0  0  0  0
  152.1788  141.5741  159.2198 C   0  0  0  0  0  0  0  0  0  0  0  0
  151.3170  141.3595  158.1208 C   0  0  0  0  0  0  0  0  0  0  0  0
  151.0815  139.9963  157.7972 N   0  0  0  0  0  0  0  0  0  0  0  0
  150.7983  139.4675  156.5939 C   0  0  0  0  0  0  0  0  0  0  0  0
  150.7321  140.0964  155.5375 O   0  0  0  0  0  0  0  0  0  0  0  0
  150.5790  138.1462  156.6795 N   0  0  0  0  0  0  0  0  0  0  0  0
  150.2681  137.2545  155.5607 C   0  0  1  0  0  0  0  0  0  0  0  0
  151.3735  137.3742  154.5029 C   0  0  0  0  0  0  0  0  0  0  0  0
  150.1013  135.7903  156.0310 C   0  0  0  0  0  0  0  0  0  0  0  0
  149.0173  135.0653  155.3193 N   0  3  0  0  0  0  0  0  0  0  0  0
  147.6614  135.4556  155.7841 C   0  0  0  0  0  0  0  0  0  0  0  0
  146.5717  134.8062  154.9139 C   0  0  0  0  0  0  0  0  0  0  0  0
  146.7248  133.2798  154.8853 C   0  0  0  0  0  0  0  0  0  0  0  0
  148.1444  132.9032  154.4415 C   0  0  0  0  0  0  0  0  0  0  0  0
  149.1965  133.5893  155.3282 C   0  0  0  0  0  0  0  0  0  0  0  0
  150.7634  142.3985  157.4469 N   0  0  0  0  0  0  0  0  0  0  0  0
  151.0464  143.6601  157.8339 C   0  0  0  0  0  0  0  0  0  0  0  0
  152.8811  145.4590  160.1299 H   0  0  0  0  0  0  0  0  0  0  0  0
  151.2491  145.8925  159.6088 H   0  0  0  0  0  0  0  0  0  0  0  0
  152.5897  145.9461  158.4570 H   0  0  0  0  0  0  0  0  0  0  0  0
  153.1307  143.0698  160.4613 H   0  0  0  0  0  0  0  0  0  0  0  0
  152.6140  140.7409  159.7523 H   0  0  0  0  0  0  0  0  0  0  0  0
  151.1213  139.3540  158.5748 H   0  0  0  0  0  0  0  0  0  0  0  0
  150.6555  137.7156  157.5898 H   0  0  0  0  0  0  0  0  0  0  0  0
  149.3444  137.5880  155.0858 H   0  0  0  0  0  0  0  0  0  0  0  0
  151.1496  136.7581  153.6315 H   0  0  0  0  0  0  0  0  0  0  0  0
  152.3391  137.0541  154.8962 H   0  0  0  0  0  0  0  0  0  0  0  0
  151.4783  138.4034  154.1574 H   0  0  0  0  0  0  0  0  0  0  0  0
  151.0379  135.2409  155.9236 H   0  0  0  0  0  0  0  0  0  0  0  0
  149.8823  135.8048  157.0999 H   0  0  0  0  0  0  0  0  0  0  0  0
  147.5354  135.1667  156.8288 H   0  0  0  0  0  0  0  0  0  0  0  0
  147.5526  136.5397  155.7379 H   0  0  0  0  0  0  0  0  0  0  0  0
  145.5839  135.0747  155.2897 H   0  0  0  0  0  0  0  0  0  0  0  0
  146.6337  135.1987  153.8979 H   0  0  0  0  0  0  0  0  0  0  0  0
  146.5273  132.8705  155.8769 H   0  0  0  0  0  0  0  0  0  0  0  0
  145.9893  132.8387  154.2119 H   0  0  0  0  0  0  0  0  0  0  0  0
  148.2723  131.8210  154.4790 H   0  0  0  0  0  0  0  0  0  0  0  0
  148.2950  133.1972  153.4017 H   0  0  0  0  0  0  0  0  0  0  0  0
  150.1903  133.3265  154.9670 H   0  0  0  0  0  0  0  0  0  0  0  0
  149.1253  133.2177  156.3516 H   0  0  0  0  0  0  0  0  0  0  0  0
  150.5801  144.4500  157.2632 H   0  0  0  0  0  0  0  0  0  0  0  0
  149.0746  135.3566  154.3536 H   0  0  0  0  0  0  0  0  0  0  0  0
  1  2  1  0  0  0  0
  1 21  1  0  0  0  0
  1 22  1  0  0  0  0
  1 23  1  0  0  0  0
  2 20  1  0  0  0  0
  2  3  2  0  0  0  0
  3  4  1  0  0  0  0
  3 24  1  0  0  0  0
  4  5  2  0  0  0  0
  4 25  1  0  0  0  0
  5  6  1  0  0  0  0
  5 19  1  0  0  0  0
  6  7  1  0  0  0  0
  6 26  1  0  0  0  0
  7  8  2  0  0  0  0
  7  9  1  0  0  0  0
  9 10  1  0  0  0  0
  9 27  1  0  0  0  0
 10 11  1  0  0  0  0
 10 12  1  0  0  0  0
 10 28  1  0  0  0  0
 11 29  1  0  0  0  0
 11 30  1  0  0  0  0
 11 31  1  0  0  0  0
 12 13  1  0  0  0  0
 12 32  1  0  0  0  0
 12 33  1  0  0  0  0
 13 18  1  0  0  0  0
 13 14  1  0  0  0  0
 13 45  1  0  0  0  0
 14 15  1  0  0  0  0
 14 34  1  0  0  0  0
 14 35  1  0  0  0  0
 15 16  1  0  0  0  0
 15 36  1  0  0  0  0
 15 37  1  0  0  0  0
 16 17  1  0  0  0  0
 16 38  1  0  0  0  0
 16 39  1  0  0  0  0
 17 18  1  0  0  0  0
 17 40  1  0  0  0  0
 17 41  1  0  0  0  0
 18 42  1  0  0  0  0
 18 43  1  0  0  0  0
 19 20  2  0  0  0  0
 20 44  1  0  0  0  0
M  CHG  1  13   1
M  END
> <s_m_source_file>
AV-unprocessed.smi

> <i_m_source_file_index>
2362

> <i_lp_mmshare_version>
43012

> <i_f3d_flags>
0

> <s_epik_input>
W0NIM11jMVtjSF1bY0hdYyhuW2NIXTEpW05IXUMoPU8pW05IXVtDQEhdKFtDSDNdKVtDSDJdTjJbQ0gyXVtDSDJdW0NIMl1bQ0gyXVtDSDJdMg==

> <s_epik_cmdline>
J2VwaWtfcHl0aG9uJywgJy1waCcsICc3LjAnLCAnLXRuJywgJzgnLCAnLW1hJywgJzIwMCcsICctbWV0YWxfYmluZGluZycsICctaW1hZScsICc8aW5maWxlLm1hZT4nLCAnLW9tYWUnLCAnPG91dGZpbGUubWFlPic=

> <r_epik_Ionization_Penalty>
0.00215987

> <r_epik_Ionization_Penalty_Charging>
0.00211816

> <r_epik_Ionization_Penalty_Neutral>
4.17101e-05

> <r_epik_State_Penalty>
0.00145254

> <r_epik_Charging_Adjusted_Penalty>
0.0035707

> <i_epik_Tot_Q>
1

> <i_epik_Tot_abs_Q>
1

> <r_epik_Metal_State_Penalty>
-0

> <b_epik_Metal_Only>
0

> <s_lp_Force_Field>
OPLS_2005

> <r_lp_Energy>
24.6446

> <b_lp_Chiralities_Consistent>
1

> <s_lp_Variant>
AV-unprocessed.smi:2362-2

> <Gold.Version>
5.8.1

> <Gold.Id.Protein>
6NUR|6NUR_protein|mol2

> <Gold.PLP.Fitness>
47.5518

> <Gold.PLP.PLP>
-37.3830

> <Gold.PLP.part.hbond>
-2.0000

> <Gold.PLP.part.metal>
0.0000

> <Gold.PLP.part.buried>
-4.3028

> <Gold.PLP.part.nonpolar>
-30.5658

> <Gold.PLP.part.repulsive>
0.2672

> <Gold.PLP.ligand.clash>
0.0000

> <Gold.PLP.ligand.torsion>
0.8879

> <Gold.PLP.Chemscore.Hbond>
2.9600

> <Gold.PLP.Chemscore.CHOScore>
1.0000

> <Gold.PLP.Chemscore.Metal>
0.0000

> <Gold.Chemscore.Hbonds>
donor molecule, donor type, donor heavy atom, donor atom, acceptor molecule, acceptor atom, score
      P1  H  7989  7998       L1     8  0.18
      L1  C    20    44       P1  8028  1.00

> <Gold.PLP.Chemscore.Internal.Correction>
0.0646

> <Gold.Rescore>
     Score         DG    S(hbond)    S(metal)    S(lipo)     H(rot)  DE(clash)    DE(int)     intcor
     15.06     -18.29       1.88        0.00      87.32       1.44       0.13       3.11       ----

> <Gold.Chemscore.Fitness>
15.0572

> <Gold.Chemscore.DG>
-18.2943

> <Gold.Chemscore.ZeroCoef>
-5.4800

> <Gold.Chemscore.Hbond>
1.8818

> <Gold.Chemscore.Metal>
0.0000

> <Gold.Chemscore.Lipo>
87.3204

> <Gold.Chemscore.Internal_Hbond>
0.0000

> <Gold.Chemscore.DEClash>
0.1308

> <Gold.Chemscore.DEInternal>
3.1064

> <Gold.Chemscore.Rot>
1.4404

> <Gold.Chemscore.Internal.Correction>
   9.000000E+99

> <Gold.Chemscore.Hbonds>
donor molecule, donor type, donor heavy atom, donor atom, acceptor molecule, acceptor atom, score
      P1  H  7989  7998       L1     8  0.19

> <Gold.Chemscore.Hbond.Weighted>
-6.2854

> <Gold.Chemscore.Metal.Weighted>
-0.0000

> <Gold.Chemscore.Lipo.Weighted>
-10.2165

> <Gold.Chemscore.Internal_Hbond.Weighted>
0.0000

> <Gold.Chemscore.DEClash.Weighted>
0.1308

> <Gold.Chemscore.DEInternal.Weighted>
3.1064

> <Gold.Chemscore.Rot.Weighted>
3.6875

> <Gold.Chemscore.Internal.Correction.Weighted>
   9.000000E+99

> <Gold.Protein.RotatedTorsions>
[ 6907 6896 6895 6894 ] final   38.90 input  -60.11 | X-H torsion
[ 7974 7965 7964 7962 ] final  -30.91 input  175.53 | X-H torsion
[ 8008 7997 7996 7995 ] final  -40.20 input   59.86 | X-H torsion
[ 10167 10162 10161 10158 ] final -100.92 input  -65.29 | X-H torsion
[ 10718 10713 10712 10709 ] final  -40.75 input   66.30 | X-H torsion
[ 10763 10752 10751 10750 ] final   71.45 input  -60.55 | X-H torsion
[ 11005 11000 10999 10996 ] final  -15.25 input  -57.11 | X-H torsion

> <Gold.Protein.ActiveResidues>
 VAL166  LYS551  ARG553  GLY616  TRP617  ASP618  TYR619  PRO620  LYS621  CYS622 
 ASP623  PHE694  ASN695  SER759  ASP760  ASP761  ALA762  ILE779  LEU786  VAL792 
 PHE793  MET794  SER795  GLU796  ALA797  LYS798  CYS799  TRP800  GLU811  SER814 

> <Gold.Protein.RotatedAtoms>
  152.1625  134.8900  160.0540 H   0  0  0  0  0  0  0  0  0  0  0  0  # atno 6907 bound_to 6896
  151.9890  133.3779  159.4145 H   0  0  0  0  0  0  0  0  0  0  0  0  # atno 6908 bound_to 6896
  150.6890  134.3879  159.5107 H   0  0  0  0  0  0  0  0  0  0  0  0  # atno 6909 bound_to 6896
  146.1107  140.5600  142.8779 H   0  0  0  0  0  0  0  0  0  0  0  0  # atno 7974 bound_to 7965
  154.4014  140.1531  156.2988 H   0  0  0  0  0  0  0  0  0  0  0  0  # atno 8008 bound_to 7997
  155.8719  140.3448  155.5805 H   0  0  0  0  0  0  0  0  0  0  0  0  # atno 8009 bound_to 7997
  155.7764  140.0837  157.2072 H   0  0  0  0  0  0  0  0  0  0  0  0  # atno 8010 bound_to 7997
  140.2468  143.3500  152.0751 H   0  0  0  0  0  0  0  0  0  0  0  0  # atno 10167 bound_to 10162
  156.2779  130.4214  149.8367 H   0  0  0  0  0  0  0  0  0  0  0  0  # atno 10718 bound_to 10713
  153.0399  135.5136  154.7594 H   0  0  0  0  0  0  0  0  0  0  0  0  # atno 10763 bound_to 10752
  154.6540  135.2929  154.9953 H   0  0  0  0  0  0  0  0  0  0  0  0  # atno 10764 bound_to 10752
  154.0827  135.6661  153.4893 H   0  0  0  0  0  0  0  0  0  0  0  0  # atno 10765 bound_to 10752
  140.7947  133.8260  155.9413 H   0  0  0  0  0  0  0  0  0  0  0  0  # atno 11005 bound_to 11000
  144.7509  140.5189  143.6802 LP  0  0  0  0  0  0  0  0  0  0  0  0  # atno 17320 bound_to 7965
  145.5669  139.1481  143.3310 LP  0  0  0  0  0  0  0  0  0  0  0  0  # atno 17321 bound_to 7965
  139.5059  144.6804  151.6024 LP  0  0  0  0  0  0  0  0  0  0  0  0  # atno 17342 bound_to 10162
  140.6071  143.9504  150.6426 LP  0  0  0  0  0  0  0  0  0  0  0  0  # atno 17343 bound_to 10162
  156.5825  130.8472  151.3387 LP  0  0  0  0  0  0  0  0  0  0  0  0  # atno 17370 bound_to 10713
  157.7305  130.9686  150.1837 LP  0  0  0  0  0  0  0  0  0  0  0  0  # atno 17371 bound_to 10713
  140.9355  134.1968  157.4834 LP  0  0  0  0  0  0  0  0  0  0  0  0  # atno 17394 bound_to 11000
  139.8727  134.9850  156.5264 LP  0  0  0  0  0  0  0  0  0  0  0  0  # atno 17395 bound_to 11000

$$$$
