AV-unprocessed.smi:1560|AV-procd|sdf|6278|dock8
  -GOLD-   22720 6473D 1   1.00000     0.00000
 Structure written by MMmdl.
 48 49  0  0  0  0  0  0  0  0  2 V2000
  146.7544  139.5759  157.4510 C   0  0  0  0  0  0  0  0  0  0  0  0
  146.4586  140.0437  156.0149 C   0  0  0  0  0  0  0  0  0  0  0  0
  147.2190  139.2788  154.8882 C   0  0  2  0  0  0  0  0  0  0  0  0
  146.8560  139.9561  153.5400 C   0  0  0  0  0  0  0  0  0  0  0  0
  146.7335  137.7990  154.8570 C   0  0  0  0  0  0  0  0  0  0  0  0
  146.8006  137.2074  153.5239 N   0  0  0  0  0  0  0  0  0  0  0  0
  145.7406  136.7544  152.8397 C   0  0  0  0  0  0  0  0  0  0  0  0
  144.5908  136.7978  153.2797 O   0  0  0  0  0  0  0  0  0  0  0  0
  146.0338  136.1889  151.4421 C   0  0  0  0  0  0  0  0  0  0  0  0
  145.5210  134.8246  151.2482 N   0  0  0  0  0  0  0  0  0  0  0  0
  144.4804  134.5884  150.3610 C   0  0  0  0  0  0  0  0  0  0  0  0
  143.9534  133.3608  150.1394 C   0  0  0  0  0  0  0  0  0  0  0  0
  144.4731  132.1953  150.8463 C   0  0  0  0  0  0  0  0  0  0  0  0
  144.0647  131.0438  150.7123 O   0  0  0  0  0  0  0  0  0  0  0  0
  145.5172  132.4741  151.7325 N   0  0  0  0  0  0  0  0  0  0  0  0
  146.0629  133.7372  151.9677 C   0  0  0  0  0  0  0  0  0  0  0  0
  146.9797  133.8740  152.7768 O   0  0  0  0  0  0  0  0  0  0  0  0
  148.7077  139.3482  155.1259 N   0  3  0  0  0  0  0  0  0  0  0  0
  149.5501  138.5120  154.2239 C   0  0  0  0  0  0  0  0  0  0  0  0
  151.0103  138.5070  154.7034 C   0  0  0  0  0  0  0  0  0  0  0  0
  151.5002  139.8397  154.7412 O   0  0  0  0  0  0  0  0  0  0  0  0
  150.7678  140.6429  155.6555 C   0  0  0  0  0  0  0  0  0  0  0  0
  149.2926  140.7158  155.2244 C   0  0  0  0  0  0  0  0  0  0  0  0
  145.9074  131.6979  152.2471 H   0  0  0  0  0  0  0  0  0  0  0  0
  146.1841  140.1671  158.1676 H   0  0  0  0  0  0  0  0  0  0  0  0
  147.8078  139.6892  157.7057 H   0  0  0  0  0  0  0  0  0  0  0  0
  146.4808  138.5321  157.6038 H   0  0  0  0  0  0  0  0  0  0  0  0
  145.3830  140.0032  155.8452 H   0  0  0  0  0  0  0  0  0  0  0  0
  146.6982  141.1065  155.9616 H   0  0  0  0  0  0  0  0  0  0  0  0
  145.7830  140.1286  153.4492 H   0  0  0  0  0  0  0  0  0  0  0  0
  147.1387  139.3419  152.6849 H   0  0  0  0  0  0  0  0  0  0  0  0
  147.3463  140.9234  153.4272 H   0  0  0  0  0  0  0  0  0  0  0  0
  147.3324  137.1792  155.5250 H   0  0  0  0  0  0  0  0  0  0  0  0
  145.7020  137.7280  155.2033 H   0  0  0  0  0  0  0  0  0  0  0  0
  147.7119  137.1368  153.0944 H   0  0  0  0  0  0  0  0  0  0  0  0
  145.5950  136.8626  150.7045 H   0  0  0  0  0  0  0  0  0  0  0  0
  147.1091  136.2194  151.2540 H   0  0  0  0  0  0  0  0  0  0  0  0
  144.0608  135.4235  149.8181 H   0  0  0  0  0  0  0  0  0  0  0  0
  143.1420  133.2412  149.4360 H   0  0  0  0  0  0  0  0  0  0  0  0
  149.2028  137.4815  154.1902 H   0  0  0  0  0  0  0  0  0  0  0  0
  149.5140  138.8973  153.2047 H   0  0  0  0  0  0  0  0  0  0  0  0
  151.0978  138.0416  155.6866 H   0  0  0  0  0  0  0  0  0  0  0  0
  151.6280  137.9246  154.0195 H   0  0  0  0  0  0  0  0  0  0  0  0
  150.8585  140.2404  156.6658 H   0  0  0  0  0  0  0  0  0  0  0  0
  151.2028  141.6424  155.6723 H   0  0  0  0  0  0  0  0  0  0  0  0
  149.2183  141.2275  154.2647 H   0  0  0  0  0  0  0  0  0  0  0  0
  148.7686  141.3264  155.9570 H   0  0  0  0  0  0  0  0  0  0  0  0
  148.8312  138.9481  156.0451 H   0  0  0  0  0  0  0  0  0  0  0  0
  1  2  1  0  0  0  0
  1 25  1  0  0  0  0
  1 26  1  0  0  0  0
  1 27  1  0  0  0  0
  2  3  1  0  0  0  0
  2 28  1  0  0  0  0
  2 29  1  0  0  0  0
  3  4  1  0  0  0  0
  3  5  1  0  0  0  0
  3 18  1  0  0  0  0
  4 30  1  0  0  0  0
  4 31  1  0  0  0  0
  4 32  1  0  0  0  0
  5  6  1  0  0  0  0
  5 33  1  0  0  0  0
  5 34  1  0  0  0  0
  6  7  1  0  0  0  0
  6 35  1  0  0  0  0
  7  8  2  0  0  0  0
  7  9  1  0  0  0  0
  9 10  1  0  0  0  0
  9 36  1  0  0  0  0
  9 37  1  0  0  0  0
 10 16  1  0  0  0  0
 10 11  1  0  0  0  0
 11 12  2  0  0  0  0
 11 38  1  0  0  0  0
 12 13  1  0  0  0  0
 12 39  1  0  0  0  0
 13 14  2  0  0  0  0
 13 15  1  0  0  0  0
 15 24  1  0  0  0  0
 15 16  1  0  0  0  0
 16 17  2  0  0  0  0
 18 23  1  0  0  0  0
 18 19  1  0  0  0  0
 18 48  1  0  0  0  0
 19 20  1  0  0  0  0
 19 40  1  0  0  0  0
 19 41  1  0  0  0  0
 20 21  1  0  0  0  0
 20 42  1  0  0  0  0
 20 43  1  0  0  0  0
 21 22  1  0  0  0  0
 22 23  1  0  0  0  0
 22 44  1  0  0  0  0
 22 45  1  0  0  0  0
 23 46  1  0  0  0  0
 23 47  1  0  0  0  0
M  CHG  1  18   1
M  END
> <s_m_source_file>
AV-unprocessed.smi

> <i_m_source_file_index>
1560

> <i_lp_mmshare_version>
43012

> <i_f3d_flags>
0

> <s_epik_input>
W0NIMl0xW0NIMl1PW0NIMl1bQ0gyXU4xW0NAQF0oW0NIM10pKFtDSDJdW0NIM10pW0NIMl1bTkhdQyg9TylbQ0gyXW4yW2NIXVtjSF1jKD1PKVtuSF1jMj1P

> <s_epik_cmdline>
J2VwaWtfcHl0aG9uJywgJy1waCcsICc3LjAnLCAnLXRuJywgJzgnLCAnLW1hJywgJzIwMCcsICctbWV0YWxfYmluZGluZycsICctaW1hZScsICc8aW5maWxlLm1hZT4nLCAnLW9tYWUnLCAnPG91dGZpbGUubWFlPic=

> <r_lp_tautomer_probability>
0.999537

> <r_epik_Ionization_Penalty>
0.523885

> <r_epik_Ionization_Penalty_Charging>
0.523885

> <r_epik_Ionization_Penalty_Neutral>
8.70177e-08

> <r_epik_State_Penalty>
0.572334

> <r_epik_Charging_Adjusted_Penalty>
1.09622

> <i_epik_Tot_Q>
1

> <i_epik_Tot_abs_Q>
1

> <r_epik_Metal_State_Penalty>
0.938906

> <b_epik_Metal_Only>
0

> <s_lp_Force_Field>
OPLS_2005

> <r_lp_Energy>
29.9369

> <b_lp_Chiralities_Consistent>
1

> <s_lp_Variant>
AV-unprocessed.smi:1560-4

> <Gold.Version>
5.8.1

> <Gold.Id.Protein>
6NUR|6NUR_protein|mol2

> <Gold.PLP.Fitness>
39.7678

> <Gold.PLP.PLP>
-30.1612

> <Gold.PLP.part.hbond>
-2.9911

> <Gold.PLP.part.metal>
0.0000

> <Gold.PLP.part.buried>
1.2195

> <Gold.PLP.part.nonpolar>
-29.7375

> <Gold.PLP.part.repulsive>
1.7471

> <Gold.PLP.ligand.clash>
0.0235

> <Gold.PLP.ligand.torsion>
0.6772

> <Gold.PLP.Chemscore.Hbond>
2.5794

> <Gold.PLP.Chemscore.CHOScore>
0.9999

> <Gold.PLP.Chemscore.Metal>
0.0000

> <Gold.Chemscore.Hbonds>
donor molecule, donor type, donor heavy atom, donor atom, acceptor molecule, acceptor atom, score
      L1  H     6    35       P1  7948  1.00
      P1  H  7989  7998       L1    21  1.00
      P1  H 10785 10796       L1    14  0.15

> <Gold.PLP.Chemscore.Internal.Correction>
0.2464

> <Gold.Rescore>
     Score         DG    S(hbond)    S(metal)    S(lipo)     H(rot)  DE(clash)    DE(int)     intcor
      8.85     -13.76       2.09        0.00      67.18       2.56       3.08       1.83       ----

> <Gold.Chemscore.Fitness>
8.8507

> <Gold.Chemscore.DG>
-13.7613

> <Gold.Chemscore.ZeroCoef>
-5.4800

> <Gold.Chemscore.Hbond>
2.0909

> <Gold.Chemscore.Metal>
0.0000

> <Gold.Chemscore.Lipo>
67.1818

> <Gold.Chemscore.Internal_Hbond>
0.0000

> <Gold.Chemscore.DEClash>
3.0821

> <Gold.Chemscore.DEInternal>
1.8285

> <Gold.Chemscore.Rot>
2.5634

> <Gold.Chemscore.Internal.Correction>
   9.000000E+99

> <Gold.Chemscore.Hbonds>
donor molecule, donor type, donor heavy atom, donor atom, acceptor molecule, acceptor atom, score
      L1  H     6    35       P1  7948  0.93
      P1  H  7989  7998       L1    21  0.30
      P1  H 10785 10796       L1    14  0.14

> <Gold.Chemscore.Hbond.Weighted>
-6.9835

> <Gold.Chemscore.Metal.Weighted>
-0.0000

> <Gold.Chemscore.Lipo.Weighted>
-7.8603

> <Gold.Chemscore.Internal_Hbond.Weighted>
0.0000

> <Gold.Chemscore.DEClash.Weighted>
3.0821

> <Gold.Chemscore.DEInternal.Weighted>
1.8285

> <Gold.Chemscore.Rot.Weighted>
6.5624

> <Gold.Chemscore.Internal.Correction.Weighted>
   9.000000E+99

> <Gold.Protein.RotatedTorsions>
[ 6907 6896 6895 6894 ] final   28.87 input  -60.11 | X-H torsion
[ 7974 7965 7964 7962 ] final   24.56 input  175.53 | X-H torsion
[ 8008 7997 7996 7995 ] final  117.14 input   59.86 | X-H torsion
[ 10167 10162 10161 10158 ] final   81.39 input  -65.29 | X-H torsion
[ 10718 10713 10712 10709 ] final   30.47 input   66.30 | X-H torsion
[ 10763 10752 10751 10750 ] final  106.23 input  -60.55 | X-H torsion
[ 11005 11000 10999 10996 ] final   52.48 input  -57.11 | X-H torsion

> <Gold.Protein.ActiveResidues>
 VAL166  LYS551  ARG553  GLY616  TRP617  ASP618  TYR619  PRO620  LYS621  CYS622 
 ASP623  PHE694  ASN695  SER759  ASP760  ASP761  ALA762  ILE779  LEU786  VAL792 
 PHE793  MET794  SER795  GLU796  ALA797  LYS798  CYS799  TRP800  GLU811  SER814 

> <Gold.Protein.RotatedAtoms>
  152.0232  134.9810  160.0570 H   0  0  0  0  0  0  0  0  0  0  0  0  # atno 6907 bound_to 6896
  152.1316  133.4406  159.4732 H   0  0  0  0  0  0  0  0  0  0  0  0  # atno 6908 bound_to 6896
  150.6857  134.2332  159.4486 H   0  0  0  0  0  0  0  0  0  0  0  0  # atno 6909 bound_to 6896
  146.1932  139.7588  142.8817 H   0  0  0  0  0  0  0  0  0  0  0  0  # atno 7974 bound_to 7965
  156.2478  140.2902  156.0633 H   0  0  0  0  0  0  0  0  0  0  0  0  # atno 8008 bound_to 7997
  155.1752  140.0403  157.2888 H   0  0  0  0  0  0  0  0  0  0  0  0  # atno 8009 bound_to 7997
  154.6298  140.2496  155.7454 H   0  0  0  0  0  0  0  0  0  0  0  0  # atno 8010 bound_to 7997
  139.9397  144.6098  150.8264 H   0  0  0  0  0  0  0  0  0  0  0  0  # atno 10167 bound_to 10162
  157.2600  130.7157  149.6449 H   0  0  0  0  0  0  0  0  0  0  0  0  # atno 10718 bound_to 10713
  153.3902  135.3884  155.1917 H   0  0  0  0  0  0  0  0  0  0  0  0  # atno 10763 bound_to 10752
  154.8718  135.3746  154.4747 H   0  0  0  0  0  0  0  0  0  0  0  0  # atno 10764 bound_to 10752
  153.5233  135.7086  153.5781 H   0  0  0  0  0  0  0  0  0  0  0  0  # atno 10765 bound_to 10752
  140.0846  134.5292  155.8912 H   0  0  0  0  0  0  0  0  0  0  0  0  # atno 11005 bound_to 11000
  145.3728  141.0345  143.3221 LP  0  0  0  0  0  0  0  0  0  0  0  0  # atno 17320 bound_to 7965
  144.8527  139.5297  143.6849 LP  0  0  0  0  0  0  0  0  0  0  0  0  # atno 17321 bound_to 7965
  140.7614  143.3174  151.2701 LP  0  0  0  0  0  0  0  0  0  0  0  0  # atno 17342 bound_to 10162
  139.6714  144.0013  152.2755 LP  0  0  0  0  0  0  0  0  0  0  0  0  # atno 17343 bound_to 10162
  155.9664  130.4400  150.5283 LP  0  0  0  0  0  0  0  0  0  0  0  0  # atno 17370 bound_to 10713
  157.3185  131.0677  151.1949 LP  0  0  0  0  0  0  0  0  0  0  0  0  # atno 17371 bound_to 10713
  141.2058  133.6650  156.6203 LP  0  0  0  0  0  0  0  0  0  0  0  0  # atno 17394 bound_to 11000
  140.3439  134.7826  157.4418 LP  0  0  0  0  0  0  0  0  0  0  0  0  # atno 17395 bound_to 11000

$$$$
