AV-unprocessed.smi:671|AV-procd|sdf|3273|dock3
  -GOLD-   22720 0233D 1   1.00000     0.00000
 Structure written by MMmdl.
 49 50  0  0  0  0  0  0  0  0  1 V2000
  151.1779  139.1003  158.2711 C   0  0  0  0  0  0  0  0  0  0  0  0
  151.7240  140.4655  158.5809 C   0  0  0  0  0  0  0  0  0  0  0  0
  152.3632  140.6624  159.7215 N   0  0  0  0  0  0  0  0  0  0  0  0
  152.7088  141.9653  159.7022 N   0  0  0  0  0  0  0  0  0  0  0  0
  153.4364  142.5234  160.8256 C   0  0  0  0  0  0  0  0  0  0  0  0
  152.2903  142.5925  158.5447 C   0  0  0  0  0  0  0  0  0  0  0  0
  152.5537  144.0407  158.2837 C   0  0  0  0  0  0  0  0  0  0  0  0
  151.6447  141.6496  157.7900 C   0  0  0  0  0  0  0  0  0  0  0  0
  150.9897  141.7999  156.4411 C   0  0  0  0  0  0  0  0  0  0  0  0
  149.4741  141.5021  156.4863 C   0  0  2  0  0  0  0  0  0  0  0  0
  148.8794  141.2611  155.0900 C   0  0  0  0  0  0  0  0  0  0  0  0
  148.7514  142.6067  157.1221 N   0  0  0  0  0  0  0  0  0  0  0  0
  147.6792  142.5412  157.9332 C   0  0  0  0  0  0  0  0  0  0  0  0
  147.1542  141.4699  158.2300 O   0  0  0  0  0  0  0  0  0  0  0  0
  147.2322  143.7320  158.3657 N   0  0  0  0  0  0  0  0  0  0  0  0
  146.0863  143.9442  159.2443 C   0  0  2  0  0  0  0  0  0  0  0  0
  146.2443  145.2723  160.0079 C   0  0  0  0  0  0  0  0  0  0  0  0
  146.5420  144.8924  161.4578 C   0  0  0  0  0  0  0  0  0  0  0  0
  145.8021  143.5731  161.6493 C   0  0  0  0  0  0  0  0  0  0  0  0
  145.9932  142.8363  160.3189 C   0  0  1  0  0  0  0  0  0  0  0  0
  144.9031  141.7921  160.0400 C   0  0  0  0  0  0  0  0  0  0  0  0
  151.3236  138.8451  157.2220 H   0  0  0  0  0  0  0  0  0  0  0  0
  150.1089  139.0543  158.4774 H   0  0  0  0  0  0  0  0  0  0  0  0
  151.6647  138.3266  158.8655 H   0  0  0  0  0  0  0  0  0  0  0  0
  154.4663  142.7248  160.5301 H   0  0  0  0  0  0  0  0  0  0  0  0
  153.4376  141.8285  161.6664 H   0  0  0  0  0  0  0  0  0  0  0  0
  152.9670  143.4549  161.1429 H   0  0  0  0  0  0  0  0  0  0  0  0
  152.3552  144.2985  157.2440 H   0  0  0  0  0  0  0  0  0  0  0  0
  153.5935  144.2927  158.4930 H   0  0  0  0  0  0  0  0  0  0  0  0
  151.9196  144.6667  158.9116 H   0  0  0  0  0  0  0  0  0  0  0  0
  151.1543  142.8132  156.0744 H   0  0  0  0  0  0  0  0  0  0  0  0
  151.4636  141.1546  155.7009 H   0  0  0  0  0  0  0  0  0  0  0  0
  149.3030  140.5958  157.0693 H   0  0  0  0  0  0  0  0  0  0  0  0
  149.3381  140.3995  154.6048 H   0  0  0  0  0  0  0  0  0  0  0  0
  149.0253  142.1252  154.4410 H   0  0  0  0  0  0  0  0  0  0  0  0
  147.8081  141.0663  155.1487 H   0  0  0  0  0  0  0  0  0  0  0  0
  149.0721  143.5333  156.8805 H   0  0  0  0  0  0  0  0  0  0  0  0
  147.7275  144.5575  158.0625 H   0  0  0  0  0  0  0  0  0  0  0  0
  145.1683  143.9949  158.6553 H   0  0  0  0  0  0  0  0  0  0  0  0
  147.0096  145.9271  159.5891 H   0  0  0  0  0  0  0  0  0  0  0  0
  145.3021  145.8207  159.9694 H   0  0  0  0  0  0  0  0  0  0  0  0
  147.6136  144.7359  161.5875 H   0  0  0  0  0  0  0  0  0  0  0  0
  146.2269  145.6589  162.1663 H   0  0  0  0  0  0  0  0  0  0  0  0
  146.1759  143.0039  162.5010 H   0  0  0  0  0  0  0  0  0  0  0  0
  144.7436  143.7733  161.8218 H   0  0  0  0  0  0  0  0  0  0  0  0
  146.9524  142.3178  160.3774 H   0  0  0  0  0  0  0  0  0  0  0  0
  143.9168  142.2534  159.9793 H   0  0  0  0  0  0  0  0  0  0  0  0
  144.8722  141.0395  160.8282 H   0  0  0  0  0  0  0  0  0  0  0  0
  145.0885  141.2767  159.0973 H   0  0  0  0  0  0  0  0  0  0  0  0
  1  2  1  0  0  0  0
  1 22  1  0  0  0  0
  1 23  1  0  0  0  0
  1 24  1  0  0  0  0
  2  8  1  0  0  0  0
  2  3  2  0  0  0  0
  3  4  1  0  0  0  0
  4  5  1  0  0  0  0
  4  6  1  0  0  0  0
  5 25  1  0  0  0  0
  5 26  1  0  0  0  0
  5 27  1  0  0  0  0
  6  7  1  0  0  0  0
  6  8  2  0  0  0  0
  7 28  1  0  0  0  0
  7 29  1  0  0  0  0
  7 30  1  0  0  0  0
  8  9  1  0  0  0  0
  9 10  1  0  0  0  0
  9 31  1  0  0  0  0
  9 32  1  0  0  0  0
 10 11  1  0  0  0  0
 10 12  1  0  0  0  0
 10 33  1  0  0  0  0
 11 34  1  0  0  0  0
 11 35  1  0  0  0  0
 11 36  1  0  0  0  0
 12 13  1  0  0  0  0
 12 37  1  0  0  0  0
 13 14  2  0  0  0  0
 13 15  1  0  0  0  0
 15 16  1  0  0  0  0
 15 38  1  0  0  0  0
 16 20  1  0  0  0  0
 16 17  1  0  0  0  0
 16 39  1  0  0  0  0
 17 18  1  0  0  0  0
 17 40  1  0  0  0  0
 17 41  1  0  0  0  0
 18 19  1  0  0  0  0
 18 42  1  0  0  0  0
 18 43  1  0  0  0  0
 19 20  1  0  0  0  0
 19 44  1  0  0  0  0
 19 45  1  0  0  0  0
 20 21  1  0  0  0  0
 20 46  1  0  0  0  0
 21 47  1  0  0  0  0
 21 48  1  0  0  0  0
 21 49  1  0  0  0  0
M  END
> <s_m_source_file>
AV-unprocessed.smi

> <i_m_source_file_index>
671

> <i_lp_mmshare_version>
43012

> <i_f3d_flags>
0

> <s_epik_input>
W0NIM11jMW5uKFtDSDNdKWMoW0NIM10pYzFbQ0gyXVtDQEhdKFtDSDNdKVtOSF1DKD1PKVtOSF1bQ0BASF0yW0NIMl1bQ0gyXVtDSDJdW0NASF0yW0NIM10=

> <s_epik_cmdline>
J2VwaWtfcHl0aG9uJywgJy1waCcsICc3LjAnLCAnLXRuJywgJzgnLCAnLW1hJywgJzIwMCcsICctbWV0YWxfYmluZGluZycsICctaW1hZScsICc8aW5maWxlLm1hZT4nLCAnLW9tYWUnLCAnPG91dGZpbGUubWFlPic=

> <r_lp_tautomer_probability>
1

> <r_epik_Ionization_Penalty>
0.0126855

> <r_epik_Ionization_Penalty_Charging>
0

> <r_epik_Ionization_Penalty_Neutral>
0.0126855

> <r_epik_State_Penalty>
0.00977547

> <r_epik_Charging_Adjusted_Penalty>
0.00977547

> <i_epik_Tot_Q>
0

> <i_epik_Tot_abs_Q>
0

> <r_epik_Metal_State_Penalty>
0.00957132

> <b_epik_Metal_Only>
0

> <s_lp_Force_Field>
OPLS_2005

> <r_lp_Energy>
21.9144

> <b_lp_Chiralities_Consistent>
1

> <s_lp_Variant>
AV-unprocessed.smi:671-1

> <Gold.Version>
5.8.1

> <Gold.Id.Protein>
6NUR|6NUR_protein|mol2

> <Gold.PLP.Fitness>
44.1443

> <Gold.PLP.PLP>
-39.7607

> <Gold.PLP.part.hbond>
-2.5761

> <Gold.PLP.part.metal>
0.0000

> <Gold.PLP.part.buried>
-4.4302

> <Gold.PLP.part.nonpolar>
-32.3659

> <Gold.PLP.part.repulsive>
0.0872

> <Gold.PLP.ligand.clash>
0.0000

> <Gold.PLP.ligand.torsion>
0.8070

> <Gold.PLP.Chemscore.Hbond>
1.9920

> <Gold.PLP.Chemscore.CHOScore>
0.0000

> <Gold.PLP.Chemscore.Metal>
0.0000

> <Gold.Chemscore.Hbonds>
donor molecule, donor type, donor heavy atom, donor atom, acceptor molecule, acceptor atom, score
      L1  H    12    37       P1  8028  0.82
      L1  H    15    38       P1  8029  1.00

> <Gold.PLP.Chemscore.Internal.Correction>
0.0216

> <Gold.Rescore>
     Score         DG    S(hbond)    S(metal)    S(lipo)     H(rot)  DE(clash)    DE(int)     intcor
     14.00     -17.78       1.32        0.00      99.25       1.45       0.22       3.57       ----

> <Gold.Chemscore.Fitness>
13.9966

> <Gold.Chemscore.DG>
-17.7799

> <Gold.Chemscore.ZeroCoef>
-5.4800

> <Gold.Chemscore.Hbond>
1.3173

> <Gold.Chemscore.Metal>
0.0000

> <Gold.Chemscore.Lipo>
99.2468

> <Gold.Chemscore.Internal_Hbond>
0.0000

> <Gold.Chemscore.DEClash>
0.2162

> <Gold.Chemscore.DEInternal>
3.5670

> <Gold.Chemscore.Rot>
1.4499

> <Gold.Chemscore.Internal.Correction>
   9.000000E+99

> <Gold.Chemscore.Hbonds>
donor molecule, donor type, donor heavy atom, donor atom, acceptor molecule, acceptor atom, score
      L1  H    12    37       P1  8028  0.64
      L1  H    15    38       P1  8029  0.53

> <Gold.Chemscore.Hbond.Weighted>
-4.3998

> <Gold.Chemscore.Metal.Weighted>
-0.0000

> <Gold.Chemscore.Lipo.Weighted>
-11.6119

> <Gold.Chemscore.Internal_Hbond.Weighted>
0.0000

> <Gold.Chemscore.DEClash.Weighted>
0.2162

> <Gold.Chemscore.DEInternal.Weighted>
3.5670

> <Gold.Chemscore.Rot.Weighted>
3.7118

> <Gold.Chemscore.Internal.Correction.Weighted>
   9.000000E+99

> <Gold.Protein.RotatedTorsions>
[ 6907 6896 6895 6894 ] final  132.94 input  -60.11 | X-H torsion
[ 7974 7965 7964 7962 ] final  135.78 input  175.53 | X-H torsion
[ 8008 7997 7996 7995 ] final  106.22 input   59.86 | X-H torsion
[ 10167 10162 10161 10158 ] final   14.32 input  -65.29 | X-H torsion
[ 10718 10713 10712 10709 ] final  138.57 input   66.30 | X-H torsion
[ 10763 10752 10751 10750 ] final  -23.06 input  -60.55 | X-H torsion
[ 11005 11000 10999 10996 ] final  178.80 input  -57.11 | X-H torsion

> <Gold.Protein.ActiveResidues>
 VAL166  LYS551  ARG553  GLY616  TRP617  ASP618  TYR619  PRO620  LYS621  CYS622 
 ASP623  PHE694  ASN695  SER759  ASP760  ASP761  ALA762  ILE779  LEU786  VAL792 
 PHE793  MET794  SER795  GLU796  ALA797  LYS798  CYS799  TRP800  GLU811  SER814 

> <Gold.Protein.RotatedAtoms>
  152.3272  133.5918  159.5784 H   0  0  0  0  0  0  0  0  0  0  0  0  # atno 6907 bound_to 6896
  150.7403  133.9922  159.3620 H   0  0  0  0  0  0  0  0  0  0  0  0  # atno 6908 bound_to 6896
  151.7801  135.0764  160.0423 H   0  0  0  0  0  0  0  0  0  0  0  0  # atno 6909 bound_to 6896
  144.9630  139.4689  143.5470 H   0  0  0  0  0  0  0  0  0  0  0  0  # atno 7974 bound_to 7965
  156.1725  140.3116  155.9000 H   0  0  0  0  0  0  0  0  0  0  0  0  # atno 8008 bound_to 7997
  155.3557  140.0473  157.3063 H   0  0  0  0  0  0  0  0  0  0  0  0  # atno 8009 bound_to 7997
  154.5256  140.2213  155.8907 H   0  0  0  0  0  0  0  0  0  0  0  0  # atno 8010 bound_to 7997
  140.5943  143.8732  150.6903 H   0  0  0  0  0  0  0  0  0  0  0  0  # atno 10167 bound_to 10162
  157.4238  131.1041  151.0325 H   0  0  0  0  0  0  0  0  0  0  0  0  # atno 10718 bound_to 10713
  153.6618  135.6976  153.5175 H   0  0  0  0  0  0  0  0  0  0  0  0  # atno 10763 bound_to 10752
  153.2625  135.4240  155.0908 H   0  0  0  0  0  0  0  0  0  0  0  0  # atno 10764 bound_to 10752
  154.8450  135.3558  154.6163 H   0  0  0  0  0  0  0  0  0  0  0  0  # atno 10765 bound_to 10752
  140.3992  134.6793  157.4552 H   0  0  0  0  0  0  0  0  0  0  0  0  # atno 11005 bound_to 11000
  146.3359  139.8792  142.8827 LP  0  0  0  0  0  0  0  0  0  0  0  0  # atno 17320 bound_to 7965
  145.2672  141.0096  143.3793 LP  0  0  0  0  0  0  0  0  0  0  0  0  # atno 17321 bound_to 7965
  140.2263  143.3770  152.1602 LP  0  0  0  0  0  0  0  0  0  0  0  0  # atno 17342 bound_to 10162
  139.5248  144.7088  151.5271 LP  0  0  0  0  0  0  0  0  0  0  0  0  # atno 17343 bound_to 10162
  157.1245  130.6076  149.5513 LP  0  0  0  0  0  0  0  0  0  0  0  0  # atno 17370 bound_to 10713
  155.9889  130.4935  150.7193 LP  0  0  0  0  0  0  0  0  0  0  0  0  # atno 17371 bound_to 10713
  140.0349  134.6352  155.9057 LP  0  0  0  0  0  0  0  0  0  0  0  0  # atno 17394 bound_to 11000
  141.1863  133.6557  156.5234 LP  0  0  0  0  0  0  0  0  0  0  0  0  # atno 17395 bound_to 11000

$$$$
