AV-unprocessed.smi:1208|AV-procd|sdf|5066|dock9
  -GOLD-   22720 4103D 1   1.00000     0.00000
 Structure written by MMmdl.
 36 37  0  0  0  0  0  0  0  0  1 V2000
  152.0434  144.8976  159.4254 C   0  0  0  0  0  0  0  0  0  0  0  0
  151.4124  143.5022  159.3134 C   0  0  1  0  0  0  0  0  0  0  0  0
  151.3328  143.1321  157.9016 N   0  0  0  0  0  0  0  0  0  0  0  0
  150.9587  141.9360  157.4208 C   0  0  0  0  0  0  0  0  0  0  0  0
  150.5965  141.0000  158.1349 O   0  0  0  0  0  0  0  0  0  0  0  0
  150.9919  141.7831  155.8939 C   0  0  0  0  0  0  0  0  0  0  0  0
  150.9964  140.3791  155.4596 N   0  0  0  0  0  0  0  0  0  0  0  0
  149.9958  140.0615  154.5536 N   0  0  0  0  0  0  0  0  0  0  0  0
  149.8884  138.8554  154.1087 C   0  0  0  0  0  0  0  0  0  0  0  0
  148.8804  138.5834  153.2168 O   0  0  0  0  0  0  0  0  0  0  0  0
  150.8008  137.8165  154.5333 C   0  0  0  0  0  0  0  0  0  0  0  0
  151.7747  138.1363  155.4133 C   0  0  0  0  0  0  0  0  0  0  0  0
  151.9233  139.4940  155.9404 C   0  0  0  0  0  0  0  0  0  0  0  0
  152.7995  139.8132  156.7441 O   0  0  0  0  0  0  0  0  0  0  0  0
  152.2153  142.4463  160.1009 C   0  0  2  0  0  0  0  0  0  0  0  0
  152.5947  142.8455  161.5277 C   0  0  0  0  0  0  0  0  0  0  0  0
  153.7960  141.9659  161.8285 C   0  0  0  0  0  0  0  0  0  0  0  0
  154.2971  141.5371  160.4461 C   0  0  0  0  0  0  0  0  0  0  0  0
  153.4893  142.2403  159.5109 O   0  0  0  0  0  0  0  0  0  0  0  0
  149.0900  137.7370  152.8529 H   0  0  0  0  0  0  0  0  0  0  0  0
  152.0928  145.2250  160.4642 H   0  0  0  0  0  0  0  0  0  0  0  0
  151.4596  145.6378  158.8772 H   0  0  0  0  0  0  0  0  0  0  0  0
  153.0578  144.9090  159.0250 H   0  0  0  0  0  0  0  0  0  0  0  0
  150.4084  143.5611  159.7377 H   0  0  0  0  0  0  0  0  0  0  0  0
  151.6081  143.8391  157.2354 H   0  0  0  0  0  0  0  0  0  0  0  0
  150.1257  142.3057  155.4844 H   0  0  0  0  0  0  0  0  0  0  0  0
  151.8645  142.2981  155.4869 H   0  0  0  0  0  0  0  0  0  0  0  0
  150.6978  136.8120  154.1501 H   0  0  0  0  0  0  0  0  0  0  0  0
  152.4632  137.3704  155.7389 H   0  0  0  0  0  0  0  0  0  0  0  0
  151.6776  141.4961  160.1171 H   0  0  0  0  0  0  0  0  0  0  0  0
  152.8941  143.8940  161.5576 H   0  0  0  0  0  0  0  0  0  0  0  0
  151.7794  142.7074  162.2386 H   0  0  0  0  0  0  0  0  0  0  0  0
  154.5556  142.5101  162.3907 H   0  0  0  0  0  0  0  0  0  0  0  0
  153.5053  141.0929  162.4139 H   0  0  0  0  0  0  0  0  0  0  0  0
  155.3518  141.7689  160.2948 H   0  0  0  0  0  0  0  0  0  0  0  0
  154.1614  140.4640  160.3052 H   0  0  0  0  0  0  0  0  0  0  0  0
  1  2  1  0  0  0  0
  1 21  1  0  0  0  0
  1 22  1  0  0  0  0
  1 23  1  0  0  0  0
  2  3  1  0  0  0  0
  2 15  1  0  0  0  0
  2 24  1  0  0  0  0
  3  4  1  0  0  0  0
  3 25  1  0  0  0  0
  4  5  2  0  0  0  0
  4  6  1  0  0  0  0
  6 26  1  0  0  0  0
  6 27  1  0  0  0  0
  6  7  1  0  0  0  0
  7  8  1  0  0  0  0
  7 13  1  0  0  0  0
  8  9  2  0  0  0  0
  9 10  1  0  0  0  0
  9 11  1  0  0  0  0
 10 20  1  0  0  0  0
 11 28  1  0  0  0  0
 11 12  2  0  0  0  0
 12 29  1  0  0  0  0
 12 13  1  0  0  0  0
 13 14  2  0  0  0  0
 15 19  1  0  0  0  0
 15 16  1  0  0  0  0
 15 30  1  0  0  0  0
 16 17  1  0  0  0  0
 16 31  1  0  0  0  0
 16 32  1  0  0  0  0
 17 18  1  0  0  0  0
 17 33  1  0  0  0  0
 17 34  1  0  0  0  0
 18 19  1  0  0  0  0
 18 35  1  0  0  0  0
 18 36  1  0  0  0  0
M  END
> <s_m_source_file>
AV-unprocessed.smi

> <i_m_source_file_index>
1208

> <i_lp_mmshare_version>
43012

> <i_f3d_flags>
0

> <s_epik_input>
TzFbQ0gyXVtDSDJdW0NIMl1bQ0BIXTFbQ0BIXShbQ0gzXSlbTkhdQyg9TylbQ0gyXW4yW25IXWMoPU8pW2NIXVtjSF1jMj1P

> <s_epik_cmdline>
J2VwaWtfcHl0aG9uJywgJy1waCcsICc3LjAnLCAnLXRuJywgJzgnLCAnLW1hJywgJzIwMCcsICctbWV0YWxfYmluZGluZycsICctaW1hZScsICc8aW5maWxlLm1hZT4nLCAnLW9tYWUnLCAnPG91dGZpbGUubWFlPic=

> <r_lp_tautomer_probability>
0.9996

> <r_epik_Ionization_Penalty>
2.12735

> <r_epik_Ionization_Penalty_Charging>
3.86665e-08

> <r_epik_Ionization_Penalty_Neutral>
2.12735

> <r_epik_State_Penalty>
1.70441

> <r_epik_Charging_Adjusted_Penalty>
1.70441

> <i_epik_Tot_Q>
0

> <i_epik_Tot_abs_Q>
0

> <r_epik_Metal_State_Penalty>
1.70441

> <b_epik_Metal_Only>
0

> <s_lp_Force_Field>
OPLS_2005

> <r_lp_Energy>
29.1408

> <b_lp_Chiralities_Consistent>
1

> <s_lp_Variant>
AV-unprocessed.smi:1208-6

> <Gold.Version>
5.8.1

> <Gold.Id.Protein>
6NUR|6NUR_protein|mol2

> <Gold.PLP.Fitness>
49.2567

> <Gold.PLP.PLP>
-44.1334

> <Gold.PLP.part.hbond>
-4.0000

> <Gold.PLP.part.metal>
0.0000

> <Gold.PLP.part.buried>
-4.2867

> <Gold.PLP.part.nonpolar>
-34.5817

> <Gold.PLP.part.repulsive>
0.1174

> <Gold.PLP.ligand.clash>
0.0000

> <Gold.PLP.ligand.torsion>
0.4563

> <Gold.PLP.Chemscore.Hbond>
2.0000

> <Gold.PLP.Chemscore.CHOScore>
0.0000

> <Gold.PLP.Chemscore.Metal>
0.0000

> <Gold.Chemscore.Hbonds>
donor molecule, donor type, donor heavy atom, donor atom, acceptor molecule, acceptor atom, score
      L1  H    10    20       P1  7948  1.00
      P1  H  7997  8010       L1    14  0.99

> <Gold.PLP.Chemscore.Internal.Correction>
0.0358

> <Gold.Rescore>
     Score         DG    S(hbond)    S(metal)    S(lipo)     H(rot)  DE(clash)    DE(int)     intcor
     14.21     -15.28       1.97        0.00      84.99       2.63       0.03       1.03       ----

> <Gold.Chemscore.Fitness>
14.2122

> <Gold.Chemscore.DG>
-15.2769

> <Gold.Chemscore.ZeroCoef>
-5.4800

> <Gold.Chemscore.Hbond>
1.9692

> <Gold.Chemscore.Metal>
0.0000

> <Gold.Chemscore.Lipo>
84.9870

> <Gold.Chemscore.Internal_Hbond>
0.0000

> <Gold.Chemscore.DEClash>
0.0313

> <Gold.Chemscore.DEInternal>
1.0335

> <Gold.Chemscore.Rot>
2.6264

> <Gold.Chemscore.Internal.Correction>
   9.000000E+99

> <Gold.Chemscore.Hbonds>
donor molecule, donor type, donor heavy atom, donor atom, acceptor molecule, acceptor atom, score
      L1  H    10    20       P1  7948  0.99
      P1  H  7997  8010       L1    14  0.94

> <Gold.Chemscore.Hbond.Weighted>
-6.5771

> <Gold.Chemscore.Metal.Weighted>
-0.0000

> <Gold.Chemscore.Lipo.Weighted>
-9.9435

> <Gold.Chemscore.Internal_Hbond.Weighted>
0.0000

> <Gold.Chemscore.DEClash.Weighted>
0.0313

> <Gold.Chemscore.DEInternal.Weighted>
1.0335

> <Gold.Chemscore.Rot.Weighted>
6.7237

> <Gold.Chemscore.Internal.Correction.Weighted>
   9.000000E+99

> <Gold.Protein.RotatedTorsions>
[ 6907 6896 6895 6894 ] final  160.08 input  -60.11 | X-H torsion
[ 7974 7965 7964 7962 ] final -108.63 input  175.53 | X-H torsion
[ 8008 7997 7996 7995 ] final   48.90 input   59.86 | X-H torsion
[ 10167 10162 10161 10158 ] final -154.09 input  -65.29 | X-H torsion
[ 10718 10713 10712 10709 ] final  103.14 input   66.30 | X-H torsion
[ 10763 10752 10751 10750 ] final   64.71 input  -60.55 | X-H torsion
[ 11005 11000 10999 10996 ] final  159.15 input  -57.11 | X-H torsion

> <Gold.Protein.ActiveResidues>
 VAL166  LYS551  ARG553  GLY616  TRP617  ASP618  TYR619  PRO620  LYS621  CYS622 
 ASP623  PHE694  ASN695  SER759  ASP760  ASP761  ALA762  ILE779  LEU786  VAL792 
 PHE793  MET794  SER795  GLU796  ALA797  LYS798  CYS799  TRP800  GLU811  SER814 

> <Gold.Protein.RotatedAtoms>
  151.9760  133.3741  159.4088 H   0  0  0  0  0  0  0  0  0  0  0  0  # atno 6907 bound_to 6896
  150.6942  134.4089  159.5162 H   0  0  0  0  0  0  0  0  0  0  0  0  # atno 6908 bound_to 6896
  152.1801  134.8761  160.0578 H   0  0  0  0  0  0  0  0  0  0  0  0  # atno 6909 bound_to 6896
  145.1905  140.9012  143.3427 H   0  0  0  0  0  0  0  0  0  0  0  0  # atno 7974 bound_to 7965
  155.3934  140.3434  155.4252 H   0  0  0  0  0  0  0  0  0  0  0  0  # atno 8008 bound_to 7997
  156.1545  140.1581  156.8748 H   0  0  0  0  0  0  0  0  0  0  0  0  # atno 8009 bound_to 7997
  154.5082  140.0797  156.7918 H   0  0  0  0  0  0  0  0  0  0  0  0  # atno 8010 bound_to 7997
  139.7042  143.9213  152.2441 H   0  0  0  0  0  0  0  0  0  0  0  0  # atno 10167 bound_to 10162
  157.6781  131.0771  150.5510 H   0  0  0  0  0  0  0  0  0  0  0  0  # atno 10718 bound_to 10713
  153.0067  135.5383  154.6553 H   0  0  0  0  0  0  0  0  0  0  0  0  # atno 10763 bound_to 10752
  154.5775  135.2847  155.0768 H   0  0  0  0  0  0  0  0  0  0  0  0  # atno 10764 bound_to 10752
  154.1910  135.6500  153.5112 H   0  0  0  0  0  0  0  0  0  0  0  0  # atno 10765 bound_to 10752
  140.1934  134.8390  157.2938 H   0  0  0  0  0  0  0  0  0  0  0  0  # atno 11005 bound_to 11000
  145.0045  139.3567  143.6150 LP  0  0  0  0  0  0  0  0  0  0  0  0  # atno 17320 bound_to 7965
  146.3437  139.9283  142.8757 LP  0  0  0  0  0  0  0  0  0  0  0  0  # atno 17321 bound_to 7965
  139.9064  144.6882  150.8609 LP  0  0  0  0  0  0  0  0  0  0  0  0  # atno 17342 bound_to 10162
  140.7717  143.3475  151.2081 LP  0  0  0  0  0  0  0  0  0  0  0  0  # atno 17343 bound_to 10162
  156.5814  130.4305  149.5975 LP  0  0  0  0  0  0  0  0  0  0  0  0  # atno 17370 bound_to 10713
  156.2658  130.6988  151.1771 LP  0  0  0  0  0  0  0  0  0  0  0  0  # atno 17371 bound_to 10713
  140.2134  134.4111  155.7601 LP  0  0  0  0  0  0  0  0  0  0  0  0  # atno 17394 bound_to 11000
  141.2226  133.7129  156.8374 LP  0  0  0  0  0  0  0  0  0  0  0  0  # atno 17395 bound_to 11000

$$$$
