AV-unprocessed.smi:287|AV-procd|sdf|2184|dock5
  -GOLD-   2262021563D 1   1.00000     0.00000
 Structure written by MMmdl.
 55 58  0  0  0  0  0  0  0  0  1 V2000
  151.6340  142.8104  157.7421 C   0  0  0  0  0  0  0  0  0  0  0  0
  150.8871  141.9189  156.8096 C   0  0  0  0  0  0  0  0  0  0  0  0
  149.5897  141.8648  156.3908 C   0  0  0  0  0  0  0  0  0  0  0  0
  149.4812  140.7736  155.4778 C   0  0  0  0  0  0  0  0  0  0  0  0
  148.2125  140.3405  154.7550 C   0  0  2  0  0  0  0  0  0  0  0  0
  147.7340  141.4610  153.8163 C   0  0  0  0  0  0  0  0  0  0  0  0
  147.1291  140.1057  155.6336 O   0  0  0  0  0  0  0  0  0  0  0  0
  148.4125  139.0311  153.9592 C   0  0  0  0  0  0  0  0  0  0  0  0
  147.1957  138.5780  153.2977 N   0  0  0  0  0  0  0  0  0  0  0  0
  146.7462  137.3159  153.4575 C   0  0  0  0  0  0  0  0  0  0  0  0
  146.9083  136.7924  154.6963 N   0  0  0  0  0  0  0  0  0  0  0  0
  146.5016  135.5474  154.9592 C   0  0  0  0  0  0  0  0  0  0  0  0
  145.9184  134.6701  154.1407 N   0  0  0  0  0  0  0  0  0  0  0  0
  145.7482  135.1919  152.8914 C   0  0  0  0  0  0  0  0  0  0  0  0
  146.1302  136.4962  152.4654 C   0  0  0  0  0  0  0  0  0  0  0  0
  145.7923  136.6552  151.1252 N   0  0  0  0  0  0  0  0  0  0  0  0
  145.2518  135.5159  150.7882 C   0  0  0  0  0  0  0  0  0  0  0  0
  145.1899  134.5759  151.7932 N   0  0  0  0  0  0  0  0  0  0  0  0
  144.6408  133.1831  151.7540 C   0  0  1  0  0  0  0  0  0  0  0  0
  143.6778  133.1400  150.7429 O   0  0  0  0  0  0  0  0  0  0  0  0
  144.0155  132.1683  149.7530 C   0  0  1  0  0  0  0  0  0  0  0  0
  143.5303  132.6064  148.3596 C   0  0  0  0  0  0  0  0  0  0  0  0
  142.1200  132.5888  148.3099 O   0  0  0  0  0  0  0  0  0  0  0  0
  145.5313  131.9692  149.8967 C   0  0  1  0  0  0  0  0  0  0  0  0
  146.2549  132.9235  149.1374 O   0  0  0  0  0  0  0  0  0  0  0  0
  145.7234  132.1477  151.3959 C   0  0  1  0  0  0  0  0  0  0  0  0
  147.0521  132.4936  151.7497 O   0  0  0  0  0  0  0  0  0  0  0  0
  150.7467  140.2403  155.4173 C   0  0  0  0  0  0  0  0  0  0  0  0
  151.3590  139.0991  154.6737 C   0  0  0  0  0  0  0  0  0  0  0  0
  151.6040  140.9288  156.2218 O   0  0  0  0  0  0  0  0  0  0  0  0
  144.1941  133.0325  152.7375 H   0  0  0  0  0  0  0  0  0  0  0  0
  143.5341  131.2302  150.0357 H   0  0  0  0  0  0  0  0  0  0  0  0
  145.8395  130.9757  149.5695 H   0  0  0  0  0  0  0  0  0  0  0  0
  145.4576  131.2181  151.9010 H   0  0  0  0  0  0  0  0  0  0  0  0
  151.0702  143.7212  157.9445 H   0  0  0  0  0  0  0  0  0  0  0  0
  152.5965  143.0970  157.3178 H   0  0  0  0  0  0  0  0  0  0  0  0
  151.8180  142.3082  158.6918 H   0  0  0  0  0  0  0  0  0  0  0  0
  148.8030  142.5367  156.7008 H   0  0  0  0  0  0  0  0  0  0  0  0
  148.4844  141.6928  153.0598 H   0  0  0  0  0  0  0  0  0  0  0  0
  147.5297  142.3801  154.3675 H   0  0  0  0  0  0  0  0  0  0  0  0
  146.8198  141.1802  153.2916 H   0  0  0  0  0  0  0  0  0  0  0  0
  146.3478  140.4752  155.2516 H   0  0  0  0  0  0  0  0  0  0  0  0
  149.2233  139.1366  153.2370 H   0  0  0  0  0  0  0  0  0  0  0  0
  148.7080  138.2463  154.6570 H   0  0  0  0  0  0  0  0  0  0  0  0
  146.7019  139.2788  152.7640 H   0  0  0  0  0  0  0  0  0  0  0  0
  146.6683  135.2054  155.9701 H   0  0  0  0  0  0  0  0  0  0  0  0
  144.8835  135.3320  149.7897 H   0  0  0  0  0  0  0  0  0  0  0  0
  143.9050  133.5968  148.0997 H   0  0  0  0  0  0  0  0  0  0  0  0
  143.8903  131.9118  147.6000 H   0  0  0  0  0  0  0  0  0  0  0  0
  141.8140  131.8100  148.7488 H   0  0  0  0  0  0  0  0  0  0  0  0
  145.6335  133.4623  148.6711 H   0  0  0  0  0  0  0  0  0  0  0  0
  147.6319  131.8192  151.4292 H   0  0  0  0  0  0  0  0  0  0  0  0
  150.8645  138.1622  154.9297 H   0  0  0  0  0  0  0  0  0  0  0  0
  152.4180  138.9947  154.9112 H   0  0  0  0  0  0  0  0  0  0  0  0
  151.2703  139.2476  153.5975 H   0  0  0  0  0  0  0  0  0  0  0  0
  1  2  1  0  0  0  0
  1 35  1  0  0  0  0
  1 36  1  0  0  0  0
  1 37  1  0  0  0  0
  2 30  1  0  0  0  0
  2  3  2  0  0  0  0
  3  4  1  0  0  0  0
  3 38  1  0  0  0  0
  4  5  1  0  0  0  0
  4 28  2  0  0  0  0
  5  6  1  0  0  0  0
  5  7  1  0  0  0  0
  5  8  1  0  0  0  0
  6 39  1  0  0  0  0
  6 40  1  0  0  0  0
  6 41  1  0  0  0  0
  7 42  1  0  0  0  0
  8  9  1  0  0  0  0
  8 43  1  0  0  0  0
  8 44  1  0  0  0  0
  9 10  1  0  0  0  0
  9 45  1  0  0  0  0
 10 15  1  0  0  0  0
 10 11  2  0  0  0  0
 11 12  1  0  0  0  0
 12 13  2  0  0  0  0
 12 46  1  0  0  0  0
 13 14  1  0  0  0  0
 14 18  1  0  0  0  0
 14 15  2  0  0  0  0
 15 16  1  0  0  0  0
 16 17  2  0  0  0  0
 17 18  1  0  0  0  0
 17 47  1  0  0  0  0
 18 19  1  0  0  0  0
 19 31  1  0  0  0  0
 19 26  1  0  0  0  0
 19 20  1  0  0  0  0
 20 21  1  0  0  0  0
 21 32  1  0  0  0  0
 21 22  1  0  0  0  0
 21 24  1  0  0  0  0
 22 23  1  0  0  0  0
 22 48  1  0  0  0  0
 22 49  1  0  0  0  0
 23 50  1  0  0  0  0
 24 33  1  0  0  0  0
 24 25  1  0  0  0  0
 24 26  1  0  0  0  0
 25 51  1  0  0  0  0
 26 34  1  0  0  0  0
 26 27  1  0  0  0  0
 27 52  1  0  0  0  0
 28 29  1  0  0  0  0
 28 30  1  0  0  0  0
 29 53  1  0  0  0  0
 29 54  1  0  0  0  0
 29 55  1  0  0  0  0
M  END
> <s_m_source_file>
AV-unprocessed.smi

> <i_m_source_file_index>
287

> <i_lp_mmshare_version>
43012

> <i_f3d_flags>
0

> <s_epik_input>
W0NIM11jMVtjSF1jKGMobzEpW0NIM10pW0NAQF0oW0NIM10pKFtPSF0pW0NIMl1bTkhdYyhuW2NIXW4yKWMoYzIzKW5bY0hdbjNbQ0BASF00T1tDQEhdKFtDSDJdW09IXSlbQ0BASF0oW09IXSlbQ0BIXTRbT0hd

> <s_epik_cmdline>
J2VwaWtfcHl0aG9uJywgJy1waCcsICc3LjAnLCAnLXRuJywgJzgnLCAnLW1hJywgJzIwMCcsICctbWV0YWxfYmluZGluZycsICctaW1hZScsICc8aW5maWxlLm1hZT4nLCAnLW9tYWUnLCAnPG91dGZpbGUubWFlPic=

> <r_lp_tautomer_probability>
1

> <r_epik_Ionization_Penalty>
0.000992612

> <r_epik_Ionization_Penalty_Charging>
0

> <r_epik_Ionization_Penalty_Neutral>
0.000992612

> <r_epik_State_Penalty>
-0

> <r_epik_Charging_Adjusted_Penalty>
0

> <i_epik_Tot_Q>
0

> <i_epik_Tot_abs_Q>
0

> <r_epik_Metal_State_Penalty>
-0

> <b_epik_Metal_Only>
0

> <s_epik_Chemistry_Notes>
This compound contains an acetal/aminal-like group ( X-CH(R)-Y where X, Y are N, S, or O) that may be acid/base labile, releasing an aldehyde.

> <s_lp_Force_Field>
OPLS_2005

> <r_lp_Energy>
46.5399

> <b_lp_Chiralities_Consistent>
1

> <s_lp_Variant>
AV-unprocessed.smi:287-8

> <Gold.Version>
5.8.1

> <Gold.Id.Protein>
6NUR|6NUR_protein|mol2

> <Gold.PLP.Fitness>
52.2671

> <Gold.PLP.PLP>
-43.8150

> <Gold.PLP.part.hbond>
-6.2413

> <Gold.PLP.part.metal>
0.0000

> <Gold.PLP.part.buried>
0.5764

> <Gold.PLP.part.nonpolar>
-39.6041

> <Gold.PLP.part.repulsive>
0.6755

> <Gold.PLP.ligand.clash>
0.0000

> <Gold.PLP.ligand.torsion>
1.1668

> <Gold.PLP.Chemscore.Hbond>
2.3273

> <Gold.PLP.Chemscore.CHOScore>
1.0000

> <Gold.PLP.Chemscore.Metal>
0.0000

> <Gold.Chemscore.Hbonds>
donor molecule, donor type, donor heavy atom, donor atom, acceptor molecule, acceptor atom, score
      L1  H    23    50       P1 10952  1.00
      L1  H    25    51       P1  7921  0.35
      L1  H    27    52       P1 10747  1.00
      L1  C    17    47       P1  7921  0.97

> <Gold.PLP.Chemscore.Internal.Correction>
0.8040

> <Gold.Rescore>
     Score         DG    S(hbond)    S(metal)    S(lipo)     H(rot)  DE(clash)    DE(int)     intcor
      7.18     -11.61       2.05        0.00     109.04       5.27       2.32       2.11       ----

> <Gold.Chemscore.Fitness>
7.1827

> <Gold.Chemscore.DG>
-11.6093

> <Gold.Chemscore.ZeroCoef>
-5.4800

> <Gold.Chemscore.Hbond>
2.0525

> <Gold.Chemscore.Metal>
0.0000

> <Gold.Chemscore.Lipo>
109.0429

> <Gold.Chemscore.Internal_Hbond>
0.0000

> <Gold.Chemscore.DEClash>
2.3156

> <Gold.Chemscore.DEInternal>
2.1111

> <Gold.Chemscore.Rot>
5.2672

> <Gold.Chemscore.Internal.Correction>
   9.000000E+99

> <Gold.Chemscore.Hbonds>
donor molecule, donor type, donor heavy atom, donor atom, acceptor molecule, acceptor atom, score
      L1  H    23    50       P1 10952  0.99
      L1  H    25    51       P1  7921  0.05
      L1  H    27    52       P1 10747  0.94

> <Gold.Chemscore.Hbond.Weighted>
-6.8553

> <Gold.Chemscore.Metal.Weighted>
-0.0000

> <Gold.Chemscore.Lipo.Weighted>
-12.7580

> <Gold.Chemscore.Internal_Hbond.Weighted>
0.0000

> <Gold.Chemscore.DEClash.Weighted>
2.3156

> <Gold.Chemscore.DEInternal.Weighted>
2.1111

> <Gold.Chemscore.Rot.Weighted>
13.4839

> <Gold.Chemscore.Internal.Correction.Weighted>
   9.000000E+99

> <Gold.Protein.RotatedTorsions>
[ 6907 6896 6895 6894 ] final -123.94 input  -60.11 | X-H torsion
[ 7974 7965 7964 7962 ] final  -71.26 input  175.53 | X-H torsion
[ 8008 7997 7996 7995 ] final  -66.73 input   59.86 | X-H torsion
[ 10167 10162 10161 10158 ] final  179.01 input  -65.29 | X-H torsion
[ 10718 10713 10712 10709 ] final -100.77 input   66.30 | X-H torsion
[ 10763 10752 10751 10750 ] final    5.21 input  -60.55 | X-H torsion
[ 11005 11000 10999 10996 ] final  -81.76 input  -57.11 | X-H torsion

> <Gold.Protein.ActiveResidues>
 VAL166  LYS551  ARG553  GLY616  TRP617  ASP618  TYR619  PRO620  LYS621  CYS622 
 ASP623  PHE694  ASN695  SER759  ASP760  ASP761  ALA762  ILE779  LEU786  VAL792 
 PHE793  MET794  SER795  GLU796  ALA797  LYS798  CYS799  TRP800  GLU811  SER814 

> <Gold.Protein.RotatedAtoms>
  150.8720  133.7492  159.2958 H   0  0  0  0  0  0  0  0  0  0  0  0  # atno 6907 bound_to 6896
  151.5101  135.1063  159.9861 H   0  0  0  0  0  0  0  0  0  0  0  0  # atno 6908 bound_to 6896
  152.4701  133.7966  159.6986 H   0  0  0  0  0  0  0  0  0  0  0  0  # atno 6909 bound_to 6896
  145.6804  140.9190  143.0835 H   0  0  0  0  0  0  0  0  0  0  0  0  # atno 7974 bound_to 7965
  154.4753  140.0907  156.7247 H   0  0  0  0  0  0  0  0  0  0  0  0  # atno 8008 bound_to 7997
  155.4613  140.3461  155.4295 H   0  0  0  0  0  0  0  0  0  0  0  0  # atno 8009 bound_to 7997
  156.1106  140.1447  156.9331 H   0  0  0  0  0  0  0  0  0  0  0  0  # atno 8010 bound_to 7997
  139.5318  144.2612  152.0705 H   0  0  0  0  0  0  0  0  0  0  0  0  # atno 10167 bound_to 10162
  156.0173  130.5343  150.6866 H   0  0  0  0  0  0  0  0  0  0  0  0  # atno 10718 bound_to 10713
  153.2621  135.6924  153.7567 H   0  0  0  0  0  0  0  0  0  0  0  0  # atno 10763 bound_to 10752
  153.6622  135.3358  155.3131 H   0  0  0  0  0  0  0  0  0  0  0  0  # atno 10764 bound_to 10752
  154.8434  135.4480  154.1615 H   0  0  0  0  0  0  0  0  0  0  0  0  # atno 10765 bound_to 10752
  141.1665  133.7212  156.8470 H   0  0  0  0  0  0  0  0  0  0  0  0  # atno 11005 bound_to 11000
  144.7028  139.8689  143.7439 LP  0  0  0  0  0  0  0  0  0  0  0  0  # atno 17320 bound_to 7965
  146.0969  139.3962  143.0371 LP  0  0  0  0  0  0  0  0  0  0  0  0  # atno 17321 bound_to 7965
  140.2077  144.4594  150.6401 LP  0  0  0  0  0  0  0  0  0  0  0  0  # atno 17342 bound_to 10162
  140.6500  143.2222  151.6098 LP  0  0  0  0  0  0  0  0  0  0  0  0  # atno 17343 bound_to 10162
  157.4557  131.0877  151.0799 LP  0  0  0  0  0  0  0  0  0  0  0  0  # atno 17370 bound_to 10713
  157.1302  130.6099  149.5527 LP  0  0  0  0  0  0  0  0  0  0  0  0  # atno 17371 bound_to 10713
  140.1942  134.8943  157.3096 LP  0  0  0  0  0  0  0  0  0  0  0  0  # atno 17394 bound_to 11000
  140.2257  134.3970  155.7545 LP  0  0  0  0  0  0  0  0  0  0  0  0  # atno 17395 bound_to 11000

$$$$
