AV-unprocessed.smi:1675|AV-procd|sdf|6716|dock2
  -GOLD-   22720 7463D 1   1.00000     0.00000
 Structure written by MMmdl.
 40 42  0  0  0  0  0  0  0  0  1 V2000
  144.6006  137.8413  152.9513 N   0  0  0  0  0  0  0  0  0  0  0  0
  145.9315  137.7881  153.0480 C   0  0  0  0  0  0  0  0  0  0  0  0
  146.5100  136.8573  153.6059 O   0  0  0  0  0  0  0  0  0  0  0  0
  146.7184  138.9501  152.4332 C   0  0  0  0  0  0  0  0  0  0  0  0
  147.1384  139.9128  153.4379 N   0  0  0  0  0  0  0  0  0  0  0  0
  148.4168  140.3622  153.7088 C   0  0  0  0  0  0  0  0  0  0  0  0
  148.2861  141.2562  154.7336 C   0  0  0  0  0  0  0  0  0  0  0  0
  149.2824  142.0099  155.4043 N   0  0  0  0  0  0  0  0  0  0  0  0
  150.5443  141.6373  155.6825 C   0  0  0  0  0  0  0  0  0  0  0  0
  151.0240  140.5410  155.3949 O   0  0  0  0  0  0  0  0  0  0  0  0
  151.3973  142.6675  156.4298 C   0  0  0  0  0  0  0  0  0  0  0  0
  150.8987  142.9518  157.8655 C   0  0  1  0  0  0  0  0  0  0  0  0
  151.3941  141.9323  158.9143 C   0  0  0  0  0  0  0  0  0  0  0  0
  151.9271  142.8303  160.0466 C   0  0  1  0  0  0  0  0  0  0  0  0
  153.2631  143.4557  159.6069 C   0  0  0  0  0  0  0  0  0  0  0  0
  152.8204  144.4948  158.5610 C   0  0  0  0  0  0  0  0  0  0  0  0
  151.2902  144.3045  158.5136 C   0  0  2  0  0  0  0  0  0  0  0  0
  150.9835  144.0260  159.9817 C   0  0  0  0  0  0  0  0  0  0  0  0
  146.8995  141.3033  155.0311 C   0  0  0  0  0  0  0  0  0  0  0  0
  146.2117  140.4919  154.2423 N   0  0  0  0  0  0  0  0  0  0  0  0
  144.0408  137.0981  153.3439 H   0  0  0  0  0  0  0  0  0  0  0  0
  144.1581  138.6222  152.4893 H   0  0  0  0  0  0  0  0  0  0  0  0
  147.6072  138.5815  151.9190 H   0  0  0  0  0  0  0  0  0  0  0  0
  146.0977  139.4474  151.6865 H   0  0  0  0  0  0  0  0  0  0  0  0
  149.2766  140.0068  153.1602 H   0  0  0  0  0  0  0  0  0  0  0  0
  149.0081  142.9348  155.7024 H   0  0  0  0  0  0  0  0  0  0  0  0
  152.4288  142.3149  156.4752 H   0  0  0  0  0  0  0  0  0  0  0  0
  151.4301  143.5837  155.8406 H   0  0  0  0  0  0  0  0  0  0  0  0
  149.8083  142.9011  157.8459 H   0  0  0  0  0  0  0  0  0  0  0  0
  150.5677  141.3124  159.2643 H   0  0  0  0  0  0  0  0  0  0  0  0
  152.1661  141.2649  158.5294 H   0  0  0  0  0  0  0  0  0  0  0  0
  151.9758  142.3317  161.0149 H   0  0  0  0  0  0  0  0  0  0  0  0
  153.7599  143.9441  160.4463 H   0  0  0  0  0  0  0  0  0  0  0  0
  153.9510  142.7166  159.1945 H   0  0  0  0  0  0  0  0  0  0  0  0
  153.0660  145.5007  158.9030 H   0  0  0  0  0  0  0  0  0  0  0  0
  153.3048  144.3562  157.5953 H   0  0  0  0  0  0  0  0  0  0  0  0
  150.7565  145.1605  158.0998 H   0  0  0  0  0  0  0  0  0  0  0  0
  149.9401  143.7647  160.1669 H   0  0  0  0  0  0  0  0  0  0  0  0
  151.2714  144.8414  160.6480 H   0  0  0  0  0  0  0  0  0  0  0  0
  146.3795  141.8867  155.7766 H   0  0  0  0  0  0  0  0  0  0  0  0
  1  2  1  0  0  0  0
  1 21  1  0  0  0  0
  1 22  1  0  0  0  0
  2  3  2  0  0  0  0
  2  4  1  0  0  0  0
  4  5  1  0  0  0  0
  4 23  1  0  0  0  0
  4 24  1  0  0  0  0
  5 20  1  0  0  0  0
  5  6  1  0  0  0  0
  6  7  2  0  0  0  0
  6 25  1  0  0  0  0
  7  8  1  0  0  0  0
  7 19  1  0  0  0  0
  8  9  1  0  0  0  0
  8 26  1  0  0  0  0
  9 10  2  0  0  0  0
  9 11  1  0  0  0  0
 11 12  1  0  0  0  0
 11 27  1  0  0  0  0
 11 28  1  0  0  0  0
 12 17  1  0  0  0  0
 12 13  1  0  0  0  0
 12 29  1  0  0  0  0
 13 14  1  0  0  0  0
 13 30  1  0  0  0  0
 13 31  1  0  0  0  0
 14 18  1  0  0  0  0
 14 15  1  0  0  0  0
 14 32  1  0  0  0  0
 15 16  1  0  0  0  0
 15 33  1  0  0  0  0
 15 34  1  0  0  0  0
 16 17  1  0  0  0  0
 16 35  1  0  0  0  0
 16 36  1  0  0  0  0
 17 18  1  0  0  0  0
 17 37  1  0  0  0  0
 18 38  1  0  0  0  0
 18 39  1  0  0  0  0
 19 20  2  0  0  0  0
 19 40  1  0  0  0  0
M  END
> <s_m_source_file>
AV-unprocessed.smi

> <i_m_source_file_index>
1675

> <i_lp_mmshare_version>
43012

> <i_f3d_flags>
0

> <s_epik_input>
W05IMl1DKD1PKVtDSDJdbjFbY0hdYyhbY0hdbjEpW05IXUMoPU8pW0NIMl1bQ0BIXShbQ0gyXVtDQEBIXTIzKVtDQEBIXShbQ0gyXTMpW0NIMl1bQ0gyXTI=

> <s_epik_cmdline>
J2VwaWtfcHl0aG9uJywgJy1waCcsICc3LjAnLCAnLXRuJywgJzgnLCAnLW1hJywgJzIwMCcsICctbWV0YWxfYmluZGluZycsICctaW1hZScsICc8aW5maWxlLm1hZT4nLCAnLW9tYWUnLCAnPG91dGZpbGUubWFlPic=

> <r_lp_tautomer_probability>
1

> <r_epik_Ionization_Penalty>
2.17494e-05

> <r_epik_Ionization_Penalty_Charging>
0

> <r_epik_Ionization_Penalty_Neutral>
2.17494e-05

> <r_epik_State_Penalty>
-0

> <r_epik_Charging_Adjusted_Penalty>
0

> <i_epik_Tot_Q>
0

> <i_epik_Tot_abs_Q>
0

> <r_epik_Metal_State_Penalty>
-0

> <b_epik_Metal_Only>
0

> <s_lp_Force_Field>
OPLS_2005

> <r_lp_Energy>
53.8381

> <b_lp_Chiralities_Consistent>
1

> <s_lp_Variant>
AV-unprocessed.smi:1675-2

> <Gold.Version>
5.8.1

> <Gold.Id.Protein>
6NUR|6NUR_protein|mol2

> <Gold.PLP.Fitness>
47.7746

> <Gold.PLP.PLP>
-37.6879

> <Gold.PLP.part.hbond>
-3.1953

> <Gold.PLP.part.metal>
0.0000

> <Gold.PLP.part.buried>
-3.9963

> <Gold.PLP.part.nonpolar>
-31.9455

> <Gold.PLP.part.repulsive>
1.0316

> <Gold.PLP.ligand.clash>
0.0000

> <Gold.PLP.ligand.torsion>
0.8294

> <Gold.PLP.Chemscore.Hbond>
2.9120

> <Gold.PLP.Chemscore.CHOScore>
0.9872

> <Gold.PLP.Chemscore.Metal>
0.0000

> <Gold.Chemscore.Hbonds>
donor molecule, donor type, donor heavy atom, donor atom, acceptor molecule, acceptor atom, score
      L1  H     1    22       P1 10175  1.00
      L1  H     8    26       P1  8028  1.00
      P1  H  7989  7998       L1    10  0.93
      L1  C     6    25       P1  7957  0.97

> <Gold.PLP.Chemscore.Internal.Correction>
0.0480

> <Gold.Rescore>
     Score         DG    S(hbond)    S(metal)    S(lipo)     H(rot)  DE(clash)    DE(int)     intcor
     18.65     -21.36       2.41        0.00     113.87       2.15       1.85       0.86       ----

> <Gold.Chemscore.Fitness>
18.6456

> <Gold.Chemscore.DG>
-21.3596

> <Gold.Chemscore.ZeroCoef>
-5.4800

> <Gold.Chemscore.Hbond>
2.4122

> <Gold.Chemscore.Metal>
0.0000

> <Gold.Chemscore.Lipo>
113.8741

> <Gold.Chemscore.Internal_Hbond>
0.0000

> <Gold.Chemscore.DEClash>
1.8538

> <Gold.Chemscore.DEInternal>
0.8602

> <Gold.Chemscore.Rot>
2.1486

> <Gold.Chemscore.Internal.Correction>
   9.000000E+99

> <Gold.Chemscore.Hbonds>
donor molecule, donor type, donor heavy atom, donor atom, acceptor molecule, acceptor atom, score
      L1  H     1    22       P1 10175  0.95
      L1  H     8    26       P1  8028  0.99
      P1  H  7989  7998       L1    10  0.26

> <Gold.Chemscore.Hbond.Weighted>
-8.0567

> <Gold.Chemscore.Metal.Weighted>
-0.0000

> <Gold.Chemscore.Lipo.Weighted>
-13.3233

> <Gold.Chemscore.Internal_Hbond.Weighted>
0.0000

> <Gold.Chemscore.DEClash.Weighted>
1.8538

> <Gold.Chemscore.DEInternal.Weighted>
0.8602

> <Gold.Chemscore.Rot.Weighted>
5.5004

> <Gold.Chemscore.Internal.Correction.Weighted>
   9.000000E+99

> <Gold.Protein.RotatedTorsions>
[ 6907 6896 6895 6894 ] final -110.61 input  -60.11 | X-H torsion
[ 7974 7965 7964 7962 ] final   55.81 input  175.53 | X-H torsion
[ 8008 7997 7996 7995 ] final -179.86 input   59.86 | X-H torsion
[ 10167 10162 10161 10158 ] final   54.45 input  -65.29 | X-H torsion
[ 10718 10713 10712 10709 ] final  -87.77 input   66.30 | X-H torsion
[ 10763 10752 10751 10750 ] final -139.40 input  -60.55 | X-H torsion
[ 11005 11000 10999 10996 ] final -171.08 input  -57.11 | X-H torsion

> <Gold.Protein.ActiveResidues>
 VAL166  LYS551  ARG553  GLY616  TRP617  ASP618  TYR619  PRO620  LYS621  CYS622 
 ASP623  PHE694  ASN695  SER759  ASP760  ASP761  ALA762  ILE779  LEU786  VAL792 
 PHE793  MET794  SER795  GLU796  ALA797  LYS798  CYS799  TRP800  GLU811  SER814 

> <Gold.Protein.RotatedAtoms>
  150.7636  133.9357  159.3440 H   0  0  0  0  0  0  0  0  0  0  0  0  # atno 6907 bound_to 6896
  151.7260  135.0882  160.0301 H   0  0  0  0  0  0  0  0  0  0  0  0  # atno 6908 bound_to 6896
  152.3620  133.6271  159.6058 H   0  0  0  0  0  0  0  0  0  0  0  0  # atno 6909 bound_to 6896
  145.9464  139.3933  143.0332 H   0  0  0  0  0  0  0  0  0  0  0  0  # atno 7974 bound_to 7965
  156.0354  140.1291  157.0214 H   0  0  0  0  0  0  0  0  0  0  0  0  # atno 8008 bound_to 7997
  154.4367  140.1041  156.6230 H   0  0  0  0  0  0  0  0  0  0  0  0  # atno 8009 bound_to 7997
  155.5746  140.3467  155.4526 H   0  0  0  0  0  0  0  0  0  0  0  0  # atno 8010 bound_to 7997
  140.2299  144.3697  150.6418 H   0  0  0  0  0  0  0  0  0  0  0  0  # atno 10167 bound_to 10162
  155.9984  130.4811  150.4917 H   0  0  0  0  0  0  0  0  0  0  0  0  # atno 10718 bound_to 10713
  154.8610  135.3583  154.5540 H   0  0  0  0  0  0  0  0  0  0  0  0  # atno 10763 bound_to 10752
  153.6157  135.7008  153.5334 H   0  0  0  0  0  0  0  0  0  0  0  0  # atno 10764 bound_to 10752
  153.3171  135.4162  155.1346 H   0  0  0  0  0  0  0  0  0  0  0  0  # atno 10765 bound_to 10752
  140.5123  134.5790  157.5022 H   0  0  0  0  0  0  0  0  0  0  0  0  # atno 11005 bound_to 11000
  145.8230  140.9669  143.0889 LP  0  0  0  0  0  0  0  0  0  0  0  0  # atno 17320 bound_to 7965
  144.6788  140.0066  143.7484 LP  0  0  0  0  0  0  0  0  0  0  0  0  # atno 17321 bound_to 7965
  140.6192  143.2175  151.6728 LP  0  0  0  0  0  0  0  0  0  0  0  0  # atno 17342 bound_to 10162
  139.5113  144.3512  152.0650 LP  0  0  0  0  0  0  0  0  0  0  0  0  # atno 17343 bound_to 10162
  157.2911  131.0626  151.2133 LP  0  0  0  0  0  0  0  0  0  0  0  0  # atno 17370 bound_to 10713
  157.3145  130.6906  149.6234 LP  0  0  0  0  0  0  0  0  0  0  0  0  # atno 17371 bound_to 10713
  139.9652  134.7385  156.0153 LP  0  0  0  0  0  0  0  0  0  0  0  0  # atno 17394 bound_to 11000
  141.1379  133.6571  156.3645 LP  0  0  0  0  0  0  0  0  0  0  0  0  # atno 17395 bound_to 11000

$$$$
