AV-unprocessed.smi:910|AV-procd|sdf|4125|dock1
  -GOLD-   22720 2 23D 1   1.00000     0.00000
 Structure written by MMmdl.
 46 47  0  0  0  0  0  0  0  0  1 V2000
  145.7216  142.7850  156.3056 C   0  0  0  0  0  0  0  0  0  0  0  0
  146.8545  142.7705  155.3034 C   0  0  0  0  0  0  0  0  0  0  0  0
  147.9352  141.9451  155.4422 N   0  0  0  0  0  0  0  0  0  0  0  0
  148.7915  142.1632  154.3653 C   0  0  0  0  0  0  0  0  0  0  0  0
  149.9368  141.6489  154.0365 N   0  0  0  0  0  0  0  0  0  0  0  0
  150.4723  140.6730  154.8599 C   0  0  0  0  0  0  0  0  0  0  0  0
  150.3841  139.4489  154.7202 O   0  0  0  0  0  0  0  0  0  0  0  0
  151.0678  141.2270  155.9274 N   0  0  0  0  0  0  0  0  0  0  0  0
  151.6233  140.4919  157.0596 C   0  0  0  0  0  0  0  0  0  0  0  0
  150.9309  140.8933  158.3694 C   0  0  0  0  0  0  0  0  0  0  0  0
  151.1063  142.2878  158.5709 O   0  0  0  0  0  0  0  0  0  0  0  0
  152.4548  142.7370  158.6285 C   0  0  1  0  0  0  0  0  0  0  0  0
  152.5847  144.1802  158.0919 C   0  0  0  0  0  0  0  0  0  0  0  0
  151.7988  145.1791  158.9564 C   0  0  0  0  0  0  0  0  0  0  0  0
  152.2437  145.1060  160.4244 C   0  0  0  0  0  0  0  0  0  0  0  0
  152.1278  143.6748  160.9733 C   0  0  0  0  0  0  0  0  0  0  0  0
  152.9114  142.6693  160.1038 C   0  0  1  0  0  0  0  0  0  0  0  0
  152.8301  141.2428  160.6694 C   0  0  0  0  0  0  0  0  0  0  0  0
  148.1983  143.1301  153.5936 O   0  0  0  0  0  0  0  0  0  0  0  0
  147.0233  143.4780  154.1893 C   0  0  0  0  0  0  0  0  0  0  0  0
  146.1601  144.5336  153.5365 C   0  0  0  0  0  0  0  0  0  0  0  0
  144.7794  142.5435  155.8136 H   0  0  0  0  0  0  0  0  0  0  0  0
  145.6319  143.7725  156.7586 H   0  0  0  0  0  0  0  0  0  0  0  0
  145.8917  142.0562  157.0988 H   0  0  0  0  0  0  0  0  0  0  0  0
  148.0512  141.2997  156.2103 H   0  0  0  0  0  0  0  0  0  0  0  0
  151.0935  142.2350  155.9820 H   0  0  0  0  0  0  0  0  0  0  0  0
  151.5544  139.4141  156.9031 H   0  0  0  0  0  0  0  0  0  0  0  0
  152.6860  140.7262  157.1224 H   0  0  0  0  0  0  0  0  0  0  0  0
  149.8665  140.6621  158.3128 H   0  0  0  0  0  0  0  0  0  0  0  0
  151.3473  140.3148  159.1934 H   0  0  0  0  0  0  0  0  0  0  0  0
  153.0835  142.0697  158.0363 H   0  0  0  0  0  0  0  0  0  0  0  0
  153.6377  144.4647  158.0881 H   0  0  0  0  0  0  0  0  0  0  0  0
  152.2600  144.2490  157.0547 H   0  0  0  0  0  0  0  0  0  0  0  0
  151.9390  146.1913  158.5762 H   0  0  0  0  0  0  0  0  0  0  0  0
  150.7313  144.9679  158.8831 H   0  0  0  0  0  0  0  0  0  0  0  0
  153.2764  145.4462  160.5092 H   0  0  0  0  0  0  0  0  0  0  0  0
  151.6454  145.7882  161.0277 H   0  0  0  0  0  0  0  0  0  0  0  0
  152.4967  143.6482  161.9991 H   0  0  0  0  0  0  0  0  0  0  0  0
  151.0774  143.3852  161.0184 H   0  0  0  0  0  0  0  0  0  0  0  0
  153.9622  142.9615  160.1339 H   0  0  0  0  0  0  0  0  0  0  0  0
  151.8012  140.8829  160.6999 H   0  0  0  0  0  0  0  0  0  0  0  0
  153.2248  141.2013  161.6848 H   0  0  0  0  0  0  0  0  0  0  0  0
  153.4088  140.5463  160.0623 H   0  0  0  0  0  0  0  0  0  0  0  0
  145.1344  144.1775  153.4400 H   0  0  0  0  0  0  0  0  0  0  0  0
  146.5369  144.7754  152.5426 H   0  0  0  0  0  0  0  0  0  0  0  0
  146.1570  145.4433  154.1371 H   0  0  0  0  0  0  0  0  0  0  0  0
  1 22  1  0  0  0  0
  1 23  1  0  0  0  0
  1 24  1  0  0  0  0
  1  2  1  0  0  0  0
  2  3  1  0  0  0  0
  2 20  2  0  0  0  0
  3 25  1  0  0  0  0
  3  4  1  0  0  0  0
  4 19  1  0  0  0  0
  4  5  2  0  0  0  0
  5  6  1  0  0  0  0
  6  8  1  0  0  0  0
  6  7  2  0  0  0  0
  8  9  1  0  0  0  0
  8 26  1  0  0  0  0
  9 10  1  0  0  0  0
  9 27  1  0  0  0  0
  9 28  1  0  0  0  0
 10 11  1  0  0  0  0
 10 29  1  0  0  0  0
 10 30  1  0  0  0  0
 11 12  1  0  0  0  0
 12 17  1  0  0  0  0
 12 13  1  0  0  0  0
 12 31  1  0  0  0  0
 13 14  1  0  0  0  0
 13 32  1  0  0  0  0
 13 33  1  0  0  0  0
 14 15  1  0  0  0  0
 14 34  1  0  0  0  0
 14 35  1  0  0  0  0
 15 16  1  0  0  0  0
 15 36  1  0  0  0  0
 15 37  1  0  0  0  0
 16 17  1  0  0  0  0
 16 38  1  0  0  0  0
 16 39  1  0  0  0  0
 17 18  1  0  0  0  0
 17 40  1  0  0  0  0
 18 41  1  0  0  0  0
 18 42  1  0  0  0  0
 18 43  1  0  0  0  0
 19 20  1  0  0  0  0
 20 21  1  0  0  0  0
 21 44  1  0  0  0  0
 21 45  1  0  0  0  0
 21 46  1  0  0  0  0
M  END
> <s_m_source_file>
AV-unprocessed.smi

> <i_m_source_file_index>
910

> <i_lp_mmshare_version>
43012

> <i_f3d_flags>
0

> <s_epik_input>
W0NIM11jMW5jKG9jMVtDSDNdKVtOSF1DKD1PKVtOSF1bQ0gyXVtDSDJdT1tDQEBIXTJbQ0gyXVtDSDJdW0NIMl1bQ0gyXVtDQEhdMltDSDNd

> <s_epik_cmdline>
J2VwaWtfcHl0aG9uJywgJy1waCcsICc3LjAnLCAnLXRuJywgJzgnLCAnLW1hJywgJzIwMCcsICctbWV0YWxfYmluZGluZycsICctaW1hZScsICc8aW5maWxlLm1hZT4nLCAnLW9tYWUnLCAnPG91dGZpbGUubWFlPic=

> <r_lp_tautomer_probability>
0.107061

> <r_epik_Ionization_Penalty>
0.727192

> <r_epik_Ionization_Penalty_Charging>
0.726719

> <r_epik_Ionization_Penalty_Neutral>
0.000473387

> <r_epik_State_Penalty>
2.53712

> <r_epik_Charging_Adjusted_Penalty>
3.26383

> <i_epik_Tot_Q>
0

> <i_epik_Tot_abs_Q>
0

> <r_epik_Metal_State_Penalty>
3.71015

> <b_epik_Metal_Only>
0

> <s_lp_Force_Field>
OPLS_2005

> <r_lp_Energy>
28.9635

> <b_lp_Chiralities_Consistent>
1

> <s_lp_Variant>
AV-unprocessed.smi:910-10

> <Gold.Version>
5.8.1

> <Gold.Id.Protein>
6NUR|6NUR_protein|mol2

> <Gold.PLP.Fitness>
47.0675

> <Gold.PLP.PLP>
-46.7261

> <Gold.PLP.part.hbond>
-3.6855

> <Gold.PLP.part.metal>
0.0000

> <Gold.PLP.part.buried>
-0.7626

> <Gold.PLP.part.nonpolar>
-41.3729

> <Gold.PLP.part.repulsive>
1.2683

> <Gold.PLP.ligand.clash>
0.0000

> <Gold.PLP.ligand.torsion>
1.1176

> <Gold.PLP.Chemscore.Hbond>
0.8307

> <Gold.PLP.Chemscore.CHOScore>
0.0000

> <Gold.PLP.Chemscore.Metal>
0.0000

> <Gold.Chemscore.Hbonds>
donor molecule, donor type, donor heavy atom, donor atom, acceptor molecule, acceptor atom, score
      P1  H  8011  8017       L1     5  0.26
      P1  H  8022  8030       L1    19  0.26

> <Gold.PLP.Chemscore.Internal.Correction>
0.0845

> <Gold.Rescore>
     Score         DG    S(hbond)    S(metal)    S(lipo)     H(rot)  DE(clash)    DE(int)     intcor
     12.76     -15.76       0.48        0.00     110.59       1.66       0.87       2.14       ----

> <Gold.Chemscore.Fitness>
12.7553

> <Gold.Chemscore.DG>
-15.7634

> <Gold.Chemscore.ZeroCoef>
-5.4800

> <Gold.Chemscore.Hbond>
0.4755

> <Gold.Chemscore.Metal>
0.0000

> <Gold.Chemscore.Lipo>
110.5867

> <Gold.Chemscore.Internal_Hbond>
0.0000

> <Gold.Chemscore.DEClash>
0.8699

> <Gold.Chemscore.DEInternal>
2.1382

> <Gold.Chemscore.Rot>
1.6576

> <Gold.Chemscore.Internal.Correction>
   9.000000E+99

> <Gold.Chemscore.Hbonds>
donor molecule, donor type, donor heavy atom, donor atom, acceptor molecule, acceptor atom, score
      P1  H  8011  8017       L1     5  0.01
      P1  H  8022  8030       L1    19  0.01

> <Gold.Chemscore.Hbond.Weighted>
-1.5883

> <Gold.Chemscore.Metal.Weighted>
-0.0000

> <Gold.Chemscore.Lipo.Weighted>
-12.9386

> <Gold.Chemscore.Internal_Hbond.Weighted>
0.0000

> <Gold.Chemscore.DEClash.Weighted>
0.8699

> <Gold.Chemscore.DEInternal.Weighted>
2.1382

> <Gold.Chemscore.Rot.Weighted>
4.2436

> <Gold.Chemscore.Internal.Correction.Weighted>
   9.000000E+99

> <Gold.Protein.RotatedTorsions>
[ 6907 6896 6895 6894 ] final  -73.09 input  -60.11 | X-H torsion
[ 7974 7965 7964 7962 ] final  166.36 input  175.53 | X-H torsion
[ 8008 7997 7996 7995 ] final   48.98 input   59.86 | X-H torsion
[ 10167 10162 10161 10158 ] final  -53.27 input  -65.29 | X-H torsion
[ 10718 10713 10712 10709 ] final   47.89 input   66.30 | X-H torsion
[ 10763 10752 10751 10750 ] final   84.37 input  -60.55 | X-H torsion
[ 11005 11000 10999 10996 ] final  167.55 input  -57.11 | X-H torsion

> <Gold.Protein.ActiveResidues>
 VAL166  LYS551  ARG553  GLY616  TRP617  ASP618  TYR619  PRO620  LYS621  CYS622 
 ASP623  PHE694  ASN695  SER759  ASP760  ASP761  ALA762  ILE779  LEU786  VAL792 
 PHE793  MET794  SER795  GLU796  ALA797  LYS798  CYS799  TRP800  GLU811  SER814 

> <Gold.Protein.RotatedAtoms>
  150.7144  134.5067  159.5587 H   0  0  0  0  0  0  0  0  0  0  0  0  # atno 6907 bound_to 6896
  152.2652  134.7988  160.0433 H   0  0  0  0  0  0  0  0  0  0  0  0  # atno 6908 bound_to 6896
  151.8688  133.3436  159.3764 H   0  0  0  0  0  0  0  0  0  0  0  0  # atno 6909 bound_to 6896
  144.7465  139.8605  143.6380 H   0  0  0  0  0  0  0  0  0  0  0  0  # atno 7974 bound_to 7965
  155.3947  140.3435  155.4253 H   0  0  0  0  0  0  0  0  0  0  0  0  # atno 8008 bound_to 7997
  156.1538  140.1579  156.8759 H   0  0  0  0  0  0  0  0  0  0  0  0  # atno 8009 bound_to 7997
  154.5076  140.0798  156.7907 H   0  0  0  0  0  0  0  0  0  0  0  0  # atno 8010 bound_to 7997
  140.6494  143.2556  151.4768 H   0  0  0  0  0  0  0  0  0  0  0  0  # atno 10167 bound_to 10162
  157.4631  130.8208  149.7907 H   0  0  0  0  0  0  0  0  0  0  0  0  # atno 10718 bound_to 10713
  153.1375  135.4657  154.9445 H   0  0  0  0  0  0  0  0  0  0  0  0  # atno 10763 bound_to 10752
  154.7719  135.3161  154.8175 H   0  0  0  0  0  0  0  0  0  0  0  0  # atno 10764 bound_to 10752
  153.8704  135.6904  153.4829 H   0  0  0  0  0  0  0  0  0  0  0  0  # atno 10765 bound_to 10752
  140.2780  134.7773  157.3733 H   0  0  0  0  0  0  0  0  0  0  0  0  # atno 11005 bound_to 11000
  146.1352  139.4396  143.0143 LP  0  0  0  0  0  0  0  0  0  0  0  0  # atno 17320 bound_to 7965
  145.7103  141.0108  143.1457 LP  0  0  0  0  0  0  0  0  0  0  0  0  # atno 17321 bound_to 7965
  139.5707  144.1935  152.1832 LP  0  0  0  0  0  0  0  0  0  0  0  0  # atno 17342 bound_to 10162
  140.1231  144.5356  150.6850 LP  0  0  0  0  0  0  0  0  0  0  0  0  # atno 17343 bound_to 10162
  156.0038  130.3866  150.2507 LP  0  0  0  0  0  0  0  0  0  0  0  0  # atno 17370 bound_to 10713
  157.0686  131.0110  151.3198 LP  0  0  0  0  0  0  0  0  0  0  0  0  # atno 17371 bound_to 10713
  140.1310  134.5095  155.8105 LP  0  0  0  0  0  0  0  0  0  0  0  0  # atno 17394 bound_to 11000
  141.2167  133.6790  156.7039 LP  0  0  0  0  0  0  0  0  0  0  0  0  # atno 17395 bound_to 11000

$$$$
