#       Name:                AV-unprocessed.smi:155
#       Creating user name   scv26
#       Creation time:       Thu Mar 26 18:55:21 2020


#       File generated by GOLD software.
#

@<TRIPOS>MOLECULE
AV-unprocessed.smi:155
    71    74     1
SMALL
NO_CHARGES


@<TRIPOS>ATOM
      1 ****        -5.3276   1.2128  -1.0512 C.3            1 S1                 0.0000
      2 ****        -5.3886   0.6268   0.3084 N.4            1 S1                 1.0000
      3 ****        -5.6976   1.6586   1.3239 C.3            1 S1                 0.0000
      4 ****        -4.1826  -0.1656   0.6633 C.3            1 S1                 0.0000
      5 ****        -4.1754  -1.5655   0.0105 C.3            1 S1                 0.0000
      6 ****        -2.8878  -2.2885   0.1978 N.4            1 S1                 1.0000
      7 ****        -2.7330  -3.4409  -0.7316 C.3            1 S1                 0.0000
      8 ****        -1.3066  -3.4886  -1.3074 C.3            1 S1                 0.0000
      9 ****        -0.2423  -3.9534  -0.2990 C.3            1 S1                 0.0000
     10 ****        -0.2359  -3.1522   0.9229 N.pl3          1 S1                 0.0000
     11 ****         0.4169  -1.9519   0.9980 C.ar           1 S1                 0.0000
     12 ****         0.2878  -1.2331   2.1466 N.ar           1 S1                 0.0000
     13 ****         0.8883  -0.0503   2.2954 C.ar           1 S1                 0.0000
     14 ****         1.6580   0.6050   1.4289 N.ar           1 S1                 0.0000
     15 ****         1.8032  -0.0991   0.2720 C.ar           1 S1                 0.0000
     16 ****         1.2270  -1.3698  -0.0294 C.ar           1 S1                 0.0000
     17 ****         1.6082  -1.7439  -1.3152 N.2            1 S1                 0.0000
     18 ****         2.3613  -0.7677  -1.7397 C.2            1 S1                 0.0000
     19 ****         2.5320   0.2617  -0.8464 N.pl3          1 S1                 0.0000
     20 ****         3.3145   1.4684  -1.0483 C.3            1 S1                 0.0000
     21 ****         4.6653   1.4213  -0.3034 C.3            1 S1                 0.0000
     22 ****         5.4229   0.3012  -0.7174 O.3            1 S1                 0.0000
     23 ****         5.5255   2.6919  -0.4631 C.3            1 S1                 0.0000
     24 ****         5.0616   3.8749   0.3871 C.3            1 S1                 0.0000
     25 ****         5.6931   5.0372  -0.3445 C.3            1 S1                 0.0000
     26 ****         5.5446   4.6122  -1.8031 C.3            1 S1                 0.0000
     27 ****         5.4993   3.1871  -1.8001 O.3            1 S1                 0.0000
     28 ****        -1.3188  -3.4445   1.8668 C.3            1 S1                 0.0000
     29 ****        -2.6084  -2.6268   1.6236 C.3            1 S1                 0.0000
     30 ****        -4.4905   1.9064  -1.1408 H              1 S1                 0.0000
     31 ****        -6.2439   1.7610  -1.2728 H              1 S1                 0.0000
     32 ****        -5.2189   0.4468  -1.8178 H              1 S1                 0.0000
     33 ****        -4.8928   2.3918   1.3939 H              1 S1                 0.0000
     34 ****        -5.8379   1.2084   2.3074 H              1 S1                 0.0000
     35 ****        -6.6186   2.1858   1.0718 H              1 S1                 0.0000
     36 ****        -3.2854   0.3941   0.3928 H              1 S1                 0.0000
     37 ****        -4.1577  -0.2848   1.7467 H              1 S1                 0.0000
     38 ****        -5.0001  -2.1714   0.3888 H              1 S1                 0.0000
     39 ****        -4.3434  -1.4475  -1.0593 H              1 S1                 0.0000
     40 ****        -3.0031  -4.3795  -0.2451 H              1 S1                 0.0000
     41 ****        -3.4163  -3.3427  -1.5757 H              1 S1                 0.0000
     42 ****        -1.2918  -4.1744  -2.1552 H              1 S1                 0.0000
     43 ****        -1.0446  -2.5108  -1.7125 H              1 S1                 0.0000
     44 ****        -0.4491  -4.9888  -0.0265 H              1 S1                 0.0000
     45 ****         0.7465  -3.9896  -0.7520 H              1 S1                 0.0000
     46 ****         0.7277   0.4417   3.2435 H              1 S1                 0.0000
     47 ****         2.8174  -0.7732  -2.7194 H              1 S1                 0.0000
     48 ****         3.4711   1.6013  -2.1195 H              1 S1                 0.0000
     49 ****         2.7192   2.3178  -0.7131 H              1 S1                 0.0000
     50 ****         4.4769   1.2744   0.7609 H              1 S1                 0.0000
     51 ****         4.9233  -0.4807  -0.5389 H              1 S1                 0.0000
     52 ****         6.5636   2.4794  -0.2005 H              1 S1                 0.0000
     53 ****         3.9757   3.9718   0.3703 H              1 S1                 0.0000
     54 ****         5.3815   3.8010   1.4269 H              1 S1                 0.0000
     55 ****         5.2172   5.9938  -0.1272 H              1 S1                 0.0000
     56 ****         6.7491   5.1131  -0.0816 H              1 S1                 0.0000
     57 ****         4.6083   4.9859  -2.2186 H              1 S1                 0.0000
     58 ****         6.3613   4.9810  -2.4239 H              1 S1                 0.0000
     59 ****        -1.5632  -4.5039   1.7814 H              1 S1                 0.0000
     60 ****        -0.9785  -3.3244   2.8960 H              1 S1                 0.0000
     61 ****        -2.5111  -1.6968   2.1819 H              1 S1                 0.0000
     62 ****        -3.4581  -3.1569   2.0562 H              1 S1                 0.0000
     63 ****        -6.1710  -0.0123   0.3190 H              1 S1                 0.0000
     64 ****        -2.1693  -1.6358  -0.0819 H              1 S1                 0.0000
     65 ****        -0.2678  -1.5982   2.8936 LP             1 S1                 0.0000
     66 ****         2.0748   1.4969   1.6044 LP             1 S1                 0.0000
     67 ****         1.3589  -2.5788  -1.8059 LP             1 S1                 0.0000
     68 ****         6.2860   0.2726  -0.2132 LP             1 S1                 0.0000
     69 ****         5.6114   0.3649  -1.6974 LP             1 S1                 0.0000
     70 ****         4.6583   2.8832  -2.2477 LP             1 S1                 0.0000
     71 ****         6.2896   2.8312  -2.2989 LP             1 S1                 0.0000
@<TRIPOS>BOND
    1    1    2 1     
    2    1   30 1     
    3    1   31 1     
    4    1   32 1     
    5    2    3 1     
    6    2    4 1     
    7    2   63 1     
    8    3   33 1     
    9    3   34 1     
   10    3   35 1     
   11    4    5 1     
   12    4   36 1     
   13    4   37 1     
   14    5    6 1     
   15    5   38 1     
   16    5   39 1     
   17    6   29 1     
   18    6    7 1     
   19    6   64 1     
   20    7    8 1     
   21    7   40 1     
   22    7   41 1     
   23    8    9 1     
   24    8   42 1     
   25    8   43 1     
   26    9   10 1     
   27    9   44 1     
   28    9   45 1     
   29   10   11 1     
   30   10   28 1     
   31   11   16 ar    
   32   11   12 ar    
   33   12   13 ar    
   34   13   14 ar    
   35   13   46 1     
   36   14   15 ar    
   37   15   19 1     
   38   15   16 ar    
   39   16   17 1     
   40   17   18 2     
   41   18   19 1     
   42   18   47 1     
   43   19   20 1     
   44   20   21 1     
   45   20   48 1     
   46   20   49 1     
   47   21   22 1     
   48   21   23 1     
   49   21   50 1     
   50   22   51 1     
   51   23   27 1     
   52   23   24 1     
   53   23   52 1     
   54   24   25 1     
   55   24   53 1     
   56   24   54 1     
   57   25   26 1     
   58   25   55 1     
   59   25   56 1     
   60   26   27 1     
   61   26   57 1     
   62   26   58 1     
   63   28   29 1     
   64   28   59 1     
   65   28   60 1     
   66   29   61 1     
   67   29   62 1     
   68   12   65 1     
   69   14   66 1     
   70   17   67 1     
   71   22   68 1     
   72   22   69 1     
   73   27   70 1     
   74   27   71 1     
@<TRIPOS>SUBSTRUCTURE
      1 S1             1
@<TRIPOS>SET
LONE_PAIRS      STATIC     ATOMS    <user>   **** ""
7 65 66 67 68 69 70 71
DONOR_HYDROGENS      STATIC     ATOMS    <user>   **** ""
3 63 64 51
ATOM$BLUE        STATIC     ATOMS    COLORGROUP SYSTEM
7 65 66 67 68 69 70 71
ATOM$RED        STATIC     ATOMS    COLORGROUP SYSTEM
3 63 64 51
