#       Name:                AV-unprocessed.smi:598
#       Creating user name   scv26
#       Creation time:       Thu Mar 26 23:53:19 2020


#       File generated by GOLD software.
#

@<TRIPOS>MOLECULE
AV-unprocessed.smi:598
    49    50     1
SMALL
NO_CHARGES


@<TRIPOS>ATOM
      1 ****        -4.1941  -1.2406  -1.2291 C.3            1 S1                 0.0000
      2 ****        -3.5052  -0.6646   0.0194 C.3            1 S1                 0.0000
      3 ****        -4.0701  -1.2777   1.3170 C.3            1 S1                 0.0000
      4 ****        -3.4494  -0.6287   2.5639 C.3            1 S1                 0.0000
      5 ****        -1.9154  -0.6990   2.5304 C.3            1 S1                 0.0000
      6 ****        -1.3567  -0.0776   1.2357 C.3            1 S1                 0.0000
      7 ****         0.1036  -0.1274   1.2528 N.am           1 S1                 0.0000
      8 ****         0.9171   0.6676   0.5412 C.2            1 S1                 0.0000
      9 ****         0.5095   1.5660  -0.1962 O.2            1 S1                 0.0000
     10 ****         2.4215   0.4104   0.7033 C.3            1 S1                 0.0000
     11 ****         3.1973   0.7643  -0.4972 N.am           1 S1                 0.0000
     12 ****         3.8635   2.0060  -0.4896 C.2            1 S1                 0.0000
     13 ****         4.5968   2.4312  -1.5371 C.2            1 S1                 0.0000
     14 ****         5.2702   3.7114  -1.5144 N.pl3          1 S1                 1.0000
     15 ****         5.9086   4.0579  -2.5032 O.2            1 S1                 0.0000
     16 ****         5.1852   4.4116  -0.5097 O.2            1 S1                -1.0000
     17 ****         4.6853   1.5625  -2.6951 C.2            1 S1                 0.0000
     18 ****         4.0483   0.3751  -2.7095 C.2            1 S1                 0.0000
     19 ****         3.2498  -0.0851  -1.5689 C.2            1 S1                 0.0000
     20 ****         2.6637  -1.1680  -1.5764 O.2            1 S1                 0.0000
     21 ****        -1.9561  -0.7530  -0.0294 C.3            1 S1                 0.0000
     22 ****        -1.4236  -2.1861  -0.2649 C.3            1 S1                 0.0000
     23 ****        -4.0928  -2.3246  -1.2842 H              1 S1                 0.0000
     24 ****        -3.7762  -0.8154  -2.1419 H              1 S1                 0.0000
     25 ****        -5.2609  -1.0157  -1.2218 H              1 S1                 0.0000
     26 ****        -3.7557   0.3974   0.0370 H              1 S1                 0.0000
     27 ****        -5.1527  -1.1497   1.3470 H              1 S1                 0.0000
     28 ****        -3.8914  -2.3531   1.3343 H              1 S1                 0.0000
     29 ****        -3.7637   0.4140   2.6256 H              1 S1                 0.0000
     30 ****        -3.8249  -1.1166   3.4638 H              1 S1                 0.0000
     31 ****        -1.5109  -0.1773   3.3986 H              1 S1                 0.0000
     32 ****        -1.5944  -1.7373   2.6220 H              1 S1                 0.0000
     33 ****        -1.6524   0.9735   1.2320 H              1 S1                 0.0000
     34 ****         0.5261  -0.8361   1.8348 H              1 S1                 0.0000
     35 ****         2.7694   0.9747   1.5695 H              1 S1                 0.0000
     36 ****         2.5896  -0.6378   0.9587 H              1 S1                 0.0000
     37 ****         3.7291   2.5817   0.4150 H              1 S1                 0.0000
     38 ****         5.2614   1.8579  -3.5597 H              1 S1                 0.0000
     39 ****         4.1261  -0.2558  -3.5828 H              1 S1                 0.0000
     40 ****        -1.6342  -0.1658  -0.8907 H              1 S1                 0.0000
     41 ****        -1.7130  -2.8681   0.5337 H              1 S1                 0.0000
     42 ****        -0.3359  -2.2034  -0.3336 H              1 S1                 0.0000
     43 ****        -1.7931  -2.6005  -1.2021 H              1 S1                 0.0000
     44 ****        -0.4725   1.7318  -0.2866 LP             1 S1                 0.0000
     45 ****         1.1606   2.1297  -0.7044 LP             1 S1                 0.0000
     46 ****         5.9556   3.4595  -3.3029 LP             1 S1                 0.0000
     47 ****         6.3819   4.9388  -2.5093 LP             1 S1                 0.0000
     48 ****         2.1272  -1.4517  -0.7816 LP             1 S1                 0.0000
     49 ****         2.7242  -1.7637  -2.3773 LP             1 S1                 0.0000
@<TRIPOS>BOND
    1    1    2 1     
    2    1   23 1     
    3    1   24 1     
    4    1   25 1     
    5    2   21 1     
    6    2    3 1     
    7    2   26 1     
    8    3    4 1     
    9    3   27 1     
   10    3   28 1     
   11    4    5 1     
   12    4   29 1     
   13    4   30 1     
   14    5    6 1     
   15    5   31 1     
   16    5   32 1     
   17    6    7 1     
   18    6   21 1     
   19    6   33 1     
   20    7    8 am    
   21    7   34 1     
   22    8    9 2     
   23    8   10 1     
   24   10   11 1     
   25   10   35 1     
   26   10   36 1     
   27   11   19 am    
   28   11   12 1     
   29   12   13 2     
   30   12   37 1     
   31   13   14 1     
   32   13   17 1     
   33   14   15 2     
   34   14   16 1     
   35   17   18 2     
   36   17   38 1     
   37   18   19 1     
   38   18   39 1     
   39   19   20 2     
   40   21   22 1     
   41   21   40 1     
   42   22   41 1     
   43   22   42 1     
   44   22   43 1     
   45    9   44 1     
   46    9   45 1     
   47   15   46 1     
   48   15   47 1     
   49   20   48 1     
   50   20   49 1     
@<TRIPOS>SUBSTRUCTURE
      1 S1             1
@<TRIPOS>SET
LONE_PAIRS      STATIC     ATOMS    <user>   **** ""
7 44 45 46 47 16 48 49
DONOR_HYDROGENS      STATIC     ATOMS    <user>   **** ""
1 34
ATOM$BLUE        STATIC     ATOMS    COLORGROUP SYSTEM
7 44 45 46 47 16 48 49
ATOM$RED        STATIC     ATOMS    COLORGROUP SYSTEM
1 34
