AV-unprocessed.smi:544|AV-procd|sdf|2879|dock5
  -GOLD-   2262023373D 1   1.00000     0.00000
 Structure written by MMmdl.
 48 50  0  0  0  0  0  0  0  0  2 V2000
  147.7385  139.6552  153.9609 C   0  0  0  0  0  0  0  0  0  0  0  0
  148.2534  141.0939  154.0427 C   0  0  0  0  0  0  0  0  0  0  0  0
  149.6519  141.0687  154.2720 O   0  0  0  0  0  0  0  0  0  0  0  0
  149.9854  140.6056  155.5697 C   0  0  0  0  0  0  0  0  0  0  0  0
  151.5161  140.6115  155.7167 C   0  0  0  0  0  0  0  0  0  0  0  0
  151.9563  140.0653  156.9979 N   0  0  0  0  0  0  0  0  0  0  0  0
  152.0570  140.6864  158.2098 C   0  0  0  0  0  0  0  0  0  0  0  0
  151.7096  142.0273  158.4306 N   0  0  0  0  0  0  0  0  0  0  0  0
  151.1838  142.9887  157.4576 C   0  0  0  0  0  0  0  0  0  0  0  0
  151.9548  144.3205  157.4857 C   0  0  0  0  0  0  0  0  0  0  0  0
  151.9100  144.9376  158.8884 C   0  0  0  0  0  0  0  0  0  0  0  0
  152.3702  143.9071  159.9323 C   0  0  1  0  0  0  0  0  0  0  0  0
  152.2585  144.4624  161.3583 C   0  0  0  0  0  0  0  0  0  0  0  0
  151.5666  142.6004  159.7714 C   0  0  0  0  0  0  0  0  0  0  0  0
  152.5540  139.9127  159.1787 N   0  0  0  0  0  0  0  0  0  0  0  0
  152.7744  138.7021  158.5446 C   0  0  0  0  0  0  0  0  0  0  0  0
  152.4344  138.7696  157.2307 C   0  0  0  0  0  0  0  0  0  0  0  0
  152.5931  137.6410  156.2847 C   0  0  0  0  0  0  0  0  0  0  0  0
  152.2972  137.7586  155.0975 O   0  0  0  0  0  0  0  0  0  0  0  0
  153.0922  136.5195  156.8948 N   0  5  0  0  0  0  0  0  0  0  0  0
  153.4400  136.4068  158.2235 C   0  0  0  0  0  0  0  0  0  0  0  0
  153.8827  135.3576  158.6931 O   0  0  0  0  0  0  0  0  0  0  0  0
  153.2948  137.4831  159.0582 N   0  0  0  0  0  0  0  0  0  0  0  0
  153.6609  137.3942  160.4747 C   0  0  0  0  0  0  0  0  0  0  0  0
  146.6628  139.6366  153.7861 H   0  0  0  0  0  0  0  0  0  0  0  0
  147.9368  139.1154  154.8871 H   0  0  0  0  0  0  0  0  0  0  0  0
  148.2200  139.1133  153.1465 H   0  0  0  0  0  0  0  0  0  0  0  0
  148.0334  141.6206  153.1130 H   0  0  0  0  0  0  0  0  0  0  0  0
  147.7487  141.6245  154.8513 H   0  0  0  0  0  0  0  0  0  0  0  0
  149.5189  141.2419  156.3214 H   0  0  0  0  0  0  0  0  0  0  0  0
  149.5881  139.6018  155.7186 H   0  0  0  0  0  0  0  0  0  0  0  0
  151.9743  140.0357  154.9130 H   0  0  0  0  0  0  0  0  0  0  0  0
  151.9106  141.6166  155.5933 H   0  0  0  0  0  0  0  0  0  0  0  0
  151.1932  142.5729  156.4550 H   0  0  0  0  0  0  0  0  0  0  0  0
  150.1326  143.1708  157.6844 H   0  0  0  0  0  0  0  0  0  0  0  0
  152.9917  144.1616  157.1891 H   0  0  0  0  0  0  0  0  0  0  0  0
  151.5284  145.0136  156.7598 H   0  0  0  0  0  0  0  0  0  0  0  0
  152.5369  145.8290  158.9274 H   0  0  0  0  0  0  0  0  0  0  0  0
  150.8917  145.2599  159.1107 H   0  0  0  0  0  0  0  0  0  0  0  0
  153.4216  143.6805  159.7472 H   0  0  0  0  0  0  0  0  0  0  0  0
  151.2252  144.7034  161.6099 H   0  0  0  0  0  0  0  0  0  0  0  0
  152.8507  145.3707  161.4731 H   0  0  0  0  0  0  0  0  0  0  0  0
  152.6195  143.7394  162.0904 H   0  0  0  0  0  0  0  0  0  0  0  0
  150.5095  142.7749  159.9767 H   0  0  0  0  0  0  0  0  0  0  0  0
  151.9085  141.8811  160.5161 H   0  0  0  0  0  0  0  0  0  0  0  0
  153.0676  136.6272  160.9742 H   0  0  0  0  0  0  0  0  0  0  0  0
  153.5020  138.3293  161.0106 H   0  0  0  0  0  0  0  0  0  0  0  0
  154.7148  137.1339  160.5816 H   0  0  0  0  0  0  0  0  0  0  0  0
  1  2  1  0  0  0  0
  1 25  1  0  0  0  0
  1 26  1  0  0  0  0
  1 27  1  0  0  0  0
  2  3  1  0  0  0  0
  2 28  1  0  0  0  0
  2 29  1  0  0  0  0
  3  4  1  0  0  0  0
  4  5  1  0  0  0  0
  4 30  1  0  0  0  0
  4 31  1  0  0  0  0
  5  6  1  0  0  0  0
  5 32  1  0  0  0  0
  5 33  1  0  0  0  0
  6 17  1  0  0  0  0
  6  7  1  0  0  0  0
  7  8  1  0  0  0  0
  7 15  2  0  0  0  0
  8 14  1  0  0  0  0
  8  9  1  0  0  0  0
  9 10  1  0  0  0  0
  9 34  1  0  0  0  0
  9 35  1  0  0  0  0
 10 11  1  0  0  0  0
 10 36  1  0  0  0  0
 10 37  1  0  0  0  0
 11 12  1  0  0  0  0
 11 38  1  0  0  0  0
 11 39  1  0  0  0  0
 12 13  1  0  0  0  0
 12 14  1  0  0  0  0
 12 40  1  0  0  0  0
 13 41  1  0  0  0  0
 13 42  1  0  0  0  0
 13 43  1  0  0  0  0
 14 44  1  0  0  0  0
 14 45  1  0  0  0  0
 15 16  1  0  0  0  0
 16 23  1  0  0  0  0
 16 17  2  0  0  0  0
 17 18  1  0  0  0  0
 18 19  2  0  0  0  0
 18 20  1  0  0  0  0
 20 21  1  0  0  0  0
 21 22  2  0  0  0  0
 21 23  1  0  0  0  0
 23 24  1  0  0  0  0
 24 46  1  0  0  0  0
 24 47  1  0  0  0  0
 24 48  1  0  0  0  0
M  CHG  1  20  -1
M  END
> <s_m_source_file>
AV-unprocessed.smi

> <i_m_source_file_index>
544

> <i_lp_mmshare_version>
43012

> <i_f3d_flags>
0

> <s_epik_input>
W0NIM11uMWMoPU8pW25IXWMoPU8pYyhjMTIpbihbQ0gyXVtDSDJdT1tDSDJdW0NIM10pYyhuMilOM1tDSDJdW0NIMl1bQ0gyXVtDQEBIXShbQ0gzXSlbQ0gyXTM=

> <s_epik_cmdline>
J2VwaWtfcHl0aG9uJywgJy1waCcsICc3LjAnLCAnLXRuJywgJzgnLCAnLW1hJywgJzIwMCcsICctbWV0YWxfYmluZGluZycsICctaW1hZScsICc8aW5maWxlLm1hZT4nLCAnLW9tYWUnLCAnPG91dGZpbGUubWFlPic=

> <r_lp_tautomer_probability>
1

> <r_epik_Ionization_Penalty>
5.1213

> <r_epik_Ionization_Penalty_Charging>
0.0741877

> <r_epik_Ionization_Penalty_Neutral>
5.04711

> <r_epik_State_Penalty>
5.04142

> <r_epik_Charging_Adjusted_Penalty>
5.11561

> <i_epik_Tot_Q>
-1

> <i_epik_Tot_abs_Q>
1

> <r_epik_Metal_State_Penalty>
1.14934

> <b_epik_Metal_Only>
1

> <s_lp_Force_Field>
OPLS_2005

> <r_lp_Energy>
41.9091

> <b_lp_Chiralities_Consistent>
1

> <s_lp_Variant>
AV-unprocessed.smi:544-3

> <Gold.Version>
5.8.1

> <Gold.Id.Protein>
6NUR|6NUR_protein|mol2

> <Gold.PLP.Fitness>
52.1635

> <Gold.PLP.PLP>
-44.4911

> <Gold.PLP.part.hbond>
-4.6163

> <Gold.PLP.part.metal>
0.0000

> <Gold.PLP.part.buried>
-2.8399

> <Gold.PLP.part.nonpolar>
-37.7123

> <Gold.PLP.part.repulsive>
0.2244

> <Gold.PLP.ligand.clash>
1.1550

> <Gold.PLP.ligand.torsion>
0.3776

> <Gold.PLP.Chemscore.Hbond>
3.1375

> <Gold.PLP.Chemscore.CHOScore>
0.0000

> <Gold.PLP.Chemscore.Metal>
0.0000

> <Gold.Chemscore.Hbonds>
donor molecule, donor type, donor heavy atom, donor atom, acceptor molecule, acceptor atom, score
      P1  H  6896  6909       L1    22  0.82
      P1  H  7989  7998       L1     3  0.32
      P1  H  8011  8017       L1     3  0.04
      P1  H 10752 10764       L1    20  1.70

> <Gold.PLP.Chemscore.Internal.Correction>
0.1701

> <Gold.Rescore>
     Score         DG    S(hbond)    S(metal)    S(lipo)     H(rot)  DE(clash)    DE(int)     intcor
     16.64     -18.37       1.25        0.00     108.44       1.55       0.20       1.53       ----

> <Gold.Chemscore.Fitness>
16.6412

> <Gold.Chemscore.DG>
-18.3713

> <Gold.Chemscore.ZeroCoef>
-5.4800

> <Gold.Chemscore.Hbond>
1.2518

> <Gold.Chemscore.Metal>
0.0000

> <Gold.Chemscore.Lipo>
108.4381

> <Gold.Chemscore.Internal_Hbond>
0.0000

> <Gold.Chemscore.DEClash>
0.2049

> <Gold.Chemscore.DEInternal>
1.5253

> <Gold.Chemscore.Rot>
1.5534

> <Gold.Chemscore.Internal.Correction>
   9.000000E+99

> <Gold.Chemscore.Hbonds>
donor molecule, donor type, donor heavy atom, donor atom, acceptor molecule, acceptor atom, score
      P1  H  6896  6909       L1    22  0.53
      P1  H  7989  7998       L1     3  0.04
      P1  H 10752 10764       L1    20  0.13

> <Gold.Chemscore.Hbond.Weighted>
-4.1809

> <Gold.Chemscore.Metal.Weighted>
-0.0000

> <Gold.Chemscore.Lipo.Weighted>
-12.6873

> <Gold.Chemscore.Internal_Hbond.Weighted>
0.0000

> <Gold.Chemscore.DEClash.Weighted>
0.2049

> <Gold.Chemscore.DEInternal.Weighted>
1.5253

> <Gold.Chemscore.Rot.Weighted>
3.9768

> <Gold.Chemscore.Internal.Correction.Weighted>
   9.000000E+99

> <Gold.Protein.RotatedTorsions>
[ 6907 6896 6895 6894 ] final -172.16 input  -60.11 | X-H torsion
[ 7974 7965 7964 7962 ] final    3.53 input  175.53 | X-H torsion
[ 8008 7997 7996 7995 ] final   -6.03 input   59.86 | X-H torsion
[ 10167 10162 10161 10158 ] final  167.21 input  -65.29 | X-H torsion
[ 10718 10713 10712 10709 ] final  167.59 input   66.30 | X-H torsion
[ 10763 10752 10751 10750 ] final  -15.50 input  -60.55 | X-H torsion
[ 11005 11000 10999 10996 ] final  118.73 input  -57.11 | X-H torsion

> <Gold.Protein.ActiveResidues>
 VAL166  LYS551  ARG553  GLY616  TRP617  ASP618  TYR619  PRO620  LYS621  CYS622 
 ASP623  PHE694  ASN695  SER759  ASP760  ASP761  ALA762  ILE779  LEU786  VAL792 
 PHE793  MET794  SER795  GLU796  ALA797  LYS798  CYS799  TRP800  GLU811  SER814 

> <Gold.Protein.RotatedAtoms>
  151.5355  133.3441  159.2925 H   0  0  0  0  0  0  0  0  0  0  0  0  # atno 6907 bound_to 6896
  150.8567  134.7910  159.7062 H   0  0  0  0  0  0  0  0  0  0  0  0  # atno 6908 bound_to 6896
  152.4599  134.5217  159.9836 H   0  0  0  0  0  0  0  0  0  0  0  0  # atno 6909 bound_to 6896
  146.2445  140.0671  142.8365 H   0  0  0  0  0  0  0  0  0  0  0  0  # atno 7974 bound_to 7965
  154.5978  140.2443  155.7833 H   0  0  0  0  0  0  0  0  0  0  0  0  # atno 8008 bound_to 7997
  156.2291  140.2972  156.0095 H   0  0  0  0  0  0  0  0  0  0  0  0  # atno 8009 bound_to 7997
  155.2262  140.0402  157.2946 H   0  0  0  0  0  0  0  0  0  0  0  0  # atno 8010 bound_to 7997
  139.4940  144.3946  151.9479 H   0  0  0  0  0  0  0  0  0  0  0  0  # atno 10167 bound_to 10162
  157.0493  131.0309  151.2686 H   0  0  0  0  0  0  0  0  0  0  0  0  # atno 10718 bound_to 10713
  153.5442  135.7013  153.5622 H   0  0  0  0  0  0  0  0  0  0  0  0  # atno 10763 bound_to 10752
  153.3574  135.3979  155.1692 H   0  0  0  0  0  0  0  0  0  0  0  0  # atno 10764 bound_to 10752
  154.8669  135.3780  154.4949 H   0  0  0  0  0  0  0  0  0  0  0  0  # atno 10765 bound_to 10752
  139.9120  134.9623  156.7548 H   0  0  0  0  0  0  0  0  0  0  0  0  # atno 11005 bound_to 11000
  145.0849  140.9246  143.4803 LP  0  0  0  0  0  0  0  0  0  0  0  0  # atno 17320 bound_to 7965
  145.0831  139.2945  143.5773 LP  0  0  0  0  0  0  0  0  0  0  0  0  # atno 17321 bound_to 7965
  140.3384  144.3233  150.5972 LP  0  0  0  0  0  0  0  0  0  0  0  0  # atno 17342 bound_to 10162
  140.5587  143.2195  151.7803 LP  0  0  0  0  0  0  0  0  0  0  0  0  # atno 17343 bound_to 10162
  157.5042  130.7899  149.7637 LP  0  0  0  0  0  0  0  0  0  0  0  0  # atno 17370 bound_to 10713
  156.0012  130.3879  150.2597 LP  0  0  0  0  0  0  0  0  0  0  0  0  # atno 17371 bound_to 10713
  140.6744  133.9530  155.7875 LP  0  0  0  0  0  0  0  0  0  0  0  0  # atno 17394 bound_to 11000
  141.0554  134.0423  157.3729 LP  0  0  0  0  0  0  0  0  0  0  0  0  # atno 17395 bound_to 11000

$$$$
