AV-unprocessed.smi:2774|AV-procd|sdf|10681|dock1
  -GOLD-   2272015123D 1   1.00000     0.00000
 Structure written by MMmdl.
 35 36  0  0  0  0  0  0  0  0  2 V2000
  149.5343  141.7039  154.4420 O   0  0  0  0  0  0  0  0  0  0  0  0
  150.2466  141.2075  155.5585 C   0  0  1  0  0  0  0  0  0  0  0  0
  149.3377  141.2816  156.7977 C   0  0  0  0  0  0  0  0  0  0  0  0
  149.3955  142.6178  157.4297 N   0  3  0  0  0  0  0  0  0  0  0  0
  150.6973  142.9812  158.0327 C   0  0  2  0  0  0  0  0  0  0  0  0
  151.1639  141.9080  159.0416 C   0  0  0  0  0  0  0  0  0  0  0  0
  152.5392  142.2223  159.6540 C   0  0  0  0  0  0  0  0  0  0  0  0
  152.5514  143.5472  160.4284 C   0  0  0  0  0  0  0  0  0  0  0  0
  152.1718  144.9428  159.3365 S   0  0  0  0  0  0  0  0  0  0  0  0
  150.5747  144.3606  158.7049 C   0  0  0  0  0  0  0  0  0  0  0  0
  150.7424  139.7891  155.3242 C   0  0  0  0  0  0  0  0  0  0  0  0
  152.0708  139.4343  155.6403 C   0  0  0  0  0  0  0  0  0  0  0  0
  152.4864  138.1070  155.4121 C   0  0  0  0  0  0  0  0  0  0  0  0
  151.6760  137.1529  154.9065 N   0  0  0  0  0  0  0  0  0  0  0  0
  150.4052  137.4966  154.6072 C   0  0  0  0  0  0  0  0  0  0  0  0
  149.8899  138.7945  154.7975 C   0  0  0  0  0  0  0  0  0  0  0  0
  148.6680  141.9547  154.7266 H   0  0  0  0  0  0  0  0  0  0  0  0
  151.1120  141.8554  155.7068 H   0  0  0  0  0  0  0  0  0  0  0  0
  148.3118  141.0361  156.5229 H   0  0  0  0  0  0  0  0  0  0  0  0
  149.6587  140.5384  157.5289 H   0  0  0  0  0  0  0  0  0  0  0  0
  149.1916  143.2963  156.7101 H   0  0  0  0  0  0  0  0  0  0  0  0
  151.4300  143.0630  157.2280 H   0  0  0  0  0  0  0  0  0  0  0  0
  150.4260  141.8034  159.8383 H   0  0  0  0  0  0  0  0  0  0  0  0
  151.2256  140.9343  158.5562 H   0  0  0  0  0  0  0  0  0  0  0  0
  152.8258  141.4128  160.3261 H   0  0  0  0  0  0  0  0  0  0  0  0
  153.2960  142.2477  158.8689 H   0  0  0  0  0  0  0  0  0  0  0  0
  151.8246  143.5214  161.2410 H   0  0  0  0  0  0  0  0  0  0  0  0
  153.5302  143.7126  160.8794 H   0  0  0  0  0  0  0  0  0  0  0  0
  150.2040  145.0991  157.9932 H   0  0  0  0  0  0  0  0  0  0  0  0
  149.8608  144.3255  159.5289 H   0  0  0  0  0  0  0  0  0  0  0  0
  152.7609  140.1581  156.0485 H   0  0  0  0  0  0  0  0  0  0  0  0
  153.4968  137.8039  155.6434 H   0  0  0  0  0  0  0  0  0  0  0  0
  149.7793  136.7136  154.2054 H   0  0  0  0  0  0  0  0  0  0  0  0
  148.8632  139.0153  154.5438 H   0  0  0  0  0  0  0  0  0  0  0  0
  148.6768  142.6786  158.1370 H   0  0  0  0  0  0  0  0  0  0  0  0
  1  2  1  0  0  0  0
  1 17  1  0  0  0  0
  2  3  1  0  0  0  0
  2 11  1  0  0  0  0
  2 18  1  0  0  0  0
  3  4  1  0  0  0  0
  3 19  1  0  0  0  0
  3 20  1  0  0  0  0
  4  5  1  0  0  0  0
  4 21  1  0  0  0  0
  4 35  1  0  0  0  0
  5 10  1  0  0  0  0
  5  6  1  0  0  0  0
  5 22  1  0  0  0  0
  6  7  1  0  0  0  0
  6 23  1  0  0  0  0
  6 24  1  0  0  0  0
  7  8  1  0  0  0  0
  7 25  1  0  0  0  0
  7 26  1  0  0  0  0
  8  9  1  0  0  0  0
  8 27  1  0  0  0  0
  8 28  1  0  0  0  0
  9 10  1  0  0  0  0
 10 29  1  0  0  0  0
 10 30  1  0  0  0  0
 11 16  1  0  0  0  0
 11 12  2  0  0  0  0
 12 13  1  0  0  0  0
 12 31  1  0  0  0  0
 13 14  2  0  0  0  0
 13 32  1  0  0  0  0
 14 15  1  0  0  0  0
 15 16  2  0  0  0  0
 15 33  1  0  0  0  0
 16 34  1  0  0  0  0
M  CHG  1   4   1
M  END
> <s_m_source_file>
AV-unprocessed.smi

> <i_m_source_file_index>
2774

> <i_lp_mmshare_version>
43012

> <i_f3d_flags>
0

> <s_epik_input>
W2NIXTFbY0hdbltjSF1bY0hdYzFbQ0BIXShbT0hdKVtDSDJdW05IXVtDQEBIXTJbQ0gyXVtDSDJdW0NIMl1TW0NIMl0y

> <s_epik_cmdline>
J2VwaWtfcHl0aG9uJywgJy1waCcsICc3LjAnLCAnLXRuJywgJzgnLCAnLW1hJywgJzIwMCcsICctbWV0YWxfYmluZGluZycsICctaW1hZScsICc8aW5maWxlLm1hZT4nLCAnLW9tYWUnLCAnPG91dGZpbGUubWFlPic=

> <r_epik_Ionization_Penalty>
0.0205977

> <r_epik_Ionization_Penalty_Charging>
0.0185619

> <r_epik_Ionization_Penalty_Neutral>
0.00203589

> <r_epik_State_Penalty>
0.0147768

> <r_epik_Charging_Adjusted_Penalty>
0.0333386

> <i_epik_Tot_Q>
1

> <i_epik_Tot_abs_Q>
1

> <r_epik_Metal_State_Penalty>
0.0152254

> <b_epik_Metal_Only>
0

> <s_lp_Force_Field>
OPLS_2005

> <r_lp_Energy>
10.436

> <b_lp_Chiralities_Consistent>
1

> <s_lp_Variant>
AV-unprocessed.smi:2774-2

> <Gold.Version>
5.8.1

> <Gold.Id.Protein>
6NUR|6NUR_protein|mol2

> <Gold.PLP.Fitness>
50.8798

> <Gold.PLP.PLP>
-39.4626

> <Gold.PLP.part.hbond>
-4.1441

> <Gold.PLP.part.metal>
0.0000

> <Gold.PLP.part.buried>
-1.2188

> <Gold.PLP.part.nonpolar>
-33.8915

> <Gold.PLP.part.repulsive>
0.1555

> <Gold.PLP.ligand.clash>
0.0000

> <Gold.PLP.ligand.torsion>
0.6698

> <Gold.PLP.Chemscore.Hbond>
3.2326

> <Gold.PLP.Chemscore.CHOScore>
1.0016

> <Gold.PLP.Chemscore.Metal>
0.0000

> <Gold.Chemscore.Hbonds>
donor molecule, donor type, donor heavy atom, donor atom, acceptor molecule, acceptor atom, score
      L1  H     4    21       P1  8028  2.00
      P1  H  8011  8017       L1     1  0.23
      P1  H 10752 10764       L1    14  1.00
      L1  C    15    33       P1  7948  1.00

> <Gold.PLP.Chemscore.Internal.Correction>
0.0542

> <Gold.Rescore>
     Score         DG    S(hbond)    S(metal)    S(lipo)     H(rot)  DE(clash)    DE(int)     intcor
     20.26     -20.88       2.16        0.00     113.14       1.97       0.04       0.58       ----

> <Gold.Chemscore.Fitness>
20.2626

> <Gold.Chemscore.DG>
-20.8843

> <Gold.Chemscore.ZeroCoef>
-5.4800

> <Gold.Chemscore.Hbond>
2.1577

> <Gold.Chemscore.Metal>
0.0000

> <Gold.Chemscore.Lipo>
113.1386

> <Gold.Chemscore.Internal_Hbond>
0.0000

> <Gold.Chemscore.DEClash>
0.0375

> <Gold.Chemscore.DEInternal>
0.5842

> <Gold.Chemscore.Rot>
1.9686

> <Gold.Chemscore.Internal.Correction>
   9.000000E+99

> <Gold.Chemscore.Hbonds>
donor molecule, donor type, donor heavy atom, donor atom, acceptor molecule, acceptor atom, score
      L1  H     4    21       P1  8028  0.98
      P1  H  8011  8017       L1     1  0.16
      P1  H 10752 10764       L1    14  0.41

> <Gold.Chemscore.Hbond.Weighted>
-7.2067

> <Gold.Chemscore.Metal.Weighted>
-0.0000

> <Gold.Chemscore.Lipo.Weighted>
-13.2372

> <Gold.Chemscore.Internal_Hbond.Weighted>
0.0000

> <Gold.Chemscore.DEClash.Weighted>
0.0375

> <Gold.Chemscore.DEInternal.Weighted>
0.5842

> <Gold.Chemscore.Rot.Weighted>
5.0396

> <Gold.Chemscore.Internal.Correction.Weighted>
   9.000000E+99

> <Gold.Protein.RotatedTorsions>
[ 6907 6896 6895 6894 ] final  101.10 input  -60.11 | X-H torsion
[ 7974 7965 7964 7962 ] final  106.64 input  175.53 | X-H torsion
[ 8008 7997 7996 7995 ] final   88.63 input   59.86 | X-H torsion
[ 10167 10162 10161 10158 ] final   16.86 input  -65.29 | X-H torsion
[ 10718 10713 10712 10709 ] final  -18.21 input   66.30 | X-H torsion
[ 10763 10752 10751 10750 ] final  -71.37 input  -60.55 | X-H torsion
[ 11005 11000 10999 10996 ] final   80.98 input  -57.11 | X-H torsion

> <Gold.Protein.ActiveResidues>
 VAL166  LYS551  ARG553  GLY616  TRP617  ASP618  TYR619  PRO620  LYS621  CYS622 
 ASP623  PHE694  ASN695  SER759  ASP760  ASP761  ALA762  ILE779  LEU786  VAL792 
 PHE793  MET794  SER795  GLU796  ALA797  LYS798  CYS799  TRP800  GLU811  SER814 

> <Gold.Protein.RotatedAtoms>
  152.5357  134.0177  159.7966 H   0  0  0  0  0  0  0  0  0  0  0  0  # atno 6907 bound_to 6896
  151.0368  133.5733  159.2662 H   0  0  0  0  0  0  0  0  0  0  0  0  # atno 6908 bound_to 6896
  151.2718  135.0694  159.9190 H   0  0  0  0  0  0  0  0  0  0  0  0  # atno 6909 bound_to 6896
  145.3040  139.2560  143.3798 H   0  0  0  0  0  0  0  0  0  0  0  0  # atno 7974 bound_to 7965
  155.9901  140.3369  155.6745 H   0  0  0  0  0  0  0  0  0  0  0  0  # atno 8008 bound_to 7997
  155.6432  140.0697  157.2629 H   0  0  0  0  0  0  0  0  0  0  0  0  # atno 8009 bound_to 7997
  154.4217  140.1739  156.1583 H   0  0  0  0  0  0  0  0  0  0  0  0  # atno 8010 bound_to 7997
  140.5767  143.9058  150.6756 H   0  0  0  0  0  0  0  0  0  0  0  0  # atno 10167 bound_to 10162
  156.5627  130.4729  149.6399 H   0  0  0  0  0  0  0  0  0  0  0  0  # atno 10718 bound_to 10713
  154.4308  135.5964  153.6067 H   0  0  0  0  0  0  0  0  0  0  0  0  # atno 10763 bound_to 10752
  152.9799  135.5974  154.3841 H   0  0  0  0  0  0  0  0  0  0  0  0  # atno 10764 bound_to 10752
  154.3679  135.2841  155.2262 H   0  0  0  0  0  0  0  0  0  0  0  0  # atno 10765 bound_to 10752
  139.9114  134.7962  156.1981 H   0  0  0  0  0  0  0  0  0  0  0  0  # atno 11005 bound_to 11000
  146.3142  140.3561  142.8660 LP  0  0  0  0  0  0  0  0  0  0  0  0  # atno 17320 bound_to 7965
  144.9070  140.7712  143.5831 LP  0  0  0  0  0  0  0  0  0  0  0  0  # atno 17321 bound_to 7965
  140.2547  143.3567  152.1375 LP  0  0  0  0  0  0  0  0  0  0  0  0  # atno 17342 bound_to 10162
  139.5147  144.6951  151.5652 LP  0  0  0  0  0  0  0  0  0  0  0  0  # atno 17343 bound_to 10162
  156.2785  130.7057  151.1874 LP  0  0  0  0  0  0  0  0  0  0  0  0  # atno 17370 bound_to 10713
  157.7365  131.0561  150.5409 LP  0  0  0  0  0  0  0  0  0  0  0  0  # atno 17371 bound_to 10713
  141.0542  133.6873  156.1829 LP  0  0  0  0  0  0  0  0  0  0  0  0  # atno 17394 bound_to 11000
  140.6763  134.4815  157.5588 LP  0  0  0  0  0  0  0  0  0  0  0  0  # atno 17395 bound_to 11000

$$$$
