AV-unprocessed.smi:2741|AV-procd|sdf|10561|dock5
  -GOLD-   2272015 13D 1   1.00000     0.00000
 Structure written by MMmdl.
 39 40  0  0  0  0  0  0  0  0  1 V2000
  150.8314  141.2776  155.3388 O   0  0  0  0  0  0  0  0  0  0  0  0
  150.1224  140.8059  156.2291 C   0  0  0  0  0  0  0  0  0  0  0  0
  150.7232  139.9351  157.3416 C   0  0  0  0  0  0  0  0  0  0  0  0
  151.5046  140.6982  158.3296 N   0  0  0  0  0  0  0  0  0  0  0  0
  151.2798  142.0877  158.3890 C   0  0  0  0  0  0  0  0  0  0  0  0
  151.9328  142.8999  159.2425 C   0  0  0  0  0  0  0  0  0  0  0  0
  151.6361  144.3894  159.3220 C   0  0  0  0  0  0  0  0  0  0  0  0
  152.1401  144.9162  160.4381 F   0  0  0  0  0  0  0  0  0  0  0  0
  152.1863  145.0166  158.2833 F   0  0  0  0  0  0  0  0  0  0  0  0
  150.3237  144.6255  159.3027 F   0  0  0  0  0  0  0  0  0  0  0  0
  152.8749  142.2656  160.1433 C   0  0  0  0  0  0  0  0  0  0  0  0
  153.1015  140.9381  160.0998 C   0  0  0  0  0  0  0  0  0  0  0  0
  152.4034  140.0719  159.1470 C   0  0  0  0  0  0  0  0  0  0  0  0
  152.6102  138.8596  159.0897 O   0  0  0  0  0  0  0  0  0  0  0  0
  148.8021  141.0277  156.3110 N   0  0  0  0  0  0  0  0  0  0  0  0
  148.0269  141.8494  155.3875 C   0  0  0  0  0  0  0  0  0  0  0  0
  147.2212  140.9950  154.3893 C   0  0  1  0  0  0  0  0  0  0  0  0
  148.0608  139.9270  153.6796 C   0  0  0  0  0  0  0  0  0  0  0  0
  147.0317  138.9005  153.2136 C   0  0  0  0  0  0  0  0  0  0  0  0
  146.0468  138.8268  154.3820 C   0  0  2  0  0  0  0  0  0  0  0  0
  144.7623  138.4151  153.9642 O   0  0  0  0  0  0  0  0  0  0  0  0
  146.0344  140.2305  155.0096 C   0  0  0  0  0  0  0  0  0  0  0  0
  149.9071  139.4029  157.8325 H   0  0  0  0  0  0  0  0  0  0  0  0
  151.3407  139.1546  156.8932 H   0  0  0  0  0  0  0  0  0  0  0  0
  150.5424  142.4528  157.6889 H   0  0  0  0  0  0  0  0  0  0  0  0
  153.4125  142.8665  160.8620 H   0  0  0  0  0  0  0  0  0  0  0  0
  153.8138  140.5001  160.7838 H   0  0  0  0  0  0  0  0  0  0  0  0
  148.2973  140.6029  157.0754 H   0  0  0  0  0  0  0  0  0  0  0  0
  147.3615  142.5106  155.9450 H   0  0  0  0  0  0  0  0  0  0  0  0
  148.7216  142.4952  154.8494 H   0  0  0  0  0  0  0  0  0  0  0  0
  146.8191  141.6503  153.6144 H   0  0  0  0  0  0  0  0  0  0  0  0
  148.6476  140.3350  152.8560 H   0  0  0  0  0  0  0  0  0  0  0  0
  148.7519  139.4587  154.3821 H   0  0  0  0  0  0  0  0  0  0  0  0
  146.5334  139.2689  152.3153 H   0  0  0  0  0  0  0  0  0  0  0  0
  147.4759  137.9333  152.9767 H   0  0  0  0  0  0  0  0  0  0  0  0
  146.4197  138.1118  155.1167 H   0  0  0  0  0  0  0  0  0  0  0  0
  144.3742  139.1103  153.4548 H   0  0  0  0  0  0  0  0  0  0  0  0
  146.1265  140.1502  156.0935 H   0  0  0  0  0  0  0  0  0  0  0  0
  145.1037  140.7624  154.8066 H   0  0  0  0  0  0  0  0  0  0  0  0
  1  2  2  0  0  0  0
  2  3  1  0  0  0  0
  2 15  1  0  0  0  0
  3  4  1  0  0  0  0
  3 23  1  0  0  0  0
  3 24  1  0  0  0  0
  4 13  1  0  0  0  0
  4  5  1  0  0  0  0
  5  6  2  0  0  0  0
  5 25  1  0  0  0  0
  6  7  1  0  0  0  0
  6 11  1  0  0  0  0
  7  8  1  0  0  0  0
  7  9  1  0  0  0  0
  7 10  1  0  0  0  0
 11 12  2  0  0  0  0
 11 26  1  0  0  0  0
 12 13  1  0  0  0  0
 12 27  1  0  0  0  0
 13 14  2  0  0  0  0
 15 16  1  0  0  0  0
 15 28  1  0  0  0  0
 16 17  1  0  0  0  0
 16 29  1  0  0  0  0
 16 30  1  0  0  0  0
 17 22  1  0  0  0  0
 17 18  1  0  0  0  0
 17 31  1  0  0  0  0
 18 19  1  0  0  0  0
 18 32  1  0  0  0  0
 18 33  1  0  0  0  0
 19 20  1  0  0  0  0
 19 34  1  0  0  0  0
 19 35  1  0  0  0  0
 20 21  1  0  0  0  0
 20 22  1  0  0  0  0
 20 36  1  0  0  0  0
 21 37  1  0  0  0  0
 22 38  1  0  0  0  0
 22 39  1  0  0  0  0
M  END
> <s_m_source_file>
AV-unprocessed.smi

> <i_m_source_file_index>
2741

> <i_lp_mmshare_version>
43012

> <i_f3d_flags>
0

> <s_epik_input>
W09IXVtDQEBIXShbQ0gyXTEpW0NIMl1bQ0gyXVtDQEhdMVtDSDJdW05IXUMoPU8pW0NIMl1uMltjSF1jKEMoRikoRilGKVtjSF1bY0hdYzI9Tw==

> <s_epik_cmdline>
J2VwaWtfcHl0aG9uJywgJy1waCcsICc3LjAnLCAnLXRuJywgJzgnLCAnLW1hJywgJzIwMCcsICctbWV0YWxfYmluZGluZycsICctaW1hZScsICc8aW5maWxlLm1hZT4nLCAnLW9tYWUnLCAnPG91dGZpbGUubWFlPic=

> <r_lp_tautomer_probability>
1

> <r_epik_Ionization_Penalty>
1.17551e-06

> <r_epik_Ionization_Penalty_Charging>
1.78841e-08

> <r_epik_Ionization_Penalty_Neutral>
1.15762e-06

> <r_epik_State_Penalty>
-0

> <r_epik_Charging_Adjusted_Penalty>
1.78841e-08

> <i_epik_Tot_Q>
0

> <i_epik_Tot_abs_Q>
0

> <r_epik_Metal_State_Penalty>
-0

> <b_epik_Metal_Only>
0

> <s_lp_Force_Field>
OPLS_2005

> <r_lp_Energy>
34.082

> <b_lp_Chiralities_Consistent>
1

> <s_lp_Variant>
AV-unprocessed.smi:2741-4

> <Gold.Version>
5.8.1

> <Gold.Id.Protein>
6NUR|6NUR_protein|mol2

> <Gold.PLP.Fitness>
43.6380

> <Gold.PLP.PLP>
-40.9755

> <Gold.PLP.part.hbond>
-2.0000

> <Gold.PLP.part.metal>
0.0000

> <Gold.PLP.part.buried>
-2.1999

> <Gold.PLP.part.nonpolar>
-36.4940

> <Gold.PLP.part.repulsive>
0.0842

> <Gold.PLP.ligand.clash>
0.0000

> <Gold.PLP.ligand.torsion>
1.1013

> <Gold.PLP.Chemscore.Hbond>
1.6080

> <Gold.PLP.Chemscore.CHOScore>
0.0000

> <Gold.PLP.Chemscore.Metal>
0.0000

> <Gold.Chemscore.Hbonds>
donor molecule, donor type, donor heavy atom, donor atom, acceptor molecule, acceptor atom, score
      L1  H    21    37       P1 10175  1.00
      P1  H  7989  7998       L1     1  0.56

> <Gold.PLP.Chemscore.Internal.Correction>
0.0411

> <Gold.Rescore>
     Score         DG    S(hbond)    S(metal)    S(lipo)     H(rot)  DE(clash)    DE(int)     intcor
     13.15     -14.19       1.68        0.00      80.67       2.48       0.31       0.73       ----

> <Gold.Chemscore.Fitness>
13.1519

> <Gold.Chemscore.DG>
-14.1932

> <Gold.Chemscore.ZeroCoef>
-5.4800

> <Gold.Chemscore.Hbond>
1.6843

> <Gold.Chemscore.Metal>
0.0000

> <Gold.Chemscore.Lipo>
80.6693

> <Gold.Chemscore.Internal_Hbond>
0.0000

> <Gold.Chemscore.DEClash>
0.3114

> <Gold.Chemscore.DEInternal>
0.7299

> <Gold.Chemscore.Rot>
2.4807

> <Gold.Chemscore.Internal.Correction>
   9.000000E+99

> <Gold.Chemscore.Hbonds>
donor molecule, donor type, donor heavy atom, donor atom, acceptor molecule, acceptor atom, score
      L1  H    21    37       P1 10175  1.00
      P1  H  7989  7998       L1     1  0.52

> <Gold.Chemscore.Hbond.Weighted>
-5.6256

> <Gold.Chemscore.Metal.Weighted>
-0.0000

> <Gold.Chemscore.Lipo.Weighted>
-9.4383

> <Gold.Chemscore.Internal_Hbond.Weighted>
0.0000

> <Gold.Chemscore.DEClash.Weighted>
0.3114

> <Gold.Chemscore.DEInternal.Weighted>
0.7299

> <Gold.Chemscore.Rot.Weighted>
6.3507

> <Gold.Chemscore.Internal.Correction.Weighted>
   9.000000E+99

> <Gold.Protein.RotatedTorsions>
[ 6907 6896 6895 6894 ] final  167.75 input  -60.11 | X-H torsion
[ 7974 7965 7964 7962 ] final  -52.12 input  175.53 | X-H torsion
[ 8008 7997 7996 7995 ] final -110.21 input   59.86 | X-H torsion
[ 10167 10162 10161 10158 ] final   -1.92 input  -65.29 | X-H torsion
[ 10718 10713 10712 10709 ] final  137.79 input   66.30 | X-H torsion
[ 10763 10752 10751 10750 ] final -135.30 input  -60.55 | X-H torsion
[ 11005 11000 10999 10996 ] final -128.35 input  -57.11 | X-H torsion

> <Gold.Protein.ActiveResidues>
 VAL166  LYS551  ARG553  GLY616  TRP617  ASP618  TYR619  PRO620  LYS621  CYS622 
 ASP623  PHE694  ASN695  SER759  ASP760  ASP761  ALA762  ILE779  LEU786  VAL792 
 PHE793  MET794  SER795  GLU796  ALA797  LYS798  CYS799  TRP800  GLU811  SER814 

> <Gold.Protein.RotatedAtoms>
  151.8584  133.3452  159.3695 H   0  0  0  0  0  0  0  0  0  0  0  0  # atno 6907 bound_to 6896
  150.7186  134.5230  159.5672 H   0  0  0  0  0  0  0  0  0  0  0  0  # atno 6908 bound_to 6896
  152.2739  134.7904  160.0460 H   0  0  0  0  0  0  0  0  0  0  0  0  # atno 6909 bound_to 6896
  145.9115  140.7911  142.9693 H   0  0  0  0  0  0  0  0  0  0  0  0  # atno 7974 bound_to 7965
  154.9711  140.0397  157.2234 H   0  0  0  0  0  0  0  0  0  0  0  0  # atno 8008 bound_to 7997
  154.7800  140.2817  155.6048 H   0  0  0  0  0  0  0  0  0  0  0  0  # atno 8009 bound_to 7997
  156.2935  140.2593  156.2624 H   0  0  0  0  0  0  0  0  0  0  0  0  # atno 8010 bound_to 7997
  140.6830  143.6718  150.8178 H   0  0  0  0  0  0  0  0  0  0  0  0  # atno 10167 bound_to 10162
  157.4323  131.1049  151.0237 H   0  0  0  0  0  0  0  0  0  0  0  0  # atno 10718 bound_to 10713
  154.8705  135.3707  154.4876 H   0  0  0  0  0  0  0  0  0  0  0  0  # atno 10763 bound_to 10752
  153.5525  135.7024  153.5589 H   0  0  0  0  0  0  0  0  0  0  0  0  # atno 10764 bound_to 10752
  153.3702  135.4023  155.1747 H   0  0  0  0  0  0  0  0  0  0  0  0  # atno 10765 bound_to 10752
  140.9523  134.1048  157.4050 H   0  0  0  0  0  0  0  0  0  0  0  0  # atno 11005 bound_to 11000
  144.6744  140.1833  143.7403 LP  0  0  0  0  0  0  0  0  0  0  0  0  # atno 17320 bound_to 7965
  145.8665  139.2250  143.1686 LP  0  0  0  0  0  0  0  0  0  0  0  0  # atno 17321 bound_to 7965
  140.0421  143.5335  152.2713 LP  0  0  0  0  0  0  0  0  0  0  0  0  # atno 17342 bound_to 10162
  139.6166  144.7620  151.2832 LP  0  0  0  0  0  0  0  0  0  0  0  0  # atno 17343 bound_to 10162
  157.1129  130.6029  149.5486 LP  0  0  0  0  0  0  0  0  0  0  0  0  # atno 17370 bound_to 10713
  155.9917  130.4973  150.7312 LP  0  0  0  0  0  0  0  0  0  0  0  0  # atno 17371 bound_to 10713
  139.8851  135.0069  156.6415 LP  0  0  0  0  0  0  0  0  0  0  0  0  # atno 17394 bound_to 11000
  140.7585  133.8838  155.8400 LP  0  0  0  0  0  0  0  0  0  0  0  0  # atno 17395 bound_to 11000

$$$$
