AV-unprocessed.smi:656|AV-procd|sdf|3219|dock6
  -GOLD-   22720 0153D 1   1.00000     0.00000
 Structure written by MMmdl.
 41 42  0  0  0  0  0  0  0  0  2 V2000
  143.8530  132.4534  149.4684 C   0  0  0  0  0  0  0  0  0  0  0  0
  145.3689  132.2437  149.3852 C   0  0  0  0  0  0  0  0  0  0  0  0
  146.0615  132.4463  150.7441 C   0  0  0  0  0  0  0  0  0  0  0  0
  145.4193  133.5072  151.5616 N   0  3  2  0  0  0  0  0  0  0  0  0
  145.4209  134.8221  150.8691 C   0  0  0  0  0  0  0  0  0  0  0  0
  144.6389  135.8815  151.6678 C   0  0  0  0  0  0  0  0  0  0  0  0
  145.1666  136.0261  153.1054 C   0  0  2  0  0  0  0  0  0  0  0  0
  146.4768  136.6770  153.1066 N   0  0  0  0  0  0  0  0  0  0  0  0
  146.8207  137.7271  153.8670 C   0  0  0  0  0  0  0  0  0  0  0  0
  146.0562  138.2605  154.6711 O   0  0  0  0  0  0  0  0  0  0  0  0
  148.0891  138.1046  153.6306 N   0  0  0  0  0  0  0  0  0  0  0  0
  148.8215  139.1477  154.2559 C   0  0  0  0  0  0  0  0  0  0  0  0
  148.0525  140.2458  154.6970 C   0  0  0  0  0  0  0  0  0  0  0  0
  148.7157  141.3169  155.3198 C   0  0  0  0  0  0  0  0  0  0  0  0
  150.1105  141.2162  155.4591 C   0  0  0  0  0  0  0  0  0  0  0  0
  150.8071  140.1447  155.0219 N   0  0  0  0  0  0  0  0  0  0  0  0
  150.1690  139.1290  154.4301 N   0  0  0  0  0  0  0  0  0  0  0  0
  145.2086  134.6397  153.7776 C   0  0  0  0  0  0  0  0  0  0  0  0
  145.9832  133.6122  152.9339 C   0  0  0  0  0  0  0  0  0  0  0  0
  143.3868  132.3066  148.4938 H   0  0  0  0  0  0  0  0  0  0  0  0
  143.6128  133.4630  149.8032 H   0  0  0  0  0  0  0  0  0  0  0  0
  143.3943  131.7510  150.1649 H   0  0  0  0  0  0  0  0  0  0  0  0
  145.5705  131.2366  149.0178 H   0  0  0  0  0  0  0  0  0  0  0  0
  145.7713  132.9309  148.6417 H   0  0  0  0  0  0  0  0  0  0  0  0
  146.0944  131.5118  151.3066 H   0  0  0  0  0  0  0  0  0  0  0  0
  147.0986  132.7252  150.5516 H   0  0  0  0  0  0  0  0  0  0  0  0
  146.4498  135.1485  150.7093 H   0  0  0  0  0  0  0  0  0  0  0  0
  144.9676  134.7184  149.8825 H   0  0  0  0  0  0  0  0  0  0  0  0
  144.6748  136.8422  151.1526 H   0  0  0  0  0  0  0  0  0  0  0  0
  143.5867  135.5958  151.7009 H   0  0  0  0  0  0  0  0  0  0  0  0
  144.4757  136.6659  153.6577 H   0  0  0  0  0  0  0  0  0  0  0  0
  147.1684  136.3101  152.4694 H   0  0  0  0  0  0  0  0  0  0  0  0
  148.5923  137.5824  152.9290 H   0  0  0  0  0  0  0  0  0  0  0  0
  146.9808  140.2704  154.5630 H   0  0  0  0  0  0  0  0  0  0  0  0
  148.1764  142.1819  155.6762 H   0  0  0  0  0  0  0  0  0  0  0  0
  150.6777  142.0066  155.9279 H   0  0  0  0  0  0  0  0  0  0  0  0
  145.6427  134.7063  154.7759 H   0  0  0  0  0  0  0  0  0  0  0  0
  144.1878  134.2831  153.9208 H   0  0  0  0  0  0  0  0  0  0  0  0
  145.9387  132.6475  153.4376 H   0  0  0  0  0  0  0  0  0  0  0  0
  147.0376  133.8873  152.8777 H   0  0  0  0  0  0  0  0  0  0  0  0
  144.4493  133.2434  151.6605 H   0  0  0  0  0  0  0  0  0  0  0  0
  1  2  1  0  0  0  0
  1 20  1  0  0  0  0
  1 21  1  0  0  0  0
  1 22  1  0  0  0  0
  2  3  1  0  0  0  0
  2 23  1  0  0  0  0
  2 24  1  0  0  0  0
  3  4  1  0  0  0  0
  3 25  1  0  0  0  0
  3 26  1  0  0  0  0
  4 19  1  0  0  0  0
  4  5  1  0  0  0  0
  4 41  1  0  0  0  0
  5  6  1  0  0  0  0
  5 27  1  0  0  0  0
  5 28  1  0  0  0  0
  6  7  1  0  0  0  0
  6 29  1  0  0  0  0
  6 30  1  0  0  0  0
  7  8  1  0  0  0  0
  7 18  1  0  0  0  0
  7 31  1  0  0  0  0
  8  9  1  0  0  0  0
  8 32  1  0  0  0  0
  9 10  2  0  0  0  0
  9 11  1  0  0  0  0
 11 12  1  0  0  0  0
 11 33  1  0  0  0  0
 12 17  1  0  0  0  0
 12 13  2  0  0  0  0
 13 14  1  0  0  0  0
 13 34  1  0  0  0  0
 14 15  2  0  0  0  0
 14 35  1  0  0  0  0
 15 16  1  0  0  0  0
 15 36  1  0  0  0  0
 16 17  2  0  0  0  0
 18 19  1  0  0  0  0
 18 37  1  0  0  0  0
 18 38  1  0  0  0  0
 19 39  1  0  0  0  0
 19 40  1  0  0  0  0
M  CHG  1   4   1
M  END
> <s_m_source_file>
AV-unprocessed.smi

> <i_m_source_file_index>
656

> <i_lp_mmshare_version>
43012

> <i_f3d_flags>
0

> <s_epik_input>
W0NIM11bQ0gyXVtDSDJdTjFbQ0gyXVtDSDJdW0NIXShbQ0gyXVtDSDJdMSlbTkhdQyg9TylbTkhdYzJbY0hdW2NIXVtjSF1ubjI=

> <s_epik_cmdline>
J2VwaWtfcHl0aG9uJywgJy1waCcsICc3LjAnLCAnLXRuJywgJzgnLCAnLW1hJywgJzIwMCcsICctbWV0YWxfYmluZGluZycsICctaW1hZScsICc8aW5maWxlLm1hZT4nLCAnLW9tYWUnLCAnPG91dGZpbGUubWFlPic=

> <r_lp_tautomer_probability>
1

> <r_epik_Ionization_Penalty>
0.00614766

> <r_epik_Ionization_Penalty_Charging>
0.00269617

> <r_epik_Ionization_Penalty_Neutral>
0.00345149

> <r_epik_State_Penalty>
-0

> <r_epik_Charging_Adjusted_Penalty>
0.00269617

> <i_epik_Tot_Q>
1

> <i_epik_Tot_abs_Q>
1

> <r_epik_Metal_State_Penalty>
-0

> <b_epik_Metal_Only>
0

> <s_lp_Force_Field>
OPLS_2005

> <r_lp_Energy>
22.9398

> <b_lp_Chiralities_Consistent>
1

> <s_lp_Variant>
AV-unprocessed.smi:656-2

> <Gold.Version>
5.8.1

> <Gold.Id.Protein>
6NUR|6NUR_protein|mol2

> <Gold.PLP.Fitness>
38.5934

> <Gold.PLP.PLP>
-30.4696

> <Gold.PLP.part.hbond>
-3.0000

> <Gold.PLP.part.metal>
0.0000

> <Gold.PLP.part.buried>
-5.0682

> <Gold.PLP.part.nonpolar>
-22.8193

> <Gold.PLP.part.repulsive>
0.3548

> <Gold.PLP.ligand.clash>
0.0000

> <Gold.PLP.ligand.torsion>
0.4513

> <Gold.PLP.Chemscore.Hbond>
3.0000

> <Gold.PLP.Chemscore.CHOScore>
0.0000

> <Gold.PLP.Chemscore.Metal>
0.0000

> <Gold.Chemscore.Hbonds>
donor molecule, donor type, donor heavy atom, donor atom, acceptor molecule, acceptor atom, score
      L1  H     8    32       P1  7948  1.00
      L1  H    11    33       P1  7948  1.00
      P1  H  7989  7998       L1    16  0.95

> <Gold.PLP.Chemscore.Internal.Correction>
0.0265

> <Gold.Rescore>
     Score         DG    S(hbond)    S(metal)    S(lipo)     H(rot)  DE(clash)    DE(int)     intcor
     15.30     -17.23       2.19        0.00      69.64       1.45       0.11       1.82       ----

> <Gold.Chemscore.Fitness>
15.3039

> <Gold.Chemscore.DG>
-17.2323

> <Gold.Chemscore.ZeroCoef>
-5.4800

> <Gold.Chemscore.Hbond>
2.1918

> <Gold.Chemscore.Metal>
0.0000

> <Gold.Chemscore.Lipo>
69.6431

> <Gold.Chemscore.Internal_Hbond>
0.0000

> <Gold.Chemscore.DEClash>
0.1084

> <Gold.Chemscore.DEInternal>
1.8200

> <Gold.Chemscore.Rot>
1.4518

> <Gold.Chemscore.Internal.Correction>
   9.000000E+99

> <Gold.Chemscore.Hbonds>
donor molecule, donor type, donor heavy atom, donor atom, acceptor molecule, acceptor atom, score
      L1  H     8    32       P1  7948  0.95
      L1  H    11    33       P1  7948  0.99
      P1  H  7989  7998       L1    16  0.05

> <Gold.Chemscore.Hbond.Weighted>
-7.3206

> <Gold.Chemscore.Metal.Weighted>
-0.0000

> <Gold.Chemscore.Lipo.Weighted>
-8.1482

> <Gold.Chemscore.Internal_Hbond.Weighted>
0.0000

> <Gold.Chemscore.DEClash.Weighted>
0.1084

> <Gold.Chemscore.DEInternal.Weighted>
1.8200

> <Gold.Chemscore.Rot.Weighted>
3.7165

> <Gold.Chemscore.Internal.Correction.Weighted>
   9.000000E+99

> <Gold.Protein.RotatedTorsions>
[ 6907 6896 6895 6894 ] final   22.10 input  -60.11 | X-H torsion
[ 7974 7965 7964 7962 ] final  138.50 input  175.53 | X-H torsion
[ 8008 7997 7996 7995 ] final   94.73 input   59.86 | X-H torsion
[ 10167 10162 10161 10158 ] final   -5.82 input  -65.29 | X-H torsion
[ 10718 10713 10712 10709 ] final  -16.63 input   66.30 | X-H torsion
[ 10763 10752 10751 10750 ] final  102.00 input  -60.55 | X-H torsion
[ 11005 11000 10999 10996 ] final  -27.50 input  -57.11 | X-H torsion

> <Gold.Protein.ActiveResidues>
 VAL166  LYS551  ARG553  GLY616  TRP617  ASP618  TYR619  PRO620  LYS621  CYS622 
 ASP623  PHE694  ASN695  SER759  ASP760  ASP761  ALA762  ILE779  LEU786  VAL792 
 PHE793  MET794  SER795  GLU796  ALA797  LYS798  CYS799  TRP800  GLU811  SER814 

> <Gold.Protein.RotatedAtoms>
  151.9219  135.0294  160.0522 H   0  0  0  0  0  0  0  0  0  0  0  0  # atno 6907 bound_to 6896
  152.2192  133.4966  159.5161 H   0  0  0  0  0  0  0  0  0  0  0  0  # atno 6908 bound_to 6896
  150.6995  134.1282  159.4102 H   0  0  0  0  0  0  0  0  0  0  0  0  # atno 6909 bound_to 6896
  144.9366  139.4981  143.5592 H   0  0  0  0  0  0  0  0  0  0  0  0  # atno 7974 bound_to 7965
  156.0611  140.3296  155.7463 H   0  0  0  0  0  0  0  0  0  0  0  0  # atno 8008 bound_to 7997
  155.5453  140.0605  157.2879 H   0  0  0  0  0  0  0  0  0  0  0  0  # atno 8009 bound_to 7997
  154.4482  140.1903  156.0620 H   0  0  0  0  0  0  0  0  0  0  0  0  # atno 8010 bound_to 7997
  140.6976  143.6265  150.8563 H   0  0  0  0  0  0  0  0  0  0  0  0  # atno 10167 bound_to 10162
  156.5849  130.4784  149.6304 H   0  0  0  0  0  0  0  0  0  0  0  0  # atno 10718 bound_to 10713
  153.3339  135.4025  155.1518 H   0  0  0  0  0  0  0  0  0  0  0  0  # atno 10763 bound_to 10752
  154.8629  135.3617  154.5434 H   0  0  0  0  0  0  0  0  0  0  0  0  # atno 10764 bound_to 10752
  153.5874  135.7075  153.5497 H   0  0  0  0  0  0  0  0  0  0  0  0  # atno 10765 bound_to 10752
  140.9125  133.7451  156.0690 H   0  0  0  0  0  0  0  0  0  0  0  0  # atno 11005 bound_to 11000
  146.3269  139.8355  142.8900 LP  0  0  0  0  0  0  0  0  0  0  0  0  # atno 17320 bound_to 7965
  145.3057  141.0206  143.3583 LP  0  0  0  0  0  0  0  0  0  0  0  0  # atno 17321 bound_to 7965
  139.9984  143.5770  152.2884 LP  0  0  0  0  0  0  0  0  0  0  0  0  # atno 17342 bound_to 10162
  139.6451  144.7657  151.2260 LP  0  0  0  0  0  0  0  0  0  0  0  0  # atno 17343 bound_to 10162
  156.2599  130.6956  151.1722 LP  0  0  0  0  0  0  0  0  0  0  0  0  # atno 17370 bound_to 10713
  157.7318  131.0605  150.5662 LP  0  0  0  0  0  0  0  0  0  0  0  0  # atno 17371 bound_to 10713
  140.8092  134.3419  157.5417 LP  0  0  0  0  0  0  0  0  0  0  0  0  # atno 17394 bound_to 11000
  139.8760  134.9244  156.3348 LP  0  0  0  0  0  0  0  0  0  0  0  0  # atno 17395 bound_to 11000

$$$$
