#       Name:                AV-unprocessed.smi:771
#       Creating user name   scv26
#       Creation time:       Fri Mar 27 01:09:34 2020


#       File generated by GOLD software.
#

@<TRIPOS>MOLECULE
AV-unprocessed.smi:771
    49    50     1
SMALL
NO_CHARGES


@<TRIPOS>ATOM
      1 ****        -0.1277   1.4996   0.0438 O.2            1 S1                 0.0000
      2 ****         0.5190   0.7926   0.8181 C.2            1 S1                 0.0000
      3 ****         2.0307   0.9965   0.9934 C.3            1 S1                 0.0000
      4 ****         2.4991   2.3123   0.5263 N.am           1 S1                 0.0000
      5 ****         3.0133   2.3806  -0.7839 C.2            1 S1                 0.0000
      6 ****         3.4614   3.5336  -1.3179 C.2            1 S1                 0.0000
      7 ****         3.9797   3.5869  -2.6673 N.pl3          1 S1                 1.0000
      8 ****         4.3515   4.6681  -3.1123 O.2            1 S1                 0.0000
      9 ****         4.0335   2.5526  -3.3261 O.2            1 S1                -1.0000
     10 ****         3.4031   4.7256  -0.4939 C.2            1 S1                 0.0000
     11 ****         2.9082   4.6675   0.7582 C.2            1 S1                 0.0000
     12 ****         2.4150   3.4127   1.3349 C.2            1 S1                 0.0000
     13 ****         1.9545   3.3546   2.4751 O.2            1 S1                 0.0000
     14 ****        -0.0241  -0.2048   1.5331 N.am           1 S1                 0.0000
     15 ****        -1.4334  -0.5899   1.5209 C.3            1 S1                 0.0000
     16 ****        -1.6899  -1.8820   0.7081 C.3            1 S1                 0.0000
     17 ****        -1.2883  -1.7165  -0.7774 C.3            1 S1                 0.0000
     18 ****        -1.5792  -2.9771  -1.6058 C.3            1 S1                 0.0000
     19 ****        -3.0552  -3.3802  -1.5007 C.3            1 S1                 0.0000
     20 ****        -3.4581  -3.5844  -0.0347 C.3            1 S1                 0.0000
     21 ****        -3.1709  -2.3283   0.8091 C.3            1 S1                 0.0000
     22 ****        -3.5068  -2.6267   2.1496 O.3            1 S1                 0.0000
     23 ****         2.2960   0.8509   2.0424 H              1 S1                 0.0000
     24 ****         2.5442   0.1974   0.4568 H              1 S1                 0.0000
     25 ****         3.0070   1.4409  -1.3172 H              1 S1                 0.0000
     26 ****         3.7553   5.6732  -0.8744 H              1 S1                 0.0000
     27 ****         2.8737   5.5677   1.3543 H              1 S1                 0.0000
     28 ****         0.5847  -0.7361   2.1385 H              1 S1                 0.0000
     29 ****        -1.7252  -0.7374   2.5608 H              1 S1                 0.0000
     30 ****        -2.0607   0.2214   1.1478 H              1 S1                 0.0000
     31 ****        -1.0702  -2.6744   1.1314 H              1 S1                 0.0000
     32 ****        -1.8224  -0.8688  -1.2086 H              1 S1                 0.0000
     33 ****        -0.2268  -1.4848  -0.8627 H              1 S1                 0.0000
     34 ****        -1.3155  -2.8039  -2.6495 H              1 S1                 0.0000
     35 ****        -0.9489  -3.7971  -1.2593 H              1 S1                 0.0000
     36 ****        -3.6809  -2.6084  -1.9509 H              1 S1                 0.0000
     37 ****        -3.2330  -4.2948  -2.0671 H              1 S1                 0.0000
     38 ****        -4.5173  -3.8390   0.0218 H              1 S1                 0.0000
     39 ****        -2.9129  -4.4376   0.3718 H              1 S1                 0.0000
     40 ****        -3.8177  -1.5167   0.4727 H              1 S1                 0.0000
     41 ****        -2.9667  -3.3446   2.4424 H              1 S1                 0.0000
     42 ****         0.3315   2.2170  -0.4802 LP             1 S1                 0.0000
     43 ****        -1.1118   1.3560  -0.0609 LP             1 S1                 0.0000
     44 ****         4.2928   5.4893  -2.5447 LP             1 S1                 0.0000
     45 ****         4.7133   4.7281  -4.0427 LP             1 S1                 0.0000
     46 ****         1.6266   2.4824   2.8380 LP             1 S1                 0.0000
     47 ****         1.9084   4.1796   3.0383 LP             1 S1                 0.0000
     48 ****        -4.4710  -2.8856   2.2058 LP             1 S1                 0.0000
     49 ****        -3.3428  -1.8252   2.7246 LP             1 S1                 0.0000
@<TRIPOS>BOND
    1    1    2 2     
    2    2    3 1     
    3    2   14 am    
    4    3    4 1     
    5    3   23 1     
    6    3   24 1     
    7    4   12 am    
    8    4    5 1     
    9    5    6 2     
   10    5   25 1     
   11    6    7 1     
   12    6   10 1     
   13    7    8 2     
   14    7    9 1     
   15   10   11 2     
   16   10   26 1     
   17   11   12 1     
   18   11   27 1     
   19   12   13 2     
   20   14   15 1     
   21   14   28 1     
   22   15   16 1     
   23   15   29 1     
   24   15   30 1     
   25   16   21 1     
   26   16   17 1     
   27   16   31 1     
   28   17   18 1     
   29   17   32 1     
   30   17   33 1     
   31   18   19 1     
   32   18   34 1     
   33   18   35 1     
   34   19   20 1     
   35   19   36 1     
   36   19   37 1     
   37   20   21 1     
   38   20   38 1     
   39   20   39 1     
   40   21   22 1     
   41   21   40 1     
   42   22   41 1     
   43    1   42 1     
   44    1   43 1     
   45    8   44 1     
   46    8   45 1     
   47   13   46 1     
   48   13   47 1     
   49   22   48 1     
   50   22   49 1     
@<TRIPOS>SUBSTRUCTURE
      1 S1             1
@<TRIPOS>SET
LONE_PAIRS      STATIC     ATOMS    <user>   **** ""
9 42 43 44 45 9 46 47 48 49
DONOR_HYDROGENS      STATIC     ATOMS    <user>   **** ""
2 28 41
ATOM$BLUE        STATIC     ATOMS    COLORGROUP SYSTEM
9 42 43 44 45 9 46 47 48 49
ATOM$RED        STATIC     ATOMS    COLORGROUP SYSTEM
2 28 41
