AV-unprocessed.smi:2808|AV-procd|sdf|10824|dock8
  -GOLD-   2272015263D 1   1.00000     0.00000
 Structure written by MMmdl.
 43 44  0  0  0  0  0  0  0  0  1 V2000
  145.3368  144.2428  152.2012 C   0  0  0  0  0  0  0  0  0  0  0  0
  145.6656  143.6648  153.5652 C   0  0  0  0  0  0  0  0  0  0  0  0
  146.6634  142.6227  153.6902 C   0  0  0  0  0  0  0  0  0  0  0  0
  146.9421  142.1225  154.9032 C   0  0  0  0  0  0  0  0  0  0  0  0
  146.2932  142.5803  156.0634 N   0  0  0  0  0  0  0  0  0  0  0  0
  146.6753  141.9532  157.3398 C   0  0  0  0  0  0  0  0  0  0  0  0
  148.1204  141.4359  157.3457 C   0  0  0  0  0  0  0  0  0  0  0  0
  148.3579  140.2425  157.5336 O   0  0  0  0  0  0  0  0  0  0  0  0
  149.0745  142.3548  157.1223 N   0  0  0  0  0  0  0  0  0  0  0  0
  150.5241  142.1363  157.0808 C   0  0  0  0  0  0  0  0  0  0  0  0
  150.8566  141.0765  156.1081 C   0  0  0  0  0  0  0  0  0  0  0  0
  151.1171  140.2452  155.3465 N   0  0  0  0  0  0  0  0  0  0  0  0
  151.1745  143.4451  156.5686 C   0  0  0  0  0  0  0  0  0  0  0  0
  151.3976  144.5471  157.6198 C   0  0  0  0  0  0  0  0  0  0  0  0
  152.7611  144.4225  158.3236 C   0  0  0  0  0  0  0  0  0  0  0  0
  152.8715  143.2605  159.3235 C   0  0  0  0  0  0  0  0  0  0  0  0
  152.5200  141.8759  158.7508 C   0  0  0  0  0  0  0  0  0  0  0  0
  151.0125  141.7164  158.4927 C   0  0  0  0  0  0  0  0  0  0  0  0
  145.3389  143.5584  156.0209 C   0  0  0  0  0  0  0  0  0  0  0  0
  144.7713  143.9527  157.0417 O   0  0  0  0  0  0  0  0  0  0  0  0
  145.0409  144.1002  154.6856 C   0  0  0  0  0  0  0  0  0  0  0  0
  144.0441  145.1212  154.6416 C   0  0  0  0  0  0  0  0  0  0  0  0
  143.2517  145.9642  154.6037 N   0  0  0  0  0  0  0  0  0  0  0  0
  145.9417  143.7811  151.4204 H   0  0  0  0  0  0  0  0  0  0  0  0
  145.5276  145.3162  152.1860 H   0  0  0  0  0  0  0  0  0  0  0  0
  144.2868  144.0753  151.9591 H   0  0  0  0  0  0  0  0  0  0  0  0
  147.1777  142.2453  152.8184 H   0  0  0  0  0  0  0  0  0  0  0  0
  147.6696  141.3392  155.0599 H   0  0  0  0  0  0  0  0  0  0  0  0
  146.5659  142.6588  158.1644 H   0  0  0  0  0  0  0  0  0  0  0  0
  145.9905  141.1349  157.5715 H   0  0  0  0  0  0  0  0  0  0  0  0
  148.7691  143.3055  156.9738 H   0  0  0  0  0  0  0  0  0  0  0  0
  152.1304  143.2192  156.0936 H   0  0  0  0  0  0  0  0  0  0  0  0
  150.5619  143.8486  155.7606 H   0  0  0  0  0  0  0  0  0  0  0  0
  151.3798  145.5092  157.1068 H   0  0  0  0  0  0  0  0  0  0  0  0
  150.5801  144.5802  158.3407 H   0  0  0  0  0  0  0  0  0  0  0  0
  153.5517  144.3367  157.5772 H   0  0  0  0  0  0  0  0  0  0  0  0
  152.9638  145.3514  158.8576 H   0  0  0  0  0  0  0  0  0  0  0  0
  153.8937  143.2327  159.7022 H   0  0  0  0  0  0  0  0  0  0  0  0
  152.2441  143.4663  160.1915 H   0  0  0  0  0  0  0  0  0  0  0  0
  153.1007  141.6573  157.8541 H   0  0  0  0  0  0  0  0  0  0  0  0
  152.8178  141.1291  159.4877 H   0  0  0  0  0  0  0  0  0  0  0  0
  150.4592  142.2549  159.2639 H   0  0  0  0  0  0  0  0  0  0  0  0
  150.7542  140.6679  158.6467 H   0  0  0  0  0  0  0  0  0  0  0  0
  1  2  1  0  0  0  0
  1 24  1  0  0  0  0
  1 25  1  0  0  0  0
  1 26  1  0  0  0  0
  2 21  2  0  0  0  0
  2  3  1  0  0  0  0
  3  4  2  0  0  0  0
  3 27  1  0  0  0  0
  4  5  1  0  0  0  0
  4 28  1  0  0  0  0
  5  6  1  0  0  0  0
  5 19  1  0  0  0  0
  6  7  1  0  0  0  0
  6 29  1  0  0  0  0
  6 30  1  0  0  0  0
  7  8  2  0  0  0  0
  7  9  1  0  0  0  0
  9 10  1  0  0  0  0
  9 31  1  0  0  0  0
 10 18  1  0  0  0  0
 10 11  1  0  0  0  0
 10 13  1  0  0  0  0
 11 12  3  0  0  0  0
 13 14  1  0  0  0  0
 13 32  1  0  0  0  0
 13 33  1  0  0  0  0
 14 15  1  0  0  0  0
 14 34  1  0  0  0  0
 14 35  1  0  0  0  0
 15 16  1  0  0  0  0
 15 36  1  0  0  0  0
 15 37  1  0  0  0  0
 16 17  1  0  0  0  0
 16 38  1  0  0  0  0
 16 39  1  0  0  0  0
 17 18  1  0  0  0  0
 17 40  1  0  0  0  0
 17 41  1  0  0  0  0
 18 42  1  0  0  0  0
 18 43  1  0  0  0  0
 19 20  2  0  0  0  0
 19 21  1  0  0  0  0
 21 22  1  0  0  0  0
 22 23  3  0  0  0  0
M  END
> <s_m_source_file>
AV-unprocessed.smi

> <i_m_source_file_index>
2808

> <i_lp_mmshare_version>
43012

> <i_f3d_flags>
0

> <s_epik_input>
W0NIM11jMVtjSF1bY0hdbihjKD1PKWMxQyNOKVtDSDJdQyg9TylbTkhdQzIoQyNOKVtDSDJdW0NIMl1bQ0gyXVtDSDJdW0NIMl1bQ0gyXTI=

> <s_epik_cmdline>
J2VwaWtfcHl0aG9uJywgJy1waCcsICc3LjAnLCAnLXRuJywgJzgnLCAnLW1hJywgJzIwMCcsICctbWV0YWxfYmluZGluZycsICctaW1hZScsICc8aW5maWxlLm1hZT4nLCAnLW9tYWUnLCAnPG91dGZpbGUubWFlPic=

> <r_lp_tautomer_probability>
1

> <r_epik_Ionization_Penalty>
4.51384e-07

> <r_epik_Ionization_Penalty_Charging>
2.41788e-10

> <r_epik_Ionization_Penalty_Neutral>
4.51142e-07

> <r_epik_State_Penalty>
-0

> <r_epik_Charging_Adjusted_Penalty>
2.41788e-10

> <i_epik_Tot_Q>
0

> <i_epik_Tot_abs_Q>
0

> <r_epik_Metal_State_Penalty>
-0

> <b_epik_Metal_Only>
0

> <s_lp_Force_Field>
OPLS_2005

> <r_lp_Energy>
25.2429

> <b_lp_Chiralities_Consistent>
1

> <s_lp_Variant>
AV-unprocessed.smi:2808-1

> <Gold.Version>
5.8.1

> <Gold.Id.Protein>
6NUR|6NUR_protein|mol2

> <Gold.PLP.Fitness>
48.7846

> <Gold.PLP.PLP>
-45.3732

> <Gold.PLP.part.hbond>
-2.0000

> <Gold.PLP.part.metal>
0.0000

> <Gold.PLP.part.buried>
-3.8825

> <Gold.PLP.part.nonpolar>
-38.5763

> <Gold.PLP.part.repulsive>
0.1765

> <Gold.PLP.ligand.clash>
0.0000

> <Gold.PLP.ligand.torsion>
0.4427

> <Gold.PLP.Chemscore.Hbond>
1.4291

> <Gold.PLP.Chemscore.CHOScore>
0.0000

> <Gold.PLP.Chemscore.Metal>
0.0000

> <Gold.Chemscore.Hbonds>
donor molecule, donor type, donor heavy atom, donor atom, acceptor molecule, acceptor atom, score
      L1  H     9    31       P1  8028  0.83
      P1  H  7989  7998       L1    12  1.00

> <Gold.PLP.Chemscore.Internal.Correction>
0.0097

> <Gold.Rescore>
     Score         DG    S(hbond)    S(metal)    S(lipo)     H(rot)  DE(clash)    DE(int)     intcor
     15.43     -18.88       1.27        0.00     111.50       1.52       1.70       1.74       ----

> <Gold.Chemscore.Fitness>
15.4333

> <Gold.Chemscore.DG>
-18.8759

> <Gold.Chemscore.ZeroCoef>
-5.4800

> <Gold.Chemscore.Hbond>
1.2724

> <Gold.Chemscore.Metal>
0.0000

> <Gold.Chemscore.Lipo>
111.5006

> <Gold.Chemscore.Internal_Hbond>
0.0000

> <Gold.Chemscore.DEClash>
1.6988

> <Gold.Chemscore.DEInternal>
1.7438

> <Gold.Chemscore.Rot>
1.5232

> <Gold.Chemscore.Internal.Correction>
   9.000000E+99

> <Gold.Chemscore.Hbonds>
donor molecule, donor type, donor heavy atom, donor atom, acceptor molecule, acceptor atom, score
      L1  H     9    31       P1  8028  0.46
      P1  H  7989  7998       L1    12  0.86

> <Gold.Chemscore.Hbond.Weighted>
-4.2499

> <Gold.Chemscore.Metal.Weighted>
-0.0000

> <Gold.Chemscore.Lipo.Weighted>
-13.0456

> <Gold.Chemscore.Internal_Hbond.Weighted>
0.0000

> <Gold.Chemscore.DEClash.Weighted>
1.6988

> <Gold.Chemscore.DEInternal.Weighted>
1.7438

> <Gold.Chemscore.Rot.Weighted>
3.8995

> <Gold.Chemscore.Internal.Correction.Weighted>
   9.000000E+99

> <Gold.Protein.RotatedTorsions>
[ 6907 6896 6895 6894 ] final   82.39 input  -60.11 | X-H torsion
[ 7974 7965 7964 7962 ] final -133.88 input  175.53 | X-H torsion
[ 8008 7997 7996 7995 ] final    7.60 input   59.86 | X-H torsion
[ 10167 10162 10161 10158 ] final    2.39 input  -65.29 | X-H torsion
[ 10718 10713 10712 10709 ] final   87.41 input   66.30 | X-H torsion
[ 10763 10752 10751 10750 ] final  -66.36 input  -60.55 | X-H torsion
[ 11005 11000 10999 10996 ] final  154.19 input  -57.11 | X-H torsion

> <Gold.Protein.ActiveResidues>
 VAL166  LYS551  ARG553  GLY616  TRP617  ASP618  TYR619  PRO620  LYS621  CYS622 
 ASP623  PHE694  ASN695  SER759  ASP760  ASP761  ALA762  ILE779  LEU786  VAL792 
 PHE793  MET794  SER795  GLU796  ALA797  LYS798  CYS799  TRP800  GLU811  SER814 

> <Gold.Protein.RotatedAtoms>
  152.5297  134.3057  159.9094 H   0  0  0  0  0  0  0  0  0  0  0  0  # atno 6907 bound_to 6896
  151.3007  133.4117  159.2647 H   0  0  0  0  0  0  0  0  0  0  0  0  # atno 6908 bound_to 6896
  151.0121  134.9421  159.8070 H   0  0  0  0  0  0  0  0  0  0  0  0  # atno 6909 bound_to 6896
  144.9153  140.6946  143.4999 H   0  0  0  0  0  0  0  0  0  0  0  0  # atno 7974 bound_to 7965
  154.7560  140.2776  155.6253 H   0  0  0  0  0  0  0  0  0  0  0  0  # atno 8008 bound_to 7997
  156.2906  140.2669  156.2253 H   0  0  0  0  0  0  0  0  0  0  0  0  # atno 8009 bound_to 7997
  155.0077  140.0372  157.2376 H   0  0  0  0  0  0  0  0  0  0  0  0  # atno 8010 bound_to 7997
  140.6637  143.7236  150.7787 H   0  0  0  0  0  0  0  0  0  0  0  0  # atno 10167 bound_to 10162
  157.6940  131.0254  150.3119 H   0  0  0  0  0  0  0  0  0  0  0  0  # atno 10718 bound_to 10713
  154.3587  135.6120  153.5679 H   0  0  0  0  0  0  0  0  0  0  0  0  # atno 10763 bound_to 10752
  152.9794  135.5810  154.4658 H   0  0  0  0  0  0  0  0  0  0  0  0  # atno 10764 bound_to 10752
  154.4392  135.2850  155.1837 H   0  0  0  0  0  0  0  0  0  0  0  0  # atno 10765 bound_to 10752
  140.1466  134.8703  157.2400 H   0  0  0  0  0  0  0  0  0  0  0  0  # atno 11005 bound_to 11000
  145.3386  139.1738  143.4498 LP  0  0  0  0  0  0  0  0  0  0  0  0  # atno 17320 bound_to 7965
  146.3178  140.3425  142.8649 LP  0  0  0  0  0  0  0  0  0  0  0  0  # atno 17321 bound_to 7965
  140.0909  143.4879  152.2479 LP  0  0  0  0  0  0  0  0  0  0  0  0  # atno 17342 bound_to 10162
  139.5879  144.7538  151.3474 LP  0  0  0  0  0  0  0  0  0  0  0  0  # atno 17343 bound_to 10162
  156.3619  130.3848  149.7244 LP  0  0  0  0  0  0  0  0  0  0  0  0  # atno 17370 bound_to 10713
  156.4688  130.7986  151.3005 LP  0  0  0  0  0  0  0  0  0  0  0  0  # atno 17371 bound_to 10713
  140.2656  134.3520  155.7391 LP  0  0  0  0  0  0  0  0  0  0  0  0  # atno 17394 bound_to 11000
  141.2193  133.7394  156.9146 LP  0  0  0  0  0  0  0  0  0  0  0  0  # atno 17395 bound_to 11000

$$$$
