AV-unprocessed.smi:3004|AV-procd|sdf|11440|dock3
  -GOLD-   2272016373D 1   1.00000     0.00000
 Structure written by MMmdl.
 47 48  0  0  0  0  0  0  0  0  2 V2000
  152.5647  141.0471  158.6715 C   0  0  0  0  0  0  0  0  0  0  0  0
  151.8158  140.6786  157.4250 C   0  0  0  0  0  0  0  0  0  0  0  0
  150.6252  141.2604  156.9065 C   0  0  0  0  0  0  0  0  0  0  0  0
  150.3721  140.5525  155.7655 C   0  0  0  0  0  0  0  0  0  0  0  0
  149.2622  140.6860  154.7752 C   0  0  0  0  0  0  0  0  0  0  0  0
  151.3794  139.6112  155.6459 N   0  0  0  0  0  0  0  0  0  0  0  0
  151.5840  138.6107  154.6086 C   0  0  0  0  0  0  0  0  0  0  0  0
  151.0737  137.2358  155.0451 C   0  0  0  0  0  0  0  0  0  0  0  0
  151.8278  136.4551  155.6255 O   0  0  0  0  0  0  0  0  0  0  0  0
  149.7926  136.9499  154.7639 N   0  0  0  0  0  0  0  0  0  0  0  0
  149.1154  135.7088  155.1169 C   0  0  0  0  0  0  0  0  0  0  0  0
  147.5844  135.8519  155.0027 C   0  0  0  0  0  0  0  0  0  0  0  0
  147.0474  135.4206  153.6835 N   0  3  1  0  0  0  0  0  0  0  0  0
  146.8878  133.9430  153.6033 C   0  0  0  0  0  0  0  0  0  0  0  0
  146.5494  133.4913  152.1738 C   0  0  0  0  0  0  0  0  0  0  0  0
  145.2965  134.2036  151.6532 C   0  0  0  0  0  0  0  0  0  0  0  0
  145.4781  135.7237  151.7637 C   0  0  0  0  0  0  0  0  0  0  0  0
  145.8433  136.1660  153.1971 C   0  0  1  0  0  0  0  0  0  0  0  0
  144.6361  136.0862  154.1564 C   0  0  0  0  0  0  0  0  0  0  0  0
  152.2638  139.6937  156.6641 N   0  0  0  0  0  0  0  0  0  0  0  0
  152.1524  141.9476  159.1276 H   0  0  0  0  0  0  0  0  0  0  0  0
  153.6168  141.2362  158.4582 H   0  0  0  0  0  0  0  0  0  0  0  0
  152.5119  140.2474  159.4106 H   0  0  0  0  0  0  0  0  0  0  0  0
  150.0430  142.0742  157.3132 H   0  0  0  0  0  0  0  0  0  0  0  0
  148.5811  141.4882  155.0597 H   0  0  0  0  0  0  0  0  0  0  0  0
  148.6851  139.7634  154.7109 H   0  0  0  0  0  0  0  0  0  0  0  0
  149.6513  140.9142  153.7829 H   0  0  0  0  0  0  0  0  0  0  0  0
  151.0713  138.9188  153.6959 H   0  0  0  0  0  0  0  0  0  0  0  0
  152.6476  138.5599  154.3727 H   0  0  0  0  0  0  0  0  0  0  0  0
  149.2473  137.6514  154.2831 H   0  0  0  0  0  0  0  0  0  0  0  0
  149.4867  134.9452  154.4346 H   0  0  0  0  0  0  0  0  0  0  0  0
  149.4006  135.3995  156.1240 H   0  0  0  0  0  0  0  0  0  0  0  0
  147.1253  135.2279  155.7706 H   0  0  0  0  0  0  0  0  0  0  0  0
  147.2742  136.8727  155.2266 H   0  0  0  0  0  0  0  0  0  0  0  0
  147.8143  133.4574  153.9120 H   0  0  0  0  0  0  0  0  0  0  0  0
  146.1183  133.6099  154.3005 H   0  0  0  0  0  0  0  0  0  0  0  0
  147.3919  133.7033  151.5140 H   0  0  0  0  0  0  0  0  0  0  0  0
  146.4015  132.4112  152.1488 H   0  0  0  0  0  0  0  0  0  0  0  0
  145.1090  133.9227  150.6163 H   0  0  0  0  0  0  0  0  0  0  0  0
  144.4227  133.8856  152.2228 H   0  0  0  0  0  0  0  0  0  0  0  0
  146.2702  136.0353  151.0809 H   0  0  0  0  0  0  0  0  0  0  0  0
  144.5743  136.2330  151.4273 H   0  0  0  0  0  0  0  0  0  0  0  0
  146.1140  137.2181  153.1166 H   0  0  0  0  0  0  0  0  0  0  0  0
  143.7829  136.6263  153.7450 H   0  0  0  0  0  0  0  0  0  0  0  0
  144.8550  136.5396  155.1228 H   0  0  0  0  0  0  0  0  0  0  0  0
  144.3142  135.0605  154.3343 H   0  0  0  0  0  0  0  0  0  0  0  0
  147.7783  135.6373  153.0208 H   0  0  0  0  0  0  0  0  0  0  0  0
  1  2  1  0  0  0  0
  1 21  1  0  0  0  0
  1 22  1  0  0  0  0
  1 23  1  0  0  0  0
  2 20  2  0  0  0  0
  2  3  1  0  0  0  0
  3  4  2  0  0  0  0
  3 24  1  0  0  0  0
  4  5  1  0  0  0  0
  4  6  1  0  0  0  0
  5 25  1  0  0  0  0
  5 26  1  0  0  0  0
  5 27  1  0  0  0  0
  6  7  1  0  0  0  0
  6 20  1  0  0  0  0
  7  8  1  0  0  0  0
  7 28  1  0  0  0  0
  7 29  1  0  0  0  0
  8  9  2  0  0  0  0
  8 10  1  0  0  0  0
 10 11  1  0  0  0  0
 10 30  1  0  0  0  0
 11 12  1  0  0  0  0
 11 31  1  0  0  0  0
 11 32  1  0  0  0  0
 12 13  1  0  0  0  0
 12 33  1  0  0  0  0
 12 34  1  0  0  0  0
 13 18  1  0  0  0  0
 13 14  1  0  0  0  0
 13 47  1  0  0  0  0
 14 15  1  0  0  0  0
 14 35  1  0  0  0  0
 14 36  1  0  0  0  0
 15 16  1  0  0  0  0
 15 37  1  0  0  0  0
 15 38  1  0  0  0  0
 16 17  1  0  0  0  0
 16 39  1  0  0  0  0
 16 40  1  0  0  0  0
 17 18  1  0  0  0  0
 17 41  1  0  0  0  0
 17 42  1  0  0  0  0
 18 19  1  0  0  0  0
 18 43  1  0  0  0  0
 19 44  1  0  0  0  0
 19 45  1  0  0  0  0
 19 46  1  0  0  0  0
M  CHG  1  13   1
M  END
> <s_m_source_file>
AV-unprocessed.smi

> <i_m_source_file_index>
3004

> <i_lp_mmshare_version>
43012

> <i_f3d_flags>
0

> <s_epik_input>
W0NIM11jMVtjSF1jKFtDSDNdKW4objEpW0NIMl1DKD1PKVtOSF1bQ0gyXVtDSDJdTjJbQ0gyXVtDSDJdW0NIMl1bQ0gyXVtDQEhdMltDSDNd

> <s_epik_cmdline>
J2VwaWtfcHl0aG9uJywgJy1waCcsICc3LjAnLCAnLXRuJywgJzgnLCAnLW1hJywgJzIwMCcsICctbWV0YWxfYmluZGluZycsICctaW1hZScsICc8aW5maWxlLm1hZT4nLCAnLW9tYWUnLCAnPG91dGZpbGUubWFlPic=

> <r_lp_tautomer_probability>
1

> <r_epik_Ionization_Penalty>
0.00303644

> <r_epik_Ionization_Penalty_Charging>
0.00284254

> <r_epik_Ionization_Penalty_Neutral>
0.000193908

> <r_epik_State_Penalty>
-0

> <r_epik_Charging_Adjusted_Penalty>
0.00284254

> <i_epik_Tot_Q>
1

> <i_epik_Tot_abs_Q>
1

> <r_epik_Metal_State_Penalty>
-0

> <b_epik_Metal_Only>
0

> <s_lp_Force_Field>
OPLS_2005

> <r_lp_Energy>
17.9546

> <b_lp_Chiralities_Consistent>
1

> <s_lp_Variant>
AV-unprocessed.smi:3004-2

> <Gold.Version>
5.8.1

> <Gold.Id.Protein>
6NUR|6NUR_protein|mol2

> <Gold.PLP.Fitness>
43.2602

> <Gold.PLP.PLP>
-33.7829

> <Gold.PLP.part.hbond>
-3.9669

> <Gold.PLP.part.metal>
0.0000

> <Gold.PLP.part.buried>
-2.4673

> <Gold.PLP.part.nonpolar>
-27.1760

> <Gold.PLP.part.repulsive>
0.0804

> <Gold.PLP.ligand.clash>
0.0000

> <Gold.PLP.ligand.torsion>
1.3171

> <Gold.PLP.Chemscore.Hbond>
4.0000

> <Gold.PLP.Chemscore.CHOScore>
0.0000

> <Gold.PLP.Chemscore.Metal>
0.0000

> <Gold.Chemscore.Hbonds>
donor molecule, donor type, donor heavy atom, donor atom, acceptor molecule, acceptor atom, score
      L1  H    13    47       P1  7948  2.00
      P1  H  7997  8010       L1    20  0.76
      P1  H 10752 10764       L1     9  1.00

> <Gold.PLP.Chemscore.Internal.Correction>
0.1116

> <Gold.Rescore>
     Score         DG    S(hbond)    S(metal)    S(lipo)     H(rot)  DE(clash)    DE(int)     intcor
     17.49     -18.91       2.82        0.00      70.65       1.67       0.10       1.32       ----

> <Gold.Chemscore.Fitness>
17.4899

> <Gold.Chemscore.DG>
-18.9101

> <Gold.Chemscore.ZeroCoef>
-5.4800

> <Gold.Chemscore.Hbond>
2.8229

> <Gold.Chemscore.Metal>
0.0000

> <Gold.Chemscore.Lipo>
70.6480

> <Gold.Chemscore.Internal_Hbond>
0.0000

> <Gold.Chemscore.DEClash>
0.0960

> <Gold.Chemscore.DEInternal>
1.3241

> <Gold.Chemscore.Rot>
1.6657

> <Gold.Chemscore.Internal.Correction>
   9.000000E+99

> <Gold.Chemscore.Hbonds>
donor molecule, donor type, donor heavy atom, donor atom, acceptor molecule, acceptor atom, score
      L1  H    13    47       P1  7948  1.00
      P1  H  7997  8010       L1    20  0.33
      P1  H 10752 10764       L1     9  0.97

> <Gold.Chemscore.Hbond.Weighted>
-9.4283

> <Gold.Chemscore.Metal.Weighted>
-0.0000

> <Gold.Chemscore.Lipo.Weighted>
-8.2658

> <Gold.Chemscore.Internal_Hbond.Weighted>
0.0000

> <Gold.Chemscore.DEClash.Weighted>
0.0960

> <Gold.Chemscore.DEInternal.Weighted>
1.3241

> <Gold.Chemscore.Rot.Weighted>
4.2641

> <Gold.Chemscore.Internal.Correction.Weighted>
   9.000000E+99

> <Gold.Protein.RotatedTorsions>
[ 6907 6896 6895 6894 ] final   89.45 input  -60.11 | X-H torsion
[ 7974 7965 7964 7962 ] final  -96.09 input  175.53 | X-H torsion
[ 8008 7997 7996 7995 ] final   69.46 input   59.86 | X-H torsion
[ 10167 10162 10161 10158 ] final  102.19 input  -65.29 | X-H torsion
[ 10718 10713 10712 10709 ] final -164.56 input   66.30 | X-H torsion
[ 10763 10752 10751 10750 ] final  -53.52 input  -60.55 | X-H torsion
[ 11005 11000 10999 10996 ] final -110.46 input  -57.11 | X-H torsion

> <Gold.Protein.ActiveResidues>
 VAL166  LYS551  ARG553  GLY616  TRP617  ASP618  TYR619  PRO620  LYS621  CYS622 
 ASP623  PHE694  ASN695  SER759  ASP760  ASP761  ALA762  ILE779  LEU786  VAL792 
 PHE793  MET794  SER795  GLU796  ALA797  LYS798  CYS799  TRP800  GLU811  SER814 

> <Gold.Protein.RotatedAtoms>
  152.5436  134.1964  159.8694 H   0  0  0  0  0  0  0  0  0  0  0  0  # atno 6907 bound_to 6896
  151.1956  133.4634  159.2603 H   0  0  0  0  0  0  0  0  0  0  0  0  # atno 6908 bound_to 6896
  151.1040  135.0001  159.8518 H   0  0  0  0  0  0  0  0  0  0  0  0  # atno 6909 bound_to 6896
  145.3515  140.9477  143.2551 H   0  0  0  0  0  0  0  0  0  0  0  0  # atno 7974 bound_to 7965
  155.7239  140.3493  155.5028 H   0  0  0  0  0  0  0  0  0  0  0  0  # atno 8008 bound_to 7997
  155.9245  140.1073  157.1203 H   0  0  0  0  0  0  0  0  0  0  0  0  # atno 8009 bound_to 7997
  154.4075  140.1243  156.4709 H   0  0  0  0  0  0  0  0  0  0  0  0  # atno 8010 bound_to 7997
  139.7372  144.7021  151.0631 H   0  0  0  0  0  0  0  0  0  0  0  0  # atno 10167 bound_to 10162
  156.6408  130.8968  151.2995 H   0  0  0  0  0  0  0  0  0  0  0  0  # atno 10718 bound_to 10713
  154.1601  135.6476  153.4984 H   0  0  0  0  0  0  0  0  0  0  0  0  # atno 10763 bound_to 10752
  153.0113  135.5358  154.6720 H   0  0  0  0  0  0  0  0  0  0  0  0  # atno 10764 bound_to 10752
  154.6031  135.2946  155.0486 H   0  0  0  0  0  0  0  0  0  0  0  0  # atno 10765 bound_to 10752
  141.0790  133.9251  157.2328 H   0  0  0  0  0  0  0  0  0  0  0  0  # atno 11005 bound_to 11000
  144.8714  139.5033  143.6766 LP  0  0  0  0  0  0  0  0  0  0  0  0  # atno 17320 bound_to 7965
  146.2966  139.7296  142.9122 LP  0  0  0  0  0  0  0  0  0  0  0  0  # atno 17321 bound_to 7965
  140.7780  143.4969  150.9821 LP  0  0  0  0  0  0  0  0  0  0  0  0  # atno 17342 bound_to 10162
  139.8657  143.7256  152.3170 LP  0  0  0  0  0  0  0  0  0  0  0  0  # atno 17343 bound_to 10162
  157.7171  130.9511  150.1298 LP  0  0  0  0  0  0  0  0  0  0  0  0  # atno 17370 bound_to 10713
  156.2160  130.3670  149.8612 LP  0  0  0  0  0  0  0  0  0  0  0  0  # atno 17371 bound_to 10713
  139.9603  135.0155  156.9243 LP  0  0  0  0  0  0  0  0  0  0  0  0  # atno 17394 bound_to 11000
  140.5509  134.0628  155.7369 LP  0  0  0  0  0  0  0  0  0  0  0  0  # atno 17395 bound_to 11000

$$$$
