AV-unprocessed.smi:3068|AV-procd|sdf|11700|dock4
  -GOLD-   2272017103D 1   1.00000     0.00000
 Structure written by MMmdl.
 40 42  0  0  0  0  0  0  0  0  2 V2000
  151.5501  137.1707  154.2995 N   0  0  0  0  0  0  0  0  0  0  0  0
  150.8189  138.0654  154.3610 C   0  0  0  0  0  0  0  0  0  0  0  0
  149.8988  139.1930  154.4395 C   0  0  0  0  0  0  0  0  0  0  0  0
  150.4214  140.3767  154.8355 N   0  0  0  0  0  0  0  0  0  0  0  0
  149.5810  141.4303  154.9104 C   0  0  0  0  0  0  0  0  0  0  0  0
  148.2153  141.3080  154.5898 C   0  0  0  0  0  0  0  0  0  0  0  0
  147.6853  140.1315  154.1927 N   0  0  0  0  0  0  0  0  0  0  0  0
  148.5190  139.0640  154.1131 C   0  0  0  0  0  0  0  0  0  0  0  0
  147.9813  137.8303  153.7009 N   0  0  0  0  0  0  0  0  0  0  0  0
  146.7437  137.3004  154.2616 C   0  0  0  0  0  0  0  0  0  0  0  0
  146.2600  136.0366  153.5304 C   0  0  2  0  0  0  0  0  0  0  0  0
  145.7506  136.3678  152.1105 C   0  0  0  0  0  0  0  0  0  0  0  0
  145.1690  135.1755  151.4475 N   0  3  1  0  0  0  0  0  0  0  0  0
  146.1929  134.2289  150.9268 C   0  0  0  0  0  0  0  0  0  0  0  0
  145.5401  133.0502  150.1905 C   0  0  0  0  0  0  0  0  0  0  0  0
  144.5531  132.3198  151.1078 C   0  0  0  0  0  0  0  0  0  0  0  0
  143.5030  133.3073  151.6341 C   0  0  0  0  0  0  0  0  0  0  0  0
  144.1371  134.5400  152.3133 C   0  0  1  0  0  0  0  0  0  0  0  0
  144.7045  134.2570  153.7202 C   0  0  0  0  0  0  0  0  0  0  0  0
  145.1893  135.4713  154.2816 O   0  0  0  0  0  0  0  0  0  0  0  0
  150.0001  142.3741  155.2269 H   0  0  0  0  0  0  0  0  0  0  0  0
  147.5470  142.1541  154.6515 H   0  0  0  0  0  0  0  0  0  0  0  0
  148.4032  137.3414  152.9236 H   0  0  0  0  0  0  0  0  0  0  0  0
  146.9098  137.0779  155.3159 H   0  0  0  0  0  0  0  0  0  0  0  0
  145.9742  138.0727  154.2346 H   0  0  0  0  0  0  0  0  0  0  0  0
  147.0797  135.3198  153.4696 H   0  0  0  0  0  0  0  0  0  0  0  0
  144.9777  137.1354  152.1701 H   0  0  0  0  0  0  0  0  0  0  0  0
  146.5517  136.7841  151.4983 H   0  0  0  0  0  0  0  0  0  0  0  0
  146.8579  134.7585  150.2438 H   0  0  0  0  0  0  0  0  0  0  0  0
  146.8153  133.8506  151.7377 H   0  0  0  0  0  0  0  0  0  0  0  0
  145.0208  133.4118  149.3020 H   0  0  0  0  0  0  0  0  0  0  0  0
  146.3066  132.3579  149.8411 H   0  0  0  0  0  0  0  0  0  0  0  0
  144.0655  131.5097  150.5643 H   0  0  0  0  0  0  0  0  0  0  0  0
  145.0874  131.8588  151.9390 H   0  0  0  0  0  0  0  0  0  0  0  0
  142.8880  133.6422  150.7977 H   0  0  0  0  0  0  0  0  0  0  0  0
  142.8245  132.8029  152.3231 H   0  0  0  0  0  0  0  0  0  0  0  0
  143.3391  135.2737  152.4396 H   0  0  0  0  0  0  0  0  0  0  0  0
  143.9207  133.8662  154.3694 H   0  0  0  0  0  0  0  0  0  0  0  0
  145.4977  133.5088  153.6996 H   0  0  0  0  0  0  0  0  0  0  0  0
  144.6816  135.5146  150.6304 H   0  0  0  0  0  0  0  0  0  0  0  0
  1  2  3  0  0  0  0
  2  3  1  0  0  0  0
  3  8  1  0  0  0  0
  3  4  2  0  0  0  0
  4  5  1  0  0  0  0
  5  6  2  0  0  0  0
  5 21  1  0  0  0  0
  6  7  1  0  0  0  0
  6 22  1  0  0  0  0
  7  8  2  0  0  0  0
  8  9  1  0  0  0  0
  9 10  1  0  0  0  0
  9 23  1  0  0  0  0
 10 11  1  0  0  0  0
 10 24  1  0  0  0  0
 10 25  1  0  0  0  0
 11 20  1  0  0  0  0
 11 12  1  0  0  0  0
 11 26  1  0  0  0  0
 12 13  1  0  0  0  0
 12 27  1  0  0  0  0
 12 28  1  0  0  0  0
 13 18  1  0  0  0  0
 13 14  1  0  0  0  0
 13 40  1  0  0  0  0
 14 15  1  0  0  0  0
 14 29  1  0  0  0  0
 14 30  1  0  0  0  0
 15 16  1  0  0  0  0
 15 31  1  0  0  0  0
 15 32  1  0  0  0  0
 16 17  1  0  0  0  0
 16 33  1  0  0  0  0
 16 34  1  0  0  0  0
 17 18  1  0  0  0  0
 17 35  1  0  0  0  0
 17 36  1  0  0  0  0
 18 19  1  0  0  0  0
 18 37  1  0  0  0  0
 19 20  1  0  0  0  0
 19 38  1  0  0  0  0
 19 39  1  0  0  0  0
M  CHG  1  13   1
M  END
> <s_m_source_file>
AV-unprocessed.smi

> <i_m_source_file_index>
3068

> <i_lp_mmshare_version>
43012

> <i_f3d_flags>
0

> <s_epik_input>
TiNDYzFuW2NIXVtjSF1uYzFbTkhdW0NIMl1bQ0BIXShbQ0gyXTIpT1tDSDJdW0NAQEhdKE4yMylbQ0gyXVtDSDJdW0NIMl1bQ0gyXTM=

> <s_epik_cmdline>
J2VwaWtfcHl0aG9uJywgJy1waCcsICc3LjAnLCAnLXRuJywgJzgnLCAnLW1hJywgJzIwMCcsICctbWV0YWxfYmluZGluZycsICctaW1hZScsICc8aW5maWxlLm1hZT4nLCAnLW9tYWUnLCAnPG91dGZpbGUubWFlPic=

> <r_epik_Ionization_Penalty>
0.0804321

> <r_epik_Ionization_Penalty_Charging>
0.0803403

> <r_epik_Ionization_Penalty_Neutral>
9.17277e-05

> <r_epik_State_Penalty>
0.0711481

> <r_epik_Charging_Adjusted_Penalty>
0.151488

> <i_epik_Tot_Q>
1

> <i_epik_Tot_abs_Q>
1

> <r_epik_Metal_State_Penalty>
0.0711481

> <b_epik_Metal_Only>
0

> <s_lp_Force_Field>
OPLS_2005

> <r_lp_Energy>
39.785

> <b_lp_Chiralities_Consistent>
1

> <s_lp_Variant>
AV-unprocessed.smi:3068-3

> <Gold.Version>
5.8.1

> <Gold.Id.Protein>
6NUR|6NUR_protein|mol2

> <Gold.PLP.Fitness>
42.2877

> <Gold.PLP.PLP>
-32.2524

> <Gold.PLP.part.hbond>
-2.6893

> <Gold.PLP.part.metal>
0.0000

> <Gold.PLP.part.buried>
-3.9676

> <Gold.PLP.part.nonpolar>
-25.4772

> <Gold.PLP.part.repulsive>
0.4723

> <Gold.PLP.ligand.clash>
0.0000

> <Gold.PLP.ligand.torsion>
0.4799

> <Gold.PLP.Chemscore.Hbond>
2.6663

> <Gold.PLP.Chemscore.CHOScore>
0.9986

> <Gold.PLP.Chemscore.Metal>
0.0000

> <Gold.Chemscore.Hbonds>
donor molecule, donor type, donor heavy atom, donor atom, acceptor molecule, acceptor atom, score
      L1  H     9    23       P1  7948  1.00
      P1  H  7989  7998       L1     4  1.00
      P1  H 10752 10763       L1     1  0.94
      L1  C     5    21       P1  8028  0.76

> <Gold.PLP.Chemscore.Internal.Correction>
0.0006

> <Gold.Rescore>
     Score         DG    S(hbond)    S(metal)    S(lipo)     H(rot)  DE(clash)    DE(int)     intcor
     16.11     -16.62       2.08        0.00      64.73       1.32       0.05       0.46       ----

> <Gold.Chemscore.Fitness>
16.1111

> <Gold.Chemscore.DG>
-16.6175

> <Gold.Chemscore.ZeroCoef>
-5.4800

> <Gold.Chemscore.Hbond>
2.0782

> <Gold.Chemscore.Metal>
0.0000

> <Gold.Chemscore.Lipo>
64.7317

> <Gold.Chemscore.Internal_Hbond>
0.0000

> <Gold.Chemscore.DEClash>
0.0502

> <Gold.Chemscore.DEInternal>
0.4561

> <Gold.Chemscore.Rot>
1.3193

> <Gold.Chemscore.Internal.Correction>
   9.000000E+99

> <Gold.Chemscore.Hbonds>
donor molecule, donor type, donor heavy atom, donor atom, acceptor molecule, acceptor atom, score
      L1  H     9    23       P1  7948  0.99
      P1  H  7989  7998       L1     4  0.21
      P1  H 10752 10763       L1     1  0.89

> <Gold.Chemscore.Hbond.Weighted>
-6.9412

> <Gold.Chemscore.Metal.Weighted>
-0.0000

> <Gold.Chemscore.Lipo.Weighted>
-7.5736

> <Gold.Chemscore.Internal_Hbond.Weighted>
0.0000

> <Gold.Chemscore.DEClash.Weighted>
0.0502

> <Gold.Chemscore.DEInternal.Weighted>
0.4561

> <Gold.Chemscore.Rot.Weighted>
3.3774

> <Gold.Chemscore.Internal.Correction.Weighted>
   9.000000E+99

> <Gold.Protein.RotatedTorsions>
[ 6907 6896 6895 6894 ] final  -78.18 input  -60.11 | X-H torsion
[ 7974 7965 7964 7962 ] final  -38.25 input  175.53 | X-H torsion
[ 8008 7997 7996 7995 ] final  137.62 input   59.86 | X-H torsion
[ 10167 10162 10161 10158 ] final  -97.39 input  -65.29 | X-H torsion
[ 10718 10713 10712 10709 ] final -160.50 input   66.30 | X-H torsion
[ 10763 10752 10751 10750 ] final   36.98 input  -60.55 | X-H torsion
[ 11005 11000 10999 10996 ] final -145.49 input  -57.11 | X-H torsion

> <Gold.Protein.ActiveResidues>
 VAL166  LYS551  ARG553  GLY616  TRP617  ASP618  TYR619  PRO620  LYS621  CYS622 
 ASP623  PHE694  ASN695  SER759  ASP760  ASP761  ALA762  ILE779  LEU786  VAL792 
 PHE793  MET794  SER795  GLU796  ALA797  LYS798  CYS799  TRP800  GLU811  SER814 

> <Gold.Protein.RotatedAtoms>
  150.6979  134.4311  159.5248 H   0  0  0  0  0  0  0  0  0  0  0  0  # atno 6907 bound_to 6896
  152.2038  134.8561  160.0514 H   0  0  0  0  0  0  0  0  0  0  0  0  # atno 6908 bound_to 6896
  151.9472  133.3620  159.4023 H   0  0  0  0  0  0  0  0  0  0  0  0  # atno 6909 bound_to 6896
  146.0503  140.6490  142.9045 H   0  0  0  0  0  0  0  0  0  0  0  0  # atno 7974 bound_to 7965
  156.3001  140.2415  156.3939 H   0  0  0  0  0  0  0  0  0  0  0  0  # atno 8008 bound_to 7997
  154.8589  140.0421  157.1672 H   0  0  0  0  0  0  0  0  0  0  0  0  # atno 8009 bound_to 7997
  154.8918  140.2964  155.5370 H   0  0  0  0  0  0  0  0  0  0  0  0  # atno 8010 bound_to 7997
  140.2839  143.3264  152.0414 H   0  0  0  0  0  0  0  0  0  0  0  0  # atno 10167 bound_to 10162
  156.5830  130.8737  151.2869 H   0  0  0  0  0  0  0  0  0  0  0  0  # atno 10718 bound_to 10713
  153.0055  135.6290  154.2071 H   0  0  0  0  0  0  0  0  0  0  0  0  # atno 10763 bound_to 10752
  154.1815  135.2813  155.3052 H   0  0  0  0  0  0  0  0  0  0  0  0  # atno 10764 bound_to 10752
  154.5831  135.5641  153.7264 H   0  0  0  0  0  0  0  0  0  0  0  0  # atno 10765 bound_to 10752
  140.7917  134.2960  157.5011 H   0  0  0  0  0  0  0  0  0  0  0  0  # atno 11005 bound_to 11000
  144.7119  140.4069  143.7074 LP  0  0  0  0  0  0  0  0  0  0  0  0  # atno 17320 bound_to 7965
  145.6736  139.1604  143.2740 LP  0  0  0  0  0  0  0  0  0  0  0  0  # atno 17321 bound_to 7965
  139.4955  144.6573  151.6544 LP  0  0  0  0  0  0  0  0  0  0  0  0  # atno 17342 bound_to 10162
  140.5789  143.9980  150.6257 LP  0  0  0  0  0  0  0  0  0  0  0  0  # atno 17343 bound_to 10162
  157.7322  130.9711  150.1916 LP  0  0  0  0  0  0  0  0  0  0  0  0  # atno 17370 bound_to 10713
  156.2615  130.3711  149.8125 LP  0  0  0  0  0  0  0  0  0  0  0  0  # atno 17371 bound_to 10713
  139.8730  134.9378  156.3698 LP  0  0  0  0  0  0  0  0  0  0  0  0  # atno 17394 bound_to 11000
  140.9383  133.7532  156.0113 LP  0  0  0  0  0  0  0  0  0  0  0  0  # atno 17395 bound_to 11000

$$$$
