#       Name:                AV-unprocessed.smi:1111
#       Creating user name   scv26
#       Creation time:       Fri Mar 27 03:34:11 2020


#       File generated by GOLD software.
#

@<TRIPOS>MOLECULE
AV-unprocessed.smi:1111
    35    36     1
SMALL
NO_CHARGES


@<TRIPOS>ATOM
      1 ****        -2.2322   1.0749   0.1221 C.3            1 S1                 0.0000
      2 ****        -1.6347  -0.3479   0.1591 C.3            1 S1                 0.0000
      3 ****        -0.1663  -0.2919   0.1772 N.am           1 S1                 0.0000
      4 ****         0.6353   0.2665   1.1014 C.2            1 S1                 0.0000
      5 ****         0.2286   0.8602   2.0991 O.2            1 S1                 0.0000
      6 ****         2.1392   0.1350   0.8608 C.3            1 S1                 0.0000
      7 ****         2.6348   1.2030  -0.0121 N.pl3          1 S1                 0.0000
      8 ****         2.8975   1.1246  -1.3561 C.2            1 S1                 0.0000
      9 ****         3.3393   2.3644  -1.7410 C.2            1 S1                 0.0000
     10 ****         3.3260   3.1471  -0.6174 N.pl3          1 S1                 1.0000
     11 ****         2.8986   2.4390   0.4331 C.2            1 S1                 0.0000
     12 ****        -2.0476  -1.1261  -1.1133 C.3            1 S1                 0.0000
     13 ****        -1.7971  -2.6259  -0.9094 C.3            1 S1                 0.0000
     14 ****        -2.0547  -2.9340   0.8760 S.o2           1 S1                 0.0000
     15 ****        -3.3599  -3.5786   1.0844 O.2            1 S1                 0.0000
     16 ****        -0.8246  -3.5107   1.4395 O.2            1 S1                 0.0000
     17 ****        -2.1732  -1.1679   1.3543 C.3            1 S1                 0.0000
     18 ****        -3.3158   1.0453   0.0046 H              1 S1                 0.0000
     19 ****        -1.8295   1.6516  -0.7112 H              1 S1                 0.0000
     20 ****        -2.0290   1.6289   1.0383 H              1 S1                 0.0000
     21 ****         0.2908  -0.7512  -0.5972 H              1 S1                 0.0000
     22 ****         2.6804   0.1819   1.8072 H              1 S1                 0.0000
     23 ****         2.3716  -0.8264   0.3997 H              1 S1                 0.0000
     24 ****         2.7555   0.2167  -1.9242 H              1 S1                 0.0000
     25 ****         3.6535   2.7382  -2.7047 H              1 S1                 0.0000
     26 ****         2.7857   2.7955   1.4418 H              1 S1                 0.0000
     27 ****        -3.1159  -0.9856  -1.2841 H              1 S1                 0.0000
     28 ****        -1.5427  -0.7557  -2.0066 H              1 S1                 0.0000
     29 ****        -2.4655  -3.2522  -1.5004 H              1 S1                 0.0000
     30 ****        -0.7673  -2.8886  -1.1529 H              1 S1                 0.0000
     31 ****        -1.6525  -0.9999   2.2966 H              1 S1                 0.0000
     32 ****        -3.2292  -0.9522   1.5201 H              1 S1                 0.0000
     33 ****         3.5996   4.1214  -0.5833 H              1 S1                 0.0000
     34 ****        -0.7540   0.9503   2.2614 LP             1 S1                 0.0000
     35 ****         0.8806   1.2528   2.7477 LP             1 S1                 0.0000
@<TRIPOS>BOND
    1    1    2 1     
    2    1   18 1     
    3    1   19 1     
    4    1   20 1     
    5    2   17 1     
    6    2    3 1     
    7    2   12 1     
    8    3    4 am    
    9    3   21 1     
   10    4    5 2     
   11    4    6 1     
   12    6    7 1     
   13    6   22 1     
   14    6   23 1     
   15    7   11 1     
   16    7    8 1     
   17    8    9 2     
   18    8   24 1     
   19    9   10 1     
   20    9   25 1     
   21   10   11 2     
   22   10   33 1     
   23   11   26 1     
   24   12   13 1     
   25   12   27 1     
   26   12   28 1     
   27   13   14 1     
   28   13   29 1     
   29   13   30 1     
   30   14   15 2     
   31   14   16 2     
   32   14   17 1     
   33   17   31 1     
   34   17   32 1     
   35    5   34 1     
   36    5   35 1     
@<TRIPOS>SUBSTRUCTURE
      1 S1             1
@<TRIPOS>SET
LONE_PAIRS      STATIC     ATOMS    <user>   **** ""
4 34 35 15 16
DONOR_HYDROGENS      STATIC     ATOMS    <user>   **** ""
2 21 33
ATOM$BLUE        STATIC     ATOMS    COLORGROUP SYSTEM
4 34 35 15 16
ATOM$RED        STATIC     ATOMS    COLORGROUP SYSTEM
2 21 33
