AV-unprocessed.smi:3017|AV-procd|sdf|11478|dock4
  -GOLD-   2272016413D 1   1.00000     0.00000
 Structure written by MMmdl.
 37 38  0  0  0  0  0  0  0  0  1 V2000
  152.0147  141.7738  157.5347 C   0  0  0  0  0  0  0  0  0  0  0  0
  151.0086  140.8576  156.8240 C   0  0  1  0  0  0  0  0  0  0  0  0
  150.2356  141.6121  155.7252 C   0  0  0  0  0  0  0  0  0  0  0  0
  149.2308  140.6942  155.0118 C   0  0  0  0  0  0  0  0  0  0  0  0
  149.9220  139.4462  154.4382 C   0  0  0  0  0  0  0  0  0  0  0  0
  150.7020  138.6770  155.5189 C   0  0  2  0  0  0  0  0  0  0  0  0
  149.7553  138.1378  156.4334 O   0  0  0  0  0  0  0  0  0  0  0  0
  150.2783  137.1641  157.3289 C   0  0  0  0  0  0  0  0  0  0  0  0
  149.1502  136.5923  158.1911 C   0  0  0  0  0  0  0  0  0  0  0  0
  148.1955  136.0475  157.6376 O   0  0  0  0  0  0  0  0  0  0  0  0
  149.2751  136.7387  159.5241 N   0  0  0  0  0  0  0  0  0  0  0  0
  148.3975  136.2880  160.5441 C   0  0  0  0  0  0  0  0  0  0  0  0
  147.6337  135.1384  160.2324 C   0  0  0  0  0  0  0  0  0  0  0  0
  146.7505  134.5928  161.0980 N   0  0  0  0  0  0  0  0  0  0  0  0
  146.6243  135.2023  162.2960 C   0  0  0  0  0  0  0  0  0  0  0  0
  147.3769  136.3476  162.6241 C   0  0  0  0  0  0  0  0  0  0  0  0
  148.2586  136.8873  161.7544 N   0  0  0  0  0  0  0  0  0  0  0  0
  151.7004  139.6111  156.2360 C   0  0  0  0  0  0  0  0  0  0  0  0
  152.7683  142.1495  156.8418 H   0  0  0  0  0  0  0  0  0  0  0  0
  152.5325  141.2416  158.3333 H   0  0  0  0  0  0  0  0  0  0  0  0
  151.5150  142.6332  157.9826 H   0  0  0  0  0  0  0  0  0  0  0  0
  150.2886  140.5230  157.5725 H   0  0  0  0  0  0  0  0  0  0  0  0
  149.7091  142.4644  156.1564 H   0  0  0  0  0  0  0  0  0  0  0  0
  150.9359  142.0198  154.9949 H   0  0  0  0  0  0  0  0  0  0  0  0
  148.4498  140.3936  155.7116 H   0  0  0  0  0  0  0  0  0  0  0  0
  148.7318  141.2413  154.2117 H   0  0  0  0  0  0  0  0  0  0  0  0
  149.1843  138.7917  153.9730 H   0  0  0  0  0  0  0  0  0  0  0  0
  150.6076  139.7477  153.6452 H   0  0  0  0  0  0  0  0  0  0  0  0
  151.2427  137.8623  155.0339 H   0  0  0  0  0  0  0  0  0  0  0  0
  150.7466  136.3511  156.7726 H   0  0  0  0  0  0  0  0  0  0  0  0
  151.0334  137.5991  157.9835 H   0  0  0  0  0  0  0  0  0  0  0  0
  150.1073  137.2151  159.8413 H   0  0  0  0  0  0  0  0  0  0  0  0
  147.7299  134.6490  159.2740 H   0  0  0  0  0  0  0  0  0  0  0  0
  145.9207  134.7757  162.9953 H   0  0  0  0  0  0  0  0  0  0  0  0
  147.2713  136.8311  163.5838 H   0  0  0  0  0  0  0  0  0  0  0  0
  152.4622  139.9272  155.5220 H   0  0  0  0  0  0  0  0  0  0  0  0
  152.2348  139.0749  157.0196 H   0  0  0  0  0  0  0  0  0  0  0  0
  1  2  1  0  0  0  0
  1 19  1  0  0  0  0
  1 20  1  0  0  0  0
  1 21  1  0  0  0  0
  2 18  1  0  0  0  0
  2  3  1  0  0  0  0
  2 22  1  0  0  0  0
  3  4  1  0  0  0  0
  3 23  1  0  0  0  0
  3 24  1  0  0  0  0
  4  5  1  0  0  0  0
  4 25  1  0  0  0  0
  4 26  1  0  0  0  0
  5  6  1  0  0  0  0
  5 27  1  0  0  0  0
  5 28  1  0  0  0  0
  6  7  1  0  0  0  0
  6 18  1  0  0  0  0
  6 29  1  0  0  0  0
  7  8  1  0  0  0  0
  8  9  1  0  0  0  0
  8 30  1  0  0  0  0
  8 31  1  0  0  0  0
  9 10  2  0  0  0  0
  9 11  1  0  0  0  0
 11 12  1  0  0  0  0
 11 32  1  0  0  0  0
 12 17  1  0  0  0  0
 12 13  2  0  0  0  0
 13 14  1  0  0  0  0
 13 33  1  0  0  0  0
 14 15  2  0  0  0  0
 15 16  1  0  0  0  0
 15 34  1  0  0  0  0
 16 17  2  0  0  0  0
 16 35  1  0  0  0  0
 18 36  1  0  0  0  0
 18 37  1  0  0  0  0
M  END
> <s_m_source_file>
AV-unprocessed.smi

> <i_m_source_file_index>
3017

> <i_lp_mmshare_version>
43012

> <i_f3d_flags>
0

> <s_epik_input>
W0NIM11bQ0BASF0xW0NIMl1bQ0gyXVtDSDJdW0NASF0oW0NIMl0xKU9bQ0gyXUMoPU8pW05IXWMyW2NIXW5bY0hdW2NIXW4y

> <s_epik_cmdline>
J2VwaWtfcHl0aG9uJywgJy1waCcsICc3LjAnLCAnLXRuJywgJzgnLCAnLW1hJywgJzIwMCcsICctbWV0YWxfYmluZGluZycsICctaW1hZScsICc8aW5maWxlLm1hZT4nLCAnLW9tYWUnLCAnPG91dGZpbGUubWFlPic=

> <r_lp_tautomer_probability>
1

> <r_epik_Ionization_Penalty>
2.89243e-06

> <r_epik_Ionization_Penalty_Charging>
0

> <r_epik_Ionization_Penalty_Neutral>
2.89243e-06

> <r_epik_State_Penalty>
-0

> <r_epik_Charging_Adjusted_Penalty>
0

> <i_epik_Tot_Q>
0

> <i_epik_Tot_abs_Q>
0

> <r_epik_Metal_State_Penalty>
-0

> <b_epik_Metal_Only>
0

> <s_lp_Force_Field>
OPLS_2005

> <r_lp_Energy>
20.5114

> <b_lp_Chiralities_Consistent>
1

> <s_lp_Variant>
AV-unprocessed.smi:3017-4

> <Gold.Version>
5.8.1

> <Gold.Id.Protein>
6NUR|6NUR_protein|mol2

> <Gold.PLP.Fitness>
35.9656

> <Gold.PLP.PLP>
-31.4807

> <Gold.PLP.part.hbond>
-1.9726

> <Gold.PLP.part.metal>
0.0000

> <Gold.PLP.part.buried>
-2.4209

> <Gold.PLP.part.nonpolar>
-27.3195

> <Gold.PLP.part.repulsive>
0.2319

> <Gold.PLP.ligand.clash>
0.0000

> <Gold.PLP.ligand.torsion>
0.2445

> <Gold.PLP.Chemscore.Hbond>
1.6552

> <Gold.PLP.Chemscore.CHOScore>
0.0000

> <Gold.PLP.Chemscore.Metal>
0.0000

> <Gold.Chemscore.Hbonds>
donor molecule, donor type, donor heavy atom, donor atom, acceptor molecule, acceptor atom, score
      P1  H  6931  6943       L1    17  1.00

> <Gold.PLP.Chemscore.Internal.Correction>
0.0083

> <Gold.Rescore>
     Score         DG    S(hbond)    S(metal)    S(lipo)     H(rot)  DE(clash)    DE(int)     intcor
     12.64     -14.45       1.28        0.00      73.29       1.51       0.25       1.55       ----

> <Gold.Chemscore.Fitness>
12.6430

> <Gold.Chemscore.DG>
-14.4460

> <Gold.Chemscore.ZeroCoef>
-5.4800

> <Gold.Chemscore.Hbond>
1.2758

> <Gold.Chemscore.Metal>
0.0000

> <Gold.Chemscore.Lipo>
73.2946

> <Gold.Chemscore.Internal_Hbond>
0.0000

> <Gold.Chemscore.DEClash>
0.2522

> <Gold.Chemscore.DEInternal>
1.5509

> <Gold.Chemscore.Rot>
1.5119

> <Gold.Chemscore.Internal.Correction>
   9.000000E+99

> <Gold.Chemscore.Hbonds>
donor molecule, donor type, donor heavy atom, donor atom, acceptor molecule, acceptor atom, score
      P1  H  6931  6943       L1    17  0.88

> <Gold.Chemscore.Hbond.Weighted>
-4.2612

> <Gold.Chemscore.Metal.Weighted>
-0.0000

> <Gold.Chemscore.Lipo.Weighted>
-8.5755

> <Gold.Chemscore.Internal_Hbond.Weighted>
0.0000

> <Gold.Chemscore.DEClash.Weighted>
0.2522

> <Gold.Chemscore.DEInternal.Weighted>
1.5509

> <Gold.Chemscore.Rot.Weighted>
3.8706

> <Gold.Chemscore.Internal.Correction.Weighted>
   9.000000E+99

> <Gold.Protein.RotatedTorsions>
[ 6907 6896 6895 6894 ] final  107.29 input  -60.11 | X-H torsion
[ 7974 7965 7964 7962 ] final   86.38 input  175.53 | X-H torsion
[ 8008 7997 7996 7995 ] final  -17.05 input   59.86 | X-H torsion
[ 10167 10162 10161 10158 ] final -158.20 input  -65.29 | X-H torsion
[ 10718 10713 10712 10709 ] final  -22.52 input   66.30 | X-H torsion
[ 10763 10752 10751 10750 ] final  111.28 input  -60.55 | X-H torsion
[ 11005 11000 10999 10996 ] final -149.96 input  -57.11 | X-H torsion

> <Gold.Protein.ActiveResidues>
 VAL166  LYS551  ARG553  GLY616  TRP617  ASP618  TYR619  PRO620  LYS621  CYS622 
 ASP623  PHE694  ASN695  SER759  ASP760  ASP761  ALA762  ILE779  LEU786  VAL792 
 PHE793  MET794  SER795  GLU796  ALA797  LYS798  CYS799  TRP800  GLU811  SER814 

> <Gold.Protein.RotatedAtoms>
  152.5160  133.9256  159.7555 H   0  0  0  0  0  0  0  0  0  0  0  0  # atno 6907 bound_to 6896
  150.9618  133.6429  159.2760 H   0  0  0  0  0  0  0  0  0  0  0  0  # atno 6908 bound_to 6896
  151.3671  135.0921  159.9506 H   0  0  0  0  0  0  0  0  0  0  0  0  # atno 6909 bound_to 6896
  145.5731  139.2316  143.2395 H   0  0  0  0  0  0  0  0  0  0  0  0  # atno 7974 bound_to 7965
  154.5007  140.2153  155.9353 H   0  0  0  0  0  0  0  0  0  0  0  0  # atno 8008 bound_to 7997
  156.1430  140.3176  155.8492 H   0  0  0  0  0  0  0  0  0  0  0  0  # atno 8009 bound_to 7997
  155.4085  140.0489  157.3024 H   0  0  0  0  0  0  0  0  0  0  0  0  # atno 8010 bound_to 7997
  139.6710  143.9745  152.2283 H   0  0  0  0  0  0  0  0  0  0  0  0  # atno 10167 bound_to 10162
  156.5034  130.4593  149.6688 H   0  0  0  0  0  0  0  0  0  0  0  0  # atno 10718 bound_to 10713
  153.4610  135.3722  155.2338 H   0  0  0  0  0  0  0  0  0  0  0  0  # atno 10763 bound_to 10752
  154.8757  135.3908  154.3924 H   0  0  0  0  0  0  0  0  0  0  0  0  # atno 10764 bound_to 10752
  153.4498  135.7085  153.6180 H   0  0  0  0  0  0  0  0  0  0  0  0  # atno 10765 bound_to 10752
  140.7452  134.3469  157.5138 H   0  0  0  0  0  0  0  0  0  0  0  0  # atno 11005 bound_to 11000
  146.1770  140.6557  142.9207 LP  0  0  0  0  0  0  0  0  0  0  0  0  # atno 17320 bound_to 7965
  144.7429  140.4989  143.6856 LP  0  0  0  0  0  0  0  0  0  0  0  0  # atno 17321 bound_to 7965
  139.9509  144.6621  150.8173 LP  0  0  0  0  0  0  0  0  0  0  0  0  # atno 17342 bound_to 10162
  140.7618  143.3183  151.2682 LP  0  0  0  0  0  0  0  0  0  0  0  0  # atno 17343 bound_to 10162
  156.3310  130.7331  151.2261 LP  0  0  0  0  0  0  0  0  0  0  0  0  # atno 17370 bound_to 10713
  157.7460  131.0430  150.4721 LP  0  0  0  0  0  0  0  0  0  0  0  0  # atno 17371 bound_to 10713
  139.8798  134.9106  156.3018 LP  0  0  0  0  0  0  0  0  0  0  0  0  # atno 17394 bound_to 11000
  140.9801  133.7273  156.0659 LP  0  0  0  0  0  0  0  0  0  0  0  0  # atno 17395 bound_to 11000

$$$$
