AV-unprocessed.smi:2973|AV-procd|sdf|11351|dock1
  -GOLD-   2272016263D 1   1.00000     0.00000
 Structure written by MMmdl.
 49 51  0  0  0  0  0  0  0  0  3 V2000
  150.0538  140.6654  156.7492 C   0  0  0  0  0  0  0  0  0  0  0  0
  150.9247  140.7822  158.0193 C   0  0  2  0  0  0  0  0  0  0  0  0
  151.6920  142.1219  158.0352 C   0  0  0  0  0  0  0  0  0  0  0  0
  152.4812  142.3130  159.3387 C   0  0  0  0  0  0  0  0  0  0  0  0
  153.4502  141.1475  159.5741 C   0  0  0  0  0  0  0  0  0  0  0  0
  152.7095  139.7996  159.5718 C   0  0  0  0  0  0  0  0  0  0  0  0
  151.8797  139.5717  158.2815 C   0  0  2  0  0  0  0  0  0  0  0  0
  152.7652  139.3239  157.1554 N   0  5  0  0  0  0  0  0  0  0  0  0
  152.5551  138.0686  156.6953 C   0  0  0  0  0  0  0  0  0  0  0  0
  153.1393  137.5205  155.7614 O   0  0  0  0  0  0  0  0  0  0  0  0
  151.5941  137.4489  157.4065 N   0  0  0  0  0  0  0  0  0  0  0  0
  151.1375  136.0684  157.1986 C   0  0  0  0  0  0  0  0  0  0  0  0
  150.4828  135.8752  155.8254 C   0  0  0  0  0  0  0  0  0  0  0  0
  150.3545  136.8263  155.0534 O   0  0  0  0  0  0  0  0  0  0  0  0
  150.0690  134.6323  155.5325 N   0  0  0  0  0  0  0  0  0  0  0  0
  149.4624  134.2199  154.2686 C   0  0  0  0  0  0  0  0  0  0  0  0
  148.6059  132.9447  154.4098 C   0  0  0  0  0  0  0  0  0  0  0  0
  147.6678  132.6957  153.2405 C   0  0  0  0  0  0  0  0  0  0  0  0
  146.9310  131.4983  153.1095 C   0  0  0  0  0  0  0  0  0  0  0  0
  146.1003  131.3198  151.9841 C   0  0  0  0  0  0  0  0  0  0  0  0
  146.0225  132.3401  151.0145 C   0  0  0  0  0  0  0  0  0  0  0  0
  146.7768  133.5166  151.1965 C   0  0  0  0  0  0  0  0  0  0  0  0
  147.5584  133.6524  152.2902 N   0  3  0  0  0  0  0  0  0  0  0  0
  151.1324  138.2495  158.3733 C   0  0  0  0  0  0  0  0  0  0  0  0
  150.2641  137.9917  159.2087 O   0  0  0  0  0  0  0  0  0  0  0  0
  150.6636  140.6358  155.8458 H   0  0  0  0  0  0  0  0  0  0  0  0
  149.3818  141.5190  156.6604 H   0  0  0  0  0  0  0  0  0  0  0  0
  149.4324  139.7704  156.7613 H   0  0  0  0  0  0  0  0  0  0  0  0
  150.2270  140.8213  158.8578 H   0  0  0  0  0  0  0  0  0  0  0  0
  152.3738  142.1693  157.1851 H   0  0  0  0  0  0  0  0  0  0  0  0
  150.9946  142.9512  157.9131 H   0  0  0  0  0  0  0  0  0  0  0  0
  153.0332  143.2525  159.3040 H   0  0  0  0  0  0  0  0  0  0  0  0
  151.7892  142.3902  160.1782 H   0  0  0  0  0  0  0  0  0  0  0  0
  154.2190  141.1483  158.8004 H   0  0  0  0  0  0  0  0  0  0  0  0
  153.9697  141.2825  160.5229 H   0  0  0  0  0  0  0  0  0  0  0  0
  153.4279  138.9906  159.7149 H   0  0  0  0  0  0  0  0  0  0  0  0
  152.0487  139.7719  160.4393 H   0  0  0  0  0  0  0  0  0  0  0  0
  151.9808  135.3839  157.3091 H   0  0  0  0  0  0  0  0  0  0  0  0
  150.4206  135.7805  157.9688 H   0  0  0  0  0  0  0  0  0  0  0  0
  150.2030  133.9145  156.2302 H   0  0  0  0  0  0  0  0  0  0  0  0
  148.8398  135.0385  153.9071 H   0  0  0  0  0  0  0  0  0  0  0  0
  150.2319  134.0709  153.5092 H   0  0  0  0  0  0  0  0  0  0  0  0
  149.2609  132.0800  154.5231 H   0  0  0  0  0  0  0  0  0  0  0  0
  148.0174  132.9984  155.3263 H   0  0  0  0  0  0  0  0  0  0  0  0
  147.0115  130.7172  153.8511 H   0  0  0  0  0  0  0  0  0  0  0  0
  145.5387  130.4054  151.8610 H   0  0  0  0  0  0  0  0  0  0  0  0
  145.4004  132.2172  150.1399 H   0  0  0  0  0  0  0  0  0  0  0  0
  146.7840  134.3442  150.5025 H   0  0  0  0  0  0  0  0  0  0  0  0
  148.1045  134.5078  152.3946 H   0  0  0  0  0  0  0  0  0  0  0  0
  1  2  1  0  0  0  0
  1 26  1  0  0  0  0
  1 27  1  0  0  0  0
  1 28  1  0  0  0  0
  2  7  1  0  0  0  0
  2  3  1  0  0  0  0
  2 29  1  0  0  0  0
  3  4  1  0  0  0  0
  3 30  1  0  0  0  0
  3 31  1  0  0  0  0
  4  5  1  0  0  0  0
  4 32  1  0  0  0  0
  4 33  1  0  0  0  0
  5  6  1  0  0  0  0
  5 34  1  0  0  0  0
  5 35  1  0  0  0  0
  6  7  1  0  0  0  0
  6 36  1  0  0  0  0
  6 37  1  0  0  0  0
  7 24  1  0  0  0  0
  7  8  1  0  0  0  0
  8  9  1  0  0  0  0
  9 10  2  0  0  0  0
  9 11  1  0  0  0  0
 11 12  1  0  0  0  0
 11 24  1  0  0  0  0
 12 13  1  0  0  0  0
 12 38  1  0  0  0  0
 12 39  1  0  0  0  0
 13 14  2  0  0  0  0
 13 15  1  0  0  0  0
 15 16  1  0  0  0  0
 15 40  1  0  0  0  0
 16 17  1  0  0  0  0
 16 41  1  0  0  0  0
 16 42  1  0  0  0  0
 17 18  1  0  0  0  0
 17 43  1  0  0  0  0
 17 44  1  0  0  0  0
 18 23  1  0  0  0  0
 18 19  2  0  0  0  0
 19 20  1  0  0  0  0
 19 45  1  0  0  0  0
 20 21  2  0  0  0  0
 20 46  1  0  0  0  0
 21 22  1  0  0  0  0
 21 47  1  0  0  0  0
 22 23  2  0  0  0  0
 22 48  1  0  0  0  0
 23 49  1  0  0  0  0
 24 25  2  0  0  0  0
M  CHG  1   8  -1
M  CHG  1  23   1
M  END
> <s_m_source_file>
AV-unprocessed.smi

> <i_m_source_file_index>
2973

> <i_lp_mmshare_version>
43012

> <i_f3d_flags>
0

> <s_epik_input>
W0NIMl0xW0NIMl1bQ0gyXVtDSDJdW0NAQEhdKFtDSDNdKVtDQF0xMltOSF1DKD1PKU4oQzI9TylbQ0gyXUMoPU8pW05IXVtDSDJdW0NIMl1jM1tjSF1bY0hdW2NIXVtjSF1uMw==

> <s_epik_cmdline>
J2VwaWtfcHl0aG9uJywgJy1waCcsICc3LjAnLCAnLXRuJywgJzgnLCAnLW1hJywgJzIwMCcsICctbWV0YWxfYmluZGluZycsICctaW1hZScsICc8aW5maWxlLm1hZT4nLCAnLW9tYWUnLCAnPG91dGZpbGUubWFlPic=

> <r_lp_tautomer_probability>
1

> <r_epik_Ionization_Penalty>
7.89073

> <r_epik_Ionization_Penalty_Charging>
7.89073

> <r_epik_Ionization_Penalty_Neutral>
1.56557e-07

> <r_epik_State_Penalty>
8.01193

> <r_epik_Charging_Adjusted_Penalty>
15.9027

> <i_epik_Tot_Q>
0

> <i_epik_Tot_abs_Q>
2

> <r_epik_Metal_State_Penalty>
3.98737

> <b_epik_Metal_Only>
1

> <s_lp_Force_Field>
OPLS_2005

> <r_lp_Energy>
16.8567

> <b_lp_Chiralities_Consistent>
1

> <s_lp_Variant>
AV-unprocessed.smi:2973-15

> <Gold.Version>
5.8.1

> <Gold.Id.Protein>
6NUR|6NUR_protein|mol2

> <Gold.PLP.Fitness>
51.4833

> <Gold.PLP.PLP>
-39.3896

> <Gold.PLP.part.hbond>
-3.4566

> <Gold.PLP.part.metal>
0.0000

> <Gold.PLP.part.buried>
-5.9998

> <Gold.PLP.part.nonpolar>
-30.2530

> <Gold.PLP.part.repulsive>
0.2511

> <Gold.PLP.ligand.clash>
0.0000

> <Gold.PLP.ligand.torsion>
0.2951

> <Gold.PLP.Chemscore.Hbond>
4.2075

> <Gold.PLP.Chemscore.CHOScore>
0.0000

> <Gold.PLP.Chemscore.Metal>
0.0000

> <Gold.Chemscore.Hbonds>
donor molecule, donor type, donor heavy atom, donor atom, acceptor molecule, acceptor atom, score
      L1  H    23    49       P1  7948  2.00
      P1  H  7997  8009       L1     8  2.00
      P1  H 10752 10764       L1    10  0.29

> <Gold.PLP.Chemscore.Internal.Correction>
0.0616

> <Gold.Rescore>
     Score         DG    S(hbond)    S(metal)    S(lipo)     H(rot)  DE(clash)    DE(int)     intcor
     18.40     -18.88       2.27        0.00      91.68       1.92       0.01       0.47       ----

> <Gold.Chemscore.Fitness>
18.4020

> <Gold.Chemscore.DG>
-18.8823

> <Gold.Chemscore.ZeroCoef>
-5.4800

> <Gold.Chemscore.Hbond>
2.2709

> <Gold.Chemscore.Metal>
0.0000

> <Gold.Chemscore.Lipo>
91.6777

> <Gold.Chemscore.Internal_Hbond>
0.0000

> <Gold.Chemscore.DEClash>
0.0075

> <Gold.Chemscore.DEInternal>
0.4729

> <Gold.Chemscore.Rot>
1.9175

> <Gold.Chemscore.Internal.Correction>
   9.000000E+99

> <Gold.Chemscore.Hbonds>
donor molecule, donor type, donor heavy atom, donor atom, acceptor molecule, acceptor atom, score
      L1  H    23    49       P1  7948  0.29
      P1  H  7997  8009       L1     8  0.91
      P1  H 10752 10764       L1    10  0.29

> <Gold.Chemscore.Hbond.Weighted>
-7.5848

> <Gold.Chemscore.Metal.Weighted>
-0.0000

> <Gold.Chemscore.Lipo.Weighted>
-10.7263

> <Gold.Chemscore.Internal_Hbond.Weighted>
0.0000

> <Gold.Chemscore.DEClash.Weighted>
0.0075

> <Gold.Chemscore.DEInternal.Weighted>
0.4729

> <Gold.Chemscore.Rot.Weighted>
4.9087

> <Gold.Chemscore.Internal.Correction.Weighted>
   9.000000E+99

> <Gold.Protein.RotatedTorsions>
[ 6907 6896 6895 6894 ] final  104.28 input  -60.11 | X-H torsion
[ 7974 7965 7964 7962 ] final   84.10 input  175.53 | X-H torsion
[ 8008 7997 7996 7995 ] final  176.36 input   59.86 | X-H torsion
[ 10167 10162 10161 10158 ] final -148.79 input  -65.29 | X-H torsion
[ 10718 10713 10712 10709 ] final  146.97 input   66.30 | X-H torsion
[ 10763 10752 10751 10750 ] final  -22.37 input  -60.55 | X-H torsion
[ 11005 11000 10999 10996 ] final  -67.05 input  -57.11 | X-H torsion

> <Gold.Protein.ActiveResidues>
 VAL166  LYS551  ARG553  GLY616  TRP617  ASP618  TYR619  PRO620  LYS621  CYS622 
 ASP623  PHE694  ASN695  SER759  ASP760  ASP761  ALA762  ILE779  LEU786  VAL792 
 PHE793  MET794  SER795  GLU796  ALA797  LYS798  CYS799  TRP800  GLU811  SER814 

> <Gold.Protein.RotatedAtoms>
  152.5269  133.9701  159.7757 H   0  0  0  0  0  0  0  0  0  0  0  0  # atno 6907 bound_to 6896
  150.9974  133.6081  159.2707 H   0  0  0  0  0  0  0  0  0  0  0  0  # atno 6908 bound_to 6896
  151.3202  135.0823  159.9356 H   0  0  0  0  0  0  0  0  0  0  0  0  # atno 6909 bound_to 6896
  145.6032  139.2356  143.2234 H   0  0  0  0  0  0  0  0  0  0  0  0  # atno 7974 bound_to 7965
  156.0773  140.1385  156.9756 H   0  0  0  0  0  0  0  0  0  0  0  0  # atno 8008 bound_to 7997
  154.4565  140.0959  156.6821 H   0  0  0  0  0  0  0  0  0  0  0  0  # atno 8009 bound_to 7997
  155.5133  140.3454  155.4395 H   0  0  0  0  0  0  0  0  0  0  0  0  # atno 8010 bound_to 7997
  139.7500  143.8532  152.2584 H   0  0  0  0  0  0  0  0  0  0  0  0  # atno 10167 bound_to 10162
  157.3266  131.0913  151.1197 H   0  0  0  0  0  0  0  0  0  0  0  0  # atno 10718 bound_to 10713
  153.6509  135.6981  153.5209 H   0  0  0  0  0  0  0  0  0  0  0  0  # atno 10763 bound_to 10752
  153.2707  135.4216  155.0984 H   0  0  0  0  0  0  0  0  0  0  0  0  # atno 10764 bound_to 10752
  154.8476  135.3577  154.6054 H   0  0  0  0  0  0  0  0  0  0  0  0  # atno 10765 bound_to 10752
  141.1498  133.6711  156.6232 H   0  0  0  0  0  0  0  0  0  0  0  0  # atno 11005 bound_to 11000
  146.1560  140.6857  142.9300 LP  0  0  0  0  0  0  0  0  0  0  0  0  # atno 17320 bound_to 7965
  144.7301  140.4645  143.6944 LP  0  0  0  0  0  0  0  0  0  0  0  0  # atno 17321 bound_to 7965
  139.8508  144.7165  150.9216 LP  0  0  0  0  0  0  0  0  0  0  0  0  # atno 17342 bound_to 10162
  140.7796  143.3901  151.1325 LP  0  0  0  0  0  0  0  0  0  0  0  0  # atno 17343 bound_to 10162
  157.2461  130.6592  149.5911 LP  0  0  0  0  0  0  0  0  0  0  0  0  # atno 17370 bound_to 10713
  155.9691  130.4553  150.5882 LP  0  0  0  0  0  0  0  0  0  0  0  0  # atno 17371 bound_to 10713
  140.3524  134.7757  157.4476 LP  0  0  0  0  0  0  0  0  0  0  0  0  # atno 17394 bound_to 11000
  140.0850  134.5679  155.8501 LP  0  0  0  0  0  0  0  0  0  0  0  0  # atno 17395 bound_to 11000

$$$$
