AV-unprocessed.smi:910|AV-procd|sdf|4116|dock3
  -GOLD-   22720 2 13D 1   1.00000     0.00000
 Structure written by MMmdl.
 46 47  0  0  0  0  0  0  0  0  1 V2000
  146.8388  134.1018  162.0340 C   0  0  0  0  0  0  0  0  0  0  0  0
  147.4024  135.2773  161.2993 C   0  0  0  0  0  0  0  0  0  0  0  0
  148.2753  135.1312  160.2305 N   0  0  0  0  0  0  0  0  0  0  0  0
  148.5508  136.3799  159.8498 C   0  0  0  0  0  0  0  0  0  0  0  0
  149.4010  136.7701  158.7853 N   0  0  0  0  0  0  0  0  0  0  0  0
  149.2292  137.7954  157.9349 C   0  0  0  0  0  0  0  0  0  0  0  0
  148.2645  138.5605  157.9295 O   0  0  0  0  0  0  0  0  0  0  0  0
  150.2592  137.8962  157.0831 N   0  0  0  0  0  0  0  0  0  0  0  0
  150.4300  138.9503  156.0884 C   0  0  0  0  0  0  0  0  0  0  0  0
  151.5151  139.9528  156.5091 C   0  0  0  0  0  0  0  0  0  0  0  0
  151.3984  140.1855  157.9051 O   0  0  0  0  0  0  0  0  0  0  0  0
  152.1552  141.2877  158.3868 C   0  0  2  0  0  0  0  0  0  0  0  0
  152.6451  140.9875  159.8179 C   0  0  0  0  0  0  0  0  0  0  0  0
  153.3467  142.2042  160.4392 C   0  0  0  0  0  0  0  0  0  0  0  0
  152.4329  143.4378  160.4176 C   0  0  0  0  0  0  0  0  0  0  0  0
  151.9519  143.7443  158.9910 C   0  0  0  0  0  0  0  0  0  0  0  0
  151.2413  142.5329  158.3546 C   0  0  1  0  0  0  0  0  0  0  0  0
  150.7804  142.8615  156.9243 C   0  0  0  0  0  0  0  0  0  0  0  0
  147.9234  137.3319  160.5899 O   0  0  0  0  0  0  0  0  0  0  0  0
  147.1984  136.6182  161.5067 C   0  0  0  0  0  0  0  0  0  0  0  0
  146.3773  137.3808  162.4901 C   0  0  0  0  0  0  0  0  0  0  0  0
  145.7996  134.2737  162.3147 H   0  0  0  0  0  0  0  0  0  0  0  0
  147.4006  133.9054  162.9473 H   0  0  0  0  0  0  0  0  0  0  0  0
  146.8695  133.1978  161.4248 H   0  0  0  0  0  0  0  0  0  0  0  0
  150.2411  136.2225  158.6736 H   0  0  0  0  0  0  0  0  0  0  0  0
  151.0069  137.2222  157.1588 H   0  0  0  0  0  0  0  0  0  0  0  0
  150.7045  138.4846  155.1416 H   0  0  0  0  0  0  0  0  0  0  0  0
  149.4821  139.4639  155.9215 H   0  0  0  0  0  0  0  0  0  0  0  0
  152.5026  139.5568  156.2716 H   0  0  0  0  0  0  0  0  0  0  0  0
  151.3967  140.8843  155.9535 H   0  0  0  0  0  0  0  0  0  0  0  0
  153.0126  141.4775  157.7380 H   0  0  0  0  0  0  0  0  0  0  0  0
  151.7974  140.7008  160.4414 H   0  0  0  0  0  0  0  0  0  0  0  0
  153.3279  140.1380  159.8163 H   0  0  0  0  0  0  0  0  0  0  0  0
  153.6440  141.9791  161.4638 H   0  0  0  0  0  0  0  0  0  0  0  0
  154.2642  142.4181  159.8895 H   0  0  0  0  0  0  0  0  0  0  0  0
  151.5721  143.2683  161.0657 H   0  0  0  0  0  0  0  0  0  0  0  0
  152.9623  144.2996  160.8251 H   0  0  0  0  0  0  0  0  0  0  0  0
  151.2799  144.6030  159.0106 H   0  0  0  0  0  0  0  0  0  0  0  0
  152.8053  144.0355  158.3765 H   0  0  0  0  0  0  0  0  0  0  0  0
  150.3517  142.3170  158.9484 H   0  0  0  0  0  0  0  0  0  0  0  0
  151.6291  143.0721  156.2727 H   0  0  0  0  0  0  0  0  0  0  0  0
  150.1275  143.7345  156.9129 H   0  0  0  0  0  0  0  0  0  0  0  0
  150.2238  142.0333  156.4848 H   0  0  0  0  0  0  0  0  0  0  0  0
  146.4490  136.9354  163.4825 H   0  0  0  0  0  0  0  0  0  0  0  0
  145.3279  137.3833  162.1955 H   0  0  0  0  0  0  0  0  0  0  0  0
  146.7115  138.4161  162.5605 H   0  0  0  0  0  0  0  0  0  0  0  0
  1  2  1  0  0  0  0
  1 22  1  0  0  0  0
  1 23  1  0  0  0  0
  1 24  1  0  0  0  0
  2 20  2  0  0  0  0
  2  3  1  0  0  0  0
  3  4  2  0  0  0  0
  4  5  1  0  0  0  0
  4 19  1  0  0  0  0
  5  6  1  0  0  0  0
  5 25  1  0  0  0  0
  6  7  2  0  0  0  0
  6  8  1  0  0  0  0
  8  9  1  0  0  0  0
  8 26  1  0  0  0  0
  9 10  1  0  0  0  0
  9 27  1  0  0  0  0
  9 28  1  0  0  0  0
 10 11  1  0  0  0  0
 10 29  1  0  0  0  0
 10 30  1  0  0  0  0
 11 12  1  0  0  0  0
 12 17  1  0  0  0  0
 12 13  1  0  0  0  0
 12 31  1  0  0  0  0
 13 14  1  0  0  0  0
 13 32  1  0  0  0  0
 13 33  1  0  0  0  0
 14 15  1  0  0  0  0
 14 34  1  0  0  0  0
 14 35  1  0  0  0  0
 15 16  1  0  0  0  0
 15 36  1  0  0  0  0
 15 37  1  0  0  0  0
 16 17  1  0  0  0  0
 16 38  1  0  0  0  0
 16 39  1  0  0  0  0
 17 18  1  0  0  0  0
 17 40  1  0  0  0  0
 18 41  1  0  0  0  0
 18 42  1  0  0  0  0
 18 43  1  0  0  0  0
 19 20  1  0  0  0  0
 20 21  1  0  0  0  0
 21 44  1  0  0  0  0
 21 45  1  0  0  0  0
 21 46  1  0  0  0  0
M  END
> <s_m_source_file>
AV-unprocessed.smi

> <i_m_source_file_index>
910

> <i_lp_mmshare_version>
43012

> <i_f3d_flags>
0

> <s_epik_input>
W0NIM11jMW5jKG9jMVtDSDNdKVtOSF1DKD1PKVtOSF1bQ0gyXVtDSDJdT1tDQEBIXTJbQ0gyXVtDSDJdW0NIMl1bQ0gyXVtDQEhdMltDSDNd

> <s_epik_cmdline>
J2VwaWtfcHl0aG9uJywgJy1waCcsICc3LjAnLCAnLXRuJywgJzgnLCAnLW1hJywgJzIwMCcsICctbWV0YWxfYmluZGluZycsICctaW1hZScsICc8aW5maWxlLm1hZT4nLCAnLW9tYWUnLCAnPG91dGZpbGUubWFlPic=

> <r_lp_tautomer_probability>
0.785861

> <r_epik_Ionization_Penalty>
4.15957e-05

> <r_epik_Ionization_Penalty_Charging>
0

> <r_epik_Ionization_Penalty_Neutral>
4.15957e-05

> <r_epik_State_Penalty>
0.0240523

> <r_epik_Charging_Adjusted_Penalty>
0.0240523

> <i_epik_Tot_Q>
0

> <i_epik_Tot_abs_Q>
0

> <r_epik_Metal_State_Penalty>
0.057053

> <b_epik_Metal_Only>
0

> <s_lp_Force_Field>
OPLS_2005

> <r_lp_Energy>
8.24802

> <b_lp_Chiralities_Consistent>
1

> <s_lp_Variant>
AV-unprocessed.smi:910-1

> <Gold.Version>
5.8.1

> <Gold.Id.Protein>
6NUR|6NUR_protein|mol2

> <Gold.PLP.Fitness>
44.0887

> <Gold.PLP.PLP>
-41.1284

> <Gold.PLP.part.hbond>
-2.7897

> <Gold.PLP.part.metal>
0.0000

> <Gold.PLP.part.buried>
-4.8555

> <Gold.PLP.part.nonpolar>
-33.8684

> <Gold.PLP.part.repulsive>
0.1711

> <Gold.PLP.ligand.clash>
0.0000

> <Gold.PLP.ligand.torsion>
0.9227

> <Gold.PLP.Chemscore.Hbond>
1.5940

> <Gold.PLP.Chemscore.CHOScore>
0.0000

> <Gold.PLP.Chemscore.Metal>
0.0000

> <Gold.Chemscore.Hbonds>
donor molecule, donor type, donor heavy atom, donor atom, acceptor molecule, acceptor atom, score
      P1  H  6931  6943       L1    19  0.58
      P1  H  6934  6947       L1    19  0.73

> <Gold.PLP.Chemscore.Internal.Correction>
0.0237

> <Gold.Rescore>
     Score         DG    S(hbond)    S(metal)    S(lipo)     H(rot)  DE(clash)    DE(int)     intcor
     16.57     -18.56       1.36        0.00     109.18       1.66       0.12       1.87       ----

> <Gold.Chemscore.Fitness>
16.5703

> <Gold.Chemscore.DG>
-18.5564

> <Gold.Chemscore.ZeroCoef>
-5.4800

> <Gold.Chemscore.Hbond>
1.3611

> <Gold.Chemscore.Metal>
0.0000

> <Gold.Chemscore.Lipo>
109.1797

> <Gold.Chemscore.Internal_Hbond>
0.0000

> <Gold.Chemscore.DEClash>
0.1166

> <Gold.Chemscore.DEInternal>
1.8696

> <Gold.Chemscore.Rot>
1.6576

> <Gold.Chemscore.Internal.Correction>
   9.000000E+99

> <Gold.Chemscore.Hbonds>
donor molecule, donor type, donor heavy atom, donor atom, acceptor molecule, acceptor atom, score
      P1  H  6931  6943       L1    19  0.08
      P1  H  6934  6947       L1    19  0.17

> <Gold.Chemscore.Hbond.Weighted>
-4.5460

> <Gold.Chemscore.Metal.Weighted>
-0.0000

> <Gold.Chemscore.Lipo.Weighted>
-12.7740

> <Gold.Chemscore.Internal_Hbond.Weighted>
0.0000

> <Gold.Chemscore.DEClash.Weighted>
0.1166

> <Gold.Chemscore.DEInternal.Weighted>
1.8696

> <Gold.Chemscore.Rot.Weighted>
4.2436

> <Gold.Chemscore.Internal.Correction.Weighted>
   9.000000E+99

> <Gold.Protein.RotatedTorsions>
[ 6907 6896 6895 6894 ] final -100.68 input  -60.11 | X-H torsion
[ 7974 7965 7964 7962 ] final  117.17 input  175.53 | X-H torsion
[ 8008 7997 7996 7995 ] final  -93.63 input   59.86 | X-H torsion
[ 10167 10162 10161 10158 ] final  -61.35 input  -65.29 | X-H torsion
[ 10718 10713 10712 10709 ] final  -89.26 input   66.30 | X-H torsion
[ 10763 10752 10751 10750 ] final  120.11 input  -60.55 | X-H torsion
[ 11005 11000 10999 10996 ] final  -83.87 input  -57.11 | X-H torsion

> <Gold.Protein.ActiveResidues>
 VAL166  LYS551  ARG553  GLY616  TRP617  ASP618  TYR619  PRO620  LYS621  CYS622 
 ASP623  PHE694  ASN695  SER759  ASP760  ASP761  ALA762  ILE779  LEU786  VAL792 
 PHE793  MET794  SER795  GLU796  ALA797  LYS798  CYS799  TRP800  GLU811  SER814 

> <Gold.Protein.RotatedAtoms>
  150.7125  134.0849  159.3910 H   0  0  0  0  0  0  0  0  0  0  0  0  # atno 6907 bound_to 6896
  151.8834  135.0442  160.0500 H   0  0  0  0  0  0  0  0  0  0  0  0  # atno 6908 bound_to 6896
  152.2549  133.5212  159.5384 H   0  0  0  0  0  0  0  0  0  0  0  0  # atno 6909 bound_to 6896
  145.1707  139.3103  143.4469 H   0  0  0  0  0  0  0  0  0  0  0  0  # atno 7974 bound_to 7965
  154.7382  140.0497  157.0787 H   0  0  0  0  0  0  0  0  0  0  0  0  # atno 8008 bound_to 7997
  155.0213  140.3147  155.4773 H   0  0  0  0  0  0  0  0  0  0  0  0  # atno 8009 bound_to 7997
  156.2858  140.2166  156.5331 H   0  0  0  0  0  0  0  0  0  0  0  0  # atno 8010 bound_to 7997
  140.6012  143.2362  151.5925 H   0  0  0  0  0  0  0  0  0  0  0  0  # atno 10167 bound_to 10162
  155.9984  130.4866  150.5144 H   0  0  0  0  0  0  0  0  0  0  0  0  # atno 10718 bound_to 10713
  153.5935  135.3461  155.2919 H   0  0  0  0  0  0  0  0  0  0  0  0  # atno 10763 bound_to 10752
  154.8648  135.4210  154.2491 H   0  0  0  0  0  0  0  0  0  0  0  0  # atno 10764 bound_to 10752
  153.3303  135.7044  153.7024 H   0  0  0  0  0  0  0  0  0  0  0  0  # atno 10765 bound_to 10752
  141.1655  133.7316  156.8784 H   0  0  0  0  0  0  0  0  0  0  0  0  # atno 11005 bound_to 11000
  146.3469  140.1851  142.8589 LP  0  0  0  0  0  0  0  0  0  0  0  0  # atno 17320 bound_to 7965
  145.0236  140.8813  143.5152 LP  0  0  0  0  0  0  0  0  0  0  0  0  # atno 17321 bound_to 7965
  139.5292  144.2967  152.1108 LP  0  0  0  0  0  0  0  0  0  0  0  0  # atno 17342 bound_to 10162
  140.2148  144.4526  150.6369 LP  0  0  0  0  0  0  0  0  0  0  0  0  # atno 17343 bound_to 10162
  157.3113  131.0664  151.1999 LP  0  0  0  0  0  0  0  0  0  0  0  0  # atno 17370 bound_to 10713
  157.2944  130.6812  149.6131 LP  0  0  0  0  0  0  0  0  0  0  0  0  # atno 17371 bound_to 10713
  140.1732  134.9085  157.2859 LP  0  0  0  0  0  0  0  0  0  0  0  0  # atno 17394 bound_to 11000
  140.2478  134.3719  155.7454 LP  0  0  0  0  0  0  0  0  0  0  0  0  # atno 17395 bound_to 11000

$$$$
