AV-unprocessed.smi:1308|AV-procd|sdf|5438|dock7
  -GOLD-   22720 5 03D 1   1.00000     0.00000
 Structure written by MMmdl.
 45 45  0  0  0  0  0  0  0  0  1 V2000
  143.2771  140.8508  156.7417 C   0  0  0  0  0  0  0  0  0  0  0  0
  144.5180  141.1225  155.9188 C   0  0  0  0  0  0  0  0  0  0  0  0
  144.6461  142.1285  155.1185 N   0  0  0  0  0  0  0  0  0  0  0  0
  145.8491  142.2824  154.4162 C   0  0  0  0  0  0  0  0  0  0  0  0
  145.9316  143.5105  153.5267 C   0  0  0  0  0  0  0  0  0  0  0  0
  146.8780  141.3946  154.5538 C   0  0  0  0  0  0  0  0  0  0  0  0
  148.2225  141.5639  153.8439 C   0  0  0  0  0  0  0  0  0  0  0  0
  149.4354  141.1888  154.6957 C   0  0  0  0  0  0  0  0  0  0  0  0
  150.1198  140.2094  154.4021 O   0  0  0  0  0  0  0  0  0  0  0  0
  149.7124  142.0183  155.7138 N   0  0  0  0  0  0  0  0  0  0  0  0
  150.9613  142.0642  156.4682 C   0  0  2  0  0  0  0  0  0  0  0  0
  151.4180  140.6354  156.7922 C   0  0  0  0  0  0  0  0  0  0  0  0
  150.7581  142.9078  157.7435 C   0  0  0  0  0  0  0  0  0  0  0  0
  151.9644  142.8728  158.7059 C   0  0  0  0  0  0  0  0  0  0  0  0
  151.7869  143.7087  159.9882 C   0  0  0  0  0  0  0  0  0  0  0  0
  151.9422  145.2172  159.7292 C   0  0  0  0  0  0  0  0  0  0  0  0
  152.7814  143.2523  161.0667 C   0  0  0  0  0  0  0  0  0  0  0  0
  146.7162  140.2441  155.4642 C   0  0  0  0  0  0  0  0  0  0  0  0
  147.5781  139.3911  155.6690 O   0  0  0  0  0  0  0  0  0  0  0  0
  145.5269  140.1792  156.1034 N   0  0  0  0  0  0  0  0  0  0  0  0
  145.3694  139.4129  156.7415 H   0  0  0  0  0  0  0  0  0  0  0  0
  143.1012  141.6728  157.4360 H   0  0  0  0  0  0  0  0  0  0  0  0
  143.3700  139.9296  157.3186 H   0  0  0  0  0  0  0  0  0  0  0  0
  142.4076  140.7593  156.0905 H   0  0  0  0  0  0  0  0  0  0  0  0
  146.1574  143.2294  152.4982 H   0  0  0  0  0  0  0  0  0  0  0  0
  146.7075  144.1885  153.8823 H   0  0  0  0  0  0  0  0  0  0  0  0
  144.9886  144.0585  153.5214 H   0  0  0  0  0  0  0  0  0  0  0  0
  148.2526  140.9841  152.9207 H   0  0  0  0  0  0  0  0  0  0  0  0
  148.3265  142.6011  153.5250 H   0  0  0  0  0  0  0  0  0  0  0  0
  149.0624  142.7723  155.8845 H   0  0  0  0  0  0  0  0  0  0  0  0
  151.7453  142.5355  155.8732 H   0  0  0  0  0  0  0  0  0  0  0  0
  152.3594  140.6403  157.3422 H   0  0  0  0  0  0  0  0  0  0  0  0
  151.5727  140.0566  155.8810 H   0  0  0  0  0  0  0  0  0  0  0  0
  150.6804  140.1098  157.3998 H   0  0  0  0  0  0  0  0  0  0  0  0
  150.5448  143.9368  157.4533 H   0  0  0  0  0  0  0  0  0  0  0  0
  149.8728  142.5510  158.2710 H   0  0  0  0  0  0  0  0  0  0  0  0
  152.1496  141.8332  158.9791 H   0  0  0  0  0  0  0  0  0  0  0  0
  152.8658  143.2116  158.1966 H   0  0  0  0  0  0  0  0  0  0  0  0
  150.7821  143.5325  160.3743 H   0  0  0  0  0  0  0  0  0  0  0  0
  152.9170  145.4466  159.2978 H   0  0  0  0  0  0  0  0  0  0  0  0
  151.8489  145.7843  160.6557 H   0  0  0  0  0  0  0  0  0  0  0  0
  151.1790  145.5919  159.0481 H   0  0  0  0  0  0  0  0  0  0  0  0
  153.8123  143.3961  160.7402 H   0  0  0  0  0  0  0  0  0  0  0  0
  152.6514  142.1955  161.3015 H   0  0  0  0  0  0  0  0  0  0  0  0
  152.6440  143.8122  161.9921 H   0  0  0  0  0  0  0  0  0  0  0  0
  1  2  1  0  0  0  0
  1 22  1  0  0  0  0
  1 23  1  0  0  0  0
  1 24  1  0  0  0  0
  2 20  1  0  0  0  0
  2  3  2  0  0  0  0
  3  4  1  0  0  0  0
  4  5  1  0  0  0  0
  4  6  2  0  0  0  0
  5 25  1  0  0  0  0
  5 26  1  0  0  0  0
  5 27  1  0  0  0  0
  6  7  1  0  0  0  0
  6 18  1  0  0  0  0
  7  8  1  0  0  0  0
  7 28  1  0  0  0  0
  7 29  1  0  0  0  0
  8  9  2  0  0  0  0
  8 10  1  0  0  0  0
 10 11  1  0  0  0  0
 10 30  1  0  0  0  0
 11 12  1  0  0  0  0
 11 13  1  0  0  0  0
 11 31  1  0  0  0  0
 12 32  1  0  0  0  0
 12 33  1  0  0  0  0
 12 34  1  0  0  0  0
 13 14  1  0  0  0  0
 13 35  1  0  0  0  0
 13 36  1  0  0  0  0
 14 15  1  0  0  0  0
 14 37  1  0  0  0  0
 14 38  1  0  0  0  0
 15 16  1  0  0  0  0
 15 17  1  0  0  0  0
 15 39  1  0  0  0  0
 16 40  1  0  0  0  0
 16 41  1  0  0  0  0
 16 42  1  0  0  0  0
 17 43  1  0  0  0  0
 17 44  1  0  0  0  0
 17 45  1  0  0  0  0
 18 19  2  0  0  0  0
 18 20  1  0  0  0  0
 20 21  1  0  0  0  0
M  END
> <s_m_source_file>
AV-unprocessed.smi

> <i_m_source_file_index>
1308

> <i_lp_mmshare_version>
43012

> <i_f3d_flags>
0

> <s_epik_input>
W0NIM11jMW5jKFtDSDNdKWMoYyg9TylbbkhdMSlbQ0gyXUMoPU8pW05IXVtDQEhdKFtDSDNdKVtDSDJdW0NIMl1bQ0hdKFtDSDNdKVtDSDNd

> <s_epik_cmdline>
J2VwaWtfcHl0aG9uJywgJy1waCcsICc3LjAnLCAnLXRuJywgJzgnLCAnLW1hJywgJzIwMCcsICctbWV0YWxfYmluZGluZycsICctaW1hZScsICc8aW5maWxlLm1hZT4nLCAnLW9tYWUnLCAnPG91dGZpbGUubWFlPic=

> <r_lp_tautomer_probability>
0.839158

> <r_epik_Ionization_Penalty>
0.000390633

> <r_epik_Ionization_Penalty_Charging>
0.00035831

> <r_epik_Ionization_Penalty_Neutral>
3.23235e-05

> <r_epik_State_Penalty>
0.0470222

> <r_epik_Charging_Adjusted_Penalty>
0.0473805

> <i_epik_Tot_Q>
0

> <i_epik_Tot_abs_Q>
0

> <r_epik_Metal_State_Penalty>
0.223807

> <b_epik_Metal_Only>
0

> <s_lp_Force_Field>
OPLS_2005

> <r_lp_Energy>
5.21456

> <b_lp_Chiralities_Consistent>
1

> <s_lp_Variant>
AV-unprocessed.smi:1308-1

> <Gold.Version>
5.8.1

> <Gold.Id.Protein>
6NUR|6NUR_protein|mol2

> <Gold.PLP.Fitness>
43.3257

> <Gold.PLP.PLP>
-39.1998

> <Gold.PLP.part.hbond>
-2.0000

> <Gold.PLP.part.metal>
0.0000

> <Gold.PLP.part.buried>
-4.6681

> <Gold.PLP.part.nonpolar>
-32.0009

> <Gold.PLP.part.repulsive>
0.4178

> <Gold.PLP.ligand.clash>
0.0000

> <Gold.PLP.ligand.torsion>
0.7408

> <Gold.PLP.Chemscore.Hbond>
1.8320

> <Gold.PLP.Chemscore.CHOScore>
0.0000

> <Gold.PLP.Chemscore.Metal>
0.0000

> <Gold.Chemscore.Hbonds>
donor molecule, donor type, donor heavy atom, donor atom, acceptor molecule, acceptor atom, score
      L1  H    10    30       P1  8028  0.83
      P1  H  7989  7998       L1     9  1.00

> <Gold.PLP.Chemscore.Internal.Correction>
0.1115

> <Gold.Rescore>
     Score         DG    S(hbond)    S(metal)    S(lipo)     H(rot)  DE(clash)    DE(int)     intcor
     12.68     -16.03       1.41        0.00      93.30       1.98       1.39       1.96       ----

> <Gold.Chemscore.Fitness>
12.6765

> <Gold.Chemscore.DG>
-16.0344

> <Gold.Chemscore.ZeroCoef>
-5.4800

> <Gold.Chemscore.Hbond>
1.4119

> <Gold.Chemscore.Metal>
0.0000

> <Gold.Chemscore.Lipo>
93.3034

> <Gold.Chemscore.Internal_Hbond>
0.0000

> <Gold.Chemscore.DEClash>
1.3931

> <Gold.Chemscore.DEInternal>
1.9648

> <Gold.Chemscore.Rot>
1.9835

> <Gold.Chemscore.Internal.Correction>
   9.000000E+99

> <Gold.Chemscore.Hbonds>
donor molecule, donor type, donor heavy atom, donor atom, acceptor molecule, acceptor atom, score
      L1  H    10    30       P1  8028  0.80
      P1  H  7989  7998       L1     9  0.52

> <Gold.Chemscore.Hbond.Weighted>
-4.7157

> <Gold.Chemscore.Metal.Weighted>
-0.0000

> <Gold.Chemscore.Lipo.Weighted>
-10.9165

> <Gold.Chemscore.Internal_Hbond.Weighted>
0.0000

> <Gold.Chemscore.DEClash.Weighted>
1.3931

> <Gold.Chemscore.DEInternal.Weighted>
1.9648

> <Gold.Chemscore.Rot.Weighted>
5.0778

> <Gold.Chemscore.Internal.Correction.Weighted>
   9.000000E+99

> <Gold.Protein.RotatedTorsions>
[ 6907 6896 6895 6894 ] final   39.36 input  -60.11 | X-H torsion
[ 7974 7965 7964 7962 ] final   34.77 input  175.53 | X-H torsion
[ 8008 7997 7996 7995 ] final  149.53 input   59.86 | X-H torsion
[ 10167 10162 10161 10158 ] final -116.33 input  -65.29 | X-H torsion
[ 10718 10713 10712 10709 ] final  102.84 input   66.30 | X-H torsion
[ 10763 10752 10751 10750 ] final  -43.32 input  -60.55 | X-H torsion
[ 11005 11000 10999 10996 ] final  109.83 input  -57.11 | X-H torsion

> <Gold.Protein.ActiveResidues>
 VAL166  LYS551  ARG553  GLY616  TRP617  ASP618  TYR619  PRO620  LYS621  CYS622 
 ASP623  PHE694  ASN695  SER759  ASP760  ASP761  ALA762  ILE779  LEU786  VAL792 
 PHE793  MET794  SER795  GLU796  ALA797  LYS798  CYS799  TRP800  GLU811  SER814 

> <Gold.Protein.RotatedAtoms>
  152.1686  134.8853  160.0535 H   0  0  0  0  0  0  0  0  0  0  0  0  # atno 6907 bound_to 6896
  151.9822  133.3756  159.4120 H   0  0  0  0  0  0  0  0  0  0  0  0  # atno 6908 bound_to 6896
  150.6898  134.3949  159.5137 H   0  0  0  0  0  0  0  0  0  0  0  0  # atno 6909 bound_to 6896
  146.1330  139.6227  142.9214 H   0  0  0  0  0  0  0  0  0  0  0  0  # atno 7974 bound_to 7965
  156.2751  140.2099  156.5873 H   0  0  0  0  0  0  0  0  0  0  0  0  # atno 8008 bound_to 7997
  154.7010  140.0521  157.0481 H   0  0  0  0  0  0  0  0  0  0  0  0  # atno 8009 bound_to 7997
  155.0735  140.3179  155.4626 H   0  0  0  0  0  0  0  0  0  0  0  0  # atno 8010 bound_to 7997
  140.0803  143.4794  152.1929 H   0  0  0  0  0  0  0  0  0  0  0  0  # atno 10167 bound_to 10162
  157.6790  131.0763  150.5465 H   0  0  0  0  0  0  0  0  0  0  0  0  # atno 10718 bound_to 10713
  153.9936  135.6702  153.4755 H   0  0  0  0  0  0  0  0  0  0  0  0  # atno 10763 bound_to 10752
  153.0694  135.4983  154.8267 H   0  0  0  0  0  0  0  0  0  0  0  0  # atno 10764 bound_to 10752
  154.7094  135.3094  154.9182 H   0  0  0  0  0  0  0  0  0  0  0  0  # atno 10765 bound_to 10752
  139.8869  134.9468  156.6185 H   0  0  0  0  0  0  0  0  0  0  0  0  # atno 11005 bound_to 11000
  145.5218  141.0431  143.2431 LP  0  0  0  0  0  0  0  0  0  0  0  0  # atno 17320 bound_to 7965
  144.7710  139.6735  143.7195 LP  0  0  0  0  0  0  0  0  0  0  0  0  # atno 17321 bound_to 7965
  139.5783  144.7498  151.3706 LP  0  0  0  0  0  0  0  0  0  0  0  0  # atno 17342 bound_to 10162
  140.7081  143.7462  150.7517 LP  0  0  0  0  0  0  0  0  0  0  0  0  # atno 17343 bound_to 10162
  156.5771  130.4295  149.5993 LP  0  0  0  0  0  0  0  0  0  0  0  0  # atno 17370 bound_to 10713
  156.2692  130.7007  151.1799 LP  0  0  0  0  0  0  0  0  0  0  0  0  # atno 17371 bound_to 10713
  140.7757  133.8701  155.8527 LP  0  0  0  0  0  0  0  0  0  0  0  0  # atno 17394 bound_to 11000
  140.9804  134.1413  157.4499 LP  0  0  0  0  0  0  0  0  0  0  0  0  # atno 17395 bound_to 11000

$$$$
