AV-unprocessed.smi:45|AV-procd|sdf|415|dock10
  -GOLD-   2262016283D 1   1.00000     0.00000
 Structure written by MMmdl.
 60 63  0  0  0  0  0  0  0  0  3 V2000
  155.3812  128.0811  155.1969 C   0  0  0  0  0  0  0  0  0  0  0  0
  154.9490  129.2855  155.8125 O   0  0  0  0  0  0  0  0  0  0  0  0
  153.6797  129.7453  155.5282 C   0  0  0  0  0  0  0  0  0  0  0  0
  152.7564  129.0532  154.7035 C   0  0  0  0  0  0  0  0  0  0  0  0
  151.4754  129.5850  154.4603 C   0  0  0  0  0  0  0  0  0  0  0  0
  151.0949  130.8138  155.0350 C   0  0  0  0  0  0  0  0  0  0  0  0
  149.7150  131.3833  154.7743 C   0  0  0  0  0  0  0  0  0  0  0  0
  149.4928  132.6627  155.4318 N   0  0  0  0  0  0  0  0  0  0  0  0
  148.3896  133.4726  155.1114 C   0  0  0  0  0  0  0  0  0  0  0  0
  147.8009  133.2885  153.9077 N   0  0  0  0  0  0  0  0  0  0  0  0
  146.7382  134.0216  153.5506 C   0  0  0  0  0  0  0  0  0  0  0  0
  146.1450  133.8041  152.3078 N   0  0  0  0  0  0  0  0  0  0  0  0
  145.9230  134.9001  151.3708 C   0  0  0  0  0  0  0  0  0  0  0  0
  144.6417  134.5539  150.6140 C   0  0  0  0  0  0  0  0  0  0  0  0
  144.6369  133.0310  150.6319 C   0  0  0  0  0  0  0  0  0  0  0  0
  145.2496  132.6877  151.9977 C   0  0  1  0  0  0  0  0  0  0  0  0
  145.9591  131.3169  152.0009 C   0  0  0  0  0  0  0  0  0  0  0  0
  145.9224  130.7566  153.2965 O   0  0  0  0  0  0  0  0  0  0  0  0
  146.2157  134.9554  154.3606 N   0  3  0  0  0  0  0  0  0  0  0  0
  146.7668  135.1797  155.5781 C   0  0  0  0  0  0  0  0  0  0  0  0
  147.8872  134.4402  156.0166 C   0  0  0  0  0  0  0  0  0  0  0  0
  148.5126  134.7181  157.3603 C   0  0  0  0  0  0  0  0  0  0  0  0
  149.6825  134.3676  157.5498 O   0  0  0  0  0  0  0  0  0  0  0  0
  147.6368  135.3257  158.2084 N   0  5  0  0  0  0  0  0  0  0  0  0
  147.9785  136.4622  159.0656 C   0  0  0  0  0  0  0  0  0  0  0  0
  147.7368  136.1721  160.5427 C   0  0  0  0  0  0  0  0  0  0  0  0
  147.5214  137.2270  161.3389 N   0  0  0  0  0  0  0  0  0  0  0  0
  147.3155  136.9747  162.6498 C   0  0  0  0  0  0  0  0  0  0  0  0
  147.3247  135.6622  163.1634 C   0  0  0  0  0  0  0  0  0  0  0  0
  147.5613  134.6311  162.2323 C   0  0  0  0  0  0  0  0  0  0  0  0
  147.7659  134.8886  160.9222 N   0  0  0  0  0  0  0  0  0  0  0  0
  152.0067  131.5077  155.8541 C   0  0  0  0  0  0  0  0  0  0  0  0
  153.2893  130.9783  156.0974 C   0  0  0  0  0  0  0  0  0  0  0  0
  154.3837  131.8560  157.1054 Cl  0  0  0  0  0  0  0  0  0  0  0  0
  144.4579  132.6893  152.7489 H   0  0  0  0  0  0  0  0  0  0  0  0
  156.3926  127.8499  155.5309 H   0  0  0  0  0  0  0  0  0  0  0  0
  155.4065  128.1750  154.1105 H   0  0  0  0  0  0  0  0  0  0  0  0
  154.7432  127.2405  155.4734 H   0  0  0  0  0  0  0  0  0  0  0  0
  153.0065  128.1096  154.2429 H   0  0  0  0  0  0  0  0  0  0  0  0
  150.7837  129.0457  153.8294 H   0  0  0  0  0  0  0  0  0  0  0  0
  149.5901  131.5044  153.6975 H   0  0  0  0  0  0  0  0  0  0  0  0
  148.9579  130.6719  155.1068 H   0  0  0  0  0  0  0  0  0  0  0  0
  150.1253  132.9532  156.1646 H   0  0  0  0  0  0  0  0  0  0  0  0
  145.8302  135.8641  151.8725 H   0  0  0  0  0  0  0  0  0  0  0  0
  146.7719  134.9521  150.6883 H   0  0  0  0  0  0  0  0  0  0  0  0
  143.7753  134.9305  151.1599 H   0  0  0  0  0  0  0  0  0  0  0  0
  144.6155  134.9716  149.6072 H   0  0  0  0  0  0  0  0  0  0  0  0
  143.6406  132.6085  150.4977 H   0  0  0  0  0  0  0  0  0  0  0  0
  145.2690  132.6597  149.8236 H   0  0  0  0  0  0  0  0  0  0  0  0
  145.4840  130.6312  151.2983 H   0  0  0  0  0  0  0  0  0  0  0  0
  147.0040  131.4018  151.7053 H   0  0  0  0  0  0  0  0  0  0  0  0
  145.0519  130.4250  153.4581 H   0  0  0  0  0  0  0  0  0  0  0  0
  146.2919  135.9537  156.1640 H   0  0  0  0  0  0  0  0  0  0  0  0
  149.0286  136.7325  158.9475 H   0  0  0  0  0  0  0  0  0  0  0  0
  147.4300  137.3635  158.7852 H   0  0  0  0  0  0  0  0  0  0  0  0
  147.1415  137.8248  163.2926 H   0  0  0  0  0  0  0  0  0  0  0  0
  147.1596  135.4583  164.2108 H   0  0  0  0  0  0  0  0  0  0  0  0
  147.5849  133.5961  162.5392 H   0  0  0  0  0  0  0  0  0  0  0  0
  151.7258  132.4516  156.2982 H   0  0  0  0  0  0  0  0  0  0  0  0
  145.4057  135.5034  154.0715 H   0  0  0  0  0  0  0  0  0  0  0  0
  1  2  1  0  0  0  0
  1 36  1  0  0  0  0
  1 37  1  0  0  0  0
  1 38  1  0  0  0  0
  2  3  1  0  0  0  0
  3 33  1  0  0  0  0
  3  4  2  0  0  0  0
  4  5  1  0  0  0  0
  4 39  1  0  0  0  0
  5  6  2  0  0  0  0
  5 40  1  0  0  0  0
  6  7  1  0  0  0  0
  6 32  1  0  0  0  0
  7  8  1  0  0  0  0
  7 41  1  0  0  0  0
  7 42  1  0  0  0  0
  8  9  1  0  0  0  0
  8 43  1  0  0  0  0
  9 21  1  0  0  0  0
  9 10  2  0  0  0  0
 10 11  1  0  0  0  0
 11 12  1  0  0  0  0
 11 19  2  0  0  0  0
 12 16  1  0  0  0  0
 12 13  1  0  0  0  0
 13 14  1  0  0  0  0
 13 44  1  0  0  0  0
 13 45  1  0  0  0  0
 14 15  1  0  0  0  0
 14 46  1  0  0  0  0
 14 47  1  0  0  0  0
 15 16  1  0  0  0  0
 15 48  1  0  0  0  0
 15 49  1  0  0  0  0
 16 35  1  0  0  0  0
 16 17  1  0  0  0  0
 17 18  1  0  0  0  0
 17 50  1  0  0  0  0
 17 51  1  0  0  0  0
 18 52  1  0  0  0  0
 19 20  1  0  0  0  0
 19 60  1  0  0  0  0
 20 21  2  0  0  0  0
 20 53  1  0  0  0  0
 21 22  1  0  0  0  0
 22 23  2  0  0  0  0
 22 24  1  0  0  0  0
 24 25  1  0  0  0  0
 25 26  1  0  0  0  0
 25 54  1  0  0  0  0
 25 55  1  0  0  0  0
 26 31  1  0  0  0  0
 26 27  2  0  0  0  0
 27 28  1  0  0  0  0
 28 29  2  0  0  0  0
 28 56  1  0  0  0  0
 29 30  1  0  0  0  0
 29 57  1  0  0  0  0
 30 31  2  0  0  0  0
 30 58  1  0  0  0  0
 32 33  2  0  0  0  0
 32 59  1  0  0  0  0
 33 34  1  0  0  0  0
M  CHG  1  19   1
M  CHG  1  24  -1
M  END
> <s_m_source_file>
AV-unprocessed.smi

> <i_m_source_file_index>
45

> <i_lp_mmshare_version>
43012

> <i_f3d_flags>
0

> <s_epik_input>
W0NIM11PYzFbY0hdW2NIXWMoW2NIXWMxQ2wpW0NIMl1bTkhdYzJuYyhOM1tDSDJdW0NIMl1bQ0gyXVtDQEhdM1tDSDJdW09IXSluW2NIXWMyQyg9TylbTkhdW0NIMl1jNG5bY0hdW2NIXVtjSF1uNA==

> <s_epik_cmdline>
J2VwaWtfcHl0aG9uJywgJy1waCcsICc3LjAnLCAnLXRuJywgJzgnLCAnLW1hJywgJzIwMCcsICctbWV0YWxfYmluZGluZycsICctaW1hZScsICc8aW5maWxlLm1hZT4nLCAnLW9tYWUnLCAnPG91dGZpbGUubWFlPic=

> <r_lp_tautomer_probability>
0.575011

> <r_epik_Ionization_Penalty>
6.73124

> <r_epik_Ionization_Penalty_Charging>
6.73106

> <r_epik_Ionization_Penalty_Neutral>
0.000179426

> <r_epik_State_Penalty>
8.26145

> <r_epik_Charging_Adjusted_Penalty>
14.9925

> <i_epik_Tot_Q>
0

> <i_epik_Tot_abs_Q>
2

> <r_epik_Metal_State_Penalty>
4.22532

> <b_epik_Metal_Only>
1

> <s_epik_Chemistry_Notes>
This compound contains an electron-poor aromatic ring that is susceptible to covalent hydrolysis at low pH, typically resulting in measured values for nitrogen ring protonation that are around two units higher than predicted values.

> <s_lp_Force_Field>
OPLS_2005

> <r_lp_Energy>
44.6193

> <b_lp_Chiralities_Consistent>
1

> <s_lp_Variant>
AV-unprocessed.smi:45-9

> <Gold.Version>
5.8.1

> <Gold.Id.Protein>
6NUR|6NUR_protein|mol2

> <Gold.PLP.Fitness>
53.1662

> <Gold.PLP.PLP>
-50.5767

> <Gold.PLP.part.hbond>
-3.3370

> <Gold.PLP.part.metal>
0.0000

> <Gold.PLP.part.buried>
-7.2219

> <Gold.PLP.part.nonpolar>
-40.0357

> <Gold.PLP.part.repulsive>
0.0886

> <Gold.PLP.ligand.clash>
0.0000

> <Gold.PLP.ligand.torsion>
2.6476

> <Gold.PLP.Chemscore.Hbond>
2.3986

> <Gold.PLP.Chemscore.CHOScore>
0.0000

> <Gold.PLP.Chemscore.Metal>
0.0000

> <Gold.Chemscore.Hbonds>
donor molecule, donor type, donor heavy atom, donor atom, acceptor molecule, acceptor atom, score
      L1  H    18    52       P1 10956  0.05
      P1  H  6896  6908       L1    23  0.93
      P1  H  6931  6943       L1    27  0.27
      P1  H  6934  6947       L1    27  0.90

> <Gold.PLP.Chemscore.Internal.Correction>
0.6887

> <Gold.Rescore>
     Score         DG    S(hbond)    S(metal)    S(lipo)     H(rot)  DE(clash)    DE(int)     intcor
     13.01     -17.20       1.84        0.00     110.98       2.90       0.02       4.16       ----

> <Gold.Chemscore.Fitness>
13.0122

> <Gold.Chemscore.DG>
-17.1951

> <Gold.Chemscore.ZeroCoef>
-5.4800

> <Gold.Chemscore.Hbond>
1.8417

> <Gold.Chemscore.Metal>
0.0000

> <Gold.Chemscore.Lipo>
110.9814

> <Gold.Chemscore.Internal_Hbond>
0.0000

> <Gold.Chemscore.DEClash>
0.0224

> <Gold.Chemscore.DEInternal>
4.1606

> <Gold.Chemscore.Rot>
2.8988

> <Gold.Chemscore.Internal.Correction>
   9.000000E+99

> <Gold.Chemscore.Hbonds>
donor molecule, donor type, donor heavy atom, donor atom, acceptor molecule, acceptor atom, score
      P1  H  6896  6908       L1    23  0.85
      P1  H  6934  6947       L1    27  0.69

> <Gold.Chemscore.Hbond.Weighted>
-6.1512

> <Gold.Chemscore.Metal.Weighted>
-0.0000

> <Gold.Chemscore.Lipo.Weighted>
-12.9848

> <Gold.Chemscore.Internal_Hbond.Weighted>
0.0000

> <Gold.Chemscore.DEClash.Weighted>
0.0224

> <Gold.Chemscore.DEInternal.Weighted>
4.1606

> <Gold.Chemscore.Rot.Weighted>
7.4209

> <Gold.Chemscore.Internal.Correction.Weighted>
   9.000000E+99

> <Gold.Protein.RotatedTorsions>
[ 6907 6896 6895 6894 ] final  134.23 input  -60.11 | X-H torsion
[ 7974 7965 7964 7962 ] final   59.96 input  175.53 | X-H torsion
[ 8008 7997 7996 7995 ] final   76.58 input   59.86 | X-H torsion
[ 10167 10162 10161 10158 ] final  175.10 input  -65.29 | X-H torsion
[ 10718 10713 10712 10709 ] final -161.63 input   66.30 | X-H torsion
[ 10763 10752 10751 10750 ] final   35.07 input  -60.55 | X-H torsion
[ 11005 11000 10999 10996 ] final   63.69 input  -57.11 | X-H torsion

> <Gold.Protein.ActiveResidues>
 VAL166  LYS551  ARG553  GLY616  TRP617  ASP618  TYR619  PRO620  LYS621  CYS622 
 ASP623  PHE694  ASN695  SER759  ASP760  ASP761  ALA762  ILE779  LEU786  VAL792 
 PHE793  MET794  SER795  GLU796  ALA797  LYS798  CYS799  TRP800  GLU811  SER814 

> <Gold.Protein.RotatedAtoms>
  152.3135  133.5778  159.5696 H   0  0  0  0  0  0  0  0  0  0  0  0  # atno 6907 bound_to 6896
  150.7335  134.0116  159.3680 H   0  0  0  0  0  0  0  0  0  0  0  0  # atno 6908 bound_to 6896
  151.8007  135.0710  160.0451 H   0  0  0  0  0  0  0  0  0  0  0  0  # atno 6909 bound_to 6896
  145.9013  139.3583  143.0591 H   0  0  0  0  0  0  0  0  0  0  0  0  # atno 7974 bound_to 7965
  155.8293  140.3467  155.5562 H   0  0  0  0  0  0  0  0  0  0  0  0  # atno 8008 bound_to 7997
  155.8259  140.0920  157.1841 H   0  0  0  0  0  0  0  0  0  0  0  0  # atno 8009 bound_to 7997
  154.4004  140.1421  156.3543 H   0  0  0  0  0  0  0  0  0  0  0  0  # atno 8010 bound_to 7997
  139.5165  144.3070  152.0327 H   0  0  0  0  0  0  0  0  0  0  0  0  # atno 10167 bound_to 10162
  156.5990  130.8802  151.2909 H   0  0  0  0  0  0  0  0  0  0  0  0  # atno 10718 bound_to 10713
  153.0135  135.6343  154.1768 H   0  0  0  0  0  0  0  0  0  0  0  0  # atno 10763 bound_to 10752
  154.1509  135.2829  155.3137 H   0  0  0  0  0  0  0  0  0  0  0  0  # atno 10764 bound_to 10752
  154.6054  135.5574  153.7478 H   0  0  0  0  0  0  0  0  0  0  0  0  # atno 10765 bound_to 10752
  140.0008  134.6446  155.9934 H   0  0  0  0  0  0  0  0  0  0  0  0  # atno 11005 bound_to 11000
  145.8787  140.9376  143.0612 LP  0  0  0  0  0  0  0  0  0  0  0  0  # atno 17320 bound_to 7965
  144.6736  140.0751  143.7471 LP  0  0  0  0  0  0  0  0  0  0  0  0  # atno 17321 bound_to 7965
  140.2516  144.4163  150.6220 LP  0  0  0  0  0  0  0  0  0  0  0  0  # atno 17342 bound_to 10162
  140.6221  143.2177  151.6673 LP  0  0  0  0  0  0  0  0  0  0  0  0  # atno 17343 bound_to 10162
  157.7284  130.9657  150.1742 LP  0  0  0  0  0  0  0  0  0  0  0  0  # atno 17370 bound_to 10713
  156.2485  130.3698  149.8258 LP  0  0  0  0  0  0  0  0  0  0  0  0  # atno 17371 bound_to 10713
  141.1640  133.6537  156.4415 LP  0  0  0  0  0  0  0  0  0  0  0  0  # atno 17394 bound_to 11000
  140.4732  134.6734  157.5138 LP  0  0  0  0  0  0  0  0  0  0  0  0  # atno 17395 bound_to 11000

$$$$
