#       Name:                AV-unprocessed.smi:2179
#       Creating user name   scv26
#       Creation time:       Fri Mar 27 12:05:31 2020


#       File generated by GOLD software.
#

@<TRIPOS>MOLECULE
AV-unprocessed.smi:2179
    55    56     1
SMALL
NO_CHARGES


@<TRIPOS>ATOM
      1 ****        -5.1445   2.1885   3.5639 C.3            1 S1                 0.0000
      2 ****        -4.7605   1.8874   2.1195 C.2            1 S1                 0.0000
      3 ****        -3.5865   1.9791   1.7614 O.2            1 S1                 0.0000
      4 ****        -5.7609   1.5258   1.3017 N.am           1 S1                 0.0000
      5 ****        -5.6035   1.1908  -0.1092 C.3            1 S1                 0.0000
      6 ****        -5.1715  -0.2763  -0.3062 C.3            1 S1                 0.0000
      7 ****        -3.7202  -0.4132  -0.3536 N.am           1 S1                 0.0000
      8 ****        -2.9445  -0.1326  -1.4128 C.2            1 S1                 0.0000
      9 ****        -3.3848   0.2561  -2.4949 O.2            1 S1                 0.0000
     10 ****        -1.4663  -0.2418  -1.1755 C.ar           1 S1                 0.0000
     11 ****        -0.9250  -1.1832  -0.2731 C.ar           1 S1                 0.0000
     12 ****         0.4708  -1.2419  -0.0983 C.ar           1 S1                 0.0000
     13 ****         1.2979  -0.3640  -0.8383 C.ar           1 S1                 0.0000
     14 ****         2.6993  -0.3964  -0.6711 N.3            1 S1                 0.0000
     15 ****         3.3324  -1.7054  -0.7950 C.3            1 S1                 0.0000
     16 ****         4.7562  -1.6676  -0.2113 C.3            1 S1                 0.0000
     17 ****         5.5041  -2.9853  -0.4409 C.3            1 S1                 0.0000
     18 ****         5.5022  -0.6230  -0.8349 O.3            1 S1                 0.0000
     19 ****         4.9286   0.6800  -0.7084 C.3            1 S1                 0.0000
     20 ****         5.0374   1.2269   0.7261 C.3            1 S1                 0.0000
     21 ****         3.4891   0.6836  -1.2589 C.3            1 S1                 0.0000
     22 ****         0.7760   0.5320  -1.7117 N.ar           1 S1                 0.0000
     23 ****        -0.5627   0.5845  -1.8766 C.ar           1 S1                 0.0000
     24 ****        -5.5701   1.3033   4.0371 H              1 S1                 0.0000
     25 ****        -5.8806   2.9918   3.6038 H              1 S1                 0.0000
     26 ****        -4.2715   2.4968   4.1401 H              1 S1                 0.0000
     27 ****        -6.6953   1.4804   1.6818 H              1 S1                 0.0000
     28 ****        -6.5817   1.3321  -0.5693 H              1 S1                 0.0000
     29 ****        -4.9337   1.8908  -0.6118 H              1 S1                 0.0000
     30 ****        -5.5715  -0.9141   0.4829 H              1 S1                 0.0000
     31 ****        -5.5884  -0.6569  -1.2403 H              1 S1                 0.0000
     32 ****        -3.2648  -0.6962   0.5019 H              1 S1                 0.0000
     33 ****        -1.5608  -1.8533   0.2872 H              1 S1                 0.0000
     34 ****         0.8851  -1.9439   0.6097 H              1 S1                 0.0000
     35 ****         2.7614  -2.4822  -0.2891 H              1 S1                 0.0000
     36 ****         3.3663  -1.9764  -1.8510 H              1 S1                 0.0000
     37 ****         4.7057  -1.4929   0.8637 H              1 S1                 0.0000
     38 ****         4.9830  -3.8198   0.0292 H              1 S1                 0.0000
     39 ****         6.5084  -2.9414  -0.0188 H              1 S1                 0.0000
     40 ****         5.5992  -3.2052  -1.5046 H              1 S1                 0.0000
     41 ****         5.5259   1.3372  -1.3408 H              1 S1                 0.0000
     42 ****         4.7197   2.2691   0.7660 H              1 S1                 0.0000
     43 ****         6.0668   1.1827   1.0819 H              1 S1                 0.0000
     44 ****         4.4151   0.6740   1.4293 H              1 S1                 0.0000
     45 ****         3.5097   0.5504  -2.3412 H              1 S1                 0.0000
     46 ****         3.0263   1.6517  -1.0627 H              1 S1                 0.0000
     47 ****        -0.9172   1.3191  -2.5850 H              1 S1                 0.0000
     48 ****        -2.8832   2.2513   2.4181 LP             1 S1                 0.0000
     49 ****        -3.3359   1.7813   0.8137 LP             1 S1                 0.0000
     50 ****        -4.3695   0.3781  -2.6193 LP             1 S1                 0.0000
     51 ****        -2.7577   0.4498  -3.2494 LP             1 S1                 0.0000
     52 ****         2.7290  -0.1789   0.3045 LP             1 S1                 0.0000
     53 ****         5.5806  -0.8353  -1.8090 LP             1 S1                 0.0000
     54 ****         6.4135  -0.6032  -0.4237 LP             1 S1                 0.0000
     55 ****         1.3746   1.1456  -2.2267 LP             1 S1                 0.0000
@<TRIPOS>BOND
    1    1    2 1     
    2    1   24 1     
    3    1   25 1     
    4    1   26 1     
    5    2    3 2     
    6    2    4 am    
    7    4    5 1     
    8    4   27 1     
    9    5    6 1     
   10    5   28 1     
   11    5   29 1     
   12    6    7 1     
   13    6   30 1     
   14    6   31 1     
   15    7    8 am    
   16    7   32 1     
   17    8    9 2     
   18    8   10 1     
   19   10   23 ar    
   20   10   11 ar    
   21   11   12 ar    
   22   11   33 1     
   23   12   13 ar    
   24   12   34 1     
   25   13   14 1     
   26   13   22 ar    
   27   14   21 1     
   28   14   15 1     
   29   15   16 1     
   30   15   35 1     
   31   15   36 1     
   32   16   17 1     
   33   16   18 1     
   34   16   37 1     
   35   17   38 1     
   36   17   39 1     
   37   17   40 1     
   38   18   19 1     
   39   19   20 1     
   40   19   21 1     
   41   19   41 1     
   42   20   42 1     
   43   20   43 1     
   44   20   44 1     
   45   21   45 1     
   46   21   46 1     
   47   22   23 ar    
   48   23   47 1     
   49    3   48 1     
   50    3   49 1     
   51    9   50 1     
   52    9   51 1     
   53   14   52 1     
   54   18   53 1     
   55   18   54 1     
   56   22   55 1     
@<TRIPOS>SUBSTRUCTURE
      1 S1             1
@<TRIPOS>SET
LONE_PAIRS      STATIC     ATOMS    <user>   **** ""
8 48 49 50 51 52 53 54 55
DONOR_HYDROGENS      STATIC     ATOMS    <user>   **** ""
2 27 32
ATOM$BLUE        STATIC     ATOMS    COLORGROUP SYSTEM
8 48 49 50 51 52 53 54 55
ATOM$RED        STATIC     ATOMS    COLORGROUP SYSTEM
2 27 32
