AV-unprocessed.smi:3211|AV-procd|sdf|12277|dock6
  -GOLD-   2272018113D 1   1.00000     0.00000
 Structure written by MMmdl.
 34 35  0  0  0  0  0  0  0  0  1 V2000
  151.0938  145.2661  158.8936 C   0  0  0  0  0  0  0  0  0  0  0  0
  152.1736  144.7085  159.8268 C   0  0  0  0  0  0  0  0  0  0  0  0
  152.3465  143.2332  159.6851 C   0  0  0  0  0  0  0  0  0  0  0  0
  151.6963  142.4986  158.7785 N   0  0  0  0  0  0  0  0  0  0  0  0
  152.0553  141.1477  158.8221 C   0  0  0  0  0  0  0  0  0  0  0  0
  151.4212  140.1725  157.8775 C   0  0  0  0  0  0  0  0  0  0  0  0
  150.9379  140.8475  156.5831 C   0  0  0  0  0  0  0  0  0  0  0  0
  150.0913  139.9578  155.7962 N   0  0  0  0  0  0  0  0  0  0  0  0
  149.4875  140.2885  154.6444 C   0  0  0  0  0  0  0  0  0  0  0  0
  149.5898  141.4033  154.1298 O   0  0  0  0  0  0  0  0  0  0  0  0
  148.6839  139.1833  154.0407 C   0  0  1  0  0  0  0  0  0  0  0  0
  147.4666  138.7037  154.8053 C   0  0  0  0  0  0  0  0  0  0  0  0
  147.2886  139.5149  153.5448 C   0  0  2  0  0  0  0  0  0  0  0  0
  146.7551  138.8783  152.2796 C   0  0  0  0  0  0  0  0  0  0  0  0
  153.0034  140.8702  159.7752 C   0  0  0  0  0  0  0  0  0  0  0  0
  153.4816  142.2978  160.6515 S   0  0  0  0  0  0  0  0  0  0  0  0
  150.9914  146.3440  159.0181 H   0  0  0  0  0  0  0  0  0  0  0  0
  150.1237  144.8129  159.0999 H   0  0  0  0  0  0  0  0  0  0  0  0
  151.3392  145.0723  157.8488 H   0  0  0  0  0  0  0  0  0  0  0  0
  153.1285  145.1927  159.6209 H   0  0  0  0  0  0  0  0  0  0  0  0
  151.9244  144.9372  160.8638 H   0  0  0  0  0  0  0  0  0  0  0  0
  152.1328  139.3820  157.6358 H   0  0  0  0  0  0  0  0  0  0  0  0
  150.5807  139.6769  158.3649 H   0  0  0  0  0  0  0  0  0  0  0  0
  150.3594  141.7404  156.8223 H   0  0  0  0  0  0  0  0  0  0  0  0
  151.7880  141.1804  155.9850 H   0  0  0  0  0  0  0  0  0  0  0  0
  149.9566  139.0223  156.1520 H   0  0  0  0  0  0  0  0  0  0  0  0
  149.2383  138.4283  153.4844 H   0  0  0  0  0  0  0  0  0  0  0  0
  147.2512  137.6377  154.7677 H   0  0  0  0  0  0  0  0  0  0  0  0
  147.2205  139.1870  155.7493 H   0  0  0  0  0  0  0  0  0  0  0  0
  146.9430  140.5380  153.6863 H   0  0  0  0  0  0  0  0  0  0  0  0
  147.1074  137.8508  152.1841 H   0  0  0  0  0  0  0  0  0  0  0  0
  147.0874  139.4428  151.4082 H   0  0  0  0  0  0  0  0  0  0  0  0
  145.6652  138.8723  152.2951 H   0  0  0  0  0  0  0  0  0  0  0  0
  153.4512  139.9159  160.0108 H   0  0  0  0  0  0  0  0  0  0  0  0
  1  2  1  0  0  0  0
  1 17  1  0  0  0  0
  1 18  1  0  0  0  0
  1 19  1  0  0  0  0
  2  3  1  0  0  0  0
  2 20  1  0  0  0  0
  2 21  1  0  0  0  0
  3 16  1  0  0  0  0
  3  4  2  0  0  0  0
  4  5  1  0  0  0  0
  5  6  1  0  0  0  0
  5 15  2  0  0  0  0
  6  7  1  0  0  0  0
  6 22  1  0  0  0  0
  6 23  1  0  0  0  0
  7  8  1  0  0  0  0
  7 24  1  0  0  0  0
  7 25  1  0  0  0  0
  8  9  1  0  0  0  0
  8 26  1  0  0  0  0
  9 10  2  0  0  0  0
  9 11  1  0  0  0  0
 11 13  1  0  0  0  0
 11 12  1  0  0  0  0
 11 27  1  0  0  0  0
 12 13  1  0  0  0  0
 12 28  1  0  0  0  0
 12 29  1  0  0  0  0
 13 14  1  0  0  0  0
 13 30  1  0  0  0  0
 14 31  1  0  0  0  0
 14 32  1  0  0  0  0
 14 33  1  0  0  0  0
 15 16  1  0  0  0  0
 15 34  1  0  0  0  0
M  END
> <s_m_source_file>
AV-unprocessed.smi

> <i_m_source_file_index>
3211

> <i_lp_mmshare_version>
43012

> <i_f3d_flags>
0

> <s_epik_input>
W0NIM11bQ0gyXWMxbmMoW2NIXXMxKVtDSDJdW0NIMl1bTkhdQyg9TylbQ0BASF0yW0NIMl1bQ0BIXTJbQ0gzXQ==

> <s_epik_cmdline>
J2VwaWtfcHl0aG9uJywgJy1waCcsICc3LjAnLCAnLXRuJywgJzgnLCAnLW1hJywgJzIwMCcsICctbWV0YWxfYmluZGluZycsICctaW1hZScsICc8aW5maWxlLm1hZT4nLCAnLW9tYWUnLCAnPG91dGZpbGUubWFlPic=

> <r_epik_Ionization_Penalty>
0.00109667

> <r_epik_Ionization_Penalty_Charging>
0

> <r_epik_Ionization_Penalty_Neutral>
0.00109667

> <r_epik_State_Penalty>
0.000719322

> <r_epik_Charging_Adjusted_Penalty>
0.000719322

> <i_epik_Tot_Q>
0

> <i_epik_Tot_abs_Q>
0

> <r_epik_Metal_State_Penalty>
-0

> <b_epik_Metal_Only>
0

> <s_lp_Force_Field>
OPLS_2005

> <r_lp_Energy>
-0.564993

> <b_lp_Chiralities_Consistent>
1

> <s_lp_Variant>
AV-unprocessed.smi:3211-4

> <Gold.Version>
5.8.1

> <Gold.Id.Protein>
6NUR|6NUR_protein|mol2

> <Gold.PLP.Fitness>
38.1152

> <Gold.PLP.PLP>
-36.7569

> <Gold.PLP.part.hbond>
-2.0000

> <Gold.PLP.part.metal>
0.0000

> <Gold.PLP.part.buried>
-1.2412

> <Gold.PLP.part.nonpolar>
-32.1060

> <Gold.PLP.part.repulsive>
0.2711

> <Gold.PLP.ligand.clash>
0.0000

> <Gold.PLP.ligand.torsion>
0.5956

> <Gold.PLP.Chemscore.Hbond>
0.8220

> <Gold.PLP.Chemscore.CHOScore>
0.0000

> <Gold.PLP.Chemscore.Metal>
0.0000

> <Gold.Chemscore.Hbonds>
donor molecule, donor type, donor heavy atom, donor atom, acceptor molecule, acceptor atom, score
      P1  H  7989  7998       L1    10  0.10
      P1  H  8011  8017       L1    10  0.61

> <Gold.PLP.Chemscore.Internal.Correction>
0.0835

> <Gold.Rescore>
     Score         DG    S(hbond)    S(metal)    S(lipo)     H(rot)  DE(clash)    DE(int)     intcor
     14.78     -15.82       0.79        0.00      98.77       1.51       0.55       0.49       ----

> <Gold.Chemscore.Fitness>
14.7840

> <Gold.Chemscore.DG>
-15.8228

> <Gold.Chemscore.ZeroCoef>
-5.4800

> <Gold.Chemscore.Hbond>
0.7939

> <Gold.Chemscore.Metal>
0.0000

> <Gold.Chemscore.Lipo>
98.7672

> <Gold.Chemscore.Internal_Hbond>
0.0000

> <Gold.Chemscore.DEClash>
0.5512

> <Gold.Chemscore.DEInternal>
0.4876

> <Gold.Chemscore.Rot>
1.5096

> <Gold.Chemscore.Internal.Correction>
   9.000000E+99

> <Gold.Chemscore.Hbonds>
donor molecule, donor type, donor heavy atom, donor atom, acceptor molecule, acceptor atom, score
      P1  H  8011  8017       L1    10  0.59

> <Gold.Chemscore.Hbond.Weighted>
-2.6516

> <Gold.Chemscore.Metal.Weighted>
-0.0000

> <Gold.Chemscore.Lipo.Weighted>
-11.5558

> <Gold.Chemscore.Internal_Hbond.Weighted>
0.0000

> <Gold.Chemscore.DEClash.Weighted>
0.5512

> <Gold.Chemscore.DEInternal.Weighted>
0.4876

> <Gold.Chemscore.Rot.Weighted>
3.8646

> <Gold.Chemscore.Internal.Correction.Weighted>
   9.000000E+99

> <Gold.Protein.RotatedTorsions>
[ 6907 6896 6895 6894 ] final  159.57 input  -60.11 | X-H torsion
[ 7974 7965 7964 7962 ] final  -10.10 input  175.53 | X-H torsion
[ 8008 7997 7996 7995 ] final  171.77 input   59.86 | X-H torsion
[ 10167 10162 10161 10158 ] final  -92.83 input  -65.29 | X-H torsion
[ 10718 10713 10712 10709 ] final  -48.64 input   66.30 | X-H torsion
[ 10763 10752 10751 10750 ] final   27.26 input  -60.55 | X-H torsion
[ 11005 11000 10999 10996 ] final -140.03 input  -57.11 | X-H torsion

> <Gold.Protein.ActiveResidues>
 VAL166  LYS551  ARG553  GLY616  TRP617  ASP618  TYR619  PRO620  LYS621  CYS622 
 ASP623  PHE694  ASN695  SER759  ASP760  ASP761  ALA762  ILE779  LEU786  VAL792 
 PHE793  MET794  SER795  GLU796  ALA797  LYS798  CYS799  TRP800  GLU811  SER814 

> <Gold.Protein.RotatedAtoms>
  151.9836  133.3766  159.4116 H   0  0  0  0  0  0  0  0  0  0  0  0  # atno 6907 bound_to 6896
  150.6931  134.4012  159.5129 H   0  0  0  0  0  0  0  0  0  0  0  0  # atno 6908 bound_to 6896
  152.1735  134.8814  160.0583 H   0  0  0  0  0  0  0  0  0  0  0  0  # atno 6909 bound_to 6896
  146.2231  140.2714  142.8357 H   0  0  0  0  0  0  0  0  0  0  0  0  # atno 7974 bound_to 7965
  156.1239  140.1503  156.9164 H   0  0  0  0  0  0  0  0  0  0  0  0  # atno 8008 bound_to 7997
  154.4857  140.0866  156.7521 H   0  0  0  0  0  0  0  0  0  0  0  0  # atno 8009 bound_to 7997
  155.4379  140.3430  155.4289 H   0  0  0  0  0  0  0  0  0  0  0  0  # atno 8010 bound_to 7997
  140.3309  143.2995  151.9943 H   0  0  0  0  0  0  0  0  0  0  0  0  # atno 10167 bound_to 10162
  156.1969  130.4154  149.9294 H   0  0  0  0  0  0  0  0  0  0  0  0  # atno 10718 bound_to 10713
  153.0567  135.6541  154.0560 H   0  0  0  0  0  0  0  0  0  0  0  0  # atno 10763 bound_to 10752
  154.0237  135.2917  155.3379 H   0  0  0  0  0  0  0  0  0  0  0  0  # atno 10764 bound_to 10752
  154.6886  135.5292  153.8428 H   0  0  0  0  0  0  0  0  0  0  0  0  # atno 10765 bound_to 10752
  140.8462  134.2341  157.4784 H   0  0  0  0  0  0  0  0  0  0  0  0  # atno 11005 bound_to 11000
  144.9265  140.7927  143.5716 LP  0  0  0  0  0  0  0  0  0  0  0  0  # atno 17320 bound_to 7965
  145.2654  139.1975  143.4870 LP  0  0  0  0  0  0  0  0  0  0  0  0  # atno 17321 bound_to 7965
  139.4857  144.6236  151.7208 LP  0  0  0  0  0  0  0  0  0  0  0  0  # atno 17342 bound_to 10162
  140.5398  144.0597  150.6084 LP  0  0  0  0  0  0  0  0  0  0  0  0  # atno 17343 bound_to 10162
  156.7016  130.8935  151.3600 LP  0  0  0  0  0  0  0  0  0  0  0  0  # atno 17370 bound_to 10713
  157.6963  130.9285  150.0653 LP  0  0  0  0  0  0  0  0  0  0  0  0  # atno 17371 bound_to 10713
  139.8703  134.9660  156.4549 LP  0  0  0  0  0  0  0  0  0  0  0  0  # atno 17394 bound_to 11000
  140.8840  133.7896  155.9498 LP  0  0  0  0  0  0  0  0  0  0  0  0  # atno 17395 bound_to 11000

$$$$
