AV-unprocessed.smi:1385|AV-procd|sdf|5629|dock6
  -GOLD-   22720 5243D 1   1.00000     0.00000
 Structure written by MMmdl.
 39 40  0  0  0  0  0  0  0  0  2 V2000
  153.7049  130.2069  157.1659 C   0  0  0  0  0  0  0  0  0  0  0  0
  152.3150  130.7448  157.1850 C   0  0  0  0  0  0  0  0  0  0  0  0
  151.7821  131.3338  158.2623 N   0  0  0  0  0  0  0  0  0  0  0  0
  150.4780  131.7544  158.0406 N   0  0  0  0  0  0  0  0  0  0  0  0
  150.0661  131.4715  156.7971 C   0  0  0  0  0  0  0  0  0  0  0  0
  148.7742  131.7914  156.3017 N   0  0  0  0  0  0  0  0  0  0  0  0
  148.3695  131.8702  155.0216 C   0  0  0  0  0  0  0  0  0  0  0  0
  149.0809  131.6751  154.0357 O   0  0  0  0  0  0  0  0  0  0  0  0
  147.0703  132.1937  154.9406 N   0  0  0  0  0  0  0  0  0  0  0  0
  146.3201  132.3425  153.6968 C   0  0  2  0  0  0  0  0  0  0  0  0
  146.0952  130.9772  153.0219 C   0  0  0  0  0  0  0  0  0  0  0  0
  145.3865  131.1409  151.6677 C   0  0  0  0  0  0  0  0  0  0  0  0
  146.1518  132.0452  150.7680 N   0  3  1  0  0  0  0  0  0  0  0  0
  145.5773  132.1294  149.4002 C   0  0  0  0  0  0  0  0  0  0  0  0
  144.0703  132.4070  149.3982 C   0  0  0  0  0  0  0  0  0  0  0  0
  143.6745  133.5767  148.8914 N   0  0  0  0  0  0  0  0  0  0  0  0
  143.2732  131.5768  149.8316 O   0  0  0  0  0  0  0  0  0  0  0  0
  146.3523  133.3829  151.3820 C   0  0  0  0  0  0  0  0  0  0  0  0
  147.0770  133.2722  152.7347 C   0  0  0  0  0  0  0  0  0  0  0  0
  151.2504  130.6605  155.7867 S   0  0  0  0  0  0  0  0  0  0  0  0
  154.0061  129.8924  158.1657 H   0  0  0  0  0  0  0  0  0  0  0  0
  154.3955  130.9741  156.8154 H   0  0  0  0  0  0  0  0  0  0  0  0
  153.7664  129.3475  156.4981 H   0  0  0  0  0  0  0  0  0  0  0  0
  148.0769  131.9808  157.0062 H   0  0  0  0  0  0  0  0  0  0  0  0
  146.5626  132.3392  155.8011 H   0  0  0  0  0  0  0  0  0  0  0  0
  145.3511  132.7952  153.9172 H   0  0  0  0  0  0  0  0  0  0  0  0
  147.0512  130.4729  152.8724 H   0  0  0  0  0  0  0  0  0  0  0  0
  145.5019  130.3289  153.6678 H   0  0  0  0  0  0  0  0  0  0  0  0
  145.2690  130.1600  151.2064 H   0  0  0  0  0  0  0  0  0  0  0  0
  144.3819  131.5399  151.8177 H   0  0  0  0  0  0  0  0  0  0  0  0
  146.1075  132.8842  148.8169 H   0  0  0  0  0  0  0  0  0  0  0  0
  145.7180  131.1787  148.8839 H   0  0  0  0  0  0  0  0  0  0  0  0
  142.6934  133.8146  148.8668 H   0  0  0  0  0  0  0  0  0  0  0  0
  144.3615  134.2259  148.5344 H   0  0  0  0  0  0  0  0  0  0  0  0
  146.9414  134.0109  150.7127 H   0  0  0  0  0  0  0  0  0  0  0  0
  145.3863  133.8740  151.5108 H   0  0  0  0  0  0  0  0  0  0  0  0
  147.1818  134.2636  153.1774 H   0  0  0  0  0  0  0  0  0  0  0  0
  148.0889  132.8970  152.5733 H   0  0  0  0  0  0  0  0  0  0  0  0
  147.0718  131.6419  150.6586 H   0  0  0  0  0  0  0  0  0  0  0  0
  1  2  1  0  0  0  0
  1 21  1  0  0  0  0
  1 22  1  0  0  0  0
  1 23  1  0  0  0  0
  2 20  1  0  0  0  0
  2  3  2  0  0  0  0
  3  4  1  0  0  0  0
  4  5  2  0  0  0  0
  5  6  1  0  0  0  0
  5 20  1  0  0  0  0
  6  7  1  0  0  0  0
  6 24  1  0  0  0  0
  7  8  2  0  0  0  0
  7  9  1  0  0  0  0
  9 10  1  0  0  0  0
  9 25  1  0  0  0  0
 10 19  1  0  0  0  0
 10 11  1  0  0  0  0
 10 26  1  0  0  0  0
 11 12  1  0  0  0  0
 11 27  1  0  0  0  0
 11 28  1  0  0  0  0
 12 13  1  0  0  0  0
 12 29  1  0  0  0  0
 12 30  1  0  0  0  0
 13 14  1  0  0  0  0
 13 18  1  0  0  0  0
 13 39  1  0  0  0  0
 14 15  1  0  0  0  0
 14 31  1  0  0  0  0
 14 32  1  0  0  0  0
 15 16  1  0  0  0  0
 15 17  2  0  0  0  0
 16 33  1  0  0  0  0
 16 34  1  0  0  0  0
 18 19  1  0  0  0  0
 18 35  1  0  0  0  0
 18 36  1  0  0  0  0
 19 37  1  0  0  0  0
 19 38  1  0  0  0  0
M  CHG  1  13   1
M  END
> <s_m_source_file>
AV-unprocessed.smi

> <i_m_source_file_index>
1385

> <i_lp_mmshare_version>
43012

> <i_f3d_flags>
0

> <s_epik_input>
W0NIM11jMW5uYyhzMSlbTkhdQyg9TylbTkhdW0NIXTJbQ0gyXVtDSDJdTihbQ0gyXVtDSDJdMilbQ0gyXUMoPU8pW05IMl0=

> <s_epik_cmdline>
J2VwaWtfcHl0aG9uJywgJy1waCcsICc3LjAnLCAnLXRuJywgJzgnLCAnLW1hJywgJzIwMCcsICctbWV0YWxfYmluZGluZycsICctaW1hZScsICc8aW5maWxlLm1hZT4nLCAnLW9tYWUnLCAnPG91dGZpbGUubWFlPic=

> <r_lp_tautomer_probability>
1

> <r_epik_Ionization_Penalty>
0.866317

> <r_epik_Ionization_Penalty_Charging>
0.862349

> <r_epik_Ionization_Penalty_Neutral>
0.00396799

> <r_epik_State_Penalty>
0.898939

> <r_epik_Charging_Adjusted_Penalty>
1.76129

> <i_epik_Tot_Q>
1

> <i_epik_Tot_abs_Q>
1

> <r_epik_Metal_State_Penalty>
1.25402

> <b_epik_Metal_Only>
0

> <s_lp_Force_Field>
OPLS_2005

> <r_lp_Energy>
10.5623

> <b_lp_Chiralities_Consistent>
1

> <s_lp_Variant>
AV-unprocessed.smi:1385-2

> <Gold.Version>
5.8.1

> <Gold.Id.Protein>
6NUR|6NUR_protein|mol2

> <Gold.PLP.Fitness>
42.3065

> <Gold.PLP.PLP>
-29.6490

> <Gold.PLP.part.hbond>
-5.9558

> <Gold.PLP.part.metal>
0.0000

> <Gold.PLP.part.buried>
-4.9195

> <Gold.PLP.part.nonpolar>
-20.3577

> <Gold.PLP.part.repulsive>
1.9383

> <Gold.PLP.ligand.clash>
0.0000

> <Gold.PLP.ligand.torsion>
0.3136

> <Gold.PLP.Chemscore.Hbond>
4.4221

> <Gold.PLP.Chemscore.CHOScore>
0.0000

> <Gold.PLP.Chemscore.Metal>
0.0000

> <Gold.Chemscore.Hbonds>
donor molecule, donor type, donor heavy atom, donor atom, acceptor molecule, acceptor atom, score
      L1  H    13    39       P1 10747  0.84
      L1  H    16    33       P1 10186  1.00
      L1  H    16    34       P1  7921  0.93
      P1  H 10785 10796       L1    17  1.00

> <Gold.PLP.Chemscore.Internal.Correction>
0.0184

> <Gold.Rescore>
     Score         DG    S(hbond)    S(metal)    S(lipo)     H(rot)  DE(clash)    DE(int)     intcor
     13.65     -19.35       3.82        0.00      54.79       2.07       1.77       3.94       ----

> <Gold.Chemscore.Fitness>
13.6466

> <Gold.Chemscore.DG>
-19.3504

> <Gold.Chemscore.ZeroCoef>
-5.4800

> <Gold.Chemscore.Hbond>
3.8164

> <Gold.Chemscore.Metal>
0.0000

> <Gold.Chemscore.Lipo>
54.7859

> <Gold.Chemscore.Internal_Hbond>
0.0000

> <Gold.Chemscore.DEClash>
1.7684

> <Gold.Chemscore.DEInternal>
3.9354

> <Gold.Chemscore.Rot>
2.0650

> <Gold.Chemscore.Internal.Correction>
   9.000000E+99

> <Gold.Chemscore.Hbonds>
donor molecule, donor type, donor heavy atom, donor atom, acceptor molecule, acceptor atom, score
      L1  H    13    39       P1 10747  0.82
      L1  H    16    33       P1 10186  0.99
      L1  H    16    34       P1  7921  0.87
      P1  H 10785 10796       L1    17  0.77

> <Gold.Chemscore.Hbond.Weighted>
-12.7468

> <Gold.Chemscore.Metal.Weighted>
-0.0000

> <Gold.Chemscore.Lipo.Weighted>
-6.4100

> <Gold.Chemscore.Internal_Hbond.Weighted>
0.0000

> <Gold.Chemscore.DEClash.Weighted>
1.7684

> <Gold.Chemscore.DEInternal.Weighted>
3.9354

> <Gold.Chemscore.Rot.Weighted>
5.2864

> <Gold.Chemscore.Internal.Correction.Weighted>
   9.000000E+99

> <Gold.Protein.RotatedTorsions>
[ 6907 6896 6895 6894 ] final -113.64 input  -60.11 | X-H torsion
[ 7974 7965 7964 7962 ] final   -5.28 input  175.53 | X-H torsion
[ 8008 7997 7996 7995 ] final    9.40 input   59.86 | X-H torsion
[ 10167 10162 10161 10158 ] final  106.56 input  -65.29 | X-H torsion
[ 10718 10713 10712 10709 ] final -167.00 input   66.30 | X-H torsion
[ 10763 10752 10751 10750 ] final  -13.62 input  -60.55 | X-H torsion
[ 11005 11000 10999 10996 ] final   52.40 input  -57.11 | X-H torsion

> <Gold.Protein.ActiveResidues>
 VAL166  LYS551  ARG553  GLY616  TRP617  ASP618  TYR619  PRO620  LYS621  CYS622 
 ASP623  PHE694  ASN695  SER759  ASP760  ASP761  ALA762  ILE779  LEU786  VAL792 
 PHE793  MET794  SER795  GLU796  ALA797  LYS798  CYS799  TRP800  GLU811  SER814 

> <Gold.Protein.RotatedAtoms>
  150.7844  133.8915  159.3314 H   0  0  0  0  0  0  0  0  0  0  0  0  # atno 6907 bound_to 6896
  151.6770  135.0966  160.0218 H   0  0  0  0  0  0  0  0  0  0  0  0  # atno 6908 bound_to 6896
  152.3904  133.6632  159.6268 H   0  0  0  0  0  0  0  0  0  0  0  0  # atno 6909 bound_to 6896
  146.2356  140.1998  142.8333 H   0  0  0  0  0  0  0  0  0  0  0  0  # atno 7974 bound_to 7965
  154.7796  140.2816  155.6074 H   0  0  0  0  0  0  0  0  0  0  0  0  # atno 8008 bound_to 7997
  156.2947  140.2626  156.2546 H   0  0  0  0  0  0  0  0  0  0  0  0  # atno 8009 bound_to 7997
  154.9801  140.0375  157.2263 H   0  0  0  0  0  0  0  0  0  0  0  0  # atno 8010 bound_to 7997
  139.6999  144.7096  151.1203 H   0  0  0  0  0  0  0  0  0  0  0  0  # atno 10167 bound_to 10162
  156.6760  130.9103  151.3050 H   0  0  0  0  0  0  0  0  0  0  0  0  # atno 10718 bound_to 10713
  153.5160  135.7016  153.5756 H   0  0  0  0  0  0  0  0  0  0  0  0  # atno 10763 bound_to 10752
  153.3826  135.3916  155.1867 H   0  0  0  0  0  0  0  0  0  0  0  0  # atno 10764 bound_to 10752
  154.8699  135.3839  154.4644 H   0  0  0  0  0  0  0  0  0  0  0  0  # atno 10765 bound_to 10752
  140.0852  134.5284  155.8906 H   0  0  0  0  0  0  0  0  0  0  0  0  # atno 11005 bound_to 11000
  144.9791  140.8442  143.5408 LP  0  0  0  0  0  0  0  0  0  0  0  0  # atno 17320 bound_to 7965
  145.1989  139.2262  143.5203 LP  0  0  0  0  0  0  0  0  0  0  0  0  # atno 17321 bound_to 7965
  140.7706  143.5439  150.9281 LP  0  0  0  0  0  0  0  0  0  0  0  0  # atno 17342 bound_to 10162
  139.9120  143.6709  152.3113 LP  0  0  0  0  0  0  0  0  0  0  0  0  # atno 17343 bound_to 10162
  157.7061  130.9386  150.0934 LP  0  0  0  0  0  0  0  0  0  0  0  0  # atno 17370 bound_to 10713
  156.1903  130.3654  149.8918 LP  0  0  0  0  0  0  0  0  0  0  0  0  # atno 17371 bound_to 10713
  141.2060  133.6652  156.6216 LP  0  0  0  0  0  0  0  0  0  0  0  0  # atno 17394 bound_to 11000
  140.3430  134.7833  157.4412 LP  0  0  0  0  0  0  0  0  0  0  0  0  # atno 17395 bound_to 11000

$$$$
