AV-unprocessed.smi:2681|AV-procd|sdf|10373|dock3
  -GOLD-   2272014403D 1   1.00000     0.00000
 Structure written by MMmdl.
 42 43  0  0  0  0  0  0  0  0  1 V2000
  145.9914  133.6787  163.7290 N   0  0  0  0  0  0  0  0  0  0  0  0
  146.5966  134.2168  162.9027 C   0  0  0  0  0  0  0  0  0  0  0  0
  147.3586  134.8941  161.8617 C   0  0  0  0  0  0  0  0  0  0  0  0
  147.5735  134.2404  160.6302 C   0  0  0  0  0  0  0  0  0  0  0  0
  148.2960  134.8986  159.6146 C   0  0  0  0  0  0  0  0  0  0  0  0
  148.5004  134.2384  158.3336 C   0  0  0  0  0  0  0  0  0  0  0  0
  148.6637  133.7136  157.3154 N   0  0  0  0  0  0  0  0  0  0  0  0
  148.7814  136.1993  159.8887 C   0  0  0  0  0  0  0  0  0  0  0  0
  149.6815  137.1499  158.6945 S   0  0  0  0  0  0  0  0  0  0  0  0
  151.1783  137.7540  159.5321 C   0  0  0  0  0  0  0  0  0  0  0  0
  151.9405  138.7902  158.6945 C   0  0  0  0  0  0  0  0  0  0  0  0
  152.5231  139.7584  159.5553 O   0  0  0  0  0  0  0  0  0  0  0  0
  152.5349  141.0892  159.0546 C   0  0  0  0  0  0  0  0  0  0  0  0
  153.2039  142.0171  160.0941 C   0  0  0  0  0  0  0  0  0  0  0  0
  152.8514  143.5139  160.0237 C   0  0  0  0  0  0  0  0  0  0  0  0
  152.7213  144.0985  158.6084 C   0  0  0  0  0  0  0  0  0  0  0  0
  151.3072  143.9325  158.0271 C   0  0  0  0  0  0  0  0  0  0  0  0
  150.9493  142.4998  157.6066 C   0  0  0  0  0  0  0  0  0  0  0  0
  151.0745  141.4453  158.7198 C   0  0  0  0  0  0  0  0  0  0  0  0
  148.5937  136.8301  161.0681 N   0  0  0  0  0  0  0  0  0  0  0  0
  147.8933  136.1968  162.0323 C   0  0  0  0  0  0  0  0  0  0  0  0
  147.7272  136.9162  163.2173 N   0  0  0  0  0  0  0  0  0  0  0  0
  147.1781  133.2482  160.4624 H   0  0  0  0  0  0  0  0  0  0  0  0
  150.9167  138.1634  160.5081 H   0  0  0  0  0  0  0  0  0  0  0  0
  151.8223  136.8939  159.7157 H   0  0  0  0  0  0  0  0  0  0  0  0
  152.7184  138.2895  158.1179 H   0  0  0  0  0  0  0  0  0  0  0  0
  151.2607  139.2633  157.9844 H   0  0  0  0  0  0  0  0  0  0  0  0
  153.1068  141.1068  158.1253 H   0  0  0  0  0  0  0  0  0  0  0  0
  152.9587  141.6676  161.0979 H   0  0  0  0  0  0  0  0  0  0  0  0
  154.2852  141.9102  160.0033 H   0  0  0  0  0  0  0  0  0  0  0  0
  151.9304  143.6984  160.5781 H   0  0  0  0  0  0  0  0  0  0  0  0
  153.6231  144.0638  160.5636 H   0  0  0  0  0  0  0  0  0  0  0  0
  152.9307  145.1672  158.6656 H   0  0  0  0  0  0  0  0  0  0  0  0
  153.4760  143.6823  157.9399 H   0  0  0  0  0  0  0  0  0  0  0  0
  150.5697  144.2995  158.7419 H   0  0  0  0  0  0  0  0  0  0  0  0
  151.2128  144.5761  157.1519 H   0  0  0  0  0  0  0  0  0  0  0  0
  149.9206  142.5004  157.2449 H   0  0  0  0  0  0  0  0  0  0  0  0
  151.5590  142.2053  156.7515 H   0  0  0  0  0  0  0  0  0  0  0  0
  150.5815  140.5448  158.3542 H   0  0  0  0  0  0  0  0  0  0  0  0
  150.5238  141.7399  159.6139 H   0  0  0  0  0  0  0  0  0  0  0  0
  147.2179  136.5353  164.0020 H   0  0  0  0  0  0  0  0  0  0  0  0
  148.1139  137.8427  163.3273 H   0  0  0  0  0  0  0  0  0  0  0  0
  1  2  3  0  0  0  0
  2  3  1  0  0  0  0
  3 21  1  0  0  0  0
  3  4  2  0  0  0  0
  4  5  1  0  0  0  0
  4 23  1  0  0  0  0
  5  6  1  0  0  0  0
  5  8  2  0  0  0  0
  6  7  3  0  0  0  0
  8  9  1  0  0  0  0
  8 20  1  0  0  0  0
  9 10  1  0  0  0  0
 10 11  1  0  0  0  0
 10 24  1  0  0  0  0
 10 25  1  0  0  0  0
 11 12  1  0  0  0  0
 11 26  1  0  0  0  0
 11 27  1  0  0  0  0
 12 13  1  0  0  0  0
 13 19  1  0  0  0  0
 13 14  1  0  0  0  0
 13 28  1  0  0  0  0
 14 15  1  0  0  0  0
 14 29  1  0  0  0  0
 14 30  1  0  0  0  0
 15 16  1  0  0  0  0
 15 31  1  0  0  0  0
 15 32  1  0  0  0  0
 16 17  1  0  0  0  0
 16 33  1  0  0  0  0
 16 34  1  0  0  0  0
 17 18  1  0  0  0  0
 17 35  1  0  0  0  0
 17 36  1  0  0  0  0
 18 19  1  0  0  0  0
 18 37  1  0  0  0  0
 18 38  1  0  0  0  0
 19 39  1  0  0  0  0
 19 40  1  0  0  0  0
 20 21  2  0  0  0  0
 21 22  1  0  0  0  0
 22 41  1  0  0  0  0
 22 42  1  0  0  0  0
M  END
> <s_m_source_file>
AV-unprocessed.smi

> <i_m_source_file_index>
2681

> <i_lp_mmshare_version>
43012

> <i_f3d_flags>
0

> <s_epik_input>
TiNDYzFbY0hdYyhDI04pYyhuYzFbTkgyXSlTW0NIMl1bQ0gyXU9bQ0hdMltDSDJdW0NIMl1bQ0gyXVtDSDJdW0NIMl1bQ0gyXTI=

> <s_epik_cmdline>
J2VwaWtfcHl0aG9uJywgJy1waCcsICc3LjAnLCAnLXRuJywgJzgnLCAnLW1hJywgJzIwMCcsICctbWV0YWxfYmluZGluZycsICctaW1hZScsICc8aW5maWxlLm1hZT4nLCAnLW9tYWUnLCAnPG91dGZpbGUubWFlPic=

> <r_epik_Ionization_Penalty>
0.00177186

> <r_epik_Ionization_Penalty_Charging>
0

> <r_epik_Ionization_Penalty_Neutral>
0.00177186

> <r_epik_State_Penalty>
0.00120048

> <r_epik_Charging_Adjusted_Penalty>
0.00120048

> <i_epik_Tot_Q>
0

> <i_epik_Tot_abs_Q>
0

> <r_epik_Metal_State_Penalty>
-0

> <b_epik_Metal_Only>
0

> <s_lp_Force_Field>
OPLS_2005

> <r_lp_Energy>
17.568

> <b_lp_Chiralities_Consistent>
1

> <s_lp_Variant>
AV-unprocessed.smi:2681-1

> <Gold.Version>
5.8.1

> <Gold.Id.Protein>
6NUR|6NUR_protein|mol2

> <Gold.PLP.Fitness>
45.4952

> <Gold.PLP.PLP>
-44.1083

> <Gold.PLP.part.hbond>
-2.5089

> <Gold.PLP.part.metal>
0.0000

> <Gold.PLP.part.buried>
-7.1902

> <Gold.PLP.part.nonpolar>
-37.2950

> <Gold.PLP.part.repulsive>
0.9564

> <Gold.PLP.ligand.clash>
0.0000

> <Gold.PLP.ligand.torsion>
0.6055

> <Gold.PLP.Chemscore.Hbond>
0.8362

> <Gold.PLP.Chemscore.CHOScore>
0.0000

> <Gold.PLP.Chemscore.Metal>
0.0000

> <Gold.Chemscore.Hbonds>
donor molecule, donor type, donor heavy atom, donor atom, acceptor molecule, acceptor atom, score
      P1  H  6931  6943       L1    20  1.00

> <Gold.PLP.Chemscore.Internal.Correction>
0.0894

> <Gold.Rescore>
     Score         DG    S(hbond)    S(metal)    S(lipo)     H(rot)  DE(clash)    DE(int)     intcor
     12.45     -13.28       0.24        0.00     106.03       2.12       0.14       0.69       ----

> <Gold.Chemscore.Fitness>
12.4519

> <Gold.Chemscore.DG>
-13.2799

> <Gold.Chemscore.ZeroCoef>
-5.4800

> <Gold.Chemscore.Hbond>
0.2423

> <Gold.Chemscore.Metal>
0.0000

> <Gold.Chemscore.Lipo>
106.0305

> <Gold.Chemscore.Internal_Hbond>
0.0000

> <Gold.Chemscore.DEClash>
0.1394

> <Gold.Chemscore.DEInternal>
0.6886

> <Gold.Chemscore.Rot>
2.1152

> <Gold.Chemscore.Internal.Correction>
   9.000000E+99

> <Gold.Chemscore.Hbonds>
donor molecule, donor type, donor heavy atom, donor atom, acceptor molecule, acceptor atom, score
      P1  H  6931  6943       L1    20  0.30

> <Gold.Chemscore.Hbond.Weighted>
-0.8092

> <Gold.Chemscore.Metal.Weighted>
-0.0000

> <Gold.Chemscore.Lipo.Weighted>
-12.4056

> <Gold.Chemscore.Internal_Hbond.Weighted>
0.0000

> <Gold.Chemscore.DEClash.Weighted>
0.1394

> <Gold.Chemscore.DEInternal.Weighted>
0.6886

> <Gold.Chemscore.Rot.Weighted>
5.4149

> <Gold.Chemscore.Internal.Correction.Weighted>
   9.000000E+99

> <Gold.Protein.RotatedTorsions>
[ 6907 6896 6895 6894 ] final  136.55 input  -60.11 | X-H torsion
[ 7974 7965 7964 7962 ] final  -48.47 input  175.53 | X-H torsion
[ 8008 7997 7996 7995 ] final  167.92 input   59.86 | X-H torsion
[ 10167 10162 10161 10158 ] final   26.25 input  -65.29 | X-H torsion
[ 10718 10713 10712 10709 ] final  113.65 input   66.30 | X-H torsion
[ 10763 10752 10751 10750 ] final -179.13 input  -60.55 | X-H torsion
[ 11005 11000 10999 10996 ] final  164.62 input  -57.11 | X-H torsion

> <Gold.Protein.ActiveResidues>
 VAL166  LYS551  ARG553  GLY616  TRP617  ASP618  TYR619  PRO620  LYS621  CYS622 
 ASP623  PHE694  ASN695  SER759  ASP760  ASP761  ALA762  ILE779  LEU786  VAL792 
 PHE793  MET794  SER795  GLU796  ALA797  LYS798  CYS799  TRP800  GLU811  SER814 

> <Gold.Protein.RotatedAtoms>
  152.2881  133.5534  159.5539 H   0  0  0  0  0  0  0  0  0  0  0  0  # atno 6907 bound_to 6896
  150.7223  134.0468  159.3793 H   0  0  0  0  0  0  0  0  0  0  0  0  # atno 6908 bound_to 6896
  151.8375  135.0601  160.0495 H   0  0  0  0  0  0  0  0  0  0  0  0  # atno 6909 bound_to 6896
  145.9508  140.7574  142.9506 H   0  0  0  0  0  0  0  0  0  0  0  0  # atno 7974 bound_to 7965
  156.1592  140.1604  156.8641 H   0  0  0  0  0  0  0  0  0  0  0  0  # atno 8008 bound_to 7997
  154.5144  140.0793  156.8088 H   0  0  0  0  0  0  0  0  0  0  0  0  # atno 8009 bound_to 7997
  155.3742  140.3402  155.4246 H   0  0  0  0  0  0  0  0  0  0  0  0  # atno 8010 bound_to 7997
  140.5038  144.0272  150.6343 H   0  0  0  0  0  0  0  0  0  0  0  0  # atno 10167 bound_to 10162
  157.6326  131.0987  150.7072 H   0  0  0  0  0  0  0  0  0  0  0  0  # atno 10718 bound_to 10713
  154.5390  135.2805  155.1113 H   0  0  0  0  0  0  0  0  0  0  0  0  # atno 10763 bound_to 10752
  154.2603  135.6323  153.5276 H   0  0  0  0  0  0  0  0  0  0  0  0  # atno 10764 bound_to 10752
  152.9974  135.5604  154.5924 H   0  0  0  0  0  0  0  0  0  0  0  0  # atno 10765 bound_to 10752
  140.2478  134.8001  157.3472 H   0  0  0  0  0  0  0  0  0  0  0  0  # atno 11005 bound_to 11000
  144.6795  140.2431  143.7341 LP  0  0  0  0  0  0  0  0  0  0  0  0  # atno 17320 bound_to 7965
  145.8174  139.2029  143.1958 LP  0  0  0  0  0  0  0  0  0  0  0  0  # atno 17321 bound_to 7965
  140.3575  143.2927  152.0420 LP  0  0  0  0  0  0  0  0  0  0  0  0  # atno 17342 bound_to 10162
  139.4878  144.6328  151.7036 LP  0  0  0  0  0  0  0  0  0  0  0  0  # atno 17343 bound_to 10162
  156.7409  130.4738  149.5478 LP  0  0  0  0  0  0  0  0  0  0  0  0  # atno 17370 bound_to 10713
  156.1540  130.6329  151.0633 LP  0  0  0  0  0  0  0  0  0  0  0  0  # atno 17371 bound_to 10713
  140.1589  134.4754  155.7909 LP  0  0  0  0  0  0  0  0  0  0  0  0  # atno 17394 bound_to 11000
  141.2204  133.6893  156.7509 LP  0  0  0  0  0  0  0  0  0  0  0  0  # atno 17395 bound_to 11000

$$$$
