AV-unprocessed.smi:845|AV-procd|sdf|3933|dock6
  -GOLD-   22720 1393D 1   1.00000     0.00000
 Structure written by MMmdl.
 41 42  0  0  0  0  0  0  0  0  2 V2000
  149.6161  141.5167  157.3143 C   0  0  0  0  0  0  0  0  0  0  0  0
  150.6897  140.9407  156.3755 C   0  0  0  0  0  0  0  0  0  0  0  0
  150.0506  140.3438  155.1063 C   0  0  0  0  0  0  0  0  0  0  0  0
  151.7184  140.0433  157.1348 C   0  0  2  0  0  0  0  0  0  0  0  0
  151.2236  138.5918  157.3797 C   0  0  0  0  0  0  0  0  0  0  0  0
  149.9951  138.5638  158.1702 N   0  0  0  0  0  0  0  0  0  0  0  0
  149.3544  137.4742  158.6175 C   0  0  0  0  0  0  0  0  0  0  0  0
  149.7851  136.3489  158.3551 O   0  0  0  0  0  0  0  0  0  0  0  0
  148.2497  137.7573  159.3446 N   0  5  0  0  0  0  0  0  0  0  0  0
  147.8006  136.8766  160.2536 C   0  0  0  0  0  0  0  0  0  0  0  0
  148.1250  136.9361  161.5504 N   0  0  0  0  0  0  0  0  0  0  0  0
  147.5417  135.9244  162.3155 C   0  0  0  0  0  0  0  0  0  0  0  0
  146.7465  135.0810  161.5860 C   0  0  0  0  0  0  0  0  0  0  0  0
  146.7074  135.5339  159.9059 S   0  0  0  0  0  0  0  0  0  0  0  0
  152.3587  140.6837  158.3017 N   0  0  0  0  0  0  0  0  0  0  0  0
  153.4514  139.9276  158.9131 C   0  0  0  0  0  0  0  0  0  0  0  0
  153.9869  140.6253  160.1752 C   0  0  0  0  0  0  0  0  0  0  0  0
  154.4008  141.9495  159.8539 O   0  0  0  0  0  0  0  0  0  0  0  0
  153.3512  142.7321  159.2938 C   0  0  0  0  0  0  0  0  0  0  0  0
  152.8142  142.0449  158.0270 C   0  0  0  0  0  0  0  0  0  0  0  0
  148.9476  140.7384  157.6831 H   0  0  0  0  0  0  0  0  0  0  0  0
  149.0050  142.2591  156.8002 H   0  0  0  0  0  0  0  0  0  0  0  0
  150.0687  142.0050  158.1778 H   0  0  0  0  0  0  0  0  0  0  0  0
  151.2541  141.8059  156.0257 H   0  0  0  0  0  0  0  0  0  0  0  0
  149.2695  139.6216  155.3333 H   0  0  0  0  0  0  0  0  0  0  0  0
  150.7826  139.8661  154.4570 H   0  0  0  0  0  0  0  0  0  0  0  0
  149.5775  141.1319  154.5199 H   0  0  0  0  0  0  0  0  0  0  0  0
  152.5172  139.9306  156.3999 H   0  0  0  0  0  0  0  0  0  0  0  0
  150.9934  138.1011  156.4352 H   0  0  0  0  0  0  0  0  0  0  0  0
  152.0083  137.9933  157.8422 H   0  0  0  0  0  0  0  0  0  0  0  0
  149.5971  139.4587  158.4144 H   0  0  0  0  0  0  0  0  0  0  0  0
  147.7466  135.8814  163.3747 H   0  0  0  0  0  0  0  0  0  0  0  0
  146.1837  134.2271  161.9313 H   0  0  0  0  0  0  0  0  0  0  0  0
  153.1295  138.9279  159.1847 H   0  0  0  0  0  0  0  0  0  0  0  0
  154.2707  139.8114  158.2033 H   0  0  0  0  0  0  0  0  0  0  0  0
  153.2223  140.6544  160.9530 H   0  0  0  0  0  0  0  0  0  0  0  0
  154.8359  140.0753  160.5811 H   0  0  0  0  0  0  0  0  0  0  0  0
  152.5554  142.8649  160.0283 H   0  0  0  0  0  0  0  0  0  0  0  0
  153.7347  143.7238  159.0537 H   0  0  0  0  0  0  0  0  0  0  0  0
  153.6007  142.0365  157.2724 H   0  0  0  0  0  0  0  0  0  0  0  0
  151.9945  142.6376  157.6197 H   0  0  0  0  0  0  0  0  0  0  0  0
  1  2  1  0  0  0  0
  1 21  1  0  0  0  0
  1 22  1  0  0  0  0
  1 23  1  0  0  0  0
  2  3  1  0  0  0  0
  2  4  1  0  0  0  0
  2 24  1  0  0  0  0
  3 25  1  0  0  0  0
  3 26  1  0  0  0  0
  3 27  1  0  0  0  0
  4  5  1  0  0  0  0
  4 15  1  0  0  0  0
  4 28  1  0  0  0  0
  5  6  1  0  0  0  0
  5 29  1  0  0  0  0
  5 30  1  0  0  0  0
  6  7  1  0  0  0  0
  6 31  1  0  0  0  0
  7  8  2  0  0  0  0
  7  9  1  0  0  0  0
  9 10  1  0  0  0  0
 10 14  1  0  0  0  0
 10 11  2  0  0  0  0
 11 12  1  0  0  0  0
 12 13  2  0  0  0  0
 12 32  1  0  0  0  0
 13 14  1  0  0  0  0
 13 33  1  0  0  0  0
 15 20  1  0  0  0  0
 15 16  1  0  0  0  0
 16 17  1  0  0  0  0
 16 34  1  0  0  0  0
 16 35  1  0  0  0  0
 17 18  1  0  0  0  0
 17 36  1  0  0  0  0
 17 37  1  0  0  0  0
 18 19  1  0  0  0  0
 19 20  1  0  0  0  0
 19 38  1  0  0  0  0
 19 39  1  0  0  0  0
 20 40  1  0  0  0  0
 20 41  1  0  0  0  0
M  CHG  1   9  -1
M  END
> <s_m_source_file>
AV-unprocessed.smi

> <i_m_source_file_index>
845

> <i_lp_mmshare_version>
43012

> <i_f3d_flags>
0

> <s_epik_input>
W0NIMl0xW0NIMl1PW0NIMl1bQ0gyXU4xW0NASF0oW0NIXShbQ0gzXSlbQ0gzXSlbQ0gyXVtOSF1DKD1PKVtOSF1jMm5bY0hdW2NIXXMy

> <s_epik_cmdline>
J2VwaWtfcHl0aG9uJywgJy1waCcsICc3LjAnLCAnLXRuJywgJzgnLCAnLW1hJywgJzIwMCcsICctbWV0YWxfYmluZGluZycsICctaW1hZScsICc8aW5maWxlLm1hZT4nLCAnLW9tYWUnLCAnPG91dGZpbGUubWFlPic=

> <r_lp_tautomer_probability>
0.999

> <r_epik_Ionization_Penalty>
9.02543

> <r_epik_Ionization_Penalty_Charging>
6.76546

> <r_epik_Ionization_Penalty_Neutral>
2.25997

> <r_epik_State_Penalty>
7.18984

> <r_epik_Charging_Adjusted_Penalty>
13.9553

> <i_epik_Tot_Q>
-1

> <i_epik_Tot_abs_Q>
1

> <r_epik_Metal_State_Penalty>
3.11401

> <b_epik_Metal_Only>
1

> <s_lp_Force_Field>
OPLS_2005

> <r_lp_Energy>
34.1255

> <b_lp_Chiralities_Consistent>
1

> <s_lp_Variant>
AV-unprocessed.smi:845-7

> <Gold.Version>
5.8.1

> <Gold.Id.Protein>
6NUR|6NUR_protein|mol2

> <Gold.PLP.Fitness>
44.4133

> <Gold.PLP.PLP>
-40.3290

> <Gold.PLP.part.hbond>
-4.2094

> <Gold.PLP.part.metal>
0.0000

> <Gold.PLP.part.buried>
-4.9791

> <Gold.PLP.part.nonpolar>
-32.2746

> <Gold.PLP.part.repulsive>
0.1920

> <Gold.PLP.ligand.clash>
0.0000

> <Gold.PLP.ligand.torsion>
1.1851

> <Gold.PLP.Chemscore.Hbond>
1.9881

> <Gold.PLP.Chemscore.CHOScore>
0.0000

> <Gold.PLP.Chemscore.Metal>
0.0000

> <Gold.Chemscore.Hbonds>
donor molecule, donor type, donor heavy atom, donor atom, acceptor molecule, acceptor atom, score
      P1  H  6896  6907       L1     8  0.42
      P1  H  6931  6943       L1    11  1.00

> <Gold.PLP.Chemscore.Internal.Correction>
0.4903

> <Gold.Rescore>
     Score         DG    S(hbond)    S(metal)    S(lipo)     H(rot)  DE(clash)    DE(int)     intcor
     16.78     -18.14       1.96        0.00      89.53       1.71       0.00       1.37       ----

> <Gold.Chemscore.Fitness>
16.7750

> <Gold.Chemscore.DG>
-18.1401

> <Gold.Chemscore.ZeroCoef>
-5.4800

> <Gold.Chemscore.Hbond>
1.9636

> <Gold.Chemscore.Metal>
0.0000

> <Gold.Chemscore.Lipo>
89.5258

> <Gold.Chemscore.Internal_Hbond>
0.0000

> <Gold.Chemscore.DEClash>
0.0000

> <Gold.Chemscore.DEInternal>
1.3651

> <Gold.Chemscore.Rot>
1.7081

> <Gold.Chemscore.Internal.Correction>
   9.000000E+99

> <Gold.Chemscore.Hbonds>
donor molecule, donor type, donor heavy atom, donor atom, acceptor molecule, acceptor atom, score
      P1  H  6896  6907       L1     8  0.41
      P1  H  6931  6943       L1    11  0.85

> <Gold.Chemscore.Hbond.Weighted>
-6.5583

> <Gold.Chemscore.Metal.Weighted>
-0.0000

> <Gold.Chemscore.Lipo.Weighted>
-10.4745

> <Gold.Chemscore.Internal_Hbond.Weighted>
0.0000

> <Gold.Chemscore.DEClash.Weighted>
0.0000

> <Gold.Chemscore.DEInternal.Weighted>
1.3651

> <Gold.Chemscore.Rot.Weighted>
4.3728

> <Gold.Chemscore.Internal.Correction.Weighted>
   9.000000E+99

> <Gold.Protein.RotatedTorsions>
[ 6907 6896 6895 6894 ] final  -45.15 input  -60.11 | X-H torsion
[ 7974 7965 7964 7962 ] final -179.51 input  175.53 | X-H torsion
[ 8008 7997 7996 7995 ] final  157.74 input   59.86 | X-H torsion
[ 10167 10162 10161 10158 ] final   94.41 input  -65.29 | X-H torsion
[ 10718 10713 10712 10709 ] final  -76.09 input   66.30 | X-H torsion
[ 10763 10752 10751 10750 ] final   32.92 input  -60.55 | X-H torsion
[ 11005 11000 10999 10996 ] final  100.03 input  -57.11 | X-H torsion

> <Gold.Protein.ActiveResidues>
 VAL166  LYS551  ARG553  GLY616  TRP617  ASP618  TYR619  PRO620  LYS621  CYS622 
 ASP623  PHE694  ASN695  SER759  ASP760  ASP761  ALA762  ILE779  LEU786  VAL792 
 PHE793  MET794  SER795  GLU796  ALA797  LYS798  CYS799  TRP800  GLU811  SER814 

> <Gold.Protein.RotatedAtoms>
  150.9250  134.8667  159.7513 H   0  0  0  0  0  0  0  0  0  0  0  0  # atno 6907 bound_to 6896
  152.5011  134.4162  159.9475 H   0  0  0  0  0  0  0  0  0  0  0  0  # atno 6908 bound_to 6896
  151.4193  133.3663  159.2789 H   0  0  0  0  0  0  0  0  0  0  0  0  # atno 6909 bound_to 6896
  144.7137  140.0707  143.6429 H   0  0  0  0  0  0  0  0  0  0  0  0  # atno 7974 bound_to 7965
  156.2345  140.1877  156.7155 H   0  0  0  0  0  0  0  0  0  0  0  0  # atno 8008 bound_to 7997
  154.6082  140.0626  156.9486 H   0  0  0  0  0  0  0  0  0  0  0  0  # atno 8009 bound_to 7997
  155.2061  140.3296  155.4338 H   0  0  0  0  0  0  0  0  0  0  0  0  # atno 8010 bound_to 7997
  139.8086  144.6783  150.9670 H   0  0  0  0  0  0  0  0  0  0  0  0  # atno 10167 bound_to 10162
  156.0186  130.4457  150.3141 H   0  0  0  0  0  0  0  0  0  0  0  0  # atno 10718 bound_to 10713
  153.0238  135.6400  154.1430 H   0  0  0  0  0  0  0  0  0  0  0  0  # atno 10763 bound_to 10752
  154.1161  135.2849  155.3221 H   0  0  0  0  0  0  0  0  0  0  0  0  # atno 10764 bound_to 10752
  154.6297  135.5497  153.7729 H   0  0  0  0  0  0  0  0  0  0  0  0  # atno 10765 bound_to 10752
  139.8771  134.9122  156.4695 H   0  0  0  0  0  0  0  0  0  0  0  0  # atno 11005 bound_to 11000
  145.9786  139.2923  143.1056 LP  0  0  0  0  0  0  0  0  0  0  0  0  # atno 17320 bound_to 7965
  145.9036  140.9226  143.0490 LP  0  0  0  0  0  0  0  0  0  0  0  0  # atno 17321 bound_to 7965
  140.7818  143.4208  151.0845 LP  0  0  0  0  0  0  0  0  0  0  0  0  # atno 17342 bound_to 10162
  139.7876  143.8265  152.3147 LP  0  0  0  0  0  0  0  0  0  0  0  0  # atno 17343 bound_to 10162
  157.1242  131.0255  151.2996 LP  0  0  0  0  0  0  0  0  0  0  0  0  # atno 17370 bound_to 10713
  157.4603  130.7649  149.7230 LP  0  0  0  0  0  0  0  0  0  0  0  0  # atno 17371 bound_to 10713
  140.8806  133.7921  155.9462 LP  0  0  0  0  0  0  0  0  0  0  0  0  # atno 17394 bound_to 11000
  140.8858  134.2555  157.5120 LP  0  0  0  0  0  0  0  0  0  0  0  0  # atno 17395 bound_to 11000

$$$$
