AV-unprocessed.smi:2744|AV-procd|sdf|10568|dock2
  -GOLD-   2272015 23D 1   1.00000     0.00000
 Structure written by MMmdl.
 40 41  0  0  0  0  0  0  0  0  1 V2000
  152.6007  142.8922  160.9993 C   0  0  0  0  0  0  0  0  0  0  0  0
  152.7598  142.8502  159.4698 C   0  0  0  0  0  0  0  0  0  0  0  0
  151.7497  141.9560  158.7096 C   0  0  1  0  0  0  0  0  0  0  0  0
  151.9738  140.4548  158.9910 C   0  0  0  0  0  0  0  0  0  0  0  0
  150.4501  142.2824  159.1642 O   0  0  0  0  0  0  0  0  0  0  0  0
  151.8184  142.2849  157.1951 C   0  0  0  0  0  0  0  0  0  0  0  0
  150.9643  141.4561  156.3568 N   0  0  0  0  0  0  0  0  0  0  0  0
  149.6185  141.6355  156.1246 C   0  0  0  0  0  0  0  0  0  0  0  0
  149.0659  140.7567  155.3333 N   0  0  0  0  0  0  0  0  0  0  0  0
  150.1079  139.8990  155.0058 C   0  0  0  0  0  0  0  0  0  0  0  0
  150.2075  138.7373  154.1971 C   0  0  0  0  0  0  0  0  0  0  0  0
  149.1280  138.2494  153.5456 N   0  0  0  0  0  0  0  0  0  0  0  0
  147.7814  138.7399  153.8253 C   0  0  0  0  0  0  0  0  0  0  0  0
  146.9851  137.7324  154.6717 C   0  0  0  0  0  0  0  0  0  0  0  0
  147.0535  139.0451  152.5099 C   0  0  0  0  0  0  0  0  0  0  0  0
  151.4212  138.1323  154.1076 N   0  0  0  0  0  0  0  0  0  0  0  0
  152.4709  138.6351  154.7653 C   0  0  0  0  0  0  0  0  0  0  0  0
  152.5255  139.7121  155.5527 N   0  0  0  0  0  0  0  0  0  0  0  0
  151.3081  140.3203  155.6440 C   0  0  0  0  0  0  0  0  0  0  0  0
  153.3062  143.5991  161.4362 H   0  0  0  0  0  0  0  0  0  0  0  0
  152.7964  141.9219  161.4547 H   0  0  0  0  0  0  0  0  0  0  0  0
  151.5993  143.2086  161.2916 H   0  0  0  0  0  0  0  0  0  0  0  0
  152.6874  143.8708  159.0913 H   0  0  0  0  0  0  0  0  0  0  0  0
  153.7740  142.5218  159.2393 H   0  0  0  0  0  0  0  0  0  0  0  0
  152.9602  140.1357  158.6535 H   0  0  0  0  0  0  0  0  0  0  0  0
  151.2347  139.8309  158.4884 H   0  0  0  0  0  0  0  0  0  0  0  0
  151.8965  140.2233  160.0530 H   0  0  0  0  0  0  0  0  0  0  0  0
  150.2980  143.2016  159.0053 H   0  0  0  0  0  0  0  0  0  0  0  0
  151.5584  143.3299  157.0195 H   0  0  0  0  0  0  0  0  0  0  0  0
  152.8431  142.1673  156.8399 H   0  0  0  0  0  0  0  0  0  0  0  0
  149.0571  142.4505  156.5579 H   0  0  0  0  0  0  0  0  0  0  0  0
  149.1874  137.4855  152.8877 H   0  0  0  0  0  0  0  0  0  0  0  0
  147.8545  139.6781  154.3765 H   0  0  0  0  0  0  0  0  0  0  0  0
  145.9821  138.1053  154.8811 H   0  0  0  0  0  0  0  0  0  0  0  0
  147.4676  137.5427  155.6304 H   0  0  0  0  0  0  0  0  0  0  0  0
  146.8831  136.7764  154.1569 H   0  0  0  0  0  0  0  0  0  0  0  0
  146.0552  139.4419  152.6975 H   0  0  0  0  0  0  0  0  0  0  0  0
  146.9458  138.1496  151.8969 H   0  0  0  0  0  0  0  0  0  0  0  0
  147.5967  139.7871  151.9238 H   0  0  0  0  0  0  0  0  0  0  0  0
  153.3996  138.0974  154.6437 H   0  0  0  0  0  0  0  0  0  0  0  0
  1  2  1  0  0  0  0
  1 20  1  0  0  0  0
  1 21  1  0  0  0  0
  1 22  1  0  0  0  0
  2  3  1  0  0  0  0
  2 23  1  0  0  0  0
  2 24  1  0  0  0  0
  3  4  1  0  0  0  0
  3  5  1  0  0  0  0
  3  6  1  0  0  0  0
  4 25  1  0  0  0  0
  4 26  1  0  0  0  0
  4 27  1  0  0  0  0
  5 28  1  0  0  0  0
  6  7  1  0  0  0  0
  6 29  1  0  0  0  0
  6 30  1  0  0  0  0
  7 19  1  0  0  0  0
  7  8  1  0  0  0  0
  8  9  2  0  0  0  0
  8 31  1  0  0  0  0
  9 10  1  0  0  0  0
 10 19  2  0  0  0  0
 10 11  1  0  0  0  0
 11 12  1  0  0  0  0
 11 16  2  0  0  0  0
 12 13  1  0  0  0  0
 12 32  1  0  0  0  0
 13 14  1  0  0  0  0
 13 15  1  0  0  0  0
 13 33  1  0  0  0  0
 14 34  1  0  0  0  0
 14 35  1  0  0  0  0
 14 36  1  0  0  0  0
 15 37  1  0  0  0  0
 15 38  1  0  0  0  0
 15 39  1  0  0  0  0
 16 17  1  0  0  0  0
 17 18  2  0  0  0  0
 17 40  1  0  0  0  0
 18 19  1  0  0  0  0
M  END
> <s_m_source_file>
AV-unprocessed.smi

> <i_m_source_file_index>
2744

> <i_lp_mmshare_version>
43012

> <i_f3d_flags>
0

> <s_epik_input>
W0NIM11bQ0gyXVtDQEBdKFtDSDNdKShbT0hdKVtDSDJdbihbY0hdbjEpYyhjMTIpbltjSF1uYzJbTkhdW0NIXShbQ0gzXSlbQ0gzXQ==

> <s_epik_cmdline>
J2VwaWtfcHl0aG9uJywgJy1waCcsICc3LjAnLCAnLXRuJywgJzgnLCAnLW1hJywgJzIwMCcsICctbWV0YWxfYmluZGluZycsICctaW1hZScsICc8aW5maWxlLm1hZT4nLCAnLW9tYWUnLCAnPG91dGZpbGUubWFlPic=

> <r_lp_tautomer_probability>
1

> <r_epik_Ionization_Penalty>
0.00217876

> <r_epik_Ionization_Penalty_Charging>
0

> <r_epik_Ionization_Penalty_Neutral>
0.00217876

> <r_epik_State_Penalty>
-0

> <r_epik_Charging_Adjusted_Penalty>
0

> <i_epik_Tot_Q>
0

> <i_epik_Tot_abs_Q>
0

> <r_epik_Metal_State_Penalty>
-0

> <b_epik_Metal_Only>
0

> <s_lp_Force_Field>
OPLS_2005

> <r_lp_Energy>
9.06816

> <b_lp_Chiralities_Consistent>
1

> <s_lp_Variant>
AV-unprocessed.smi:2744-1

> <Gold.Version>
5.8.1

> <Gold.Id.Protein>
6NUR|6NUR_protein|mol2

> <Gold.PLP.Fitness>
44.0529

> <Gold.PLP.PLP>
-36.4584

> <Gold.PLP.part.hbond>
-4.3007

> <Gold.PLP.part.metal>
0.0000

> <Gold.PLP.part.buried>
-1.1276

> <Gold.PLP.part.nonpolar>
-29.9014

> <Gold.PLP.part.repulsive>
0.3542

> <Gold.PLP.ligand.clash>
0.0000

> <Gold.PLP.ligand.torsion>
0.6429

> <Gold.PLP.Chemscore.Hbond>
2.0000

> <Gold.PLP.Chemscore.CHOScore>
0.9176

> <Gold.PLP.Chemscore.Metal>
0.0000

> <Gold.Chemscore.Hbonds>
donor molecule, donor type, donor heavy atom, donor atom, acceptor molecule, acceptor atom, score
      L1  H    12    32       P1  7948  1.00
      P1  H  7997  8009       L1    18  1.00
      L1  C     8    31       P1  8028  0.93

> <Gold.PLP.Chemscore.Internal.Correction>
0.1275

> <Gold.Rescore>
     Score         DG    S(hbond)    S(metal)    S(lipo)     H(rot)  DE(clash)    DE(int)     intcor
     10.61     -13.96       1.97        0.00      68.42       2.38       1.49       1.86       ----

> <Gold.Chemscore.Fitness>
10.6070

> <Gold.Chemscore.DG>
-13.9577

> <Gold.Chemscore.ZeroCoef>
-5.4800

> <Gold.Chemscore.Hbond>
1.9660

> <Gold.Chemscore.Metal>
0.0000

> <Gold.Chemscore.Lipo>
68.4160

> <Gold.Chemscore.Internal_Hbond>
0.0000

> <Gold.Chemscore.DEClash>
1.4935

> <Gold.Chemscore.DEInternal>
1.8572

> <Gold.Chemscore.Rot>
2.3802

> <Gold.Chemscore.Internal.Correction>
   9.000000E+99

> <Gold.Chemscore.Hbonds>
donor molecule, donor type, donor heavy atom, donor atom, acceptor molecule, acceptor atom, score
      L1  H    12    32       P1  7948  0.97
      P1  H  7997  8009       L1    18  0.70

> <Gold.Chemscore.Hbond.Weighted>
-6.5664

> <Gold.Chemscore.Metal.Weighted>
-0.0000

> <Gold.Chemscore.Lipo.Weighted>
-8.0047

> <Gold.Chemscore.Internal_Hbond.Weighted>
0.0000

> <Gold.Chemscore.DEClash.Weighted>
1.4935

> <Gold.Chemscore.DEInternal.Weighted>
1.8572

> <Gold.Chemscore.Rot.Weighted>
6.0933

> <Gold.Chemscore.Internal.Correction.Weighted>
   9.000000E+99

> <Gold.Protein.RotatedTorsions>
[ 6907 6896 6895 6894 ] final   74.22 input  -60.11 | X-H torsion
[ 7974 7965 7964 7962 ] final -109.20 input  175.53 | X-H torsion
[ 8008 7997 7996 7995 ] final -135.33 input   59.86 | X-H torsion
[ 10167 10162 10161 10158 ] final -151.05 input  -65.29 | X-H torsion
[ 10718 10713 10712 10709 ] final -158.71 input   66.30 | X-H torsion
[ 10763 10752 10751 10750 ] final  -11.85 input  -60.55 | X-H torsion
[ 11005 11000 10999 10996 ] final    2.72 input  -57.11 | X-H torsion

> <Gold.Protein.ActiveResidues>
 VAL166  LYS551  ARG553  GLY616  TRP617  ASP618  TYR619  PRO620  LYS621  CYS622 
 ASP623  PHE694  ASN695  SER759  ASP760  ASP761  ALA762  ILE779  LEU786  VAL792 
 PHE793  MET794  SER795  GLU796  ALA797  LYS798  CYS799  TRP800  GLU811  SER814 

> <Gold.Protein.RotatedAtoms>
  152.4964  134.4304  159.9510 H   0  0  0  0  0  0  0  0  0  0  0  0  # atno 6907 bound_to 6896
  151.4282  133.3672  159.2773 H   0  0  0  0  0  0  0  0  0  0  0  0  # atno 6908 bound_to 6896
  150.9173  134.8614  159.7525 H   0  0  0  0  0  0  0  0  0  0  0  0  # atno 6909 bound_to 6896
  145.1834  140.8982  143.3466 H   0  0  0  0  0  0  0  0  0  0  0  0  # atno 7974 bound_to 7965
  155.3768  140.0491  157.3044 H   0  0  0  0  0  0  0  0  0  0  0  0  # atno 8008 bound_to 7997
  154.5102  140.2189  155.9134 H   0  0  0  0  0  0  0  0  0  0  0  0  # atno 8009 bound_to 7997
  156.1573  140.3123  155.8754 H   0  0  0  0  0  0  0  0  0  0  0  0  # atno 8010 bound_to 7997
  139.7301  143.8822  152.2532 H   0  0  0  0  0  0  0  0  0  0  0  0  # atno 10167 bound_to 10162
  156.5580  130.8634  151.2801 H   0  0  0  0  0  0  0  0  0  0  0  0  # atno 10718 bound_to 10713
  153.4898  135.7017  153.5890 H   0  0  0  0  0  0  0  0  0  0  0  0  # atno 10763 bound_to 10752
  153.4068  135.3858  155.2024 H   0  0  0  0  0  0  0  0  0  0  0  0  # atno 10764 bound_to 10752
  154.8717  135.3895  154.4357 H   0  0  0  0  0  0  0  0  0  0  0  0  # atno 10765 bound_to 10752
  140.6012  133.9834  155.8133 H   0  0  0  0  0  0  0  0  0  0  0  0  # atno 11005 bound_to 11000
  145.0113  139.3507  143.6118 LP  0  0  0  0  0  0  0  0  0  0  0  0  # atno 17320 bound_to 7965
  146.3449  139.9377  142.8745 LP  0  0  0  0  0  0  0  0  0  0  0  0  # atno 17321 bound_to 7965
  139.8742  144.7052  150.8952 LP  0  0  0  0  0  0  0  0  0  0  0  0  # atno 17342 bound_to 10162
  140.7769  143.3713  151.1644 LP  0  0  0  0  0  0  0  0  0  0  0  0  # atno 17343 bound_to 10162
  157.7374  130.9795  150.2193 LP  0  0  0  0  0  0  0  0  0  0  0  0  # atno 17370 bound_to 10713
  156.2825  130.3735  149.7921 LP  0  0  0  0  0  0  0  0  0  0  0  0  # atno 17371 bound_to 10713
  141.0871  133.9974  157.3296 LP  0  0  0  0  0  0  0  0  0  0  0  0  # atno 17394 bound_to 11000
  139.9232  135.0201  156.8139 LP  0  0  0  0  0  0  0  0  0  0  0  0  # atno 17395 bound_to 11000

$$$$
