AV-unprocessed.smi:2685|AV-procd|sdf|10382|dock2
  -GOLD-   2272014413D 1   1.00000     0.00000
 Structure written by MMmdl.
 22 22  0  0  0  0  0  0  0  0  2 V2000
  152.4364  139.5676  158.2840 C   0  0  0  0  0  0  0  0  0  0  0  0
  151.6747  140.7266  157.6658 C   0  0  0  0  0  0  0  0  0  0  0  0
  151.7382  141.8838  158.2213 N   0  0  0  0  0  0  0  0  0  0  0  0
  151.0634  142.9879  157.6774 C   0  0  0  0  0  0  0  0  0  0  0  0
  151.1033  144.1065  158.1848 O   0  0  0  0  0  0  0  0  0  0  0  0
  150.3447  142.7956  156.5457 N   0  0  0  0  0  0  0  0  0  0  0  0
  150.2426  141.5562  155.9114 C   0  0  0  0  0  0  0  0  0  0  0  0
  149.3944  141.5664  154.6533 C   0  0  0  0  0  0  0  0  0  0  0  0
  150.8757  140.4810  156.4269 C   0  0  0  0  0  0  0  0  0  0  0  0
  150.8344  139.0854  155.8023 C   0  0  0  0  0  0  0  0  0  0  0  0
  152.1222  138.6601  155.0868 C   0  0  0  0  0  0  0  0  0  0  0  0
  152.2004  137.4585  154.7512 O   0  0  0  0  0  0  0  0  0  0  0  0
  153.0026  139.5251  154.8811 O   0  5  0  0  0  0  0  0  0  0  0  0
  149.8554  143.5739  156.1285 H   0  0  0  0  0  0  0  0  0  0  0  0
  153.0901  139.0994  157.5479 H   0  0  0  0  0  0  0  0  0  0  0  0
  151.7441  138.8197  158.6706 H   0  0  0  0  0  0  0  0  0  0  0  0
  153.0587  139.9092  159.1120 H   0  0  0  0  0  0  0  0  0  0  0  0
  149.9754  141.2043  153.8046 H   0  0  0  0  0  0  0  0  0  0  0  0
  149.0376  142.5691  154.4148 H   0  0  0  0  0  0  0  0  0  0  0  0
  148.5258  140.9193  154.7770 H   0  0  0  0  0  0  0  0  0  0  0  0
  150.5787  138.3370  156.5516 H   0  0  0  0  0  0  0  0  0  0  0  0
  150.0227  139.0429  155.0762 H   0  0  0  0  0  0  0  0  0  0  0  0
  1  2  1  0  0  0  0
  1 15  1  0  0  0  0
  1 16  1  0  0  0  0
  1 17  1  0  0  0  0
  2  9  1  0  0  0  0
  2  3  2  0  0  0  0
  3  4  1  0  0  0  0
  4  5  2  0  0  0  0
  4  6  1  0  0  0  0
  6 14  1  0  0  0  0
  6  7  1  0  0  0  0
  7  8  1  0  0  0  0
  7  9  2  0  0  0  0
  8 18  1  0  0  0  0
  8 19  1  0  0  0  0
  8 20  1  0  0  0  0
  9 10  1  0  0  0  0
 10 11  1  0  0  0  0
 10 21  1  0  0  0  0
 10 22  1  0  0  0  0
 11 12  2  0  0  0  0
 11 13  1  0  0  0  0
M  CHG  1  13  -1
M  END
> <s_m_source_file>
AV-unprocessed.smi

> <i_m_source_file_index>
2685

> <i_lp_mmshare_version>
43012

> <i_f3d_flags>
0

> <s_epik_input>
W0NIM11jMW5jKD1PKVtuSF1jKFtDSDNdKWMxW0NIMl1DKD1PKVtPSF0=

> <s_epik_cmdline>
J2VwaWtfcHl0aG9uJywgJy1waCcsICc3LjAnLCAnLXRuJywgJzgnLCAnLW1hJywgJzIwMCcsICctbWV0YWxfYmluZGluZycsICctaW1hZScsICc8aW5maWxlLm1hZT4nLCAnLW9tYWUnLCAnPG91dGZpbGUubWFlPic=

> <r_lp_tautomer_probability>
1

> <r_epik_Ionization_Penalty>
0.00220208

> <r_epik_Ionization_Penalty_Charging>
0.000649408

> <r_epik_Ionization_Penalty_Neutral>
0.00155267

> <r_epik_State_Penalty>
-0

> <r_epik_Charging_Adjusted_Penalty>
0.000649408

> <i_epik_Tot_Q>
-1

> <i_epik_Tot_abs_Q>
1

> <r_epik_Metal_State_Penalty>
0.0484136

> <b_epik_Metal_Only>
0

> <s_lp_Force_Field>
OPLS_2005

> <r_lp_Energy>
-3.03599

> <b_lp_Chiralities_Consistent>
1

> <s_lp_Variant>
AV-unprocessed.smi:2685-1

> <Gold.Version>
5.8.1

> <Gold.Id.Protein>
6NUR|6NUR_protein|mol2

> <Gold.PLP.Fitness>
38.3255

> <Gold.PLP.PLP>
-24.5816

> <Gold.PLP.part.hbond>
-4.0000

> <Gold.PLP.part.metal>
0.0000

> <Gold.PLP.part.buried>
-3.4844

> <Gold.PLP.part.nonpolar>
-17.6402

> <Gold.PLP.part.repulsive>
0.3637

> <Gold.PLP.ligand.clash>
0.0000

> <Gold.PLP.ligand.torsion>
0.2748

> <Gold.PLP.Chemscore.Hbond>
4.7641

> <Gold.PLP.Chemscore.CHOScore>
0.0000

> <Gold.PLP.Chemscore.Metal>
0.0000

> <Gold.Chemscore.Hbonds>
donor molecule, donor type, donor heavy atom, donor atom, acceptor molecule, acceptor atom, score
      L1  H     6    14       P1  8028  1.00
      P1  H  7989  7998       L1    13  0.09
      P1  H  7997  8009       L1    13  2.00
      P1  H 10752 10764       L1    12  1.44

> <Gold.PLP.Chemscore.Internal.Correction>
0.0013

> <Gold.Rescore>
     Score         DG    S(hbond)    S(metal)    S(lipo)     H(rot)  DE(clash)    DE(int)     intcor
     15.63     -15.72       2.91        0.00      37.51       1.52       0.01       0.08       ----

> <Gold.Chemscore.Fitness>
15.6344

> <Gold.Chemscore.DG>
-15.7163

> <Gold.Chemscore.ZeroCoef>
-5.4800

> <Gold.Chemscore.Hbond>
2.9149

> <Gold.Chemscore.Metal>
0.0000

> <Gold.Chemscore.Lipo>
37.5121

> <Gold.Chemscore.Internal_Hbond>
0.0000

> <Gold.Chemscore.DEClash>
0.0060

> <Gold.Chemscore.DEInternal>
0.0759

> <Gold.Chemscore.Rot>
1.5189

> <Gold.Chemscore.Internal.Correction>
   9.000000E+99

> <Gold.Chemscore.Hbonds>
donor molecule, donor type, donor heavy atom, donor atom, acceptor molecule, acceptor atom, score
      L1  H     6    14       P1  8028  0.97
      P1  H  7989  7998       L1    13  0.01
      P1  H  7997  8009       L1    13  1.00
      P1  H 10752 10764       L1    12  0.70

> <Gold.Chemscore.Hbond.Weighted>
-9.7358

> <Gold.Chemscore.Metal.Weighted>
-0.0000

> <Gold.Chemscore.Lipo.Weighted>
-4.3889

> <Gold.Chemscore.Internal_Hbond.Weighted>
0.0000

> <Gold.Chemscore.DEClash.Weighted>
0.0060

> <Gold.Chemscore.DEInternal.Weighted>
0.0759

> <Gold.Chemscore.Rot.Weighted>
3.8884

> <Gold.Chemscore.Internal.Correction.Weighted>
   9.000000E+99

> <Gold.Protein.RotatedTorsions>
[ 6907 6896 6895 6894 ] final  119.67 input  -60.11 | X-H torsion
[ 7974 7965 7964 7962 ] final  -78.06 input  175.53 | X-H torsion
[ 8008 7997 7996 7995 ] final -137.69 input   59.86 | X-H torsion
[ 10167 10162 10161 10158 ] final   49.03 input  -65.29 | X-H torsion
[ 10718 10713 10712 10709 ] final  166.92 input   66.30 | X-H torsion
[ 10763 10752 10751 10750 ] final  -60.88 input  -60.55 | X-H torsion
[ 11005 11000 10999 10996 ] final   -7.49 input  -57.11 | X-H torsion

> <Gold.Protein.ActiveResidues>
 VAL166  LYS551  ARG553  GLY616  TRP617  ASP618  TYR619  PRO620  LYS621  CYS622 
 ASP623  PHE694  ASN695  SER759  ASP760  ASP761  ALA762  ILE779  LEU786  VAL792 
 PHE793  MET794  SER795  GLU796  ALA797  LYS798  CYS799  TRP800  GLU811  SER814 

> <Gold.Protein.RotatedAtoms>
  152.4455  133.7528  159.6702 H   0  0  0  0  0  0  0  0  0  0  0  0  # atno 6907 bound_to 6896
  150.8354  133.8012  159.3088 H   0  0  0  0  0  0  0  0  0  0  0  0  # atno 6908 bound_to 6896
  151.5653  135.1067  160.0034 H   0  0  0  0  0  0  0  0  0  0  0  0  # atno 6909 bound_to 6896
  145.5915  140.9428  143.1290 H   0  0  0  0  0  0  0  0  0  0  0  0  # atno 7974 bound_to 7965
  155.4159  140.0515  157.3029 H   0  0  0  0  0  0  0  0  0  0  0  0  # atno 8008 bound_to 7997
  154.4925  140.2125  155.9478 H   0  0  0  0  0  0  0  0  0  0  0  0  # atno 8009 bound_to 7997
  156.1361  140.3163  155.8428 H   0  0  0  0  0  0  0  0  0  0  0  0  # atno 8010 bound_to 7997
  140.2871  144.3089  150.6249 H   0  0  0  0  0  0  0  0  0  0  0  0  # atno 10167 bound_to 10162
  157.0590  131.0334  151.2654 H   0  0  0  0  0  0  0  0  0  0  0  0  # atno 10718 bound_to 10713
  154.2760  135.6281  153.5328 H   0  0  0  0  0  0  0  0  0  0  0  0  # atno 10763 bound_to 10752
  152.9873  135.5621  154.5548 H   0  0  0  0  0  0  0  0  0  0  0  0  # atno 10764 bound_to 10752
  154.5128  135.2878  155.1303 H   0  0  0  0  0  0  0  0  0  0  0  0  # atno 10765 bound_to 10752
  140.7134  133.8890  155.8767 H   0  0  0  0  0  0  0  0  0  0  0  0  # atno 11005 bound_to 11000
  144.7349  139.7614  143.7333 LP  0  0  0  0  0  0  0  0  0  0  0  0  # atno 17320 bound_to 7965
  146.1643  139.4769  142.9968 LP  0  0  0  0  0  0  0  0  0  0  0  0  # atno 17321 bound_to 7965
  140.5763  143.2176  151.7509 LP  0  0  0  0  0  0  0  0  0  0  0  0  # atno 17342 bound_to 10162
  139.4947  144.4145  152.0045 LP  0  0  0  0  0  0  0  0  0  0  0  0  # atno 17343 bound_to 10162
  157.4970  130.7856  149.7565 LP  0  0  0  0  0  0  0  0  0  0  0  0  # atno 17370 bound_to 10713
  155.9984  130.3894  150.2702 LP  0  0  0  0  0  0  0  0  0  0  0  0  # atno 17371 bound_to 10713
  141.0065  134.1079  157.4265 LP  0  0  0  0  0  0  0  0  0  0  0  0  # atno 17394 bound_to 11000
  139.8866  135.0083  156.6508 LP  0  0  0  0  0  0  0  0  0  0  0  0  # atno 17395 bound_to 11000

$$$$
