AV-unprocessed.smi:749|AV-procd|sdf|3585|dock8
  -GOLD-   22720 0583D 1   1.00000     0.00000
 Structure written by MMmdl.
 43 44  0  0  0  0  0  0  0  0  1 V2000
  152.1906  138.7180  155.3312 C   0  0  0  0  0  0  0  0  0  0  0  0
  151.7407  139.8862  156.0900 N   0  0  0  0  0  0  0  0  0  0  0  0
  152.3776  140.0494  157.4060 C   0  0  0  0  0  0  0  0  0  0  0  0
  152.1802  141.4396  158.0347 C   0  0  2  0  0  0  0  0  0  0  0  0
  152.5588  141.4006  159.4428 N   0  0  0  0  0  0  0  0  0  0  0  0
  153.6386  140.7820  159.9488 C   0  0  0  0  0  0  0  0  0  0  0  0
  154.4363  140.1574  159.2516 O   0  0  0  0  0  0  0  0  0  0  0  0
  153.8093  140.8823  161.2840 N   0  0  0  0  0  0  0  0  0  0  0  0
  154.8237  140.3608  162.1364 C   0  0  0  0  0  0  0  0  0  0  0  0
  154.8442  140.7010  163.5146 C   0  0  0  0  0  0  0  0  0  0  0  0
  155.9317  140.0230  163.9944 C   0  0  0  0  0  0  0  0  0  0  0  0
  156.5619  139.9082  165.3542 C   0  0  0  0  0  0  0  0  0  0  0  0
  155.7942  140.7578  166.3864 C   0  0  0  0  0  0  0  0  0  0  0  0
  158.0189  140.4051  165.3037 C   0  0  0  0  0  0  0  0  0  0  0  0
  156.5425  138.4409  165.8218 C   0  0  0  0  0  0  0  0  0  0  0  0
  156.5225  139.3234  162.9857 O   0  0  0  0  0  0  0  0  0  0  0  0
  155.8109  139.5437  161.8018 N   0  0  0  0  0  0  0  0  0  0  0  0
  150.7194  141.8735  157.8795 C   0  0  0  0  0  0  0  0  0  0  0  0
  150.3305  141.9249  156.3976 C   0  0  0  0  0  0  0  0  0  0  0  0
  150.7564  140.6804  155.6036 C   0  0  0  0  0  0  0  0  0  0  0  0
  150.2032  140.4637  154.5250 O   0  0  0  0  0  0  0  0  0  0  0  0
  152.6624  139.0286  154.3979 H   0  0  0  0  0  0  0  0  0  0  0  0
  151.3503  138.0652  155.0891 H   0  0  0  0  0  0  0  0  0  0  0  0
  152.9150  138.1206  155.8864 H   0  0  0  0  0  0  0  0  0  0  0  0
  151.9593  139.2850  158.0630 H   0  0  0  0  0  0  0  0  0  0  0  0
  153.4462  139.8422  157.3299 H   0  0  0  0  0  0  0  0  0  0  0  0
  152.8199  142.1501  157.5068 H   0  0  0  0  0  0  0  0  0  0  0  0
  151.9551  141.8904  160.0882 H   0  0  0  0  0  0  0  0  0  0  0  0
  153.0840  141.3962  161.7625 H   0  0  0  0  0  0  0  0  0  0  0  0
  154.1691  141.3402  164.0639 H   0  0  0  0  0  0  0  0  0  0  0  0
  156.2453  140.6862  167.3768 H   0  0  0  0  0  0  0  0  0  0  0  0
  154.7569  140.4334  166.4768 H   0  0  0  0  0  0  0  0  0  0  0  0
  155.7865  141.8123  166.1074 H   0  0  0  0  0  0  0  0  0  0  0  0
  158.0707  141.4457  164.9817 H   0  0  0  0  0  0  0  0  0  0  0  0
  158.6184  139.8168  164.6080 H   0  0  0  0  0  0  0  0  0  0  0  0
  158.4976  140.3390  166.2814 H   0  0  0  0  0  0  0  0  0  0  0  0
  156.9849  138.3321  166.8129 H   0  0  0  0  0  0  0  0  0  0  0  0
  157.1024  137.7965  165.1431 H   0  0  0  0  0  0  0  0  0  0  0  0
  155.5234  138.0556  165.8728 H   0  0  0  0  0  0  0  0  0  0  0  0
  150.0633  141.1816  158.4102 H   0  0  0  0  0  0  0  0  0  0  0  0
  150.5642  142.8547  158.3295 H   0  0  0  0  0  0  0  0  0  0  0  0
  149.2531  142.0653  156.3025 H   0  0  0  0  0  0  0  0  0  0  0  0
  150.7994  142.7907  155.9288 H   0  0  0  0  0  0  0  0  0  0  0  0
  1  2  1  0  0  0  0
  1 22  1  0  0  0  0
  1 23  1  0  0  0  0
  1 24  1  0  0  0  0
  2 20  1  0  0  0  0
  2  3  1  0  0  0  0
  3  4  1  0  0  0  0
  3 25  1  0  0  0  0
  3 26  1  0  0  0  0
  4  5  1  0  0  0  0
  4 18  1  0  0  0  0
  4 27  1  0  0  0  0
  5  6  1  0  0  0  0
  5 28  1  0  0  0  0
  6  7  2  0  0  0  0
  6  8  1  0  0  0  0
  8  9  1  0  0  0  0
  8 29  1  0  0  0  0
  9 17  2  0  0  0  0
  9 10  1  0  0  0  0
 10 11  2  0  0  0  0
 10 30  1  0  0  0  0
 11 12  1  0  0  0  0
 11 16  1  0  0  0  0
 12 13  1  0  0  0  0
 12 14  1  0  0  0  0
 12 15  1  0  0  0  0
 13 31  1  0  0  0  0
 13 32  1  0  0  0  0
 13 33  1  0  0  0  0
 14 34  1  0  0  0  0
 14 35  1  0  0  0  0
 14 36  1  0  0  0  0
 15 37  1  0  0  0  0
 15 38  1  0  0  0  0
 15 39  1  0  0  0  0
 16 17  1  0  0  0  0
 18 19  1  0  0  0  0
 18 40  1  0  0  0  0
 18 41  1  0  0  0  0
 19 20  1  0  0  0  0
 19 42  1  0  0  0  0
 19 43  1  0  0  0  0
 20 21  2  0  0  0  0
M  END
> <s_m_source_file>
AV-unprocessed.smi

> <i_m_source_file_index>
749

> <i_lp_mmshare_version>
43012

> <i_f3d_flags>
0

> <s_epik_input>
Tz1DMVtDSDJdW0NIMl1bQ0BASF0oW0NIMl1OMVtDSDNdKVtOSF1DKD1PKVtOSF1jMltjSF1jKG9uMilDKFtDSDNdKShbQ0gzXSlbQ0gzXQ==

> <s_epik_cmdline>
J2VwaWtfcHl0aG9uJywgJy1waCcsICc3LjAnLCAnLXRuJywgJzgnLCAnLW1hJywgJzIwMCcsICctbWV0YWxfYmluZGluZycsICctaW1hZScsICc8aW5maWxlLm1hZT4nLCAnLW9tYWUnLCAnPG91dGZpbGUubWFlPic=

> <r_lp_tautomer_probability>
1

> <r_epik_Ionization_Penalty>
2.91905e-05

> <r_epik_Ionization_Penalty_Charging>
0

> <r_epik_Ionization_Penalty_Neutral>
2.91905e-05

> <r_epik_State_Penalty>
-0

> <r_epik_Charging_Adjusted_Penalty>
0

> <i_epik_Tot_Q>
0

> <i_epik_Tot_abs_Q>
0

> <r_epik_Metal_State_Penalty>
0.0102923

> <b_epik_Metal_Only>
0

> <s_lp_Force_Field>
OPLS_2005

> <r_lp_Energy>
15.3042

> <b_lp_Chiralities_Consistent>
1

> <s_lp_Variant>
AV-unprocessed.smi:749-2

> <Gold.Version>
5.8.1

> <Gold.Id.Protein>
6NUR|6NUR_protein|mol2

> <Gold.PLP.Fitness>
34.6513

> <Gold.PLP.PLP>
-29.8220

> <Gold.PLP.part.hbond>
-2.0000

> <Gold.PLP.part.metal>
0.0000

> <Gold.PLP.part.buried>
-2.1072

> <Gold.PLP.part.nonpolar>
-24.1263

> <Gold.PLP.part.repulsive>
0.2430

> <Gold.PLP.ligand.clash>
0.0000

> <Gold.PLP.ligand.torsion>
0.2296

> <Gold.PLP.Chemscore.Hbond>
1.7624

> <Gold.PLP.Chemscore.CHOScore>
0.0000

> <Gold.PLP.Chemscore.Metal>
0.0000

> <Gold.Chemscore.Hbonds>
donor molecule, donor type, donor heavy atom, donor atom, acceptor molecule, acceptor atom, score
      P1  H  7989  7998       L1    21  0.76
      P1  H  7997  8009       L1     7  0.96

> <Gold.PLP.Chemscore.Internal.Correction>
0.0013

> <Gold.Rescore>
     Score         DG    S(hbond)    S(metal)    S(lipo)     H(rot)  DE(clash)    DE(int)     intcor
      9.99     -13.10       1.05        0.00      62.15       1.23       0.21       2.90       ----

> <Gold.Chemscore.Fitness>
9.9926

> <Gold.Chemscore.DG>
-13.1026

> <Gold.Chemscore.ZeroCoef>
-5.4800

> <Gold.Chemscore.Hbond>
1.0491

> <Gold.Chemscore.Metal>
0.0000

> <Gold.Chemscore.Lipo>
62.1496

> <Gold.Chemscore.Internal_Hbond>
0.0000

> <Gold.Chemscore.DEClash>
0.2112

> <Gold.Chemscore.DEInternal>
2.8987

> <Gold.Chemscore.Rot>
1.2317

> <Gold.Chemscore.Internal.Correction>
   9.000000E+99

> <Gold.Chemscore.Hbonds>
donor molecule, donor type, donor heavy atom, donor atom, acceptor molecule, acceptor atom, score
      P1  H  7989  7998       L1    21  0.11
      P1  H  7997  8009       L1     7  0.87

> <Gold.Chemscore.Hbond.Weighted>
-3.5041

> <Gold.Chemscore.Metal.Weighted>
-0.0000

> <Gold.Chemscore.Lipo.Weighted>
-7.2715

> <Gold.Chemscore.Internal_Hbond.Weighted>
0.0000

> <Gold.Chemscore.DEClash.Weighted>
0.2112

> <Gold.Chemscore.DEInternal.Weighted>
2.8987

> <Gold.Chemscore.Rot.Weighted>
3.1531

> <Gold.Chemscore.Internal.Correction.Weighted>
   9.000000E+99

> <Gold.Protein.RotatedTorsions>
[ 6907 6896 6895 6894 ] final   15.55 input  -60.11 | X-H torsion
[ 7974 7965 7964 7962 ] final  -98.34 input  175.53 | X-H torsion
[ 8008 7997 7996 7995 ] final  123.19 input   59.86 | X-H torsion
[ 10167 10162 10161 10158 ] final  -62.68 input  -65.29 | X-H torsion
[ 10718 10713 10712 10709 ] final   13.78 input   66.30 | X-H torsion
[ 10763 10752 10751 10750 ] final  -71.05 input  -60.55 | X-H torsion
[ 11005 11000 10999 10996 ] final   49.32 input  -57.11 | X-H torsion

> <Gold.Protein.ActiveResidues>
 VAL166  LYS551  ARG553  GLY616  TRP617  ASP618  TYR619  PRO620  LYS621  CYS622 
 ASP623  PHE694  ASN695  SER759  ASP760  ASP761  ALA762  ILE779  LEU786  VAL792 
 PHE793  MET794  SER795  GLU796  ALA797  LYS798  CYS799  TRP800  GLU811  SER814 

> <Gold.Protein.RotatedAtoms>
  151.8198  135.0655  160.0423 H   0  0  0  0  0  0  0  0  0  0  0  0  # atno 6907 bound_to 6896
  152.2959  133.5603  159.5596 H   0  0  0  0  0  0  0  0  0  0  0  0  # atno 6908 bound_to 6896
  150.7251  134.0277  159.3765 H   0  0  0  0  0  0  0  0  0  0  0  0  # atno 6909 bound_to 6896
  145.3219  140.9423  143.2711 H   0  0  0  0  0  0  0  0  0  0  0  0  # atno 7974 bound_to 7965
  156.2756  140.2768  156.1587 H   0  0  0  0  0  0  0  0  0  0  0  0  # atno 8008 bound_to 7997
  155.0776  140.0387  157.2646 H   0  0  0  0  0  0  0  0  0  0  0  0  # atno 8009 bound_to 7997
  154.6990  140.2645  155.6744 H   0  0  0  0  0  0  0  0  0  0  0  0  # atno 8010 bound_to 7997
  140.5922  143.2344  151.6113 H   0  0  0  0  0  0  0  0  0  0  0  0  # atno 10167 bound_to 10162
  157.0297  130.6188  149.5733 H   0  0  0  0  0  0  0  0  0  0  0  0  # atno 10718 bound_to 10713
  154.4262  135.5974  153.6040 H   0  0  0  0  0  0  0  0  0  0  0  0  # atno 10763 bound_to 10752
  152.9796  135.5964  154.3894 H   0  0  0  0  0  0  0  0  0  0  0  0  # atno 10764 bound_to 10752
  154.3726  135.2841  155.2236 H   0  0  0  0  0  0  0  0  0  0  0  0  # atno 10765 bound_to 10752
  140.1113  134.4951  155.8675 H   0  0  0  0  0  0  0  0  0  0  0  0  # atno 11005 bound_to 11000
  144.8933  139.4746  143.6667 LP  0  0  0  0  0  0  0  0  0  0  0  0  # atno 17320 bound_to 7965
  146.3079  139.7643  142.9042 LP  0  0  0  0  0  0  0  0  0  0  0  0  # atno 17321 bound_to 7965
  139.5235  144.3131  152.0975 LP  0  0  0  0  0  0  0  0  0  0  0  0  # atno 17342 bound_to 10162
  140.2298  144.4381  150.6305 LP  0  0  0  0  0  0  0  0  0  0  0  0  # atno 17343 bound_to 10162
  156.0074  130.5162  150.7875 LP  0  0  0  0  0  0  0  0  0  0  0  0  # atno 17370 bound_to 10713
  157.5187  131.0930  151.0106 LP  0  0  0  0  0  0  0  0  0  0  0  0  # atno 17371 bound_to 10713
  141.2131  133.6728  156.6711 LP  0  0  0  0  0  0  0  0  0  0  0  0  # atno 17394 bound_to 11000
  140.3087  134.8104  157.4158 LP  0  0  0  0  0  0  0  0  0  0  0  0  # atno 17395 bound_to 11000

$$$$
