#       Name:                AV-unprocessed.smi:1410
#       Creating user name   scv26
#       Creation time:       Fri Mar 27 05:36:37 2020


#       File generated by GOLD software.
#

@<TRIPOS>MOLECULE
AV-unprocessed.smi:1410
    45    46     1
SMALL
NO_CHARGES


@<TRIPOS>ATOM
      1 ****        -6.1043   2.0510   0.7810 N.am           1 S1                 0.0000
      2 ****        -5.1920   2.4958  -0.0867 C.2            1 S1                 0.0000
      3 ****        -4.8338   3.6713  -0.1184 O.2            1 S1                 0.0000
      4 ****        -4.5886   1.4721  -1.0561 C.3            1 S1                 0.0000
      5 ****        -3.1212   1.3084  -0.9417 N.3            1 S1                 0.0000
      6 ****        -2.6548   0.3994  -1.9938 C.3            1 S1                 0.0000
      7 ****        -1.1190   0.3103  -1.9917 C.3            1 S1                 0.0000
      8 ****        -0.5957  -0.1714  -0.6317 C.3            1 S1                 0.0000
      9 ****         0.8638  -0.1403  -0.6214 N.am           1 S1                 0.0000
     10 ****         1.6456  -0.8680   0.1889 C.2            1 S1                 0.0000
     11 ****         1.2077  -1.6487   1.0337 O.2            1 S1                 0.0000
     12 ****         2.9470  -0.6137  -0.0334 N.am           1 S1                 0.0000
     13 ****         4.0838  -1.1865   0.5997 C.ar           1 S1                 0.0000
     14 ****         5.3018  -0.4748   0.5226 C.ar           1 S1                 0.0000
     15 ****         6.4604  -1.0106   1.1211 C.ar           1 S1                 0.0000
     16 ****         6.4007  -2.2018   1.7541 N.pl3          1 S1                 1.0000
     17 ****         5.2640  -2.9253   1.8420 C.ar           1 S1                 0.0000
     18 ****         4.0735  -2.4406   1.2627 C.ar           1 S1                 0.0000
     19 ****        -1.1742   0.7296   0.4717 C.3            1 S1                 0.0000
     20 ****        -2.7082   0.8118   0.3794 C.3            1 S1                 0.0000
     21 ****        -6.5240   2.6927   1.4379 H              1 S1                 0.0000
     22 ****        -6.3699   1.0769   0.7802 H              1 S1                 0.0000
     23 ****        -5.0778   0.5048  -0.9241 H              1 S1                 0.0000
     24 ****        -4.8365   1.8074  -2.0643 H              1 S1                 0.0000
     25 ****        -3.0913  -0.5925  -1.8612 H              1 S1                 0.0000
     26 ****        -2.9835   0.7622  -2.9688 H              1 S1                 0.0000
     27 ****        -0.7888  -0.3668  -2.7804 H              1 S1                 0.0000
     28 ****        -0.6999   1.2898  -2.2289 H              1 S1                 0.0000
     29 ****        -0.9376  -1.1963  -0.4746 H              1 S1                 0.0000
     30 ****         1.3071   0.4818  -1.2816 H              1 S1                 0.0000
     31 ****         3.1455   0.1156  -0.7026 H              1 S1                 0.0000
     32 ****         5.3506   0.4776   0.0145 H              1 S1                 0.0000
     33 ****         7.4260  -0.5264   1.1104 H              1 S1                 0.0000
     34 ****         5.3406  -3.8677   2.3645 H              1 S1                 0.0000
     35 ****         3.1825  -3.0460   1.3284 H              1 S1                 0.0000
     36 ****        -0.8878   0.3528   1.4542 H              1 S1                 0.0000
     37 ****        -0.7539   1.7336   0.3922 H              1 S1                 0.0000
     38 ****        -3.0567   1.4738   1.1721 H              1 S1                 0.0000
     39 ****        -3.1517  -0.1674   0.5689 H              1 S1                 0.0000
     40 ****         7.2507  -2.5728   2.1797 H              1 S1                 0.0000
     41 ****        -5.2286   4.3317   0.5204 LP             1 S1                 0.0000
     42 ****        -4.1476   3.9671  -0.7829 LP             1 S1                 0.0000
     43 ****        -2.7038   2.2103  -1.0521 LP             1 S1                 0.0000
     44 ****         0.2205  -1.7656   1.1425 LP             1 S1                 0.0000
     45 ****         1.8391  -2.1661   1.6113 LP             1 S1                 0.0000
@<TRIPOS>BOND
    1    1    2 am    
    2    1   21 1     
    3    1   22 1     
    4    2    3 2     
    5    2    4 1     
    6    4    5 1     
    7    4   23 1     
    8    4   24 1     
    9    5   20 1     
   10    5    6 1     
   11    6    7 1     
   12    6   25 1     
   13    6   26 1     
   14    7    8 1     
   15    7   27 1     
   16    7   28 1     
   17    8    9 1     
   18    8   19 1     
   19    8   29 1     
   20    9   10 am    
   21    9   30 1     
   22   10   11 2     
   23   10   12 am    
   24   12   13 1     
   25   12   31 1     
   26   13   18 ar    
   27   13   14 ar    
   28   14   15 ar    
   29   14   32 1     
   30   15   16 ar    
   31   15   33 1     
   32   16   17 ar    
   33   16   40 1     
   34   17   18 ar    
   35   17   34 1     
   36   18   35 1     
   37   19   20 1     
   38   19   36 1     
   39   19   37 1     
   40   20   38 1     
   41   20   39 1     
   42    3   41 1     
   43    3   42 1     
   44    5   43 1     
   45   11   44 1     
   46   11   45 1     
@<TRIPOS>SUBSTRUCTURE
      1 S1             1
@<TRIPOS>SET
LONE_PAIRS      STATIC     ATOMS    <user>   **** ""
5 41 42 43 44 45
DONOR_HYDROGENS      STATIC     ATOMS    <user>   **** ""
5 21 22 30 31 40
ATOM$BLUE        STATIC     ATOMS    COLORGROUP SYSTEM
5 41 42 43 44 45
ATOM$RED        STATIC     ATOMS    COLORGROUP SYSTEM
5 21 22 30 31 40
