#       Name:                AV-unprocessed.smi:1907
#       Creating user name   scv26
#       Creation time:       Fri Mar 27 09:47:14 2020


#       File generated by GOLD software.
#

@<TRIPOS>MOLECULE
AV-unprocessed.smi:1907
    37    38     1
SMALL
NO_CHARGES


@<TRIPOS>ATOM
      1 ****         7.3457  -2.0569  -0.9221 N.am           1 S1                 0.0000
      2 ****         7.6979  -0.9912  -1.6467 C.2            1 S1                 0.0000
      3 ****         8.2934  -1.0917  -2.7171 O.2            1 S1                 0.0000
      4 ****         7.3331   0.3858  -1.0888 C.3            1 S1                 0.0000
      5 ****         5.9102   0.7246  -1.4255 C.2            1 S1                 0.0000
      6 ****         5.4668   1.4721  -2.4899 C.2            1 S1                 0.0000
      7 ****         3.7302   1.6293  -2.5017 S.3            1 S1                 0.0000
      8 ****         3.6695   0.6340  -1.0559 C.2            1 S1                 0.0000
      9 ****         2.4509   0.3296  -0.3967 N.am           1 S1                 0.0000
     10 ****         2.1420  -0.7053   0.4105 C.2            1 S1                 0.0000
     11 ****         3.0010  -1.5445   0.6788 O.2            1 S1                 0.0000
     12 ****         0.7300  -0.8397   1.0283 C.3            1 S1                 0.0000
     13 ****         0.7469  -1.4800   2.4286 C.3            1 S1                 0.0000
     14 ****         0.5667  -2.9932   2.2310 C.3            1 S1                 0.0000
     15 ****         0.1309  -3.1960   0.7740 C.3            1 S1                 0.0000
     16 ****        -0.1611  -1.7974   0.2237 C.3            1 S1                 0.0000
     17 ****         4.8739   0.2737  -0.6019 N.2            1 S1                 0.0000
     18 ****         7.5608  -2.9847  -1.2573 H              1 S1                 0.0000
     19 ****         6.8596  -1.9319  -0.0460 H              1 S1                 0.0000
     20 ****         7.4897   0.3948  -0.0092 H              1 S1                 0.0000
     21 ****         8.0134   1.1310  -1.5029 H              1 S1                 0.0000
     22 ****         6.0563   1.9400  -3.2645 H              1 S1                 0.0000
     23 ****         1.7049   0.9914  -0.5544 H              1 S1                 0.0000
     24 ****         0.2768   0.1473   1.1151 H              1 S1                 0.0000
     25 ****         1.6500  -1.2485   2.9956 H              1 S1                 0.0000
     26 ****        -0.0909  -1.0909   3.0086 H              1 S1                 0.0000
     27 ****         1.4993  -3.5248   2.4234 H              1 S1                 0.0000
     28 ****        -0.1787  -3.3835   2.9247 H              1 S1                 0.0000
     29 ****         0.9466  -3.6496   0.2096 H              1 S1                 0.0000
     30 ****        -0.7316  -3.8575   0.6875 H              1 S1                 0.0000
     31 ****        -1.2080  -1.5440   0.3962 H              1 S1                 0.0000
     32 ****         0.0086  -1.7422  -0.8525 H              1 S1                 0.0000
     33 ****         8.5311  -1.9951  -3.0741 LP             1 S1                 0.0000
     34 ****         8.5403  -0.2702  -3.2310 LP             1 S1                 0.0000
     35 ****         3.9218  -1.4566   0.2988 LP             1 S1                 0.0000
     36 ****         2.7782  -2.3144   1.2768 LP             1 S1                 0.0000
     37 ****         5.0178  -0.2584   0.2325 LP             1 S1                 0.0000
@<TRIPOS>BOND
    1    1    2 am    
    2    1   18 1     
    3    1   19 1     
    4    2    3 2     
    5    2    4 1     
    6    4    5 1     
    7    4   20 1     
    8    4   21 1     
    9    5   17 1     
   10    5    6 2     
   11    6    7 1     
   12    6   22 1     
   13    7    8 1     
   14    8    9 1     
   15    8   17 2     
   16    9   10 am    
   17    9   23 1     
   18   10   11 2     
   19   10   12 1     
   20   12   16 1     
   21   12   13 1     
   22   12   24 1     
   23   13   14 1     
   24   13   25 1     
   25   13   26 1     
   26   14   15 1     
   27   14   27 1     
   28   14   28 1     
   29   15   16 1     
   30   15   29 1     
   31   15   30 1     
   32   16   31 1     
   33   16   32 1     
   34    3   33 1     
   35    3   34 1     
   36   11   35 1     
   37   11   36 1     
   38   17   37 1     
@<TRIPOS>SUBSTRUCTURE
      1 S1             1
@<TRIPOS>SET
LONE_PAIRS      STATIC     ATOMS    <user>   **** ""
5 33 34 35 36 37
DONOR_HYDROGENS      STATIC     ATOMS    <user>   **** ""
3 18 19 23
ATOM$BLUE        STATIC     ATOMS    COLORGROUP SYSTEM
5 33 34 35 36 37
ATOM$RED        STATIC     ATOMS    COLORGROUP SYSTEM
3 18 19 23
