AV-unprocessed.smi:3221|AV-procd|sdf|12301|dock3
  -GOLD-   2272018143D 1   1.00000     0.00000
 Structure written by MMmdl.
 27 28  0  0  0  0  0  0  0  0  2 V2000
  152.1949  144.2118  157.9377 F   0  0  0  0  0  0  0  0  0  0  0  0
  151.5397  143.3473  158.7123 C   0  0  0  0  0  0  0  0  0  0  0  0
  152.2799  143.1426  159.8017 F   0  0  0  0  0  0  0  0  0  0  0  0
  150.4051  143.9314  159.0965 F   0  0  0  0  0  0  0  0  0  0  0  0
  151.2682  142.0569  157.9942 C   0  0  0  0  0  0  0  0  0  0  0  0
  151.6454  140.7941  158.3815 C   0  0  0  0  0  0  0  0  0  0  0  0
  151.1132  139.5779  157.2533 S   0  0  0  0  0  0  0  0  0  0  0  0
  150.3824  140.8467  156.2773 C   0  0  0  0  0  0  0  0  0  0  0  0
  149.6476  140.5797  155.0019 C   0  0  2  0  0  0  0  0  0  0  0  0
  148.1800  141.0434  155.0582 C   0  0  0  0  0  0  0  0  0  0  0  0
  147.4720  140.7465  153.7272 C   0  0  0  0  0  0  0  0  0  0  0  0
  147.6210  139.2647  153.3437 C   0  0  0  0  0  0  0  0  0  0  0  0
  149.0485  138.8822  153.2803 N   0  3  0  0  0  0  0  0  0  0  0  0
  149.7660  139.1085  154.5544 C   0  0  0  0  0  0  0  0  0  0  0  0
  150.5528  142.0680  156.7917 N   0  0  0  0  0  0  0  0  0  0  0  0
  152.2021  140.5067  159.2612 H   0  0  0  0  0  0  0  0  0  0  0  0
  150.1393  141.1824  154.2368 H   0  0  0  0  0  0  0  0  0  0  0  0
  147.6585  140.5315  155.8681 H   0  0  0  0  0  0  0  0  0  0  0  0
  148.1273  142.1103  155.2780 H   0  0  0  0  0  0  0  0  0  0  0  0
  146.4163  141.0092  153.7999 H   0  0  0  0  0  0  0  0  0  0  0  0
  147.8926  141.3735  152.9397 H   0  0  0  0  0  0  0  0  0  0  0  0
  147.1106  138.6309  154.0703 H   0  0  0  0  0  0  0  0  0  0  0  0
  147.1587  139.0758  152.3746 H   0  0  0  0  0  0  0  0  0  0  0  0
  149.1159  137.9044  153.0362 H   0  0  0  0  0  0  0  0  0  0  0  0
  150.8126  138.8321  154.4239 H   0  0  0  0  0  0  0  0  0  0  0  0
  149.3523  138.4430  155.3138 H   0  0  0  0  0  0  0  0  0  0  0  0
  149.4955  139.4294  152.5585 H   0  0  0  0  0  0  0  0  0  0  0  0
  1  2  1  0  0  0  0
  2  3  1  0  0  0  0
  2  4  1  0  0  0  0
  2  5  1  0  0  0  0
  5 15  1  0  0  0  0
  5  6  2  0  0  0  0
  6  7  1  0  0  0  0
  6 16  1  0  0  0  0
  7  8  1  0  0  0  0
  8  9  1  0  0  0  0
  8 15  2  0  0  0  0
  9 14  1  0  0  0  0
  9 10  1  0  0  0  0
  9 17  1  0  0  0  0
 10 11  1  0  0  0  0
 10 18  1  0  0  0  0
 10 19  1  0  0  0  0
 11 12  1  0  0  0  0
 11 20  1  0  0  0  0
 11 21  1  0  0  0  0
 12 13  1  0  0  0  0
 12 22  1  0  0  0  0
 12 23  1  0  0  0  0
 13 14  1  0  0  0  0
 13 24  1  0  0  0  0
 13 27  1  0  0  0  0
 14 25  1  0  0  0  0
 14 26  1  0  0  0  0
M  CHG  1  13   1
M  END
> <s_m_source_file>
AV-unprocessed.smi

> <i_m_source_file_index>
3221

> <i_lp_mmshare_version>
43012

> <i_f3d_flags>
0

> <s_epik_input>
RkMoRikoRiljMVtjSF1zYyhuMSlbQ0BASF0yW0NIMl1bQ0gyXVtDSDJdW05IXVtDSDJdMg==

> <s_epik_cmdline>
J2VwaWtfcHl0aG9uJywgJy1waCcsICc3LjAnLCAnLXRuJywgJzgnLCAnLW1hJywgJzIwMCcsICctbWV0YWxfYmluZGluZycsICctaW1hZScsICc8aW5maWxlLm1hZT4nLCAnLW9tYWUnLCAnPG91dGZpbGUubWFlPic=

> <r_epik_Ionization_Penalty>
0.000426856

> <r_epik_Ionization_Penalty_Charging>
0.000426856

> <r_epik_Ionization_Penalty_Neutral>
2.38238e-11

> <r_epik_State_Penalty>
0.00026276

> <r_epik_Charging_Adjusted_Penalty>
0.000689616

> <i_epik_Tot_Q>
1

> <i_epik_Tot_abs_Q>
1

> <r_epik_Metal_State_Penalty>
-0

> <b_epik_Metal_Only>
0

> <s_lp_Force_Field>
OPLS_2005

> <r_lp_Energy>
6.82196

> <b_lp_Chiralities_Consistent>
1

> <s_lp_Variant>
AV-unprocessed.smi:3221-1

> <Gold.Version>
5.8.1

> <Gold.Id.Protein>
6NUR|6NUR_protein|mol2

> <Gold.PLP.Fitness>
41.5837

> <Gold.PLP.PLP>
-32.7176

> <Gold.PLP.part.hbond>
-1.8051

> <Gold.PLP.part.metal>
0.0000

> <Gold.PLP.part.buried>
-4.5651

> <Gold.PLP.part.nonpolar>
-28.6533

> <Gold.PLP.part.repulsive>
0.2002

> <Gold.PLP.ligand.clash>
0.0000

> <Gold.PLP.ligand.torsion>
0.0803

> <Gold.PLP.Chemscore.Hbond>
2.9913

> <Gold.PLP.Chemscore.CHOScore>
0.0000

> <Gold.PLP.Chemscore.Metal>
0.0000

> <Gold.Chemscore.Hbonds>
donor molecule, donor type, donor heavy atom, donor atom, acceptor molecule, acceptor atom, score
      L1  H    13    24       P1  7948  2.00
      L1  H    13    27       P1  7957  0.99

> <Gold.PLP.Chemscore.Internal.Correction>
0.0529

> <Gold.Rescore>
     Score         DG    S(hbond)    S(metal)    S(lipo)     H(rot)  DE(clash)    DE(int)     intcor
     17.42     -17.60       1.95        0.00      69.71       1.00       0.15       0.03       ----

> <Gold.Chemscore.Fitness>
17.4245

> <Gold.Chemscore.DG>
-17.6034

> <Gold.Chemscore.ZeroCoef>
-5.4800

> <Gold.Chemscore.Hbond>
1.9542

> <Gold.Chemscore.Metal>
0.0000

> <Gold.Chemscore.Lipo>
69.7123

> <Gold.Chemscore.Internal_Hbond>
0.0000

> <Gold.Chemscore.DEClash>
0.1473

> <Gold.Chemscore.DEInternal>
0.0315

> <Gold.Chemscore.Rot>
1.0000

> <Gold.Chemscore.Internal.Correction>
   9.000000E+99

> <Gold.Chemscore.Hbonds>
donor molecule, donor type, donor heavy atom, donor atom, acceptor molecule, acceptor atom, score
      L1  H    13    24       P1  7948  0.93
      L1  H    13    27       P1  7957  0.90

> <Gold.Chemscore.Hbond.Weighted>
-6.5270

> <Gold.Chemscore.Metal.Weighted>
-0.0000

> <Gold.Chemscore.Lipo.Weighted>
-8.1563

> <Gold.Chemscore.Internal_Hbond.Weighted>
0.0000

> <Gold.Chemscore.DEClash.Weighted>
0.1473

> <Gold.Chemscore.DEInternal.Weighted>
0.0315

> <Gold.Chemscore.Rot.Weighted>
2.5600

> <Gold.Chemscore.Internal.Correction.Weighted>
   9.000000E+99

> <Gold.Protein.RotatedTorsions>
[ 6907 6896 6895 6894 ] final  128.79 input  -60.11 | X-H torsion
[ 7974 7965 7964 7962 ] final   -5.05 input  175.53 | X-H torsion
[ 8008 7997 7996 7995 ] final   73.73 input   59.86 | X-H torsion
[ 10167 10162 10161 10158 ] final  -23.91 input  -65.29 | X-H torsion
[ 10718 10713 10712 10709 ] final -124.82 input   66.30 | X-H torsion
[ 10763 10752 10751 10750 ] final  -67.91 input  -60.55 | X-H torsion
[ 11005 11000 10999 10996 ] final   12.71 input  -57.11 | X-H torsion

> <Gold.Protein.ActiveResidues>
 VAL166  LYS551  ARG553  GLY616  TRP617  ASP618  TYR619  PRO620  LYS621  CYS622 
 ASP623  PHE694  ASN695  SER759  ASP760  ASP761  ALA762  ILE779  LEU786  VAL792 
 PHE793  MET794  SER795  GLU796  ALA797  LYS798  CYS799  TRP800  GLU811  SER814 

> <Gold.Protein.RotatedAtoms>
  152.3686  133.6389  159.6069 H   0  0  0  0  0  0  0  0  0  0  0  0  # atno 6907 bound_to 6896
  150.7652  133.9308  159.3435 H   0  0  0  0  0  0  0  0  0  0  0  0  # atno 6908 bound_to 6896
  151.7134  135.0909  160.0323 H   0  0  0  0  0  0  0  0  0  0  0  0  # atno 6909 bound_to 6896
  146.2360  140.1963  142.8333 H   0  0  0  0  0  0  0  0  0  0  0  0  # atno 7974 bound_to 7965
  155.7880  140.3480  155.5333 H   0  0  0  0  0  0  0  0  0  0  0  0  # atno 8008 bound_to 7997
  155.8662  140.0979  157.1601 H   0  0  0  0  0  0  0  0  0  0  0  0  # atno 8009 bound_to 7997
  154.4014  140.1349  156.4009 H   0  0  0  0  0  0  0  0  0  0  0  0  # atno 8010 bound_to 7997
  140.7288  143.4400  151.0671 H   0  0  0  0  0  0  0  0  0  0  0  0  # atno 10167 bound_to 10162
  156.1621  130.6609  151.0064 H   0  0  0  0  0  0  0  0  0  0  0  0  # atno 10718 bound_to 10713
  154.3813  135.6073  153.5792 H   0  0  0  0  0  0  0  0  0  0  0  0  # atno 10763 bound_to 10752
  152.9788  135.5861  154.4406 H   0  0  0  0  0  0  0  0  0  0  0  0  # atno 10764 bound_to 10752
  154.4176  135.2845  155.1974 H   0  0  0  0  0  0  0  0  0  0  0  0  # atno 10765 bound_to 10752
  140.4889  134.0860  155.7767 H   0  0  0  0  0  0  0  0  0  0  0  0  # atno 11005 bound_to 11000
  144.9818  140.8466  143.5393 LP  0  0  0  0  0  0  0  0  0  0  0  0  # atno 17320 bound_to 7965
  145.1957  139.2278  143.5219 LP  0  0  0  0  0  0  0  0  0  0  0  0  # atno 17321 bound_to 7965
  139.8066  143.8009  152.3168 LP  0  0  0  0  0  0  0  0  0  0  0  0  # atno 17342 bound_to 10162
  139.8044  144.7361  150.9781 LP  0  0  0  0  0  0  0  0  0  0  0  0  # atno 17343 bound_to 10162
  157.6740  131.0855  150.7540 LP  0  0  0  0  0  0  0  0  0  0  0  0  # atno 17370 bound_to 10713
  156.7603  130.4796  149.5438 LP  0  0  0  0  0  0  0  0  0  0  0  0  # atno 17371 bound_to 10713
  141.1494  133.8996  157.2136 LP  0  0  0  0  0  0  0  0  0  0  0  0  # atno 17394 bound_to 11000
  139.9781  135.0107  156.9682 LP  0  0  0  0  0  0  0  0  0  0  0  0  # atno 17395 bound_to 11000

$$$$
