AV-unprocessed.smi:139|AV-procd|sdf|1183|dock2
  -GOLD-   2262018333D 1   1.00000     0.00000
 Structure written by MMmdl.
 50 53  0  0  0  0  0  0  0  0  1 V2000
  152.5232  139.9330  156.2787 O   0  0  0  0  0  0  0  0  0  0  0  0
  152.2059  139.5305  157.3986 C   0  0  0  0  0  0  0  0  0  0  0  0
  151.8535  138.0541  157.6284 C   0  0  0  0  0  0  0  0  0  0  0  0
  150.4224  137.8501  157.9408 N   0  0  0  0  0  0  0  0  0  0  0  0
  149.4443  138.3461  157.0437 C   0  0  0  0  0  0  0  0  0  0  0  0
  149.7637  138.9283  156.0064 O   0  0  0  0  0  0  0  0  0  0  0  0
  148.0580  138.1259  157.4401 C   0  0  0  0  0  0  0  0  0  0  0  0
  147.0628  138.5646  156.6509 F   0  0  0  0  0  0  0  0  0  0  0  0
  147.7557  137.4896  158.5905 C   0  0  0  0  0  0  0  0  0  0  0  0
  148.7213  137.0076  159.4565 N   0  0  0  0  0  0  0  0  0  0  0  0
  148.3660  136.3118  160.7543 C   0  0  2  0  0  0  0  0  0  0  0  0
  147.6063  134.9996  160.4782 C   0  0  0  0  0  0  0  0  0  0  0  0
  146.3631  135.1425  161.3340 C   0  0  0  0  0  0  0  0  0  0  0  0
  146.1797  136.6518  161.3763 C   0  0  0  0  0  0  0  0  0  0  0  0
  147.5136  137.1229  161.5119 O   0  0  0  0  0  0  0  0  0  0  0  0
  150.0866  137.1939  159.1493 C   0  0  0  0  0  0  0  0  0  0  0  0
  150.9634  136.7953  159.9200 O   0  0  0  0  0  0  0  0  0  0  0  0
  152.1395  140.3246  158.4804 N   0  0  0  0  0  0  0  0  0  0  0  0
  152.3637  141.7718  158.5189 C   0  0  1  0  0  0  0  0  0  0  0  0
  151.2976  142.5295  157.7006 C   0  0  0  0  0  0  0  0  0  0  0  0
  151.4342  144.0437  157.8708 C   0  0  0  0  0  0  0  0  0  0  0  0
  151.2557  144.4489  159.3382 C   0  0  0  0  0  0  0  0  0  0  0  0
  152.0759  143.6050  160.3024 C   0  0  0  0  0  0  0  0  0  0  0  0
  152.3096  144.1010  161.6025 C   0  0  0  0  0  0  0  0  0  0  0  0
  153.0528  143.3497  162.5311 C   0  0  0  0  0  0  0  0  0  0  0  0
  153.5695  142.0949  162.1631 C   0  0  0  0  0  0  0  0  0  0  0  0
  153.3408  141.5933  160.8684 C   0  0  0  0  0  0  0  0  0  0  0  0
  152.5859  142.3340  159.9288 C   0  0  0  0  0  0  0  0  0  0  0  0
  152.1641  137.4905  156.7479 H   0  0  0  0  0  0  0  0  0  0  0  0
  152.4726  137.6530  158.4333 H   0  0  0  0  0  0  0  0  0  0  0  0
  146.7098  137.3653  158.8259 H   0  0  0  0  0  0  0  0  0  0  0  0
  149.3105  136.1795  161.2846 H   0  0  0  0  0  0  0  0  0  0  0  0
  147.3364  134.9322  159.4232 H   0  0  0  0  0  0  0  0  0  0  0  0
  148.2127  134.1338  160.7448 H   0  0  0  0  0  0  0  0  0  0  0  0
  145.4997  134.6179  160.9245 H   0  0  0  0  0  0  0  0  0  0  0  0
  146.5523  134.7613  162.3384 H   0  0  0  0  0  0  0  0  0  0  0  0
  145.7430  137.0167  160.4457 H   0  0  0  0  0  0  0  0  0  0  0  0
  145.5516  136.9788  162.2050 H   0  0  0  0  0  0  0  0  0  0  0  0
  151.8749  139.8932  159.3540 H   0  0  0  0  0  0  0  0  0  0  0  0
  153.3161  141.9251  158.0100 H   0  0  0  0  0  0  0  0  0  0  0  0
  151.3685  142.2560  156.6474 H   0  0  0  0  0  0  0  0  0  0  0  0
  150.2956  142.2446  158.0233 H   0  0  0  0  0  0  0  0  0  0  0  0
  152.4206  144.3543  157.5240 H   0  0  0  0  0  0  0  0  0  0  0  0
  150.7075  144.5663  157.2478 H   0  0  0  0  0  0  0  0  0  0  0  0
  151.5120  145.5017  159.4626 H   0  0  0  0  0  0  0  0  0  0  0  0
  150.2069  144.3476  159.6191 H   0  0  0  0  0  0  0  0  0  0  0  0
  151.9150  145.0639  161.8927 H   0  0  0  0  0  0  0  0  0  0  0  0
  153.2271  143.7362  163.5244 H   0  0  0  0  0  0  0  0  0  0  0  0
  154.1426  141.5170  162.8729 H   0  0  0  0  0  0  0  0  0  0  0  0
  153.7502  140.6302  160.6017 H   0  0  0  0  0  0  0  0  0  0  0  0
  1  2  2  0  0  0  0
  2  3  1  0  0  0  0
  2 18  1  0  0  0  0
  3  4  1  0  0  0  0
  3 29  1  0  0  0  0
  3 30  1  0  0  0  0
  4 16  1  0  0  0  0
  4  5  1  0  0  0  0
  5  6  2  0  0  0  0
  5  7  1  0  0  0  0
  7  8  1  0  0  0  0
  7  9  2  0  0  0  0
  9 10  1  0  0  0  0
  9 31  1  0  0  0  0
 10 11  1  0  0  0  0
 10 16  1  0  0  0  0
 11 15  1  0  0  0  0
 11 12  1  0  0  0  0
 11 32  1  0  0  0  0
 12 13  1  0  0  0  0
 12 33  1  0  0  0  0
 12 34  1  0  0  0  0
 13 14  1  0  0  0  0
 13 35  1  0  0  0  0
 13 36  1  0  0  0  0
 14 15  1  0  0  0  0
 14 37  1  0  0  0  0
 14 38  1  0  0  0  0
 16 17  2  0  0  0  0
 18 19  1  0  0  0  0
 18 39  1  0  0  0  0
 19 28  1  0  0  0  0
 19 20  1  0  0  0  0
 19 40  1  0  0  0  0
 20 21  1  0  0  0  0
 20 41  1  0  0  0  0
 20 42  1  0  0  0  0
 21 22  1  0  0  0  0
 21 43  1  0  0  0  0
 21 44  1  0  0  0  0
 22 23  1  0  0  0  0
 22 45  1  0  0  0  0
 22 46  1  0  0  0  0
 23 28  2  0  0  0  0
 23 24  1  0  0  0  0
 24 25  2  0  0  0  0
 24 47  1  0  0  0  0
 25 26  1  0  0  0  0
 25 48  1  0  0  0  0
 26 27  2  0  0  0  0
 26 49  1  0  0  0  0
 27 28  1  0  0  0  0
 27 50  1  0  0  0  0
M  END
> <s_m_source_file>
AV-unprocessed.smi

> <i_m_source_file_index>
139

> <i_lp_mmshare_version>
43012

> <i_f3d_flags>
0

> <s_epik_input>
W2NIXTFbY0hdW2NIXVtjSF1jKGMxMilbQ0BASF0oW0NIMl1bQ0gyXVtDSDJdMilbTkhdQyg9TylbQ0gyXW4zYyg9TyljKEYpW2NIXW4oYzM9TylbQ0BASF00W0NIMl1bQ0gyXVtDSDJdTzQ=

> <s_epik_cmdline>
J2VwaWtfcHl0aG9uJywgJy1waCcsICc3LjAnLCAnLXRuJywgJzgnLCAnLW1hJywgJzIwMCcsICctbWV0YWxfYmluZGluZycsICctaW1hZScsICc8aW5maWxlLm1hZT4nLCAnLW9tYWUnLCAnPG91dGZpbGUubWFlPic=

> <r_lp_tautomer_probability>
1

> <r_epik_Ionization_Penalty>
3.261e-08

> <r_epik_Ionization_Penalty_Charging>
3.6725e-09

> <r_epik_Ionization_Penalty_Neutral>
2.89375e-08

> <r_epik_State_Penalty>
-0

> <r_epik_Charging_Adjusted_Penalty>
3.6725e-09

> <i_epik_Tot_Q>
0

> <i_epik_Tot_abs_Q>
0

> <r_epik_Metal_State_Penalty>
-0

> <b_epik_Metal_Only>
0

> <s_epik_Chemistry_Notes>
This compound contains an acetal/aminal-like group ( X-CH(R)-Y where X, Y are N, S, or O) that may be acid/base labile, releasing an aldehyde.

> <s_lp_Force_Field>
OPLS_2005

> <r_lp_Energy>
30.9596

> <b_lp_Chiralities_Consistent>
1

> <s_lp_Variant>
AV-unprocessed.smi:139-3

> <Gold.Version>
5.8.1

> <Gold.Id.Protein>
6NUR|6NUR_protein|mol2

> <Gold.PLP.Fitness>
60.2568

> <Gold.PLP.PLP>
-50.7463

> <Gold.PLP.part.hbond>
-4.0000

> <Gold.PLP.part.metal>
0.0000

> <Gold.PLP.part.buried>
-5.9268

> <Gold.PLP.part.nonpolar>
-41.8695

> <Gold.PLP.part.repulsive>
0.1095

> <Gold.PLP.ligand.clash>
0.0000

> <Gold.PLP.ligand.torsion>
0.2344

> <Gold.PLP.Chemscore.Hbond>
3.2992

> <Gold.PLP.Chemscore.CHOScore>
0.0000

> <Gold.PLP.Chemscore.Metal>
0.0000

> <Gold.Chemscore.Hbonds>
donor molecule, donor type, donor heavy atom, donor atom, acceptor molecule, acceptor atom, score
      P1  H  6896  6909       L1    17  1.00
      P1  H  6931  6943       L1    15  0.44
      P1  H  6934  6947       L1    15  0.78
      P1  H  7997  8008       L1     1  1.00

> <Gold.PLP.Chemscore.Internal.Correction>
0.0816

> <Gold.Rescore>
     Score         DG    S(hbond)    S(metal)    S(lipo)     H(rot)  DE(clash)    DE(int)     intcor
     22.85     -25.44       2.84        0.00     129.18       1.82       0.07       2.52       ----

> <Gold.Chemscore.Fitness>
22.8488

> <Gold.Chemscore.DG>
-25.4386

> <Gold.Chemscore.ZeroCoef>
-5.4800

> <Gold.Chemscore.Hbond>
2.8434

> <Gold.Chemscore.Metal>
0.0000

> <Gold.Chemscore.Lipo>
129.1810

> <Gold.Chemscore.Internal_Hbond>
0.0000

> <Gold.Chemscore.DEClash>
0.0699

> <Gold.Chemscore.DEInternal>
2.5199

> <Gold.Chemscore.Rot>
1.8174

> <Gold.Chemscore.Internal.Correction>
   9.000000E+99

> <Gold.Chemscore.Hbonds>
donor molecule, donor type, donor heavy atom, donor atom, acceptor molecule, acceptor atom, score
      P1  H  6896  6909       L1    17  0.98
      P1  H  6931  6943       L1    15  0.01
      P1  H  6934  6947       L1    15  0.14
      P1  H  7997  8008       L1     1  0.78

> <Gold.Chemscore.Hbond.Weighted>
-9.4969

> <Gold.Chemscore.Metal.Weighted>
-0.0000

> <Gold.Chemscore.Lipo.Weighted>
-15.1142

> <Gold.Chemscore.Internal_Hbond.Weighted>
0.0000

> <Gold.Chemscore.DEClash.Weighted>
0.0699

> <Gold.Chemscore.DEInternal.Weighted>
2.5199

> <Gold.Chemscore.Rot.Weighted>
4.6524

> <Gold.Chemscore.Internal.Correction.Weighted>
   9.000000E+99

> <Gold.Protein.RotatedTorsions>
[ 6907 6896 6895 6894 ] final  108.78 input  -60.11 | X-H torsion
[ 7974 7965 7964 7962 ] final -137.88 input  175.53 | X-H torsion
[ 8008 7997 7996 7995 ] final  -31.58 input   59.86 | X-H torsion
[ 10167 10162 10161 10158 ] final  152.74 input  -65.29 | X-H torsion
[ 10718 10713 10712 10709 ] final -152.86 input   66.30 | X-H torsion
[ 10763 10752 10751 10750 ] final -119.63 input  -60.55 | X-H torsion
[ 11005 11000 10999 10996 ] final  -58.44 input  -57.11 | X-H torsion

> <Gold.Protein.ActiveResidues>
 VAL166  LYS551  ARG553  GLY616  TRP617  ASP618  TYR619  PRO620  LYS621  CYS622 
 ASP623  PHE694  ASN695  SER759  ASP760  ASP761  ALA762  ILE779  LEU786  VAL792 
 PHE793  MET794  SER795  GLU796  ALA797  LYS798  CYS799  TRP800  GLU811  SER814 

> <Gold.Protein.RotatedAtoms>
  152.5097  133.9040  159.7454 H   0  0  0  0  0  0  0  0  0  0  0  0  # atno 6907 bound_to 6896
  150.9449  133.6606  159.2790 H   0  0  0  0  0  0  0  0  0  0  0  0  # atno 6908 bound_to 6896
  151.3905  135.0960  159.9577 H   0  0  0  0  0  0  0  0  0  0  0  0  # atno 6909 bound_to 6896
  144.8805  140.6500  143.5209 H   0  0  0  0  0  0  0  0  0  0  0  0  # atno 7974 bound_to 7965
  154.4209  140.1760  156.1590 H   0  0  0  0  0  0  0  0  0  0  0  0  # atno 8008 bound_to 7997
  155.9853  140.3374  155.6677 H   0  0  0  0  0  0  0  0  0  0  0  0  # atno 8009 bound_to 7997
  155.6445  140.0683  157.2598 H   0  0  0  0  0  0  0  0  0  0  0  0  # atno 8010 bound_to 7997
  139.4831  144.5332  151.7687 H   0  0  0  0  0  0  0  0  0  0  0  0  # atno 10167 bound_to 10162
  156.4781  130.8290  151.2518 H   0  0  0  0  0  0  0  0  0  0  0  0  # atno 10718 bound_to 10713
  154.8622  135.4231  154.2329 H   0  0  0  0  0  0  0  0  0  0  0  0  # atno 10763 bound_to 10752
  153.3310  135.6988  153.6953 H   0  0  0  0  0  0  0  0  0  0  0  0  # atno 10764 bound_to 10752
  153.5970  135.3544  155.2905 H   0  0  0  0  0  0  0  0  0  0  0  0  # atno 10765 bound_to 10752
  141.1207  133.6612  156.4921 H   0  0  0  0  0  0  0  0  0  0  0  0  # atno 11005 bound_to 11000
  145.3963  139.1606  143.4202 LP  0  0  0  0  0  0  0  0  0  0  0  0  # atno 17320 bound_to 7965
  146.2991  140.4056  142.8710 LP  0  0  0  0  0  0  0  0  0  0  0  0  # atno 17321 bound_to 7965
  140.4862  144.1378  150.5941 LP  0  0  0  0  0  0  0  0  0  0  0  0  # atno 17342 bound_to 10162
  140.4223  143.2606  151.9700 LP  0  0  0  0  0  0  0  0  0  0  0  0  # atno 17343 bound_to 10162
  157.7486  131.0054  150.3112 LP  0  0  0  0  0  0  0  0  0  0  0  0  # atno 17370 bound_to 10713
  156.3550  130.3837  149.7298 LP  0  0  0  0  0  0  0  0  0  0  0  0  # atno 17371 bound_to 10713
  140.4515  134.6925  157.5041 LP  0  0  0  0  0  0  0  0  0  0  0  0  # atno 17394 bound_to 11000
  140.0163  134.6615  155.9305 LP  0  0  0  0  0  0  0  0  0  0  0  0  # atno 17395 bound_to 11000

$$$$
