#       Name:                AV-unprocessed.smi:479
#       Creating user name   scv26
#       Creation time:       Thu Mar 26 23:09:19 2020


#       File generated by GOLD software.
#

@<TRIPOS>MOLECULE
AV-unprocessed.smi:479
    54    56     1
SMALL
NO_CHARGES


@<TRIPOS>ATOM
      1 ****        -0.8892   3.4130   0.4819 C.3            1 S1                 0.0000
      2 ****        -0.2583   2.1930   0.8413 O.3            1 S1                 0.0000
      3 ****        -1.0487   1.0902   1.0926 C.ar           1 S1                 0.0000
      4 ****        -2.4660   1.1128   1.0428 C.ar           1 S1                 0.0000
      5 ****        -3.2230  -0.0501   1.3148 C.ar           1 S1                 0.0000
      6 ****        -4.7136  -0.0505   1.2666 C.2            1 S1                 0.0000
      7 ****        -5.4190   1.2585   0.9152 C.3            1 S1                 0.0000
      8 ****        -5.3991  -1.0471   1.4929 O.2            1 S1                 0.0000
      9 ****        -2.5432  -1.2419   1.6421 C.ar           1 S1                 0.0000
     10 ****        -1.1389  -1.2748   1.6925 C.ar           1 S1                 0.0000
     11 ****        -0.3800  -0.1124   1.4130 C.ar           1 S1                 0.0000
     12 ****         0.9995  -0.0771   1.4290 O.3            1 S1                 0.0000
     13 ****         1.7080  -1.2809   1.6968 C.3            1 S1                 0.0000
     14 ****         3.2191  -1.0611   1.4962 C.3            1 S1                 0.0000
     15 ****         3.7474  -0.3532   2.5974 O.3            1 S1                 0.0000
     16 ****         3.6157  -0.3674   0.1766 C.3            1 S1                 0.0000
     17 ****         3.0208  -1.0151  -1.0031 N.pl3          1 S1                 0.0000
     18 ****         3.2948  -2.2329  -1.5453 C.2            1 S1                 0.0000
     19 ****         2.4739  -2.4020  -2.6178 N.pl3          1 S1                 1.0000
     20 ****         1.6683  -1.2723  -2.7712 C.ar           1 S1                 0.0000
     21 ****         0.6827  -0.9808  -3.7094 C.ar           1 S1                 0.0000
     22 ****         0.0422   0.2697  -3.5876 C.ar           1 S1                 0.0000
     23 ****         0.3925   1.1766  -2.5671 C.ar           1 S1                 0.0000
     24 ****         1.3972   0.8721  -1.6260 C.ar           1 S1                 0.0000
     25 ****         2.0207  -0.3703  -1.7441 C.ar           1 S1                 0.0000
     26 ****        -0.1270   4.1728   0.3094 H              1 S1                 0.0000
     27 ****        -1.5413   3.7756   1.2774 H              1 S1                 0.0000
     28 ****        -1.4634   3.3077  -0.4396 H              1 S1                 0.0000
     29 ****        -2.9789   2.0284   0.7956 H              1 S1                 0.0000
     30 ****        -5.1771   2.0312   1.6451 H              1 S1                 0.0000
     31 ****        -6.5004   1.1196   0.9123 H              1 S1                 0.0000
     32 ****        -5.1177   1.6014  -0.0746 H              1 S1                 0.0000
     33 ****        -3.0921  -2.1471   1.8591 H              1 S1                 0.0000
     34 ****        -0.6680  -2.2110   1.9501 H              1 S1                 0.0000
     35 ****         1.5018  -1.6344   2.7083 H              1 S1                 0.0000
     36 ****         1.3792  -2.0571   1.0040 H              1 S1                 0.0000
     37 ****         3.6949  -2.0423   1.5181 H              1 S1                 0.0000
     38 ****         3.5454  -0.8299   3.3881 H              1 S1                 0.0000
     39 ****         3.3417   0.6861   0.1984 H              1 S1                 0.0000
     40 ****         4.6987  -0.3962   0.0499 H              1 S1                 0.0000
     41 ****         4.0242  -2.9425  -1.1820 H              1 S1                 0.0000
     42 ****         0.4138  -1.6736  -4.4935 H              1 S1                 0.0000
     43 ****        -0.7321   0.5392  -4.2912 H              1 S1                 0.0000
     44 ****        -0.1195   2.1257  -2.5028 H              1 S1                 0.0000
     45 ****         1.6499   1.5785  -0.8500 H              1 S1                 0.0000
     46 ****         2.4661  -3.2290  -3.2012 H              1 S1                 0.0000
     47 ****         0.2740   2.3691   1.6693 LP             1 S1                 0.0000
     48 ****         0.3592   1.9490   0.0936 LP             1 S1                 0.0000
     49 ****        -4.9590  -1.9149   1.7235 LP             1 S1                 0.0000
     50 ****        -6.3964  -0.9892   1.4461 LP             1 S1                 0.0000
     51 ****         1.2693   0.5855   2.1276 LP             1 S1                 0.0000
     52 ****         1.2965   0.2462   0.5305 LP             1 S1                 0.0000
     53 ****         3.3378   0.5581   2.6397 LP             1 S1                 0.0000
     54 ****         4.7389  -0.2688   2.4991 LP             1 S1                 0.0000
@<TRIPOS>BOND
    1    1    2 1     
    2    1   26 1     
    3    1   27 1     
    4    1   28 1     
    5    2    3 1     
    6    3   11 ar    
    7    3    4 ar    
    8    4    5 ar    
    9    4   29 1     
   10    5    6 1     
   11    5    9 ar    
   12    6    7 1     
   13    6    8 2     
   14    7   30 1     
   15    7   31 1     
   16    7   32 1     
   17    9   10 ar    
   18    9   33 1     
   19   10   11 ar    
   20   10   34 1     
   21   11   12 1     
   22   12   13 1     
   23   13   14 1     
   24   13   35 1     
   25   13   36 1     
   26   14   15 1     
   27   14   16 1     
   28   14   37 1     
   29   15   38 1     
   30   16   17 1     
   31   16   39 1     
   32   16   40 1     
   33   17   25 1     
   34   17   18 1     
   35   18   19 2     
   36   18   41 1     
   37   19   20 1     
   38   19   46 1     
   39   20   25 ar    
   40   20   21 ar    
   41   21   22 ar    
   42   21   42 1     
   43   22   23 ar    
   44   22   43 1     
   45   23   24 ar    
   46   23   44 1     
   47   24   25 ar    
   48   24   45 1     
   49    2   47 1     
   50    2   48 1     
   51    8   49 1     
   52    8   50 1     
   53   12   51 1     
   54   12   52 1     
   55   15   53 1     
   56   15   54 1     
@<TRIPOS>SUBSTRUCTURE
      1 S1             1
@<TRIPOS>SET
LONE_PAIRS      STATIC     ATOMS    <user>   **** ""
8 47 48 49 50 51 52 53 54
DONOR_HYDROGENS      STATIC     ATOMS    <user>   **** ""
2 38 46
ATOM$BLUE        STATIC     ATOMS    COLORGROUP SYSTEM
8 47 48 49 50 51 52 53 54
ATOM$RED        STATIC     ATOMS    COLORGROUP SYSTEM
2 38 46
