#       Name:                AV-unprocessed.smi:174
#       Creating user name   scv26
#       Creation time:       Thu Mar 26 19:20:28 2020


#       File generated by GOLD software.
#

@<TRIPOS>MOLECULE
AV-unprocessed.smi:174
    62    65     1
SMALL
NO_CHARGES


@<TRIPOS>ATOM
      1 ****        -8.5657  -0.0254  -0.0012 N.am           1 S1                 0.0000
      2 ****        -7.2343   0.0672   0.0205 C.2            1 S1                 0.0000
      3 ****        -6.5164  -0.9045   0.2525 O.2            1 S1                 0.0000
      4 ****        -6.6389   1.4507  -0.2783 C.3            1 S1                 0.0000
      5 ****        -5.2030   1.5446   0.0254 N.am           1 S1                 0.0000
      6 ****        -4.2871   1.3628  -1.1042 C.3            1 S1                 0.0000
      7 ****        -2.9742   0.6980  -0.6792 C.3            1 S1                 0.0000
      8 ****        -2.3758   1.4285   0.4311 N.pl3          1 S1                 0.0000
      9 ****        -1.0454   1.2971   0.6950 C.ar           1 S1                 0.0000
     10 ****        -0.4638   2.2414   1.4823 N.ar           1 S1                 0.0000
     11 ****         0.8370   2.1807   1.7777 C.ar           1 S1                 0.0000
     12 ****         1.7351   1.2712   1.4005 N.ar           1 S1                 0.0000
     13 ****         1.1650   0.3119   0.6181 C.ar           1 S1                 0.0000
     14 ****        -0.2022   0.2458   0.2173 C.ar           1 S1                 0.0000
     15 ****        -0.3950  -0.8877  -0.5678 N.2            1 S1                 0.0000
     16 ****         0.7815  -1.4468  -0.6348 C.2            1 S1                 0.0000
     17 ****         1.7770  -0.7910   0.0493 N.pl3          1 S1                 0.0000
     18 ****         3.1697  -1.1914   0.1446 C.3            1 S1                 0.0000
     19 ****         3.9967  -0.7129  -1.0672 C.3            1 S1                 0.0000
     20 ****         4.0274   0.6999  -1.1126 O.3            1 S1                 0.0000
     21 ****         5.4421  -1.2505  -1.1095 C.3            1 S1                 0.0000
     22 ****         6.3390  -0.9122   0.0852 C.3            1 S1                 0.0000
     23 ****         7.3698  -2.0148   0.0036 C.3            1 S1                 0.0000
     24 ****         6.5139  -3.2075  -0.4136 C.3            1 S1                 0.0000
     25 ****         5.4539  -2.6732  -1.2030 O.3            1 S1                 0.0000
     26 ****        -3.2371   1.8740   1.5390 C.3            1 S1                 0.0000
     27 ****        -4.7539   1.8220   1.2736 C.2            1 S1                 0.0000
     28 ****        -5.5135   2.0228   2.2217 O.2            1 S1                 0.0000
     29 ****        -9.0088  -0.9121   0.1907 H              1 S1                 0.0000
     30 ****        -9.1252   0.7893  -0.2066 H              1 S1                 0.0000
     31 ****        -6.8096   1.6776  -1.3316 H              1 S1                 0.0000
     32 ****        -7.1943   2.2100   0.2753 H              1 S1                 0.0000
     33 ****        -4.7556   0.7602  -1.8835 H              1 S1                 0.0000
     34 ****        -4.0852   2.3411  -1.5427 H              1 S1                 0.0000
     35 ****        -3.1550  -0.3353  -0.3790 H              1 S1                 0.0000
     36 ****        -2.3031   0.6837  -1.5385 H              1 S1                 0.0000
     37 ****         1.2112   2.9754   2.4063 H              1 S1                 0.0000
     38 ****         0.9565  -2.3586  -1.1873 H              1 S1                 0.0000
     39 ****         3.5747  -0.8038   1.0792 H              1 S1                 0.0000
     40 ****         3.2030  -2.2789   0.2181 H              1 S1                 0.0000
     41 ****         3.4954  -1.0461  -1.9769 H              1 S1                 0.0000
     42 ****         3.1379   1.0191  -1.1076 H              1 S1                 0.0000
     43 ****         5.9291  -0.8823  -2.0144 H              1 S1                 0.0000
     44 ****         6.7737   0.0855   0.0203 H              1 S1                 0.0000
     45 ****         5.8029  -0.9889   1.0303 H              1 S1                 0.0000
     46 ****         8.1025  -1.7870  -0.7717 H              1 S1                 0.0000
     47 ****         7.9017  -2.1775   0.9413 H              1 S1                 0.0000
     48 ****         7.0836  -3.9565  -0.9639 H              1 S1                 0.0000
     49 ****         6.0806  -3.6889   0.4638 H              1 S1                 0.0000
     50 ****        -3.0246   1.2691   2.4221 H              1 S1                 0.0000
     51 ****        -2.9938   2.9067   1.7927 H              1 S1                 0.0000
     52 ****        -6.9274  -1.7983   0.4323 LP             1 S1                 0.0000
     53 ****        -5.5218  -0.8007   0.2612 LP             1 S1                 0.0000
     54 ****        -1.0176   2.9910   1.8447 LP             1 S1                 0.0000
     55 ****         2.7012   1.2901   1.6579 LP             1 S1                 0.0000
     56 ****        -1.2463  -1.2031  -0.9872 LP             1 S1                 0.0000
     57 ****         4.4892   1.0007  -1.9471 LP             1 S1                 0.0000
     58 ****         4.5169   1.0525  -0.3152 LP             1 S1                 0.0000
     59 ****         5.5851  -2.9409  -2.1576 LP             1 S1                 0.0000
     60 ****         4.5815  -3.0336  -0.8728 LP             1 S1                 0.0000
     61 ****        -6.5035   1.9841   2.0860 LP             1 S1                 0.0000
     62 ****        -5.1404   2.2244   3.1272 LP             1 S1                 0.0000
@<TRIPOS>BOND
    1    1    2 am    
    2    1   29 1     
    3    1   30 1     
    4    2    3 2     
    5    2    4 1     
    6    4    5 1     
    7    4   31 1     
    8    4   32 1     
    9    5   27 am    
   10    5    6 1     
   11    6    7 1     
   12    6   33 1     
   13    6   34 1     
   14    7    8 1     
   15    7   35 1     
   16    7   36 1     
   17    8    9 1     
   18    8   26 1     
   19    9   14 ar    
   20    9   10 ar    
   21   10   11 ar    
   22   11   12 ar    
   23   11   37 1     
   24   12   13 ar    
   25   13   17 1     
   26   13   14 ar    
   27   14   15 1     
   28   15   16 2     
   29   16   17 1     
   30   16   38 1     
   31   17   18 1     
   32   18   19 1     
   33   18   39 1     
   34   18   40 1     
   35   19   20 1     
   36   19   21 1     
   37   19   41 1     
   38   20   42 1     
   39   21   25 1     
   40   21   22 1     
   41   21   43 1     
   42   22   23 1     
   43   22   44 1     
   44   22   45 1     
   45   23   24 1     
   46   23   46 1     
   47   23   47 1     
   48   24   25 1     
   49   24   48 1     
   50   24   49 1     
   51   26   27 1     
   52   26   50 1     
   53   26   51 1     
   54   27   28 2     
   55    3   52 1     
   56    3   53 1     
   57   10   54 1     
   58   12   55 1     
   59   15   56 1     
   60   20   57 1     
   61   20   58 1     
   62   25   59 1     
   63   25   60 1     
   64   28   61 1     
   65   28   62 1     
@<TRIPOS>SUBSTRUCTURE
      1 S1             1
@<TRIPOS>SET
LONE_PAIRS      STATIC     ATOMS    <user>   **** ""
11 52 53 54 55 56 57 58 59 60 61 62
DONOR_HYDROGENS      STATIC     ATOMS    <user>   **** ""
3 29 30 42
ATOM$BLUE        STATIC     ATOMS    COLORGROUP SYSTEM
11 52 53 54 55 56 57 58 59 60 61 62
ATOM$RED        STATIC     ATOMS    COLORGROUP SYSTEM
3 29 30 42
