#       Name:                AV-unprocessed.smi:1263
#       Creating user name   scv26
#       Creation time:       Fri Mar 27 04:43:43 2020


#       File generated by GOLD software.
#

@<TRIPOS>MOLECULE
AV-unprocessed.smi:1263
    49    51     1
SMALL
NO_CHARGES


@<TRIPOS>ATOM
      1 ****        -4.2686  -4.5287   0.2507 C.3            1 S1                 0.0000
      2 ****        -3.6178  -3.2627   0.2454 O.3            1 S1                 0.0000
      3 ****        -4.3962  -2.1207   0.2338 C.ar           1 S1                 0.0000
      4 ****        -5.7458  -2.2602   0.2333 N.ar           1 S1                 0.0000
      5 ****        -6.5072  -1.1471   0.2142 C.ar           1 S1                 0.0000
      6 ****        -5.9701   0.1529   0.1881 C.ar           1 S1                 0.0000
      7 ****        -4.5708   0.3005   0.1901 C.ar           1 S1                 0.0000
      8 ****        -3.7575  -0.8585   0.2253 C.ar           1 S1                 0.0000
      9 ****        -2.3353  -0.8268   0.2110 N.am           1 S1                 0.0000
     10 ****        -1.5124   0.1749   0.5652 C.2            1 S1                 0.0000
     11 ****        -1.8663   1.2698   1.0020 O.2            1 S1                 0.0000
     12 ****        -0.2281  -0.1730   0.3998 N.am           1 S1                 0.0000
     13 ****         0.9200   0.6748   0.7086 C.3            1 S1                 0.0000
     14 ****         1.1804   1.6850  -0.4252 C.3            1 S1                 0.0000
     15 ****         2.4548   2.5080  -0.1577 C.3            1 S1                 0.0000
     16 ****         3.6420   1.6443   0.0682 N.4            1 S1                 1.0000
     17 ****         4.1616   1.0263  -1.1744 C.3            1 S1                 0.0000
     18 ****         5.6546   0.7945  -1.1599 C.3            1 S1                 0.0000
     19 ****         5.0734   1.9351  -1.9652 C.3            1 S1                 0.0000
     20 ****         3.4206   0.6670   1.1648 C.3            1 S1                 0.0000
     21 ****         2.1678  -0.1975   0.9267 C.3            1 S1                 0.0000
     22 ****        -3.5190  -5.3200   0.2495 H              1 S1                 0.0000
     23 ****        -4.8909  -4.6616  -0.6355 H              1 S1                 0.0000
     24 ****        -4.8832  -4.6572   1.1428 H              1 S1                 0.0000
     25 ****        -7.5766  -1.2976   0.2138 H              1 S1                 0.0000
     26 ****        -6.6167   1.0175   0.1623 H              1 S1                 0.0000
     27 ****        -4.1535   1.2944   0.1492 H              1 S1                 0.0000
     28 ****        -1.8914  -1.6966  -0.0455 H              1 S1                 0.0000
     29 ****        -0.0306  -1.0962   0.0414 H              1 S1                 0.0000
     30 ****         0.7199   1.2212   1.6325 H              1 S1                 0.0000
     31 ****         1.2701   1.1619  -1.3782 H              1 S1                 0.0000
     32 ****         0.3305   2.3604  -0.5292 H              1 S1                 0.0000
     33 ****         2.6459   3.1935  -0.9839 H              1 S1                 0.0000
     34 ****         2.3072   3.1279   0.7275 H              1 S1                 0.0000
     35 ****         3.5051   0.3275  -1.6887 H              1 S1                 0.0000
     36 ****         6.2083   1.0476  -0.2574 H              1 S1                 0.0000
     37 ****         6.0341  -0.0628  -1.7124 H              1 S1                 0.0000
     38 ****         5.0696   1.8297  -3.0483 H              1 S1                 0.0000
     39 ****         5.2415   2.9457  -1.5970 H              1 S1                 0.0000
     40 ****         4.3015   0.0353   1.2841 H              1 S1                 0.0000
     41 ****         3.3101   1.2182   2.0995 H              1 S1                 0.0000
     42 ****         2.0145  -0.8588   1.7802 H              1 S1                 0.0000
     43 ****         2.3263  -0.8460   0.0641 H              1 S1                 0.0000
     44 ****         4.3784   2.2586   0.3859 H              1 S1                 0.0000
     45 ****        -3.0375  -3.2326  -0.5685 LP             1 S1                 0.0000
     46 ****        -3.0456  -3.2216   1.0645 LP             1 S1                 0.0000
     47 ****        -6.1663  -3.1674   0.2467 LP             1 S1                 0.0000
     48 ****        -2.8389   1.4711   1.1182 LP             1 S1                 0.0000
     49 ****        -1.1812   1.9581   1.2406 LP             1 S1                 0.0000
@<TRIPOS>BOND
    1    1    2 1     
    2    1   22 1     
    3    1   23 1     
    4    1   24 1     
    5    2    3 1     
    6    3    8 ar    
    7    3    4 ar    
    8    4    5 ar    
    9    5    6 ar    
   10    5   25 1     
   11    6    7 ar    
   12    6   26 1     
   13    7    8 ar    
   14    7   27 1     
   15    8    9 1     
   16    9   10 am    
   17    9   28 1     
   18   10   11 2     
   19   10   12 am    
   20   12   13 1     
   21   12   29 1     
   22   13   21 1     
   23   13   14 1     
   24   13   30 1     
   25   14   15 1     
   26   14   31 1     
   27   14   32 1     
   28   15   16 1     
   29   15   33 1     
   30   15   34 1     
   31   16   17 1     
   32   16   20 1     
   33   16   44 1     
   34   17   19 1     
   35   17   18 1     
   36   17   35 1     
   37   18   19 1     
   38   18   36 1     
   39   18   37 1     
   40   19   38 1     
   41   19   39 1     
   42   20   21 1     
   43   20   40 1     
   44   20   41 1     
   45   21   42 1     
   46   21   43 1     
   47    2   45 1     
   48    2   46 1     
   49    4   47 1     
   50   11   48 1     
   51   11   49 1     
@<TRIPOS>SUBSTRUCTURE
      1 S1             1
@<TRIPOS>SET
LONE_PAIRS      STATIC     ATOMS    <user>   **** ""
5 45 46 47 48 49
DONOR_HYDROGENS      STATIC     ATOMS    <user>   **** ""
3 28 29 44
ATOM$BLUE        STATIC     ATOMS    COLORGROUP SYSTEM
5 45 46 47 48 49
ATOM$RED        STATIC     ATOMS    COLORGROUP SYSTEM
3 28 29 44
