#       Name:                AV-unprocessed.smi:94
#       Creating user name   scv26
#       Creation time:       Thu Mar 26 17:29:43 2020


#       File generated by GOLD software.
#

@<TRIPOS>MOLECULE
AV-unprocessed.smi:94
    63    65     1
SMALL
NO_CHARGES


@<TRIPOS>ATOM
      1 ****        -3.1394   4.6206   3.2240 C.3            1 S1                 0.0000
      2 ****        -2.6238   3.5159   2.4957 O.3            1 S1                 0.0000
      3 ****        -3.5086   2.5704   2.0174 C.ar           1 S1                 0.0000
      4 ****        -4.9097   2.6437   2.2259 C.ar           1 S1                 0.0000
      5 ****        -5.7644   1.6439   1.7278 C.ar           1 S1                 0.0000
      6 ****        -5.2346   0.5515   1.0178 C.ar           1 S1                 0.0000
      7 ****        -6.1527  -0.5298   0.4865 C.3            1 S1                 0.0000
      8 ****        -3.8462   0.4706   0.8013 C.ar           1 S1                 0.0000
      9 ****        -2.9776   1.4762   1.2874 C.ar           1 S1                 0.0000
     10 ****        -1.4690   1.3696   1.0569 C.3            1 S1                 0.0000
     11 ****        -0.7834   0.6689   2.2421 C.3            1 S1                 0.0000
     12 ****        -1.1382   0.6863  -0.1937 N.am           1 S1                 0.0000
     13 ****        -0.0011   0.8377  -0.8896 C.2            1 S1                 0.0000
     14 ****         0.9070   1.5944  -0.5429 O.2            1 S1                 0.0000
     15 ****         0.1170   0.0116  -2.1790 C.3            1 S1                 0.0000
     16 ****         1.5113  -0.3790  -2.4808 N.am           1 S1                 0.0000
     17 ****         2.2793   0.4281  -3.3563 C.2            1 S1                 0.0000
     18 ****         1.8027   1.4355  -3.8807 O.2            1 S1                 0.0000
     19 ****         3.6513  -0.0143  -3.5791 C.2            1 S1                 0.0000
     20 ****         4.4473   0.6803  -4.4096 F              1 S1                 0.0000
     21 ****         4.1369  -1.1127  -2.9644 C.2            1 S1                 0.0000
     22 ****         3.3820  -1.8790  -2.0941 N.am           1 S1                 0.0000
     23 ****         3.9428  -3.1055  -1.4040 C.3            1 S1                 0.0000
     24 ****         4.1304  -2.8429   0.1038 C.3            1 S1                 0.0000
     25 ****         5.5782  -3.2270   0.3366 C.3            1 S1                 0.0000
     26 ****         6.2027  -2.9438  -1.0209 C.3            1 S1                 0.0000
     27 ****         5.2069  -3.4080  -1.9225 O.3            1 S1                 0.0000
     28 ****         2.0370  -1.5291  -1.8461 C.2            1 S1                 0.0000
     29 ****         1.3419  -2.2087  -1.0871 O.2            1 S1                 0.0000
     30 ****        -2.3156   5.2687   3.5224 H              1 S1                 0.0000
     31 ****        -3.6492   4.2968   4.1323 H              1 S1                 0.0000
     32 ****        -3.8224   5.2156   2.6162 H              1 S1                 0.0000
     33 ****        -5.3587   3.4597   2.7710 H              1 S1                 0.0000
     34 ****        -6.8287   1.7173   1.8973 H              1 S1                 0.0000
     35 ****        -5.6511  -1.4980   0.4829 H              1 S1                 0.0000
     36 ****        -6.4568  -0.2958  -0.5338 H              1 S1                 0.0000
     37 ****        -7.0491  -0.6171   1.1013 H              1 S1                 0.0000
     38 ****        -3.4524  -0.3782   0.2619 H              1 S1                 0.0000
     39 ****        -1.0738   2.3838   0.9815 H              1 S1                 0.0000
     40 ****        -0.9771   1.1990   3.1751 H              1 S1                 0.0000
     41 ****         0.2983   0.6274   2.1104 H              1 S1                 0.0000
     42 ****        -1.1436  -0.3537   2.3601 H              1 S1                 0.0000
     43 ****        -1.8313   0.0481  -0.5563 H              1 S1                 0.0000
     44 ****        -0.5175  -0.8738  -2.1052 H              1 S1                 0.0000
     45 ****        -0.3269   0.5881  -2.9915 H              1 S1                 0.0000
     46 ****         5.1592  -1.3862  -3.1758 H              1 S1                 0.0000
     47 ****         3.2475  -3.9143  -1.6354 H              1 S1                 0.0000
     48 ****         3.9772  -1.7858   0.3275 H              1 S1                 0.0000
     49 ****         3.4301  -3.4349   0.6936 H              1 S1                 0.0000
     50 ****         6.0446  -2.6664   1.1471 H              1 S1                 0.0000
     51 ****         5.6523  -4.2905   0.5674 H              1 S1                 0.0000
     52 ****         6.3675  -1.8741  -1.1580 H              1 S1                 0.0000
     53 ****         7.1507  -3.4618  -1.1667 H              1 S1                 0.0000
     54 ****        -1.9806   3.0409   3.0963 LP             1 S1                 0.0000
     55 ****        -2.1325   3.8858   1.7072 LP             1 S1                 0.0000
     56 ****         0.8165   2.1333   0.2946 LP             1 S1                 0.0000
     57 ****         1.7348   1.6698  -1.0989 LP             1 S1                 0.0000
     58 ****         0.8564   1.6976  -3.6914 LP             1 S1                 0.0000
     59 ****         2.3621   1.9913  -4.4956 LP             1 S1                 0.0000
     60 ****         5.3217  -2.9587  -2.8084 LP             1 S1                 0.0000
     61 ****         5.2939  -4.3976  -2.0368 LP             1 S1                 0.0000
     62 ****         0.3919  -1.9496  -0.9126 LP             1 S1                 0.0000
     63 ****         1.7283  -3.0188  -0.6461 LP             1 S1                 0.0000
@<TRIPOS>BOND
    1    1    2 1     
    2    1   30 1     
    3    1   31 1     
    4    1   32 1     
    5    2    3 1     
    6    3    9 ar    
    7    3    4 ar    
    8    4    5 ar    
    9    4   33 1     
   10    5    6 ar    
   11    5   34 1     
   12    6    7 1     
   13    6    8 ar    
   14    7   35 1     
   15    7   36 1     
   16    7   37 1     
   17    8    9 ar    
   18    8   38 1     
   19    9   10 1     
   20   10   11 1     
   21   10   12 1     
   22   10   39 1     
   23   11   40 1     
   24   11   41 1     
   25   11   42 1     
   26   12   13 am    
   27   12   43 1     
   28   13   14 2     
   29   13   15 1     
   30   15   16 1     
   31   15   44 1     
   32   15   45 1     
   33   16   28 am    
   34   16   17 am    
   35   17   18 2     
   36   17   19 1     
   37   19   20 1     
   38   19   21 2     
   39   21   22 1     
   40   21   46 1     
   41   22   23 1     
   42   22   28 am    
   43   23   27 1     
   44   23   24 1     
   45   23   47 1     
   46   24   25 1     
   47   24   48 1     
   48   24   49 1     
   49   25   26 1     
   50   25   50 1     
   51   25   51 1     
   52   26   27 1     
   53   26   52 1     
   54   26   53 1     
   55   28   29 2     
   56    2   54 1     
   57    2   55 1     
   58   14   56 1     
   59   14   57 1     
   60   18   58 1     
   61   18   59 1     
   62   27   60 1     
   63   27   61 1     
   64   29   62 1     
   65   29   63 1     
@<TRIPOS>SUBSTRUCTURE
      1 S1             1
@<TRIPOS>SET
LONE_PAIRS      STATIC     ATOMS    <user>   **** ""
10 54 55 56 57 58 59 60 61 62 63
DONOR_HYDROGENS      STATIC     ATOMS    <user>   **** ""
1 43
ATOM$BLUE        STATIC     ATOMS    COLORGROUP SYSTEM
10 54 55 56 57 58 59 60 61 62 63
ATOM$RED        STATIC     ATOMS    COLORGROUP SYSTEM
1 43
