AV-unprocessed.smi:2857|AV-procd|sdf|10998|dock6
  -GOLD-   2272015453D 1   1.00000     0.00000
 Structure written by MMmdl.
 44 46  0  0  0  0  0  0  0  0  1 V2000
  151.9167  145.5961  160.0509 C   0  0  0  0  0  0  0  0  0  0  0  0
  152.0978  144.1046  159.8568 C   0  0  0  0  0  0  0  0  0  0  0  0
  152.6962  143.3225  160.8634 C   0  0  0  0  0  0  0  0  0  0  0  0
  152.8596  141.9386  160.6730 C   0  0  0  0  0  0  0  0  0  0  0  0
  152.4281  141.3286  159.4768 C   0  0  0  0  0  0  0  0  0  0  0  0
  152.6107  139.8343  159.2891 C   0  0  0  0  0  0  0  0  0  0  0  0
  151.8280  142.1024  158.4565 C   0  0  0  0  0  0  0  0  0  0  0  0
  151.4321  141.4444  157.3096 O   0  0  0  0  0  0  0  0  0  0  0  0
  150.7672  142.1909  156.3004 C   0  0  0  0  0  0  0  0  0  0  0  0
  150.1147  141.2226  155.2969 C   0  0  1  0  0  0  0  0  0  0  0  0
  150.9527  140.0935  155.1564 O   0  0  0  0  0  0  0  0  0  0  0  0
  148.7287  140.7070  155.7382 C   0  0  0  0  0  0  0  0  0  0  0  0
  147.6396  141.5831  155.3324 N   0  0  0  0  0  0  0  0  0  0  0  0
  147.4424  141.8349  154.0127 N   0  0  0  0  0  0  0  0  0  0  0  0
  146.3989  142.6597  153.9522 C   0  0  0  0  0  0  0  0  0  0  0  0
  145.8893  142.9698  155.2428 C   0  0  0  0  0  0  0  0  0  0  0  0
  144.8029  143.7997  155.7541 C   0  0  0  0  0  0  0  0  0  0  0  0
  144.6272  143.8586  157.0372 N   0  0  0  0  0  0  0  0  0  0  0  0
  145.4528  143.1501  157.9177 N   0  0  0  0  0  0  0  0  0  0  0  0
  145.1327  143.3262  159.3325 C   0  0  0  0  0  0  0  0  0  0  0  0
  146.4921  142.3455  157.5425 C   0  0  0  0  0  0  0  0  0  0  0  0
  147.2128  141.7371  158.3337 O   0  0  0  0  0  0  0  0  0  0  0  0
  146.6980  142.2690  156.0755 C   0  0  0  0  0  0  0  0  0  0  0  0
  151.6671  143.4974  158.6605 C   0  0  0  0  0  0  0  0  0  0  0  0
  152.1652  145.8985  161.0686 H   0  0  0  0  0  0  0  0  0  0  0  0
  150.8825  145.8814  159.8556 H   0  0  0  0  0  0  0  0  0  0  0  0
  152.5605  146.1458  159.3637 H   0  0  0  0  0  0  0  0  0  0  0  0
  153.0319  143.7785  161.7832 H   0  0  0  0  0  0  0  0  0  0  0  0
  153.3186  141.3466  161.4510 H   0  0  0  0  0  0  0  0  0  0  0  0
  153.1993  139.6333  158.3935 H   0  0  0  0  0  0  0  0  0  0  0  0
  151.6416  139.3471  159.1792 H   0  0  0  0  0  0  0  0  0  0  0  0
  153.1237  139.3835  160.1391 H   0  0  0  0  0  0  0  0  0  0  0  0
  150.0239  142.8683  156.7251 H   0  0  0  0  0  0  0  0  0  0  0  0
  151.5199  142.7931  155.7931 H   0  0  0  0  0  0  0  0  0  0  0  0
  150.0183  141.7112  154.3263 H   0  0  0  0  0  0  0  0  0  0  0  0
  150.4278  139.3148  155.2618 H   0  0  0  0  0  0  0  0  0  0  0  0
  148.5472  139.7204  155.3085 H   0  0  0  0  0  0  0  0  0  0  0  0
  148.6937  140.5720  156.8188 H   0  0  0  0  0  0  0  0  0  0  0  0
  146.0551  143.0028  152.9876 H   0  0  0  0  0  0  0  0  0  0  0  0
  144.1602  144.3537  155.0700 H   0  0  0  0  0  0  0  0  0  0  0  0
  144.8245  142.3782  159.7753 H   0  0  0  0  0  0  0  0  0  0  0  0
  144.3219  144.0409  159.4821 H   0  0  0  0  0  0  0  0  0  0  0  0
  145.9999  143.6951  159.8823 H   0  0  0  0  0  0  0  0  0  0  0  0
  151.2144  144.1273  157.9096 H   0  0  0  0  0  0  0  0  0  0  0  0
  1  2  1  0  0  0  0
  1 25  1  0  0  0  0
  1 26  1  0  0  0  0
  1 27  1  0  0  0  0
  2 24  1  0  0  0  0
  2  3  2  0  0  0  0
  3  4  1  0  0  0  0
  3 28  1  0  0  0  0
  4  5  2  0  0  0  0
  4 29  1  0  0  0  0
  5  6  1  0  0  0  0
  5  7  1  0  0  0  0
  6 30  1  0  0  0  0
  6 31  1  0  0  0  0
  6 32  1  0  0  0  0
  7  8  1  0  0  0  0
  7 24  2  0  0  0  0
  8  9  1  0  0  0  0
  9 10  1  0  0  0  0
  9 33  1  0  0  0  0
  9 34  1  0  0  0  0
 10 11  1  0  0  0  0
 10 12  1  0  0  0  0
 10 35  1  0  0  0  0
 11 36  1  0  0  0  0
 12 13  1  0  0  0  0
 12 37  1  0  0  0  0
 12 38  1  0  0  0  0
 13 23  1  0  0  0  0
 13 14  1  0  0  0  0
 14 15  2  0  0  0  0
 15 16  1  0  0  0  0
 15 39  1  0  0  0  0
 16 23  2  0  0  0  0
 16 17  1  0  0  0  0
 17 18  2  0  0  0  0
 17 40  1  0  0  0  0
 18 19  1  0  0  0  0
 19 20  1  0  0  0  0
 19 21  1  0  0  0  0
 20 41  1  0  0  0  0
 20 42  1  0  0  0  0
 20 43  1  0  0  0  0
 21 22  2  0  0  0  0
 21 23  1  0  0  0  0
 24 44  1  0  0  0  0
M  END
> <s_m_source_file>
AV-unprocessed.smi

> <i_m_source_file_index>
2857

> <i_lp_mmshare_version>
43012

> <i_f3d_flags>
0

> <s_epik_input>
W0NIM11jMVtjSF1bY0hdYyhbQ0gzXSljKFtjSF0xKU9bQ0gyXVtDQEhdKFtPSF0pW0NIMl1uKG5bY0hdMiljKGMyMyljKD1PKW4oW0NIM10pbltjSF0z

> <s_epik_cmdline>
J2VwaWtfcHl0aG9uJywgJy1waCcsICc3LjAnLCAnLXRuJywgJzgnLCAnLW1hJywgJzIwMCcsICctbWV0YWxfYmluZGluZycsICctaW1hZScsICc8aW5maWxlLm1hZT4nLCAnLW9tYWUnLCAnPG91dGZpbGUubWFlPic=

> <r_lp_tautomer_probability>
1

> <r_epik_Ionization_Penalty>
2.24607e-06

> <r_epik_Ionization_Penalty_Charging>
1.42095e-10

> <r_epik_Ionization_Penalty_Neutral>
2.24593e-06

> <r_epik_State_Penalty>
-0

> <r_epik_Charging_Adjusted_Penalty>
1.42095e-10

> <i_epik_Tot_Q>
0

> <i_epik_Tot_abs_Q>
0

> <r_epik_Metal_State_Penalty>
-0

> <b_epik_Metal_Only>
0

> <s_lp_Force_Field>
OPLS_2005

> <r_lp_Energy>
31.6427

> <b_lp_Chiralities_Consistent>
1

> <s_lp_Variant>
AV-unprocessed.smi:2857-2

> <Gold.Version>
5.8.1

> <Gold.Id.Protein>
6NUR|6NUR_protein|mol2

> <Gold.PLP.Fitness>
47.1697

> <Gold.PLP.PLP>
-47.0730

> <Gold.PLP.part.hbond>
-1.5846

> <Gold.PLP.part.metal>
0.0000

> <Gold.PLP.part.buried>
-7.4705

> <Gold.PLP.part.nonpolar>
-38.5124

> <Gold.PLP.part.repulsive>
0.3377

> <Gold.PLP.ligand.clash>
0.0000

> <Gold.PLP.ligand.torsion>
0.6455

> <Gold.PLP.Chemscore.Hbond>
0.4500

> <Gold.PLP.Chemscore.CHOScore>
0.0000

> <Gold.PLP.Chemscore.Metal>
0.0000

> <Gold.Chemscore.Hbonds>
donor molecule, donor type, donor heavy atom, donor atom, acceptor molecule, acceptor atom, score
      P1  H  7989  7998       L1    11  0.40

> <Gold.PLP.Chemscore.Internal.Correction>
0.0376

> <Gold.Rescore>
     Score         DG    S(hbond)    S(metal)    S(lipo)     H(rot)  DE(clash)    DE(int)     intcor
     14.29     -14.93       0.35        0.00     121.73       2.32       0.06       0.57       ----

> <Gold.Chemscore.Fitness>
14.2947

> <Gold.Chemscore.DG>
-14.9322

> <Gold.Chemscore.ZeroCoef>
-5.4800

> <Gold.Chemscore.Hbond>
0.3468

> <Gold.Chemscore.Metal>
0.0000

> <Gold.Chemscore.Lipo>
121.7298

> <Gold.Chemscore.Internal_Hbond>
0.0000

> <Gold.Chemscore.DEClash>
0.0630

> <Gold.Chemscore.DEInternal>
0.5744

> <Gold.Chemscore.Rot>
2.3236

> <Gold.Chemscore.Internal.Correction>
   9.000000E+99

> <Gold.Chemscore.Hbonds>
donor molecule, donor type, donor heavy atom, donor atom, acceptor molecule, acceptor atom, score
      P1  H  7989  7998       L1    11  0.01

> <Gold.Chemscore.Hbond.Weighted>
-1.1582

> <Gold.Chemscore.Metal.Weighted>
-0.0000

> <Gold.Chemscore.Lipo.Weighted>
-14.2424

> <Gold.Chemscore.Internal_Hbond.Weighted>
0.0000

> <Gold.Chemscore.DEClash.Weighted>
0.0630

> <Gold.Chemscore.DEInternal.Weighted>
0.5744

> <Gold.Chemscore.Rot.Weighted>
5.9484

> <Gold.Chemscore.Internal.Correction.Weighted>
   9.000000E+99

> <Gold.Protein.RotatedTorsions>
[ 6907 6896 6895 6894 ] final  -32.81 input  -60.11 | X-H torsion
[ 7974 7965 7964 7962 ] final -175.08 input  175.53 | X-H torsion
[ 8008 7997 7996 7995 ] final -154.93 input   59.86 | X-H torsion
[ 10167 10162 10161 10158 ] final  158.85 input  -65.29 | X-H torsion
[ 10718 10713 10712 10709 ] final   43.37 input   66.30 | X-H torsion
[ 10763 10752 10751 10750 ] final  -75.15 input  -60.55 | X-H torsion
[ 11005 11000 10999 10996 ] final   18.89 input  -57.11 | X-H torsion

> <Gold.Protein.ActiveResidues>
 VAL166  LYS551  ARG553  GLY616  TRP617  ASP618  TYR619  PRO620  LYS621  CYS622 
 ASP623  PHE694  ASN695  SER759  ASP760  ASP761  ALA762  ILE779  LEU786  VAL792 
 PHE793  MET794  SER795  GLU796  ALA797  LYS798  CYS799  TRP800  GLU811  SER814 

> <Gold.Protein.RotatedAtoms>
  151.0739  134.9816  159.8321 H   0  0  0  0  0  0  0  0  0  0  0  0  # atno 6907 bound_to 6896
  152.5412  134.2265  159.8818 H   0  0  0  0  0  0  0  0  0  0  0  0  # atno 6908 bound_to 6896
  151.2291  133.4416  159.2637 H   0  0  0  0  0  0  0  0  0  0  0  0  # atno 6909 bound_to 6896
  144.7129  140.1375  143.6394 H   0  0  0  0  0  0  0  0  0  0  0  0  # atno 7974 bound_to 7965
  155.6939  140.0758  157.2437 H   0  0  0  0  0  0  0  0  0  0  0  0  # atno 8008 bound_to 7997
  154.4084  140.1659  156.2169 H   0  0  0  0  0  0  0  0  0  0  0  0  # atno 8009 bound_to 7997
  155.9427  140.3383  155.6344 H   0  0  0  0  0  0  0  0  0  0  0  0  # atno 8010 bound_to 7997
  139.4829  144.4785  151.8477 H   0  0  0  0  0  0  0  0  0  0  0  0  # atno 10167 bound_to 10162
  157.4151  130.7937  149.7465 H   0  0  0  0  0  0  0  0  0  0  0  0  # atno 10718 bound_to 10713
  154.4826  135.5841  153.6401 H   0  0  0  0  0  0  0  0  0  0  0  0  # atno 10763 bound_to 10752
  152.9850  135.6093  154.3226 H   0  0  0  0  0  0  0  0  0  0  0  0  # atno 10764 bound_to 10752
  154.3119  135.2845  155.2541 H   0  0  0  0  0  0  0  0  0  0  0  0  # atno 10765 bound_to 10752
  140.4198  134.1531  155.7672 H   0  0  0  0  0  0  0  0  0  0  0  0  # atno 11005 bound_to 11000
  145.9231  139.2558  143.1369 LP  0  0  0  0  0  0  0  0  0  0  0  0  # atno 17320 bound_to 7965
  145.9600  140.8843  143.0216 LP  0  0  0  0  0  0  0  0  0  0  0  0  # atno 17321 bound_to 7965
  140.4259  144.2181  150.5887 LP  0  0  0  0  0  0  0  0  0  0  0  0  # atno 17342 bound_to 10162
  140.4827  143.2373  151.8932 LP  0  0  0  0  0  0  0  0  0  0  0  0  # atno 17343 bound_to 10162
  155.9863  130.3976  150.3221 LP  0  0  0  0  0  0  0  0  0  0  0  0  # atno 17370 bound_to 10713
  157.1363  131.0285  151.2947 LP  0  0  0  0  0  0  0  0  0  0  0  0  # atno 17371 bound_to 10713
  141.1789  133.8457  157.1328 LP  0  0  0  0  0  0  0  0  0  0  0  0  # atno 17394 bound_to 11000
  140.0208  134.9946  157.0588 LP  0  0  0  0  0  0  0  0  0  0  0  0  # atno 17395 bound_to 11000

$$$$
