#       Name:                AV-unprocessed.smi:2999
#       Creating user name   scv26
#       Creation time:       Fri Mar 27 16:34:08 2020


#       File generated by GOLD software.
#

@<TRIPOS>MOLECULE
AV-unprocessed.smi:2999
    43    45     1
SMALL
NO_CHARGES


@<TRIPOS>ATOM
      1 ****        -1.6547   1.7439  -1.4253 O.2            1 S1                 0.0000
      2 ****        -2.1843   0.6371  -1.5259 C.2            1 S1                 0.0000
      3 ****        -1.4921  -0.5077  -1.6079 N.am           1 S1                 0.0000
      4 ****        -0.0369  -0.6080  -1.5929 C.3            1 S1                 0.0000
      5 ****         0.5238  -0.5574  -0.1618 C.3            1 S1                 0.0000
      6 ****         2.0651  -0.5626  -0.1504 C.3            1 S1                 0.0000
      7 ****         2.5993  -0.5823   1.2058 N.3            1 S1                 0.0000
      8 ****         4.0544  -0.6050   1.1924 C.3            1 S1                 0.0000
      9 ****         4.8151  -0.0672   2.3768 C.3            1 S1                 0.0000
     10 ****         4.8132   0.6904   1.0617 C.3            1 S1                 0.0000
     11 ****         2.0635  -1.7444   1.9032 C.3            1 S1                 0.0000
     12 ****         0.5255  -1.7542   1.8941 C.3            1 S1                 0.0000
     13 ****         0.0583  -1.7032   0.5496 O.3            1 S1                 0.0000
     14 ****        -3.5071   0.4099  -1.5678 N.am           1 S1                 0.0000
     15 ****        -4.5528   1.3658  -1.5423 C.2            1 S1                 0.0000
     16 ****        -5.8159   0.9417  -1.6156 N.2            1 S1                 0.0000
     17 ****        -6.7279   2.0008  -1.5856 C.2            1 S1                 0.0000
     18 ****        -6.1368   3.2359  -1.4872 C.2            1 S1                 0.0000
     19 ****        -4.3984   3.1210  -1.4275 S.3            1 S1                 0.0000
     20 ****        -2.0063  -1.3736  -1.6817 H              1 S1                 0.0000
     21 ****         0.2490  -1.5438  -2.0738 H              1 S1                 0.0000
     22 ****         0.3934   0.1926  -2.1972 H              1 S1                 0.0000
     23 ****         0.1663   0.3445   0.3387 H              1 S1                 0.0000
     24 ****         2.4295  -1.4293  -0.7045 H              1 S1                 0.0000
     25 ****         2.4342   0.3192  -0.6757 H              1 S1                 0.0000
     26 ****         4.4511  -1.4830   0.6849 H              1 S1                 0.0000
     27 ****         4.2435   0.3571   3.2001 H              1 S1                 0.0000
     28 ****         5.7308  -0.5821   2.6601 H              1 S1                 0.0000
     29 ****         5.7281   0.6788   0.4728 H              1 S1                 0.0000
     30 ****         4.2391   1.6139   1.0153 H              1 S1                 0.0000
     31 ****         2.4316  -2.6599   1.4376 H              1 S1                 0.0000
     32 ****         2.4207  -1.7535   2.9336 H              1 S1                 0.0000
     33 ****         0.1485  -2.6599   2.3691 H              1 S1                 0.0000
     34 ****         0.1291  -0.9074   2.4563 H              1 S1                 0.0000
     35 ****        -3.7998  -0.5531  -1.6419 H              1 S1                 0.0000
     36 ****        -7.7845   1.7841  -1.6410 H              1 S1                 0.0000
     37 ****        -6.6166   4.2024  -1.4473 H              1 S1                 0.0000
     38 ****        -0.6579   1.8209  -1.4012 LP             1 S1                 0.0000
     39 ****        -2.2212   2.5659  -1.3676 LP             1 S1                 0.0000
     40 ****         2.3226   0.2501   1.6859 LP             1 S1                 0.0000
     41 ****         0.3728  -2.5237   0.0721 LP             1 S1                 0.0000
     42 ****        -0.9415  -1.6865   0.5606 LP             1 S1                 0.0000
     43 ****        -6.0791  -0.0206  -1.6839 LP             1 S1                 0.0000
@<TRIPOS>BOND
    1    1    2 2     
    2    2    3 am    
    3    2   14 am    
    4    3    4 1     
    5    3   20 1     
    6    4    5 1     
    7    4   21 1     
    8    4   22 1     
    9    5   13 1     
   10    5    6 1     
   11    5   23 1     
   12    6    7 1     
   13    6   24 1     
   14    6   25 1     
   15    7    8 1     
   16    7   11 1     
   17    8   10 1     
   18    8    9 1     
   19    8   26 1     
   20    9   10 1     
   21    9   27 1     
   22    9   28 1     
   23   10   29 1     
   24   10   30 1     
   25   11   12 1     
   26   11   31 1     
   27   11   32 1     
   28   12   13 1     
   29   12   33 1     
   30   12   34 1     
   31   14   15 1     
   32   14   35 1     
   33   15   19 1     
   34   15   16 2     
   35   16   17 1     
   36   17   18 2     
   37   17   36 1     
   38   18   19 1     
   39   18   37 1     
   40    1   38 1     
   41    1   39 1     
   42    7   40 1     
   43   13   41 1     
   44   13   42 1     
   45   16   43 1     
@<TRIPOS>SUBSTRUCTURE
      1 S1             1
@<TRIPOS>SET
LONE_PAIRS      STATIC     ATOMS    <user>   **** ""
6 38 39 40 41 42 43
DONOR_HYDROGENS      STATIC     ATOMS    <user>   **** ""
2 20 35
ATOM$BLUE        STATIC     ATOMS    COLORGROUP SYSTEM
6 38 39 40 41 42 43
ATOM$RED        STATIC     ATOMS    COLORGROUP SYSTEM
2 20 35
