AV-unprocessed.smi:530|AV-procd|sdf|2843|dock1
  -GOLD-   2262023333D 1   1.00000     0.00000
 Structure written by MMmdl.
 35 37  0  0  0  0  0  0  0  0  1 V2000
  152.7397  137.9080  157.2201 C   0  0  0  0  0  0  0  0  0  0  0  0
  152.6983  139.2164  157.9440 C   0  0  0  0  0  0  0  0  0  0  0  0
  153.6656  139.5987  158.7781 N   0  0  0  0  0  0  0  0  0  0  0  0
  153.2248  140.8364  159.2058 C   0  0  0  0  0  0  0  0  0  0  0  0
  153.8078  141.7593  160.1036 C   0  0  0  0  0  0  0  0  0  0  0  0
  153.1619  142.9790  160.3935 C   0  0  0  0  0  0  0  0  0  0  0  0
  151.9261  143.2928  159.7915 C   0  0  0  0  0  0  0  0  0  0  0  0
  151.3288  142.3885  158.8924 C   0  0  0  0  0  0  0  0  0  0  0  0
  151.9780  141.1728  158.6056 C   0  0  0  0  0  0  0  0  0  0  0  0
  151.6721  140.0884  157.7887 N   0  0  0  0  0  0  0  0  0  0  0  0
  150.4916  139.9421  156.9478 C   0  0  0  0  0  0  0  0  0  0  0  0
  150.6372  140.6397  155.5805 C   0  0  1  0  0  0  0  0  0  0  0  0
  151.7721  140.1407  154.8986 O   0  0  0  0  0  0  0  0  0  0  0  0
  149.3656  140.5034  154.7576 C   0  0  0  0  0  0  0  0  0  0  0  0
  148.6162  141.6447  154.3957 C   0  0  0  0  0  0  0  0  0  0  0  0
  147.4450  141.5101  153.6250 C   0  0  0  0  0  0  0  0  0  0  0  0
  147.0177  140.2344  153.2095 C   0  0  0  0  0  0  0  0  0  0  0  0
  147.7632  139.0936  153.5633 C   0  0  0  0  0  0  0  0  0  0  0  0
  148.9347  139.2277  154.3338 C   0  0  0  0  0  0  0  0  0  0  0  0
  153.6434  137.3560  157.4804 H   0  0  0  0  0  0  0  0  0  0  0  0
  152.7378  138.0710  156.1423 H   0  0  0  0  0  0  0  0  0  0  0  0
  151.8777  137.2975  157.4883 H   0  0  0  0  0  0  0  0  0  0  0  0
  154.7535  141.5276  160.5707 H   0  0  0  0  0  0  0  0  0  0  0  0
  153.6162  143.6766  161.0818 H   0  0  0  0  0  0  0  0  0  0  0  0
  151.4365  144.2283  160.0204 H   0  0  0  0  0  0  0  0  0  0  0  0
  150.3809  142.6240  158.4319 H   0  0  0  0  0  0  0  0  0  0  0  0
  150.2936  138.8782  156.8110 H   0  0  0  0  0  0  0  0  0  0  0  0
  149.6298  140.3403  157.4835 H   0  0  0  0  0  0  0  0  0  0  0  0
  150.8215  141.7019  155.7436 H   0  0  0  0  0  0  0  0  0  0  0  0
  151.7206  139.1974  154.8825 H   0  0  0  0  0  0  0  0  0  0  0  0
  148.9391  142.6279  154.7058 H   0  0  0  0  0  0  0  0  0  0  0  0
  146.8752  142.3861  153.3516 H   0  0  0  0  0  0  0  0  0  0  0  0
  146.1198  140.1312  152.6182 H   0  0  0  0  0  0  0  0  0  0  0  0
  147.4374  138.1150  153.2427 H   0  0  0  0  0  0  0  0  0  0  0  0
  149.5019  138.3467  154.5965 H   0  0  0  0  0  0  0  0  0  0  0  0
  1  2  1  0  0  0  0
  1 20  1  0  0  0  0
  1 21  1  0  0  0  0
  1 22  1  0  0  0  0
  2 10  1  0  0  0  0
  2  3  2  0  0  0  0
  3  4  1  0  0  0  0
  4  9  2  0  0  0  0
  4  5  1  0  0  0  0
  5  6  2  0  0  0  0
  5 23  1  0  0  0  0
  6  7  1  0  0  0  0
  6 24  1  0  0  0  0
  7  8  2  0  0  0  0
  7 25  1  0  0  0  0
  8  9  1  0  0  0  0
  8 26  1  0  0  0  0
  9 10  1  0  0  0  0
 10 11  1  0  0  0  0
 11 12  1  0  0  0  0
 11 27  1  0  0  0  0
 11 28  1  0  0  0  0
 12 13  1  0  0  0  0
 12 14  1  0  0  0  0
 12 29  1  0  0  0  0
 13 30  1  0  0  0  0
 14 19  1  0  0  0  0
 14 15  2  0  0  0  0
 15 16  1  0  0  0  0
 15 31  1  0  0  0  0
 16 17  2  0  0  0  0
 16 32  1  0  0  0  0
 17 18  1  0  0  0  0
 17 33  1  0  0  0  0
 18 19  2  0  0  0  0
 18 34  1  0  0  0  0
 19 35  1  0  0  0  0
M  END
> <s_m_source_file>
AV-unprocessed.smi

> <i_m_source_file_index>
530

> <i_lp_mmshare_version>
43012

> <i_f3d_flags>
0

> <s_epik_input>
W2NIXTFbY0hdW2NIXVtjSF1jKGMxMiluKGMobjIpW0NIM10pW0NIMl1bQ0BIXShbT0hdKWMzW2NIXVtjSF1bY0hdW2NIXVtjSF0z

> <s_epik_cmdline>
J2VwaWtfcHl0aG9uJywgJy1waCcsICc3LjAnLCAnLXRuJywgJzgnLCAnLW1hJywgJzIwMCcsICctbWV0YWxfYmluZGluZycsICctaW1hZScsICc8aW5maWxlLm1hZT4nLCAnLW9tYWUnLCAnPG91dGZpbGUubWFlPic=

> <r_epik_Ionization_Penalty>
0.129663

> <r_epik_Ionization_Penalty_Charging>
0

> <r_epik_Ionization_Penalty_Neutral>
0.129663

> <r_epik_State_Penalty>
0.119073

> <r_epik_Charging_Adjusted_Penalty>
0.119073

> <i_epik_Tot_Q>
0

> <i_epik_Tot_abs_Q>
0

> <r_epik_Metal_State_Penalty>
0.000131867

> <b_epik_Metal_Only>
0

> <s_lp_Force_Field>
OPLS_2005

> <r_lp_Energy>
11.6979

> <b_lp_Chiralities_Consistent>
1

> <s_lp_Variant>
AV-unprocessed.smi:530-2

> <Gold.Version>
5.8.1

> <Gold.Id.Protein>
6NUR|6NUR_protein|mol2

> <Gold.PLP.Fitness>
44.9357

> <Gold.PLP.PLP>
-40.5670

> <Gold.PLP.part.hbond>
-1.8377

> <Gold.PLP.part.metal>
0.0000

> <Gold.PLP.part.buried>
-2.0473

> <Gold.PLP.part.nonpolar>
-35.0953

> <Gold.PLP.part.repulsive>
0.0000

> <Gold.PLP.ligand.clash>
0.0000

> <Gold.PLP.ligand.torsion>
0.3532

> <Gold.PLP.Chemscore.Hbond>
1.6780

> <Gold.PLP.Chemscore.CHOScore>
0.0000

> <Gold.PLP.Chemscore.Metal>
0.0000

> <Gold.Chemscore.Hbonds>
donor molecule, donor type, donor heavy atom, donor atom, acceptor molecule, acceptor atom, score
      P1  H  7989  7998       L1    13  0.94
      P1  H  7997  8010       L1     3  0.75

> <Gold.PLP.Chemscore.Internal.Correction>
0.0411

> <Gold.Rescore>
     Score         DG    S(hbond)    S(metal)    S(lipo)     H(rot)  DE(clash)    DE(int)     intcor
     17.05     -17.42       1.02        0.00     110.34       1.70       0.07       0.30       ----

> <Gold.Chemscore.Fitness>
17.0522

> <Gold.Chemscore.DG>
-17.4243

> <Gold.Chemscore.ZeroCoef>
-5.4800

> <Gold.Chemscore.Hbond>
1.0150

> <Gold.Chemscore.Metal>
0.0000

> <Gold.Chemscore.Lipo>
110.3372

> <Gold.Chemscore.Internal_Hbond>
0.0000

> <Gold.Chemscore.DEClash>
0.0746

> <Gold.Chemscore.DEInternal>
0.2975

> <Gold.Chemscore.Rot>
1.7013

> <Gold.Chemscore.Internal.Correction>
   9.000000E+99

> <Gold.Chemscore.Hbonds>
donor molecule, donor type, donor heavy atom, donor atom, acceptor molecule, acceptor atom, score
      P1  H  7989  7998       L1    13  0.28
      P1  H  7997  8010       L1     3  0.04

> <Gold.Chemscore.Hbond.Weighted>
-3.3902

> <Gold.Chemscore.Metal.Weighted>
-0.0000

> <Gold.Chemscore.Lipo.Weighted>
-12.9095

> <Gold.Chemscore.Internal_Hbond.Weighted>
0.0000

> <Gold.Chemscore.DEClash.Weighted>
0.0746

> <Gold.Chemscore.DEInternal.Weighted>
0.2975

> <Gold.Chemscore.Rot.Weighted>
4.3554

> <Gold.Chemscore.Internal.Correction.Weighted>
   9.000000E+99

> <Gold.Protein.RotatedTorsions>
[ 6907 6896 6895 6894 ] final -163.09 input  -60.11 | X-H torsion
[ 7974 7965 7964 7962 ] final  116.70 input  175.53 | X-H torsion
[ 8008 7997 7996 7995 ] final    2.60 input   59.86 | X-H torsion
[ 10167 10162 10161 10158 ] final  145.10 input  -65.29 | X-H torsion
[ 10718 10713 10712 10709 ] final  -95.38 input   66.30 | X-H torsion
[ 10763 10752 10751 10750 ] final -112.26 input  -60.55 | X-H torsion
[ 11005 11000 10999 10996 ] final  178.27 input  -57.11 | X-H torsion

> <Gold.Protein.ActiveResidues>
 VAL166  LYS551  ARG553  GLY616  TRP617  ASP618  TYR619  PRO620  LYS621  CYS622 
 ASP623  PHE694  ASN695  SER759  ASP760  ASP761  ALA762  ILE779  LEU786  VAL792 
 PHE793  MET794  SER795  GLU796  ALA797  LYS798  CYS799  TRP800  GLU811  SER814 

> <Gold.Protein.RotatedAtoms>
  151.3905  133.3790  159.2720 H   0  0  0  0  0  0  0  0  0  0  0  0  # atno 6907 bound_to 6896
  150.9509  134.8910  159.7681 H   0  0  0  0  0  0  0  0  0  0  0  0  # atno 6908 bound_to 6896
  152.5111  134.3860  159.9420 H   0  0  0  0  0  0  0  0  0  0  0  0  # atno 6909 bound_to 6896
  145.1764  139.3074  143.4441 H   0  0  0  0  0  0  0  0  0  0  0  0  # atno 7974 bound_to 7965
  154.6935  140.2658  155.6789 H   0  0  0  0  0  0  0  0  0  0  0  0  # atno 8008 bound_to 7997
  156.2740  140.2786  156.1445 H   0  0  0  0  0  0  0  0  0  0  0  0  # atno 8009 bound_to 7997
  155.0863  140.0373  157.2645 H   0  0  0  0  0  0  0  0  0  0  0  0  # atno 8010 bound_to 7997
  139.4933  144.5926  151.6650 H   0  0  0  0  0  0  0  0  0  0  0  0  # atno 10167 bound_to 10162
  156.0042  130.5106  150.6067 H   0  0  0  0  0  0  0  0  0  0  0  0  # atno 10718 bound_to 10713
  154.8341  135.4497  154.1166 H   0  0  0  0  0  0  0  0  0  0  0  0  # atno 10763 bound_to 10752
  153.2413  135.6916  153.7786 H   0  0  0  0  0  0  0  0  0  0  0  0  # atno 10764 bound_to 10752
  153.7132  135.3353  155.3227 H   0  0  0  0  0  0  0  0  0  0  0  0  # atno 10765 bound_to 10752
  140.3933  134.6843  157.4520 H   0  0  0  0  0  0  0  0  0  0  0  0  # atno 11005 bound_to 11000
  146.3460  140.1927  142.8589 LP  0  0  0  0  0  0  0  0  0  0  0  0  # atno 17320 bound_to 7965
  145.0181  140.8770  143.5183 LP  0  0  0  0  0  0  0  0  0  0  0  0  # atno 17321 bound_to 7965
  140.5556  144.0354  150.6146 LP  0  0  0  0  0  0  0  0  0  0  0  0  # atno 17342 bound_to 10162
  140.3422  143.3012  152.0576 LP  0  0  0  0  0  0  0  0  0  0  0  0  # atno 17343 bound_to 10162
  157.3907  131.0795  151.1396 LP  0  0  0  0  0  0  0  0  0  0  0  0  # atno 17370 bound_to 10713
  157.2089  130.6429  149.5766 LP  0  0  0  0  0  0  0  0  0  0  0  0  # atno 17371 bound_to 10713
  140.0390  134.6295  155.9005 LP  0  0  0  0  0  0  0  0  0  0  0  0  # atno 17394 bound_to 11000
  141.1883  133.6562  156.5318 LP  0  0  0  0  0  0  0  0  0  0  0  0  # atno 17395 bound_to 11000

$$$$
