AV-unprocessed.smi:2626|AV-procd|sdf|10238|dock3
  -GOLD-   2272014243D 1   1.00000     0.00000
 Structure written by MMmdl.
 26 27  0  0  0  0  0  0  0  0  2 V2000
  148.9001  140.5238  154.3703 C   0  0  0  0  0  0  0  0  0  0  0  0
  150.1894  140.0535  155.0109 C   0  0  0  0  0  0  0  0  0  0  0  0
  150.9015  139.0084  154.5210 C   0  0  0  0  0  0  0  0  0  0  0  0
  152.1397  138.6101  155.1915 C   0  0  0  0  0  0  0  0  0  0  0  0
  152.7869  137.6627  154.7501 O   0  0  0  0  0  0  0  0  0  0  0  0
  152.5164  139.3249  156.2913 N   0  5  0  0  0  0  0  0  0  0  0  0
  151.7340  140.3809  156.7312 C   0  0  0  0  0  0  0  0  0  0  0  0
  152.2235  141.0271  157.8560 N   0  0  0  0  0  0  0  0  0  0  0  0
  151.6238  142.3014  158.2363 C   0  0  0  0  0  0  0  0  0  0  0  0
  152.5147  143.0499  159.2418 C   0  0  0  0  0  0  0  0  0  0  0  0
  152.7586  142.2218  160.3726 O   0  0  0  0  0  0  0  0  0  0  0  0
  153.4358  141.0254  160.0069 C   0  0  0  0  0  0  0  0  0  0  0  0
  152.5691  140.2221  159.0226 C   0  0  0  0  0  0  0  0  0  0  0  0
  150.6312  140.7477  156.1482 N   0  0  0  0  0  0  0  0  0  0  0  0
  148.6465  139.9211  153.4977 H   0  0  0  0  0  0  0  0  0  0  0  0
  148.9942  141.5622  154.0516 H   0  0  0  0  0  0  0  0  0  0  0  0
  148.0777  140.4552  155.0829 H   0  0  0  0  0  0  0  0  0  0  0  0
  150.5646  138.4721  153.6460 H   0  0  0  0  0  0  0  0  0  0  0  0
  151.4691  142.9187  157.3501 H   0  0  0  0  0  0  0  0  0  0  0  0
  150.6413  142.1176  158.6733 H   0  0  0  0  0  0  0  0  0  0  0  0
  153.4590  143.3434  158.7805 H   0  0  0  0  0  0  0  0  0  0  0  0
  152.0225  143.9651  159.5708 H   0  0  0  0  0  0  0  0  0  0  0  0
  154.4056  141.2623  159.5662 H   0  0  0  0  0  0  0  0  0  0  0  0
  153.6284  140.4372  160.9040 H   0  0  0  0  0  0  0  0  0  0  0  0
  151.6526  139.8937  159.5147 H   0  0  0  0  0  0  0  0  0  0  0  0
  153.1033  139.3240  158.7090 H   0  0  0  0  0  0  0  0  0  0  0  0
  1  2  1  0  0  0  0
  1 15  1  0  0  0  0
  1 16  1  0  0  0  0
  1 17  1  0  0  0  0
  2 14  1  0  0  0  0
  2  3  2  0  0  0  0
  3  4  1  0  0  0  0
  3 18  1  0  0  0  0
  4  5  2  0  0  0  0
  4  6  1  0  0  0  0
  6  7  1  0  0  0  0
  7  8  1  0  0  0  0
  7 14  2  0  0  0  0
  8 13  1  0  0  0  0
  8  9  1  0  0  0  0
  9 10  1  0  0  0  0
  9 19  1  0  0  0  0
  9 20  1  0  0  0  0
 10 11  1  0  0  0  0
 10 21  1  0  0  0  0
 10 22  1  0  0  0  0
 11 12  1  0  0  0  0
 12 13  1  0  0  0  0
 12 23  1  0  0  0  0
 12 24  1  0  0  0  0
 13 25  1  0  0  0  0
 13 26  1  0  0  0  0
M  CHG  1   6  -1
M  END
> <s_m_source_file>
AV-unprocessed.smi

> <i_m_source_file_index>
2626

> <i_lp_mmshare_version>
43012

> <i_f3d_flags>
0

> <s_epik_input>
W0NIM11jMVtjSF1jKD1PKVtuSF1jKG4xKU4yW0NIMl1bQ0gyXU9bQ0gyXVtDSDJdMg==

> <s_epik_cmdline>
J2VwaWtfcHl0aG9uJywgJy1waCcsICc3LjAnLCAnLXRuJywgJzgnLCAnLW1hJywgJzIwMCcsICctbWV0YWxfYmluZGluZycsICctaW1hZScsICc8aW5maWxlLm1hZT4nLCAnLW9tYWUnLCAnPG91dGZpbGUubWFlPic=

> <r_lp_tautomer_probability>
1

> <r_epik_Ionization_Penalty>
4.9386

> <r_epik_Ionization_Penalty_Charging>
6.70104e-08

> <r_epik_Ionization_Penalty_Neutral>
4.9386

> <r_epik_State_Penalty>
2.49781

> <r_epik_Charging_Adjusted_Penalty>
2.49781

> <i_epik_Tot_Q>
-1

> <i_epik_Tot_abs_Q>
1

> <r_epik_Metal_State_Penalty>
0.117146

> <b_epik_Metal_Only>
0

> <s_lp_Force_Field>
OPLS_2005

> <r_lp_Energy>
25.1924

> <b_lp_Chiralities_Consistent>
1

> <s_lp_Variant>
AV-unprocessed.smi:2626-3

> <Gold.Version>
5.8.1

> <Gold.Id.Protein>
6NUR|6NUR_protein|mol2

> <Gold.PLP.Fitness>
35.3041

> <Gold.PLP.PLP>
-28.0258

> <Gold.PLP.part.hbond>
-2.0000

> <Gold.PLP.part.metal>
0.0000

> <Gold.PLP.part.buried>
-3.8495

> <Gold.PLP.part.nonpolar>
-22.4578

> <Gold.PLP.part.repulsive>
0.0838

> <Gold.PLP.ligand.clash>
0.0000

> <Gold.PLP.ligand.torsion>
0.1949

> <Gold.PLP.Chemscore.Hbond>
2.4282

> <Gold.PLP.Chemscore.CHOScore>
0.0000

> <Gold.PLP.Chemscore.Metal>
0.0000

> <Gold.Chemscore.Hbonds>
donor molecule, donor type, donor heavy atom, donor atom, acceptor molecule, acceptor atom, score
      P1  H  7997  8008       L1     6  2.00
      P1  H 10752 10765       L1     5  0.41

> <Gold.PLP.Chemscore.Internal.Correction>
0.3834

> <Gold.Rescore>
     Score         DG    S(hbond)    S(metal)    S(lipo)     H(rot)  DE(clash)    DE(int)     intcor
     12.70     -12.98       0.91        0.00      59.91       1.00       0.07       0.21       ----

> <Gold.Chemscore.Fitness>
12.7034

> <Gold.Chemscore.DG>
-12.9829

> <Gold.Chemscore.ZeroCoef>
-5.4800

> <Gold.Chemscore.Hbond>
0.9141

> <Gold.Chemscore.Metal>
0.0000

> <Gold.Chemscore.Lipo>
59.9118

> <Gold.Chemscore.Internal_Hbond>
0.0000

> <Gold.Chemscore.DEClash>
0.0688

> <Gold.Chemscore.DEInternal>
0.2106

> <Gold.Chemscore.Rot>
1.0000

> <Gold.Chemscore.Internal.Correction>
   9.000000E+99

> <Gold.Chemscore.Hbonds>
donor molecule, donor type, donor heavy atom, donor atom, acceptor molecule, acceptor atom, score
      P1  H  7997  8008       L1     6  0.29
      P1  H 10752 10765       L1     5  0.39

> <Gold.Chemscore.Hbond.Weighted>
-3.0532

> <Gold.Chemscore.Metal.Weighted>
-0.0000

> <Gold.Chemscore.Lipo.Weighted>
-7.0097

> <Gold.Chemscore.Internal_Hbond.Weighted>
0.0000

> <Gold.Chemscore.DEClash.Weighted>
0.0688

> <Gold.Chemscore.DEInternal.Weighted>
0.2106

> <Gold.Chemscore.Rot.Weighted>
2.5600

> <Gold.Chemscore.Internal.Correction.Weighted>
   9.000000E+99

> <Gold.Protein.RotatedTorsions>
[ 6907 6896 6895 6894 ] final -121.49 input  -60.11 | X-H torsion
[ 7974 7965 7964 7962 ] final   -6.71 input  175.53 | X-H torsion
[ 8008 7997 7996 7995 ] final  -50.35 input   59.86 | X-H torsion
[ 10167 10162 10161 10158 ] final -157.95 input  -65.29 | X-H torsion
[ 10718 10713 10712 10709 ] final  -33.71 input   66.30 | X-H torsion
[ 10763 10752 10751 10750 ] final  164.23 input  -60.55 | X-H torsion
[ 11005 11000 10999 10996 ] final  153.54 input  -57.11 | X-H torsion

> <Gold.Protein.ActiveResidues>
 VAL166  LYS551  ARG553  GLY616  TRP617  ASP618  TYR619  PRO620  LYS621  CYS622 
 ASP623  PHE694  ASN695  SER759  ASP760  ASP761  ALA762  ILE779  LEU786  VAL792 
 PHE793  MET794  SER795  GLU796  ALA797  LYS798  CYS799  TRP800  GLU811  SER814 

> <Gold.Protein.RotatedAtoms>
  150.8488  133.7819  159.3032 H   0  0  0  0  0  0  0  0  0  0  0  0  # atno 6907 bound_to 6896
  151.5497  135.1066  159.9956 H   0  0  0  0  0  0  0  0  0  0  0  0  # atno 6908 bound_to 6896
  152.4536  133.7635  159.6815 H   0  0  0  0  0  0  0  0  0  0  0  0  # atno 6909 bound_to 6896
  146.2324  140.2211  142.8337 H   0  0  0  0  0  0  0  0  0  0  0  0  # atno 7974 bound_to 7965
  154.4060  140.1274  156.4651 H   0  0  0  0  0  0  0  0  0  0  0  0  # atno 8008 bound_to 7997
  155.7235  140.3492  155.5007 H   0  0  0  0  0  0  0  0  0  0  0  0  # atno 8009 bound_to 7997
  155.9193  140.1049  157.1209 H   0  0  0  0  0  0  0  0  0  0  0  0  # atno 8010 bound_to 7997
  139.6730  143.9711  152.2295 H   0  0  0  0  0  0  0  0  0  0  0  0  # atno 10167 bound_to 10162
  156.3593  130.4321  149.7637 H   0  0  0  0  0  0  0  0  0  0  0  0  # atno 10718 bound_to 10713
  154.3057  135.2758  155.2590 H   0  0  0  0  0  0  0  0  0  0  0  0  # atno 10763 bound_to 10752
  154.5007  135.5809  153.6532 H   0  0  0  0  0  0  0  0  0  0  0  0  # atno 10764 bound_to 10752
  152.9894  135.6157  154.3231 H   0  0  0  0  0  0  0  0  0  0  0  0  # atno 10765 bound_to 10752
  140.1407  134.8740  157.2328 H   0  0  0  0  0  0  0  0  0  0  0  0  # atno 11005 bound_to 11000
  144.9631  140.8295  143.5501 LP  0  0  0  0  0  0  0  0  0  0  0  0  # atno 17320 bound_to 7965
  145.2184  139.2171  143.5106 LP  0  0  0  0  0  0  0  0  0  0  0  0  # atno 17321 bound_to 7965
  139.9481  144.6638  150.8199 LP  0  0  0  0  0  0  0  0  0  0  0  0  # atno 17342 bound_to 10162
  140.7625  143.3200  151.2644 LP  0  0  0  0  0  0  0  0  0  0  0  0  # atno 17343 bound_to 10162
  156.4807  130.8040  151.3054 LP  0  0  0  0  0  0  0  0  0  0  0  0  # atno 17370 bound_to 10713
  157.7471  131.0006  150.2934 LP  0  0  0  0  0  0  0  0  0  0  0  0  # atno 17371 bound_to 10713
  140.2725  134.3443  155.7369 LP  0  0  0  0  0  0  0  0  0  0  0  0  # atno 17394 bound_to 11000
  141.2185  133.7431  156.9244 LP  0  0  0  0  0  0  0  0  0  0  0  0  # atno 17395 bound_to 11000

$$$$
