AV-unprocessed.smi:103|AV-procd|sdf|977|dock5
  -GOLD-   2262017533D 1   1.00000     0.00000
 Structure written by MMmdl.
 53 55  0  0  0  0  0  0  0  0  1 V2000
  153.3420  141.3914  160.8308 C   0  0  0  0  0  0  0  0  0  0  0  0
  152.5584  142.2853  159.8783 C   0  0  0  0  0  0  0  0  0  0  0  0
  152.6179  143.5126  159.9593 O   0  0  0  0  0  0  0  0  0  0  0  0
  151.8357  141.5823  158.9857 O   0  0  0  0  0  0  0  0  0  0  0  0
  151.4586  142.1655  157.7458 C   0  0  0  0  0  0  0  0  0  0  0  0
  150.8925  141.1000  156.7870 C   0  0  2  0  0  0  0  0  0  0  0  0
  149.5086  141.3286  156.5525 O   0  0  0  0  0  0  0  0  0  0  0  0
  148.7646  140.7642  157.5841 C   0  0  1  0  0  0  0  0  0  0  0  0
  147.4650  140.2832  157.0122 N   0  0  0  0  0  0  0  0  0  0  0  0
  146.1833  140.7412  157.2395 C   0  0  0  0  0  0  0  0  0  0  0  0
  145.7201  142.1279  158.2701 S   0  0  0  0  0  0  0  0  0  0  0  0
  145.4123  143.4404  157.0193 C   0  0  0  0  0  0  0  0  0  0  0  0
  144.4524  141.7714  158.9264 O   0  0  0  0  0  0  0  0  0  0  0  0
  146.9000  142.4897  159.0700 O   0  0  0  0  0  0  0  0  0  0  0  0
  145.2265  140.1671  156.5618 N   0  0  0  0  0  0  0  0  0  0  0  0
  145.8955  139.1841  155.8460 C   0  0  0  0  0  0  0  0  0  0  0  0
  145.4861  138.1772  154.9358 C   0  0  0  0  0  0  0  0  0  0  0  0
  144.2083  137.9914  154.5777 N   0  0  0  0  0  0  0  0  0  0  0  0
  146.4277  137.3632  154.4044 N   0  0  0  0  0  0  0  0  0  0  0  0
  147.7097  137.5294  154.7445 C   0  0  0  0  0  0  0  0  0  0  0  0
  148.2426  138.4272  155.5765 N   0  0  0  0  0  0  0  0  0  0  0  0
  147.2924  139.2454  156.1169 C   0  0  0  0  0  0  0  0  0  0  0  0
  149.6163  139.6380  158.2089 C   0  0  1  0  0  0  0  0  0  0  0  0
  148.9974  138.3532  158.1490 O   0  0  0  0  0  0  0  0  0  0  0  0
  149.4625  137.3285  158.8811 C   0  0  0  0  0  0  0  0  0  0  0  0
  148.4652  136.1811  158.9622 C   0  0  0  0  0  0  0  0  0  0  0  0
  150.5537  137.2735  159.4470 O   0  0  0  0  0  0  0  0  0  0  0  0
  150.9109  139.6935  157.3995 C   0  0  1  0  0  0  0  0  0  0  0  0
  150.9086  138.7206  156.3585 O   0  0  0  0  0  0  0  0  0  0  0  0
  151.9239  138.6480  155.4834 C   0  0  0  0  0  0  0  0  0  0  0  0
  151.5780  137.7965  154.2696 C   0  0  0  0  0  0  0  0  0  0  0  0
  153.0218  139.1925  155.5986 O   0  0  0  0  0  0  0  0  0  0  0  0
  154.4050  141.4301  160.5926 H   0  0  0  0  0  0  0  0  0  0  0  0
  153.0089  140.3558  160.7572 H   0  0  0  0  0  0  0  0  0  0  0  0
  153.2054  141.7243  161.8597 H   0  0  0  0  0  0  0  0  0  0  0  0
  150.6800  142.8976  157.9606 H   0  0  0  0  0  0  0  0  0  0  0  0
  152.2823  142.7202  157.2940 H   0  0  0  0  0  0  0  0  0  0  0  0
  151.4449  141.1355  155.8472 H   0  0  0  0  0  0  0  0  0  0  0  0
  148.5048  141.5437  158.2968 H   0  0  0  0  0  0  0  0  0  0  0  0
  145.1202  144.3605  157.5246 H   0  0  0  0  0  0  0  0  0  0  0  0
  144.6124  143.1238  156.3502 H   0  0  0  0  0  0  0  0  0  0  0  0
  146.3190  143.6164  156.4412 H   0  0  0  0  0  0  0  0  0  0  0  0
  143.4874  138.5852  154.9620 H   0  0  0  0  0  0  0  0  0  0  0  0
  143.9685  137.2597  153.9245 H   0  0  0  0  0  0  0  0  0  0  0  0
  148.4090  136.8471  154.2843 H   0  0  0  0  0  0  0  0  0  0  0  0
  149.8379  139.9314  159.2360 H   0  0  0  0  0  0  0  0  0  0  0  0
  147.5258  136.5275  159.3936 H   0  0  0  0  0  0  0  0  0  0  0  0
  148.8556  135.3766  159.5857 H   0  0  0  0  0  0  0  0  0  0  0  0
  148.2653  135.7828  157.9675 H   0  0  0  0  0  0  0  0  0  0  0  0
  151.7734  139.5400  158.0501 H   0  0  0  0  0  0  0  0  0  0  0  0
  151.3491  136.7758  154.5765 H   0  0  0  0  0  0  0  0  0  0  0  0
  152.4126  137.7688  153.5690 H   0  0  0  0  0  0  0  0  0  0  0  0
  150.7083  138.2071  153.7562 H   0  0  0  0  0  0  0  0  0  0  0  0
  1  2  1  0  0  0  0
  1 33  1  0  0  0  0
  1 34  1  0  0  0  0
  1 35  1  0  0  0  0
  2  3  2  0  0  0  0
  2  4  1  0  0  0  0
  4  5  1  0  0  0  0
  5  6  1  0  0  0  0
  5 36  1  0  0  0  0
  5 37  1  0  0  0  0
  6 28  1  0  0  0  0
  6  7  1  0  0  0  0
  6 38  1  0  0  0  0
  7  8  1  0  0  0  0
  8  9  1  0  0  0  0
  8 23  1  0  0  0  0
  8 39  1  0  0  0  0
  9 22  1  0  0  0  0
  9 10  1  0  0  0  0
 10 11  1  0  0  0  0
 10 15  2  0  0  0  0
 11 12  1  0  0  0  0
 11 13  2  0  0  0  0
 11 14  2  0  0  0  0
 12 40  1  0  0  0  0
 12 41  1  0  0  0  0
 12 42  1  0  0  0  0
 15 16  1  0  0  0  0
 16 22  2  0  0  0  0
 16 17  1  0  0  0  0
 17 18  1  0  0  0  0
 17 19  2  0  0  0  0
 18 43  1  0  0  0  0
 18 44  1  0  0  0  0
 19 20  1  0  0  0  0
 20 21  2  0  0  0  0
 20 45  1  0  0  0  0
 21 22  1  0  0  0  0
 23 24  1  0  0  0  0
 23 28  1  0  0  0  0
 23 46  1  0  0  0  0
 24 25  1  0  0  0  0
 25 26  1  0  0  0  0
 25 27  2  0  0  0  0
 26 47  1  0  0  0  0
 26 48  1  0  0  0  0
 26 49  1  0  0  0  0
 28 29  1  0  0  0  0
 28 50  1  0  0  0  0
 29 30  1  0  0  0  0
 30 31  1  0  0  0  0
 30 32  2  0  0  0  0
 31 51  1  0  0  0  0
 31 52  1  0  0  0  0
 31 53  1  0  0  0  0
M  END
> <s_m_source_file>
AV-unprocessed.smi

> <i_m_source_file_index>
103

> <i_lp_mmshare_version>
43012

> <i_f3d_flags>
0

> <s_epik_input>
W0NIM11DKD1PKU9bQ0gyXVtDQEBIXTFPW0NASF0oW0NAQEhdKE9DKD1PKVtDSDNdKVtDQEhdMU9DKD1PKVtDSDNdKW4oYyhuMilTKD1PKSg9TylbQ0gzXSljKGMyMyluW2NIXW5jM1tOSDJd

> <s_epik_cmdline>
J2VwaWtfcHl0aG9uJywgJy1waCcsICc3LjAnLCAnLXRuJywgJzgnLCAnLW1hJywgJzIwMCcsICctbWV0YWxfYmluZGluZycsICctaW1hZScsICc8aW5maWxlLm1hZT4nLCAnLW9tYWUnLCAnPG91dGZpbGUubWFlPic=

> <r_lp_tautomer_probability>
1

> <r_epik_Ionization_Penalty>
1.51338e-05

> <r_epik_Ionization_Penalty_Charging>
0

> <r_epik_Ionization_Penalty_Neutral>
1.51338e-05

> <r_epik_State_Penalty>
-0

> <r_epik_Charging_Adjusted_Penalty>
0

> <i_epik_Tot_Q>
0

> <i_epik_Tot_abs_Q>
0

> <r_epik_Metal_State_Penalty>
-0

> <b_epik_Metal_Only>
0

> <s_epik_Chemistry_Notes>
This compound has an ester and may undergo hydrolysis at high or low pH. This compound contains an acetal/aminal-like group ( X-CH(R)-Y where X, Y are N, S, or O) that may be acid/base labile, releasing an aldehyde.

> <s_lp_Force_Field>
OPLS_2005

> <r_lp_Energy>
14.6626

> <b_lp_Chiralities_Consistent>
1

> <s_lp_Variant>
AV-unprocessed.smi:103-1

> <Gold.Version>
5.8.1

> <Gold.Id.Protein>
6NUR|6NUR_protein|mol2

> <Gold.PLP.Fitness>
39.7340

> <Gold.PLP.PLP>
-32.5367

> <Gold.PLP.part.hbond>
-2.5854

> <Gold.PLP.part.metal>
0.0000

> <Gold.PLP.part.buried>
-7.9099

> <Gold.PLP.part.nonpolar>
-22.9984

> <Gold.PLP.part.repulsive>
0.2492

> <Gold.PLP.ligand.clash>
0.0000

> <Gold.PLP.ligand.torsion>
2.7248

> <Gold.PLP.Chemscore.Hbond>
2.4343

> <Gold.PLP.Chemscore.CHOScore>
1.0000

> <Gold.PLP.Chemscore.Metal>
0.0000

> <Gold.Chemscore.Hbonds>
donor molecule, donor type, donor heavy atom, donor atom, acceptor molecule, acceptor atom, score
      P1  H  6896  6908       L1    27  0.34
      P1  H  6934  6946       L1    14  0.25
      P1  H  7997  8008       L1    32  1.00
      L1  C    20    45       P1  7948  0.95

> <Gold.PLP.Chemscore.Internal.Correction>
2.3441

> <Gold.Rescore>
     Score         DG    S(hbond)    S(metal)    S(lipo)     H(rot)  DE(clash)    DE(int)     intcor
      0.05      -8.82       2.72        0.00      43.88       4.25       0.01       8.76       ----

> <Gold.Chemscore.Fitness>
0.0513

> <Gold.Chemscore.DG>
-8.8222

> <Gold.Chemscore.ZeroCoef>
-5.4800

> <Gold.Chemscore.Hbond>
2.7177

> <Gold.Chemscore.Metal>
0.0000

> <Gold.Chemscore.Lipo>
43.8780

> <Gold.Chemscore.Internal_Hbond>
0.0000

> <Gold.Chemscore.DEClash>
0.0089

> <Gold.Chemscore.DEInternal>
8.7621

> <Gold.Chemscore.Rot>
4.2456

> <Gold.Chemscore.Internal.Correction>
   9.000000E+99

> <Gold.Chemscore.Hbonds>
donor molecule, donor type, donor heavy atom, donor atom, acceptor molecule, acceptor atom, score
      P1  H  6896  6908       L1    27  0.29
      P1  H  6934  6946       L1    14  0.10
      P1  H  7997  8008       L1    32  1.00

> <Gold.Chemscore.Hbond.Weighted>
-9.0772

> <Gold.Chemscore.Metal.Weighted>
-0.0000

> <Gold.Chemscore.Lipo.Weighted>
-5.1337

> <Gold.Chemscore.Internal_Hbond.Weighted>
0.0000

> <Gold.Chemscore.DEClash.Weighted>
0.0089

> <Gold.Chemscore.DEInternal.Weighted>
8.7621

> <Gold.Chemscore.Rot.Weighted>
10.8687

> <Gold.Chemscore.Internal.Correction.Weighted>
   9.000000E+99

> <Gold.Protein.RotatedTorsions>
[ 6907 6896 6895 6894 ] final -139.60 input  -60.11 | X-H torsion
[ 7974 7965 7964 7962 ] final -118.38 input  175.53 | X-H torsion
[ 8008 7997 7996 7995 ] final  -37.12 input   59.86 | X-H torsion
[ 10167 10162 10161 10158 ] final -128.14 input  -65.29 | X-H torsion
[ 10718 10713 10712 10709 ] final   74.42 input   66.30 | X-H torsion
[ 10763 10752 10751 10750 ] final   57.98 input  -60.55 | X-H torsion
[ 11005 11000 10999 10996 ] final  106.87 input  -57.11 | X-H torsion

> <Gold.Protein.ActiveResidues>
 VAL166  LYS551  ARG553  GLY616  TRP617  ASP618  TYR619  PRO620  LYS621  CYS622 
 ASP623  PHE694  ASN695  SER759  ASP760  ASP761  ALA762  ILE779  LEU786  VAL792 
 PHE793  MET794  SER795  GLU796  ALA797  LYS798  CYS799  TRP800  GLU811  SER814 

> <Gold.Protein.RotatedAtoms>
  151.0499  133.5633  159.2643 H   0  0  0  0  0  0  0  0  0  0  0  0  # atno 6907 bound_to 6896
  151.2648  135.0665  159.9122 H   0  0  0  0  0  0  0  0  0  0  0  0  # atno 6908 bound_to 6896
  152.5380  134.0238  159.8048 H   0  0  0  0  0  0  0  0  0  0  0  0  # atno 6909 bound_to 6896
  145.0745  140.8382  143.4076 H   0  0  0  0  0  0  0  0  0  0  0  0  # atno 7974 bound_to 7965
  154.4059  140.1612  156.2484 H   0  0  0  0  0  0  0  0  0  0  0  0  # atno 8008 bound_to 7997
  155.9140  140.3425  155.6098 H   0  0  0  0  0  0  0  0  0  0  0  0  # atno 8009 bound_to 7997
  155.7302  140.0779  157.2283 H   0  0  0  0  0  0  0  0  0  0  0  0  # atno 8010 bound_to 7997
  139.9534  143.6030  152.2468 H   0  0  0  0  0  0  0  0  0  0  0  0  # atno 10167 bound_to 10162
  157.6591  130.9677  150.1208 H   0  0  0  0  0  0  0  0  0  0  0  0  # atno 10718 bound_to 10713
  152.9861  135.5623  154.5478 H   0  0  0  0  0  0  0  0  0  0  0  0  # atno 10763 bound_to 10752
  154.4920  135.2793  155.1491 H   0  0  0  0  0  0  0  0  0  0  0  0  # atno 10764 bound_to 10752
  154.2956  135.6317  153.5456 H   0  0  0  0  0  0  0  0  0  0  0  0  # atno 10765 bound_to 10752
  139.8820  134.9383  156.5733 H   0  0  0  0  0  0  0  0  0  0  0  0  # atno 11005 bound_to 11000
  145.1252  139.2667  143.5568 LP  0  0  0  0  0  0  0  0  0  0  0  0  # atno 17320 bound_to 7965
  146.3529  140.0888  142.8613 LP  0  0  0  0  0  0  0  0  0  0  0  0  # atno 17321 bound_to 7965
  139.6610  144.7662  151.1962 LP  0  0  0  0  0  0  0  0  0  0  0  0  # atno 17342 bound_to 10162
  140.7576  143.6010  150.8700 LP  0  0  0  0  0  0  0  0  0  0  0  0  # atno 17343 bound_to 10162
  156.2080  130.3664  149.8706 LP  0  0  0  0  0  0  0  0  0  0  0  0  # atno 17370 bound_to 10713
  156.6592  130.8775  151.3544 LP  0  0  0  0  0  0  0  0  0  0  0  0  # atno 17371 bound_to 10713
  140.8082  133.8450  155.8786 LP  0  0  0  0  0  0  0  0  0  0  0  0  # atno 17394 bound_to 11000
  140.9531  134.1753  157.4713 LP  0  0  0  0  0  0  0  0  0  0  0  0  # atno 17395 bound_to 11000

$$$$
