#       Name:                AV-unprocessed.smi:193
#       Creating user name   scv26
#       Creation time:       Thu Mar 26 19:32:45 2020


#       File generated by GOLD software.
#

@<TRIPOS>MOLECULE
AV-unprocessed.smi:193
    69    73     1
SMALL
NO_CHARGES


@<TRIPOS>ATOM
      1 ****        -3.6707  -3.8632  -1.0748 C.3            1 S1                 0.0000
      2 ****        -3.1602  -2.4203  -0.9291 C.3            1 S1                 0.0000
      3 ****        -1.6204  -2.4088  -1.0254 C.3            1 S1                 0.0000
      4 ****        -0.9857  -1.2458  -0.4009 N.pl3          1 S1                 0.0000
      5 ****         0.3119  -1.3540  -0.0099 C.ar           1 S1                 0.0000
      6 ****         1.1338  -2.1970  -0.6902 N.ar           1 S1                 0.0000
      7 ****         2.4165  -2.3243  -0.3385 C.ar           1 S1                 0.0000
      8 ****         3.0740  -1.7161   0.6496 N.ar           1 S1                 0.0000
      9 ****         2.2556  -0.8754   1.3440 C.ar           1 S1                 0.0000
     10 ****         0.8756  -0.6358   1.0854 C.ar           1 S1                 0.0000
     11 ****         0.3760   0.2721   2.0131 N.2            1 S1                 0.0000
     12 ****         1.4021   0.5603   2.7663 C.2            1 S1                 0.0000
     13 ****         2.5726  -0.0813   2.4321 N.pl3          1 S1                 0.0000
     14 ****         3.8584   0.0470   3.1010 C.3            1 S1                 0.0000
     15 ****         4.7094   1.2431   2.6070 C.3            1 S1                 0.0000
     16 ****         4.0153   2.4323   2.9442 O.3            1 S1                 0.0000
     17 ****         6.0769   1.2572   3.3194 C.3            1 S1                 0.0000
     18 ****         7.0223   2.3256   2.7425 C.3            1 S1                 0.0000
     19 ****         7.1725   2.1349   1.3411 O.3            1 S1                 0.0000
     20 ****         5.9504   2.2918   0.6304 C.3            1 S1                 0.0000
     21 ****         4.9350   1.2257   1.0790 C.3            1 S1                 0.0000
     22 ****        -1.5913   0.0852  -0.4219 C.3            1 S1                 0.0000
     23 ****        -2.3037   0.4144  -1.7405 C.3            1 S1                 0.0000
     24 ****        -3.7016  -0.0778  -1.7404 N.4            1 S1                 1.0000
     25 ****        -4.5562   0.7071  -2.6601 C.3            1 S1                 0.0000
     26 ****        -5.0855   1.9846  -2.0500 C.3            1 S1                 0.0000
     27 ****        -6.0040   0.7948  -2.2295 C.3            1 S1                 0.0000
     28 ****        -7.1108   0.8328  -3.2607 C.3            1 S1                 0.0000
     29 ****        -3.8158  -1.5322  -2.0091 C.3            1 S1                 0.0000
     30 ****        -3.3994  -4.2842  -2.0436 H              1 S1                 0.0000
     31 ****        -4.7562  -3.9115  -0.9827 H              1 S1                 0.0000
     32 ****        -3.2526  -4.5099  -0.3027 H              1 S1                 0.0000
     33 ****        -3.4662  -2.0771   0.0605 H              1 S1                 0.0000
     34 ****        -1.2406  -3.2993  -0.5216 H              1 S1                 0.0000
     35 ****        -1.3013  -2.4875  -2.0654 H              1 S1                 0.0000
     36 ****         2.9997  -3.0115  -0.9341 H              1 S1                 0.0000
     37 ****         1.3343   1.2536   3.5924 H              1 S1                 0.0000
     38 ****         3.6776   0.1275   4.1740 H              1 S1                 0.0000
     39 ****         4.4065  -0.8852   2.9579 H              1 S1                 0.0000
     40 ****         4.5319   3.1710   2.6606 H              1 S1                 0.0000
     41 ****         5.9497   1.4088   4.3921 H              1 S1                 0.0000
     42 ****         6.5524   0.2821   3.2044 H              1 S1                 0.0000
     43 ****         6.6539   3.3317   2.9480 H              1 S1                 0.0000
     44 ****         8.0024   2.2473   3.2135 H              1 S1                 0.0000
     45 ****         5.5570   3.2984   0.7801 H              1 S1                 0.0000
     46 ****         6.1502   2.1880  -0.4362 H              1 S1                 0.0000
     47 ****         5.3107   0.2453   0.7837 H              1 S1                 0.0000
     48 ****         3.9955   1.3679   0.5438 H              1 S1                 0.0000
     49 ****        -2.2658   0.1987   0.4275 H              1 S1                 0.0000
     50 ****        -0.8105   0.8351  -0.2931 H              1 S1                 0.0000
     51 ****        -2.3280   1.5017  -1.8262 H              1 S1                 0.0000
     52 ****        -1.7500   0.0564  -2.6100 H              1 S1                 0.0000
     53 ****        -4.2911   0.6690  -3.7156 H              1 S1                 0.0000
     54 ****        -4.7835   2.2356  -1.0347 H              1 S1                 0.0000
     55 ****        -5.2264   2.8351  -2.7142 H              1 S1                 0.0000
     56 ****        -6.2779   0.2655  -1.3182 H              1 S1                 0.0000
     57 ****        -6.7982   1.3883  -4.1456 H              1 S1                 0.0000
     58 ****        -7.9957   1.3135  -2.8434 H              1 S1                 0.0000
     59 ****        -7.3748  -0.1809  -3.5626 H              1 S1                 0.0000
     60 ****        -3.4106  -1.7618  -2.9962 H              1 S1                 0.0000
     61 ****        -4.8787  -1.7734  -2.0554 H              1 S1                 0.0000
     62 ****        -4.0683   0.0828  -0.8131 H              1 S1                 0.0000
     63 ****         0.7755  -2.7257  -1.4596 LP             1 S1                 0.0000
     64 ****         4.0424  -1.8583   0.8547 LP             1 S1                 0.0000
     65 ****        -0.5571   0.6240   2.0863 LP             1 S1                 0.0000
     66 ****         3.8803   2.4751   3.9341 LP             1 S1                 0.0000
     67 ****         3.1267   2.4460   2.4857 LP             1 S1                 0.0000
     68 ****         7.5200   1.2112   1.1796 LP             1 S1                 0.0000
     69 ****         7.8311   2.8038   0.9962 LP             1 S1                 0.0000
@<TRIPOS>BOND
    1    1    2 1     
    2    1   30 1     
    3    1   31 1     
    4    1   32 1     
    5    2   29 1     
    6    2    3 1     
    7    2   33 1     
    8    3    4 1     
    9    3   34 1     
   10    3   35 1     
   11    4    5 1     
   12    4   22 1     
   13    5   10 ar    
   14    5    6 ar    
   15    6    7 ar    
   16    7    8 ar    
   17    7   36 1     
   18    8    9 ar    
   19    9   13 1     
   20    9   10 ar    
   21   10   11 1     
   22   11   12 2     
   23   12   13 1     
   24   12   37 1     
   25   13   14 1     
   26   14   15 1     
   27   14   38 1     
   28   14   39 1     
   29   15   21 1     
   30   15   16 1     
   31   15   17 1     
   32   16   40 1     
   33   17   18 1     
   34   17   41 1     
   35   17   42 1     
   36   18   19 1     
   37   18   43 1     
   38   18   44 1     
   39   19   20 1     
   40   20   21 1     
   41   20   45 1     
   42   20   46 1     
   43   21   47 1     
   44   21   48 1     
   45   22   23 1     
   46   22   49 1     
   47   22   50 1     
   48   23   24 1     
   49   23   51 1     
   50   23   52 1     
   51   24   25 1     
   52   24   29 1     
   53   24   62 1     
   54   25   27 1     
   55   25   26 1     
   56   25   53 1     
   57   26   27 1     
   58   26   54 1     
   59   26   55 1     
   60   27   28 1     
   61   27   56 1     
   62   28   57 1     
   63   28   58 1     
   64   28   59 1     
   65   29   60 1     
   66   29   61 1     
   67    6   63 1     
   68    8   64 1     
   69   11   65 1     
   70   16   66 1     
   71   16   67 1     
   72   19   68 1     
   73   19   69 1     
@<TRIPOS>SUBSTRUCTURE
      1 S1             1
@<TRIPOS>SET
LONE_PAIRS      STATIC     ATOMS    <user>   **** ""
7 63 64 65 66 67 68 69
DONOR_HYDROGENS      STATIC     ATOMS    <user>   **** ""
2 40 62
ATOM$BLUE        STATIC     ATOMS    COLORGROUP SYSTEM
7 63 64 65 66 67 68 69
ATOM$RED        STATIC     ATOMS    COLORGROUP SYSTEM
2 40 62
