AV-unprocessed.smi:2586|AV-procd|sdf|10145|dock3
  -GOLD-   2272014153D 1   1.00000     0.00000
 Structure written by MMmdl.
 30 31  0  0  0  0  0  0  0  0  1 V2000
  149.9675  135.8260  145.8324 C   0  0  0  0  0  0  0  0  0  0  0  0
  151.1368  135.7179  146.6355 O   0  0  0  0  0  0  0  0  0  0  0  0
  150.9783  135.9428  148.0407 C   0  0  0  0  0  0  0  0  0  0  0  0
  150.7713  137.4268  148.3672 C   0  0  0  0  0  0  0  0  0  0  0  0
  150.6265  137.6236  149.8064 N   0  0  0  0  0  0  0  0  0  0  0  0
  151.2027  138.5984  150.5231 C   0  0  0  0  0  0  0  0  0  0  0  0
  151.9708  139.4327  150.0440 O   0  0  0  0  0  0  0  0  0  0  0  0
  150.8232  138.5367  151.8112 N   0  0  0  0  0  0  0  0  0  0  0  0
  151.1754  139.3520  152.8389 C   0  0  0  0  0  0  0  0  0  0  0  0
  151.0311  139.0826  154.1731 C   0  0  0  0  0  0  0  0  0  0  0  0
  151.4813  140.1086  155.0195 N   0  0  0  0  0  0  0  0  0  0  0  0
  151.9615  141.1429  154.3940 N   0  0  0  0  0  0  0  0  0  0  0  0
  151.8933  140.9294  152.7348 S   0  0  0  0  0  0  0  0  0  0  0  0
  149.9215  134.9391  148.5395 C   0  0  0  0  0  0  0  0  0  0  0  0
  151.0427  133.9367  148.8190 C   0  0  0  0  0  0  0  0  0  0  0  0
  152.0071  135.1241  148.8489 C   0  0  0  0  0  0  0  0  0  0  0  0
  150.2509  135.7623  144.7822 H   0  0  0  0  0  0  0  0  0  0  0  0
  149.4495  136.7733  145.9775 H   0  0  0  0  0  0  0  0  0  0  0  0
  149.2675  135.0140  146.0248 H   0  0  0  0  0  0  0  0  0  0  0  0
  151.6394  138.0032  148.0460 H   0  0  0  0  0  0  0  0  0  0  0  0
  149.9308  137.8386  147.8074 H   0  0  0  0  0  0  0  0  0  0  0  0
  150.0105  136.9844  150.2868 H   0  0  0  0  0  0  0  0  0  0  0  0
  150.1826  137.7942  152.0501 H   0  0  0  0  0  0  0  0  0  0  0  0
  150.6182  138.1882  154.6157 H   0  0  0  0  0  0  0  0  0  0  0  0
  149.4226  135.2692  149.4521 H   0  0  0  0  0  0  0  0  0  0  0  0
  149.1997  134.6176  147.7878 H   0  0  0  0  0  0  0  0  0  0  0  0
  150.9509  133.3976  149.7624 H   0  0  0  0  0  0  0  0  0  0  0  0
  151.2263  133.2627  147.9809 H   0  0  0  0  0  0  0  0  0  0  0  0
  152.9624  134.9344  148.3608 H   0  0  0  0  0  0  0  0  0  0  0  0
  152.1530  135.5122  149.8583 H   0  0  0  0  0  0  0  0  0  0  0  0
  1  2  1  0  0  0  0
  1 17  1  0  0  0  0
  1 18  1  0  0  0  0
  1 19  1  0  0  0  0
  2  3  1  0  0  0  0
  3 16  1  0  0  0  0
  3  4  1  0  0  0  0
  3 14  1  0  0  0  0
  4  5  1  0  0  0  0
  4 20  1  0  0  0  0
  4 21  1  0  0  0  0
  5  6  1  0  0  0  0
  5 22  1  0  0  0  0
  6  7  2  0  0  0  0
  6  8  1  0  0  0  0
  8  9  1  0  0  0  0
  8 23  1  0  0  0  0
  9 13  1  0  0  0  0
  9 10  2  0  0  0  0
 10 11  1  0  0  0  0
 10 24  1  0  0  0  0
 11 12  2  0  0  0  0
 12 13  1  0  0  0  0
 14 15  1  0  0  0  0
 14 25  1  0  0  0  0
 14 26  1  0  0  0  0
 15 16  1  0  0  0  0
 15 27  1  0  0  0  0
 15 28  1  0  0  0  0
 16 29  1  0  0  0  0
 16 30  1  0  0  0  0
M  END
> <s_m_source_file>
AV-unprocessed.smi

> <i_m_source_file_index>
2586

> <i_lp_mmshare_version>
43012

> <i_f3d_flags>
0

> <s_epik_input>
W0NIMl0xW0NIMl1bQ0gyXUMxKE9bQ0gzXSlbQ0gyXVtOSF1DKD1PKVtOSF1jMltjSF1ubnMy

> <s_epik_cmdline>
J2VwaWtfcHl0aG9uJywgJy1waCcsICc3LjAnLCAnLXRuJywgJzgnLCAnLW1hJywgJzIwMCcsICctbWV0YWxfYmluZGluZycsICctaW1hZScsICc8aW5maWxlLm1hZT4nLCAnLW9tYWUnLCAnPG91dGZpbGUubWFlPic=

> <r_lp_tautomer_probability>
1

> <r_epik_Ionization_Penalty>
2.25632e-05

> <r_epik_Ionization_Penalty_Charging>
0

> <r_epik_Ionization_Penalty_Neutral>
2.25632e-05

> <r_epik_State_Penalty>
-0

> <r_epik_Charging_Adjusted_Penalty>
0

> <i_epik_Tot_Q>
0

> <i_epik_Tot_abs_Q>
0

> <r_epik_Metal_State_Penalty>
-0

> <b_epik_Metal_Only>
0

> <s_lp_Force_Field>
OPLS_2005

> <r_lp_Energy>
14.9091

> <b_lp_Chiralities_Consistent>
1

> <s_lp_Variant>
AV-unprocessed.smi:2586-1

> <Gold.Version>
5.8.1

> <Gold.Id.Protein>
6NUR|6NUR_protein|mol2

> <Gold.PLP.Fitness>
39.5655

> <Gold.PLP.PLP>
-24.3354

> <Gold.PLP.part.hbond>
-5.9156

> <Gold.PLP.part.metal>
0.0000

> <Gold.PLP.part.buried>
-1.4087

> <Gold.PLP.part.nonpolar>
-16.9618

> <Gold.PLP.part.repulsive>
0.2656

> <Gold.PLP.ligand.clash>
0.0000

> <Gold.PLP.ligand.torsion>
0.4486

> <Gold.PLP.Chemscore.Hbond>
4.3020

> <Gold.PLP.Chemscore.CHOScore>
0.9803

> <Gold.PLP.Chemscore.Metal>
0.0000

> <Gold.Chemscore.Hbonds>
donor molecule, donor type, donor heavy atom, donor atom, acceptor molecule, acceptor atom, score
      L1  H     8    23       P1  7948  0.20

> <Gold.PLP.Chemscore.Internal.Correction>
0.2805

> <Gold.Rescore>
     Score         DG    S(hbond)    S(metal)    S(lipo)     H(rot)  DE(clash)    DE(int)     intcor
     14.70     -15.29       2.65        0.00      43.53       1.61       0.14       0.45       ----

> <Gold.Chemscore.Fitness>
14.6984

> <Gold.Chemscore.DG>
-15.2923

> <Gold.Chemscore.ZeroCoef>
-5.4800

> <Gold.Chemscore.Hbond>
2.6500

> <Gold.Chemscore.Metal>
0.0000

> <Gold.Chemscore.Lipo>
43.5326

> <Gold.Chemscore.Internal_Hbond>
0.0000

> <Gold.Chemscore.DEClash>
0.1422

> <Gold.Chemscore.DEInternal>
0.4517

> <Gold.Chemscore.Rot>
1.6141

> <Gold.Chemscore.Internal.Correction>
   9.000000E+99

> <Gold.Chemscore.Hbond.Weighted>
-8.8510

> <Gold.Chemscore.Metal.Weighted>
-0.0000

> <Gold.Chemscore.Lipo.Weighted>
-5.0933

> <Gold.Chemscore.Internal_Hbond.Weighted>
0.0000

> <Gold.Chemscore.DEClash.Weighted>
0.1422

> <Gold.Chemscore.DEInternal.Weighted>
0.4517

> <Gold.Chemscore.Rot.Weighted>
4.1320

> <Gold.Chemscore.Internal.Correction.Weighted>
   9.000000E+99

> <Gold.Protein.RotatedTorsions>
[ 6907 6896 6895 6894 ] final  -25.19 input  -60.11 | X-H torsion
[ 7974 7965 7964 7962 ] final   63.73 input  175.53 | X-H torsion
[ 8008 7997 7996 7995 ] final -154.72 input   59.86 | X-H torsion
[ 10167 10162 10161 10158 ] final  -45.39 input  -65.29 | X-H torsion
[ 10718 10713 10712 10709 ] final -163.64 input   66.30 | X-H torsion
[ 10763 10752 10751 10750 ] final   84.78 input  -60.55 | X-H torsion
[ 11005 11000 10999 10996 ] final   74.88 input  -57.11 | X-H torsion

> <Gold.Protein.ActiveResidues>
 VAL166  LYS551  ARG553  GLY616  TRP617  ASP618  TYR619  PRO620  LYS621  CYS622 
 ASP623  PHE694  ASN695  SER759  ASP760  ASP761  ALA762  ILE779  LEU786  VAL792 
 PHE793  MET794  SER795  GLU796  ALA797  LYS798  CYS799  TRP800  GLU811  SER814 

> <Gold.Protein.RotatedAtoms>
  151.1787  135.0351  159.8782 H   0  0  0  0  0  0  0  0  0  0  0  0  # atno 6907 bound_to 6896
  152.5446  134.1087  159.8359 H   0  0  0  0  0  0  0  0  0  0  0  0  # atno 6908 bound_to 6896
  151.1201  133.5063  159.2634 H   0  0  0  0  0  0  0  0  0  0  0  0  # atno 6909 bound_to 6896
  145.8584  139.3299  143.0833 H   0  0  0  0  0  0  0  0  0  0  0  0  # atno 7974 bound_to 7965
  155.6908  140.0755  157.2449 H   0  0  0  0  0  0  0  0  0  0  0  0  # atno 8008 bound_to 7997
  154.4089  140.1665  156.2136 H   0  0  0  0  0  0  0  0  0  0  0  0  # atno 8009 bound_to 7997
  155.9454  140.3381  155.6365 H   0  0  0  0  0  0  0  0  0  0  0  0  # atno 8010 bound_to 7997
  140.6860  143.2882  151.3631 H   0  0  0  0  0  0  0  0  0  0  0  0  # atno 10167 bound_to 10162
  156.6276  130.8916  151.2971 H   0  0  0  0  0  0  0  0  0  0  0  0  # atno 10718 bound_to 10713
  153.1413  135.4641  154.9500 H   0  0  0  0  0  0  0  0  0  0  0  0  # atno 10763 bound_to 10752
  154.7749  135.3170  154.8115 H   0  0  0  0  0  0  0  0  0  0  0  0  # atno 10764 bound_to 10752
  153.8637  135.6910  153.4834 H   0  0  0  0  0  0  0  0  0  0  0  0  # atno 10765 bound_to 10752
  139.9370  134.7470  156.1202 H   0  0  0  0  0  0  0  0  0  0  0  0  # atno 11005 bound_to 11000
  145.9277  140.9071  143.0372 LP  0  0  0  0  0  0  0  0  0  0  0  0  # atno 17320 bound_to 7965
  144.6727  140.1375  143.7439 LP  0  0  0  0  0  0  0  0  0  0  0  0  # atno 17321 bound_to 7965
  139.6219  144.0890  152.2399 LP  0  0  0  0  0  0  0  0  0  0  0  0  # atno 17342 bound_to 10162
  140.0337  144.6061  150.7467 LP  0  0  0  0  0  0  0  0  0  0  0  0  # atno 17343 bound_to 10162
  157.7209  130.9558  150.1437 LP  0  0  0  0  0  0  0  0  0  0  0  0  # atno 17370 bound_to 10713
  156.2261  130.3678  149.8499 LP  0  0  0  0  0  0  0  0  0  0  0  0  # atno 17371 bound_to 10713
  141.0988  133.6685  156.2706 LP  0  0  0  0  0  0  0  0  0  0  0  0  # atno 17394 bound_to 11000
  140.6050  134.5516  157.5524 LP  0  0  0  0  0  0  0  0  0  0  0  0  # atno 17395 bound_to 11000

$$$$
