AV-unprocessed.smi:1464|AV-procd|sdf|5938|dock1
  -GOLD-   22720 6 23D 1   1.00000     0.00000
 Structure written by MMmdl.
 40 41  0  0  0  0  0  0  0  0  2 V2000
  154.2810  141.9247  159.4449 C   0  0  0  0  0  0  0  0  0  0  0  0
  152.8565  142.2942  159.9072 C   0  0  1  0  0  0  0  0  0  0  0  0
  152.5691  143.7969  159.7157 C   0  0  0  0  0  0  0  0  0  0  0  0
  152.3809  144.1658  158.2361 C   0  0  0  0  0  0  0  0  0  0  0  0
  151.2709  143.3233  157.5933 C   0  0  0  0  0  0  0  0  0  0  0  0
  151.5177  141.8097  157.7650 C   0  0  2  0  0  0  0  0  0  0  0  0
  150.3804  141.0705  157.2212 N   0  0  0  0  0  0  0  0  0  0  0  0
  150.3729  140.3761  156.0731 C   0  0  0  0  0  0  0  0  0  0  0  0
  151.3549  140.2854  155.3346 O   0  0  0  0  0  0  0  0  0  0  0  0
  149.0404  139.6928  155.7261 C   0  0  0  0  0  0  0  0  0  0  0  0
  147.9674  140.6161  155.3280 N   0  0  0  0  0  0  0  0  0  0  0  0
  146.7331  140.4480  156.0909 N   0  5  0  0  0  0  0  0  0  0  0  0
  145.6688  141.2468  155.8135 C   0  0  0  0  0  0  0  0  0  0  0  0
  144.5963  141.1578  156.4066 O   0  0  0  0  0  0  0  0  0  0  0  0
  145.8183  142.2482  154.7706 C   0  0  0  0  0  0  0  0  0  0  0  0
  146.9750  142.3927  154.0944 C   0  0  0  0  0  0  0  0  0  0  0  0
  148.1421  141.5605  154.3597 C   0  0  0  0  0  0  0  0  0  0  0  0
  149.2066  141.6975  153.7561 O   0  0  0  0  0  0  0  0  0  0  0  0
  151.7348  141.4412  159.2560 C   0  0  1  0  0  0  0  0  0  0  0  0
  151.9458  139.9297  159.4751 C   0  0  0  0  0  0  0  0  0  0  0  0
  154.4033  142.0222  158.3667 H   0  0  0  0  0  0  0  0  0  0  0  0
  154.5364  140.9001  159.7143 H   0  0  0  0  0  0  0  0  0  0  0  0
  155.0217  142.5698  159.9182 H   0  0  0  0  0  0  0  0  0  0  0  0
  152.8268  142.1037  160.9808 H   0  0  0  0  0  0  0  0  0  0  0  0
  151.6644  144.0616  160.2650 H   0  0  0  0  0  0  0  0  0  0  0  0
  153.3704  144.3949  160.1509 H   0  0  0  0  0  0  0  0  0  0  0  0
  152.1369  145.2248  158.1477 H   0  0  0  0  0  0  0  0  0  0  0  0
  153.3146  144.0225  157.6921 H   0  0  0  0  0  0  0  0  0  0  0  0
  150.3141  143.5921  158.0434 H   0  0  0  0  0  0  0  0  0  0  0  0
  151.1920  143.5729  156.5343 H   0  0  0  0  0  0  0  0  0  0  0  0
  152.4164  141.5351  157.2100 H   0  0  0  0  0  0  0  0  0  0  0  0
  149.5289  141.0860  157.7635 H   0  0  0  0  0  0  0  0  0  0  0  0
  149.2263  138.9683  154.9309 H   0  0  0  0  0  0  0  0  0  0  0  0
  148.7167  139.1031  156.5855 H   0  0  0  0  0  0  0  0  0  0  0  0
  144.9838  142.8917  154.5346 H   0  0  0  0  0  0  0  0  0  0  0  0
  147.0412  143.1505  153.3281 H   0  0  0  0  0  0  0  0  0  0  0  0
  150.8137  141.6967  159.7829 H   0  0  0  0  0  0  0  0  0  0  0  0
  152.7769  139.5501  158.8803 H   0  0  0  0  0  0  0  0  0  0  0  0
  151.0602  139.3576  159.1977 H   0  0  0  0  0  0  0  0  0  0  0  0
  152.1546  139.7102  160.5223 H   0  0  0  0  0  0  0  0  0  0  0  0
  1  2  1  0  0  0  0
  1 21  1  0  0  0  0
  1 22  1  0  0  0  0
  1 23  1  0  0  0  0
  2 19  1  0  0  0  0
  2  3  1  0  0  0  0
  2 24  1  0  0  0  0
  3  4  1  0  0  0  0
  3 25  1  0  0  0  0
  3 26  1  0  0  0  0
  4  5  1  0  0  0  0
  4 27  1  0  0  0  0
  4 28  1  0  0  0  0
  5  6  1  0  0  0  0
  5 29  1  0  0  0  0
  5 30  1  0  0  0  0
  6  7  1  0  0  0  0
  6 19  1  0  0  0  0
  6 31  1  0  0  0  0
  7  8  1  0  0  0  0
  7 32  1  0  0  0  0
  8  9  2  0  0  0  0
  8 10  1  0  0  0  0
 10 33  1  0  0  0  0
 10 34  1  0  0  0  0
 10 11  1  0  0  0  0
 11 12  1  0  0  0  0
 11 17  1  0  0  0  0
 12 13  1  0  0  0  0
 13 14  2  0  0  0  0
 13 15  1  0  0  0  0
 15 35  1  0  0  0  0
 15 16  2  0  0  0  0
 16 36  1  0  0  0  0
 16 17  1  0  0  0  0
 17 18  2  0  0  0  0
 19 20  1  0  0  0  0
 19 37  1  0  0  0  0
 20 38  1  0  0  0  0
 20 39  1  0  0  0  0
 20 40  1  0  0  0  0
M  CHG  1  12  -1
M  END
> <s_m_source_file>
AV-unprocessed.smi

> <i_m_source_file_index>
1464

> <i_lp_mmshare_version>
43012

> <i_f3d_flags>
0

> <s_epik_input>
W0NIM11bQ0BASF0xW0NIMl1bQ0gyXVtDSDJdW0NASF0oW0NASF0xW0NIM10pW05IXUMoPU8pW0NIMl1uMltuSF1jKD1PKVtjSF1bY0hdYzI9Tw==

> <s_epik_cmdline>
J2VwaWtfcHl0aG9uJywgJy1waCcsICc3LjAnLCAnLXRuJywgJzgnLCAnLW1hJywgJzIwMCcsICctbWV0YWxfYmluZGluZycsICctaW1hZScsICc8aW5maWxlLm1hZT4nLCAnLW9tYWUnLCAnPG91dGZpbGUubWFlPic=

> <r_lp_tautomer_probability>
1

> <r_epik_Ionization_Penalty>
0.101366

> <r_epik_Ionization_Penalty_Charging>
0.101366

> <r_epik_Ionization_Penalty_Neutral>
1.90469e-08

> <r_epik_State_Penalty>
0.035861

> <r_epik_Charging_Adjusted_Penalty>
0.137227

> <i_epik_Tot_Q>
-1

> <i_epik_Tot_abs_Q>
1

> <r_epik_Metal_State_Penalty>
0.035861

> <b_epik_Metal_Only>
0

> <s_lp_Force_Field>
OPLS_2005

> <r_lp_Energy>
30.3142

> <b_lp_Chiralities_Consistent>
1

> <s_lp_Variant>
AV-unprocessed.smi:1464-4

> <Gold.Version>
5.8.1

> <Gold.Id.Protein>
6NUR|6NUR_protein|mol2

> <Gold.PLP.Fitness>
41.4014

> <Gold.PLP.PLP>
-37.0528

> <Gold.PLP.part.hbond>
-2.8778

> <Gold.PLP.part.metal>
0.0000

> <Gold.PLP.part.buried>
-5.2415

> <Gold.PLP.part.nonpolar>
-30.0689

> <Gold.PLP.part.repulsive>
0.5338

> <Gold.PLP.ligand.clash>
0.0000

> <Gold.PLP.ligand.torsion>
0.3034

> <Gold.PLP.Chemscore.Hbond>
1.6480

> <Gold.PLP.Chemscore.CHOScore>
0.0000

> <Gold.PLP.Chemscore.Metal>
0.0000

> <Gold.Chemscore.Hbonds>
donor molecule, donor type, donor heavy atom, donor atom, acceptor molecule, acceptor atom, score
      P1  H  7989  7998       L1     9  0.99
      P1  H  8011  8017       L1    18  0.66

> <Gold.PLP.Chemscore.Internal.Correction>
0.0113

> <Gold.Rescore>
     Score         DG    S(hbond)    S(metal)    S(lipo)     H(rot)  DE(clash)    DE(int)     intcor
     15.56     -18.36       1.69        0.00      97.85       1.64       1.49       1.31       ----

> <Gold.Chemscore.Fitness>
15.5574

> <Gold.Chemscore.DG>
-18.3553

> <Gold.Chemscore.ZeroCoef>
-5.4800

> <Gold.Chemscore.Hbond>
1.6873

> <Gold.Chemscore.Metal>
0.0000

> <Gold.Chemscore.Lipo>
97.8452

> <Gold.Chemscore.Internal_Hbond>
0.0000

> <Gold.Chemscore.DEClash>
1.4884

> <Gold.Chemscore.DEInternal>
1.3095

> <Gold.Chemscore.Rot>
1.6438

> <Gold.Chemscore.Internal.Correction>
   9.000000E+99

> <Gold.Chemscore.Hbonds>
donor molecule, donor type, donor heavy atom, donor atom, acceptor molecule, acceptor atom, score
      P1  H  7989  7998       L1     9  0.93
      P1  H  8011  8017       L1    18  0.66

> <Gold.Chemscore.Hbond.Weighted>
-5.6355

> <Gold.Chemscore.Metal.Weighted>
-0.0000

> <Gold.Chemscore.Lipo.Weighted>
-11.4479

> <Gold.Chemscore.Internal_Hbond.Weighted>
0.0000

> <Gold.Chemscore.DEClash.Weighted>
1.4884

> <Gold.Chemscore.DEInternal.Weighted>
1.3095

> <Gold.Chemscore.Rot.Weighted>
4.2080

> <Gold.Chemscore.Internal.Correction.Weighted>
   9.000000E+99

> <Gold.Protein.RotatedTorsions>
[ 6907 6896 6895 6894 ] final    9.82 input  -60.11 | X-H torsion
[ 7974 7965 7964 7962 ] final -149.25 input  175.53 | X-H torsion
[ 8008 7997 7996 7995 ] final -140.70 input   59.86 | X-H torsion
[ 10167 10162 10161 10158 ] final   56.91 input  -65.29 | X-H torsion
[ 10718 10713 10712 10709 ] final  124.17 input   66.30 | X-H torsion
[ 10763 10752 10751 10750 ] final  -98.83 input  -60.55 | X-H torsion
[ 11005 11000 10999 10996 ] final -162.21 input  -57.11 | X-H torsion

> <Gold.Protein.ActiveResidues>
 VAL166  LYS551  ARG553  GLY616  TRP617  ASP618  TYR619  PRO620  LYS621  CYS622 
 ASP623  PHE694  ASN695  SER759  ASP760  ASP761  ALA762  ILE779  LEU786  VAL792 
 PHE793  MET794  SER795  GLU796  ALA797  LYS798  CYS799  TRP800  GLU811  SER814 

> <Gold.Protein.RotatedAtoms>
  151.7282  135.0880  160.0295 H   0  0  0  0  0  0  0  0  0  0  0  0  # atno 6907 bound_to 6896
  152.3558  133.6231  159.5986 H   0  0  0  0  0  0  0  0  0  0  0  0  # atno 6908 bound_to 6896
  150.7570  133.9419  159.3500 H   0  0  0  0  0  0  0  0  0  0  0  0  # atno 6909 bound_to 6896
  144.7979  140.5089  143.5727 H   0  0  0  0  0  0  0  0  0  0  0  0  # atno 7974 bound_to 7965
  155.4656  140.0549  157.2985 H   0  0  0  0  0  0  0  0  0  0  0  0  # atno 8008 bound_to 7997
  154.4719  140.2044  155.9928 H   0  0  0  0  0  0  0  0  0  0  0  0  # atno 8009 bound_to 7997
  156.1070  140.3210  155.8024 H   0  0  0  0  0  0  0  0  0  0  0  0  # atno 8010 bound_to 7997
  140.2036  144.3962  150.6518 H   0  0  0  0  0  0  0  0  0  0  0  0  # atno 10167 bound_to 10162
  157.5606  131.1089  150.8544 H   0  0  0  0  0  0  0  0  0  0  0  0  # atno 10718 bound_to 10713
  154.7447  135.4995  153.9183 H   0  0  0  0  0  0  0  0  0  0  0  0  # atno 10763 bound_to 10752
  153.1079  135.6702  153.9561 H   0  0  0  0  0  0  0  0  0  0  0  0  # atno 10764 bound_to 10752
  153.9328  135.3076  155.3424 H   0  0  0  0  0  0  0  0  0  0  0  0  # atno 10765 bound_to 10752
  140.6118  134.4841  157.5216 H   0  0  0  0  0  0  0  0  0  0  0  0  # atno 11005 bound_to 11000
  145.5628  139.1480  143.3332 LP  0  0  0  0  0  0  0  0  0  0  0  0  # atno 17320 bound_to 7965
  146.2252  140.5763  142.8999 LP  0  0  0  0  0  0  0  0  0  0  0  0  # atno 17321 bound_to 7965
  140.6373  143.2197  151.6368 LP  0  0  0  0  0  0  0  0  0  0  0  0  # atno 17342 bound_to 10162
  139.5207  144.3215  152.0907 LP  0  0  0  0  0  0  0  0  0  0  0  0  # atno 17343 bound_to 10162
  156.9043  130.5258  149.5282 LP  0  0  0  0  0  0  0  0  0  0  0  0  # atno 17370 bound_to 10713
  156.0659  130.5703  150.9288 LP  0  0  0  0  0  0  0  0  0  0  0  0  # atno 17371 bound_to 10713
  139.9189  134.8189  156.1275 LP  0  0  0  0  0  0  0  0  0  0  0  0  # atno 17394 bound_to 11000
  141.0803  133.6757  156.2322 LP  0  0  0  0  0  0  0  0  0  0  0  0  # atno 17395 bound_to 11000

$$$$
