#       Name:                AV-unprocessed.smi:2269
#       Creating user name   scv26
#       Creation time:       Fri Mar 27 12:35:58 2020


#       File generated by GOLD software.
#

@<TRIPOS>MOLECULE
AV-unprocessed.smi:2269
    48    49     1
SMALL
NO_CHARGES


@<TRIPOS>ATOM
      1 ****        -3.1488   5.5763   0.6843 C.3            1 S1                 0.0000
      2 ****        -2.6604   4.1386   0.6929 C.2            1 S1                 0.0000
      3 ****        -2.7613   3.4596  -0.5247 N.2            1 S1                 0.0000
      4 ****        -2.3653   2.2320  -0.6132 C.2            1 S1                 0.0000
      5 ****        -1.8321   1.5470   0.4910 N.am           1 S1                 0.0000
      6 ****        -1.4083   0.1564   0.2538 C.3            1 S1                 0.0000
      7 ****         0.1131   0.0480   0.0032 C.3            1 S1                 0.0000
      8 ****         0.3518   0.3490  -1.3580 O.3            1 S1                 0.0000
      9 ****         0.6359  -1.3776   0.2444 C.3            1 S1                 0.0000
     10 ****         2.0463  -1.3286   0.4033 O.3            1 S1                 0.0000
     11 ****         2.6488  -2.6043   0.5620 C.3            1 S1                 0.0000
     12 ****         2.6964  -3.3954  -0.7389 C.ar           1 S1                 0.0000
     13 ****         3.4590  -2.8790  -1.8086 C.ar           1 S1                 0.0000
     14 ****         3.5387  -3.5715  -3.0315 C.ar           1 S1                 0.0000
     15 ****         2.8554  -4.7904  -3.1934 C.ar           1 S1                 0.0000
     16 ****         2.0918  -5.3127  -2.1326 C.ar           1 S1                 0.0000
     17 ****         2.0069  -4.6227  -0.9062 C.ar           1 S1                 0.0000
     18 ****         1.0421  -5.3047   0.3560 Cl             1 S1                 0.0000
     19 ****        -1.6937   2.1364   1.7139 C.2            1 S1                 0.0000
     20 ****        -1.2124   1.5303   2.6733 O.2            1 S1                 0.0000
     21 ****        -2.1516   3.5326   1.8004 C.2            1 S1                 0.0000
     22 ****        -2.0163   4.2223   3.1523 C.3            1 S1                 0.0000
     23 ****        -3.9749   5.7036   1.3842 H              1 S1                 0.0000
     24 ****        -3.5005   5.8708  -0.3053 H              1 S1                 0.0000
     25 ****        -2.3435   6.2547   0.9670 H              1 S1                 0.0000
     26 ****        -2.4167   1.6600  -1.5412 H              1 S1                 0.0000
     27 ****        -1.6773  -0.4345   1.1311 H              1 S1                 0.0000
     28 ****        -1.9666  -0.3108  -0.5603 H              1 S1                 0.0000
     29 ****         0.6563   0.7470   0.6407 H              1 S1                 0.0000
     30 ****        -0.0719  -0.3072  -1.8898 H              1 S1                 0.0000
     31 ****         0.2114  -1.7809   1.1650 H              1 S1                 0.0000
     32 ****         0.3363  -2.0449  -0.5655 H              1 S1                 0.0000
     33 ****         3.6776  -2.4417   0.8839 H              1 S1                 0.0000
     34 ****         2.1704  -3.1489   1.3752 H              1 S1                 0.0000
     35 ****         3.9853  -1.9428  -1.6921 H              1 S1                 0.0000
     36 ****         4.1242  -3.1674  -3.8442 H              1 S1                 0.0000
     37 ****         2.9159  -5.3240  -4.1306 H              1 S1                 0.0000
     38 ****         1.5669  -6.2478  -2.2627 H              1 S1                 0.0000
     39 ****        -0.9674   4.2685   3.4467 H              1 S1                 0.0000
     40 ****        -2.5581   3.6633   3.9161 H              1 S1                 0.0000
     41 ****        -2.4044   5.2395   3.1565 H              1 S1                 0.0000
     42 ****        -3.1393   3.9228  -1.3263 LP             1 S1                 0.0000
     43 ****         1.3357   0.3442  -1.5368 LP             1 S1                 0.0000
     44 ****        -0.0218   1.2511  -1.5743 LP             1 S1                 0.0000
     45 ****         2.2537  -0.7789   1.2126 LP             1 S1                 0.0000
     46 ****         2.4400  -0.8922  -0.4058 LP             1 S1                 0.0000
     47 ****        -0.9119   0.5826   2.5663 LP             1 S1                 0.0000
     48 ****        -1.1224   1.9864   3.5587 LP             1 S1                 0.0000
@<TRIPOS>BOND
    1    1    2 1     
    2    1   23 1     
    3    1   24 1     
    4    1   25 1     
    5    2   21 2     
    6    2    3 1     
    7    3    4 2     
    8    4    5 1     
    9    4   26 1     
   10    5    6 1     
   11    5   19 am    
   12    6    7 1     
   13    6   27 1     
   14    6   28 1     
   15    7    8 1     
   16    7    9 1     
   17    7   29 1     
   18    8   30 1     
   19    9   10 1     
   20    9   31 1     
   21    9   32 1     
   22   10   11 1     
   23   11   12 1     
   24   11   33 1     
   25   11   34 1     
   26   12   17 ar    
   27   12   13 ar    
   28   13   14 ar    
   29   13   35 1     
   30   14   15 ar    
   31   14   36 1     
   32   15   16 ar    
   33   15   37 1     
   34   16   17 ar    
   35   16   38 1     
   36   17   18 1     
   37   19   20 2     
   38   19   21 1     
   39   21   22 1     
   40   22   39 1     
   41   22   40 1     
   42   22   41 1     
   43    3   42 1     
   44    8   43 1     
   45    8   44 1     
   46   10   45 1     
   47   10   46 1     
   48   20   47 1     
   49   20   48 1     
@<TRIPOS>SUBSTRUCTURE
      1 S1             1
@<TRIPOS>SET
LONE_PAIRS      STATIC     ATOMS    <user>   **** ""
7 42 43 44 45 46 47 48
DONOR_HYDROGENS      STATIC     ATOMS    <user>   **** ""
1 30
ATOM$BLUE        STATIC     ATOMS    COLORGROUP SYSTEM
7 42 43 44 45 46 47 48
ATOM$RED        STATIC     ATOMS    COLORGROUP SYSTEM
1 30
