#       Name:                AV-unprocessed.smi:2123
#       Creating user name   scv26
#       Creation time:       Fri Mar 27 11:39:43 2020


#       File generated by GOLD software.
#

@<TRIPOS>MOLECULE
AV-unprocessed.smi:2123
    53    54     1
SMALL
NO_CHARGES


@<TRIPOS>ATOM
      1 ****        -6.3078   5.6619   0.5117 C.3            1 S1                 0.0000
      2 ****        -5.7131   4.4068   1.6747 S.3            1 S1                 0.0000
      3 ****        -3.9631   4.3716   1.2039 C.3            1 S1                 0.0000
      4 ****        -3.1738   3.3554   2.0465 C.3            1 S1                 0.0000
      5 ****        -1.6806   3.3060   1.7065 C.2            1 S1                 0.0000
      6 ****        -1.2360   3.8967   0.7216 O.2            1 S1                 0.0000
      7 ****        -0.9135   2.5883   2.5415 N.am           1 S1                 0.0000
      8 ****         0.5274   2.4009   2.4126 C.3            1 S1                 0.0000
      9 ****         0.8883   1.1960   1.5626 C.ar           1 S1                 0.0000
     10 ****         1.2174  -0.0376   2.1568 C.ar           1 S1                 0.0000
     11 ****         1.5476  -1.1272   1.3283 C.ar           1 S1                 0.0000
     12 ****         1.5346  -0.9563  -0.0770 C.ar           1 S1                 0.0000
     13 ****         1.8691  -2.0321  -0.9282 N.3            1 S1                 0.0000
     14 ****         2.0796  -1.7498  -2.3466 C.3            1 S1                 0.0000
     15 ****         2.7594  -2.9387  -3.0531 C.3            1 S1                 0.0000
     16 ****         4.2610  -3.0621  -2.7377 C.3            1 S1                 0.0000
     17 ****         2.0485  -4.1480  -2.7793 O.3            1 S1                 0.0000
     18 ****         1.8934  -4.4489  -1.3929 C.3            1 S1                 0.0000
     19 ****         1.1169  -5.7649  -1.2781 C.3            1 S1                 0.0000
     20 ****         1.1660  -3.2885  -0.6899 C.3            1 S1                 0.0000
     21 ****         1.2182   0.2353  -0.6425 N.ar           1 S1                 0.0000
     22 ****         0.9042   1.2770   0.1558 C.ar           1 S1                 0.0000
     23 ****        -7.3773   5.8233   0.6465 H              1 S1                 0.0000
     24 ****        -6.1322   5.3430  -0.5157 H              1 S1                 0.0000
     25 ****        -5.7911   6.6077   0.6756 H              1 S1                 0.0000
     26 ****        -3.8960   4.1235   0.1437 H              1 S1                 0.0000
     27 ****        -3.5504   5.3734   1.3289 H              1 S1                 0.0000
     28 ****        -3.2813   3.5990   3.1044 H              1 S1                 0.0000
     29 ****        -3.5923   2.3577   1.9090 H              1 S1                 0.0000
     30 ****        -1.3625   2.1381   3.3259 H              1 S1                 0.0000
     31 ****         0.9988   3.2937   1.9978 H              1 S1                 0.0000
     32 ****         0.9455   2.2757   3.4118 H              1 S1                 0.0000
     33 ****         1.2237  -0.1498   3.2309 H              1 S1                 0.0000
     34 ****         1.8219  -2.0694   1.7785 H              1 S1                 0.0000
     35 ****         1.1118  -1.5522  -2.8096 H              1 S1                 0.0000
     36 ****         2.6874  -0.8533  -2.4763 H              1 S1                 0.0000
     37 ****         2.6771  -2.7751  -4.1279 H              1 S1                 0.0000
     38 ****         4.8005  -2.1789  -3.0803 H              1 S1                 0.0000
     39 ****         4.6936  -3.9276  -3.2398 H              1 S1                 0.0000
     40 ****         4.4536  -3.1625  -1.6699 H              1 S1                 0.0000
     41 ****         2.8726  -4.5963  -0.9368 H              1 S1                 0.0000
     42 ****         0.9811  -6.0512  -0.2349 H              1 S1                 0.0000
     43 ****         1.6484  -6.5751  -1.7779 H              1 S1                 0.0000
     44 ****         0.1302  -5.6816  -1.7344 H              1 S1                 0.0000
     45 ****         1.0826  -3.5125   0.3724 H              1 S1                 0.0000
     46 ****         0.1488  -3.1956  -1.0729 H              1 S1                 0.0000
     47 ****         0.6618   2.2021  -0.3458 H              1 S1                 0.0000
     48 ****        -1.8520   4.4179   0.1309 LP             1 S1                 0.0000
     49 ****        -0.2590   3.8552   0.5125 LP             1 S1                 0.0000
     50 ****         2.8002  -2.1846  -0.5970 LP             1 S1                 0.0000
     51 ****         2.5430  -4.9038  -3.2085 LP             1 S1                 0.0000
     52 ****         1.1377  -4.0724  -3.1852 LP             1 S1                 0.0000
     53 ****         1.2176   0.3404  -1.6370 LP             1 S1                 0.0000
@<TRIPOS>BOND
    1    1    2 1     
    2    1   23 1     
    3    1   24 1     
    4    1   25 1     
    5    2    3 1     
    6    3    4 1     
    7    3   26 1     
    8    3   27 1     
    9    4    5 1     
   10    4   28 1     
   11    4   29 1     
   12    5    6 2     
   13    5    7 am    
   14    7    8 1     
   15    7   30 1     
   16    8    9 1     
   17    8   31 1     
   18    8   32 1     
   19    9   22 ar    
   20    9   10 ar    
   21   10   11 ar    
   22   10   33 1     
   23   11   12 ar    
   24   11   34 1     
   25   12   13 1     
   26   12   21 ar    
   27   13   20 1     
   28   13   14 1     
   29   14   15 1     
   30   14   35 1     
   31   14   36 1     
   32   15   16 1     
   33   15   17 1     
   34   15   37 1     
   35   16   38 1     
   36   16   39 1     
   37   16   40 1     
   38   17   18 1     
   39   18   19 1     
   40   18   20 1     
   41   18   41 1     
   42   19   42 1     
   43   19   43 1     
   44   19   44 1     
   45   20   45 1     
   46   20   46 1     
   47   21   22 ar    
   48   22   47 1     
   49    6   48 1     
   50    6   49 1     
   51   13   50 1     
   52   17   51 1     
   53   17   52 1     
   54   21   53 1     
@<TRIPOS>SUBSTRUCTURE
      1 S1             1
@<TRIPOS>SET
LONE_PAIRS      STATIC     ATOMS    <user>   **** ""
6 48 49 50 51 52 53
DONOR_HYDROGENS      STATIC     ATOMS    <user>   **** ""
1 30
ATOM$BLUE        STATIC     ATOMS    COLORGROUP SYSTEM
6 48 49 50 51 52 53
ATOM$RED        STATIC     ATOMS    COLORGROUP SYSTEM
1 30
