#       Name:                AV-unprocessed.smi:1817
#       Creating user name   scv26
#       Creation time:       Fri Mar 27 09:03:33 2020


#       File generated by GOLD software.
#

@<TRIPOS>MOLECULE
AV-unprocessed.smi:1817
    48    49     1
SMALL
NO_CHARGES


@<TRIPOS>ATOM
      1 ****        -2.9256  -3.8878   1.5592 C.3            1 S1                 0.0000
      2 ****        -1.8232  -3.4534   0.5826 C.3            1 S1                 0.0000
      3 ****        -1.9904  -2.0641   0.1494 N.3            1 S1                 0.0000
      4 ****        -1.7593  -1.0587   1.1897 C.3            1 S1                 0.0000
      5 ****        -0.2741  -0.9618   1.5979 C.3            1 S1                 0.0000
      6 ****         0.5828  -0.6531   0.4209 N.4            1 S1                 1.0000
      7 ****         2.0410  -0.4606   0.7101 C.3            1 S1                 0.0000
      8 ****         2.3259   0.2105   2.0730 C.3            1 S1                 0.0000
      9 ****         2.7527   0.3328  -0.4169 C.3            1 S1                 0.0000
     10 ****         2.2745   1.7087  -0.5453 N.am           1 S1                 0.0000
     11 ****         1.2484   2.1138  -1.3072 C.2            1 S1                 0.0000
     12 ****         0.5640   1.3466  -1.9835 O.2            1 S1                 0.0000
     13 ****         1.0731   3.4420  -1.2215 N.am           1 S1                 0.0000
     14 ****         0.0851   4.2333  -1.8593 C.2            1 S1                 0.0000
     15 ****         0.0959   5.5522  -1.6341 N.2            1 S1                 0.0000
     16 ****        -0.9241   6.2045  -2.3156 N.2            1 S1                 0.0000
     17 ****        -1.6648   5.3511  -3.0292 C.2            1 S1                 0.0000
     18 ****        -1.1925   3.6633  -2.9373 S.3            1 S1                 0.0000
     19 ****         0.3387  -1.6647  -0.6423 C.3            1 S1                 0.0000
     20 ****        -1.1581  -1.7323  -1.0077 C.3            1 S1                 0.0000
     21 ****        -2.8536  -4.9564   1.7619 H              1 S1                 0.0000
     22 ****        -3.9171  -3.6973   1.1473 H              1 S1                 0.0000
     23 ****        -2.8508  -3.3742   2.5173 H              1 S1                 0.0000
     24 ****        -0.8420  -3.6239   1.0239 H              1 S1                 0.0000
     25 ****        -1.8819  -4.0964  -0.2964 H              1 S1                 0.0000
     26 ****        -2.0906  -0.0916   0.8091 H              1 S1                 0.0000
     27 ****        -2.3800  -1.2615   2.0616 H              1 S1                 0.0000
     28 ****        -0.2030  -0.1654   2.3376 H              1 S1                 0.0000
     29 ****         0.0662  -1.8770   2.0834 H              1 S1                 0.0000
     30 ****         2.4961  -1.4512   0.7565 H              1 S1                 0.0000
     31 ****         3.3931   0.3964   2.1986 H              1 S1                 0.0000
     32 ****         2.0240  -0.4208   2.9090 H              1 S1                 0.0000
     33 ****         1.8145   1.1692   2.1680 H              1 S1                 0.0000
     34 ****         3.8197   0.3832  -0.1986 H              1 S1                 0.0000
     35 ****         2.6884  -0.1791  -1.3769 H              1 S1                 0.0000
     36 ****         2.7800   2.4110  -0.0243 H              1 S1                 0.0000
     37 ****         1.7170   3.9480  -0.6314 H              1 S1                 0.0000
     38 ****        -2.4961   5.7181  -3.6126 H              1 S1                 0.0000
     39 ****         0.8924  -1.4107  -1.5442 H              1 S1                 0.0000
     40 ****         0.7078  -2.6402  -0.3238 H              1 S1                 0.0000
     41 ****        -1.3224  -2.4636  -1.8002 H              1 S1                 0.0000
     42 ****        -1.4799  -0.7699  -1.4083 H              1 S1                 0.0000
     43 ****         0.2478   0.2296   0.0613 H              1 S1                 0.0000
     44 ****        -2.9584  -2.0232  -0.0984 LP             1 S1                 0.0000
     45 ****         0.7625   0.3665  -1.9823 LP             1 S1                 0.0000
     46 ****        -0.1906   1.7033  -2.5343 LP             1 S1                 0.0000
     47 ****         0.7594   6.0137  -1.0452 LP             1 S1                 0.0000
     48 ****        -1.0843   7.1909  -2.2770 LP             1 S1                 0.0000
@<TRIPOS>BOND
    1    1    2 1     
    2    1   21 1     
    3    1   22 1     
    4    1   23 1     
    5    2    3 1     
    6    2   24 1     
    7    2   25 1     
    8    3   20 1     
    9    3    4 1     
   10    4    5 1     
   11    4   26 1     
   12    4   27 1     
   13    5    6 1     
   14    5   28 1     
   15    5   29 1     
   16    6    7 1     
   17    6   19 1     
   18    6   43 1     
   19    7    8 1     
   20    7    9 1     
   21    7   30 1     
   22    8   31 1     
   23    8   32 1     
   24    8   33 1     
   25    9   10 1     
   26    9   34 1     
   27    9   35 1     
   28   10   11 am    
   29   10   36 1     
   30   11   12 2     
   31   11   13 am    
   32   13   14 1     
   33   13   37 1     
   34   14   18 1     
   35   14   15 2     
   36   15   16 1     
   37   16   17 2     
   38   17   18 1     
   39   17   38 1     
   40   19   20 1     
   41   19   39 1     
   42   19   40 1     
   43   20   41 1     
   44   20   42 1     
   45    3   44 1     
   46   12   45 1     
   47   12   46 1     
   48   15   47 1     
   49   16   48 1     
@<TRIPOS>SUBSTRUCTURE
      1 S1             1
@<TRIPOS>SET
LONE_PAIRS      STATIC     ATOMS    <user>   **** ""
5 44 45 46 47 48
DONOR_HYDROGENS      STATIC     ATOMS    <user>   **** ""
3 43 36 37
ATOM$BLUE        STATIC     ATOMS    COLORGROUP SYSTEM
5 44 45 46 47 48
ATOM$RED        STATIC     ATOMS    COLORGROUP SYSTEM
3 43 36 37
