AV-unprocessed.smi:1680|AV-procd|sdf|6738|dock4
  -GOLD-   22720 7483D 1   1.00000     0.00000
 Structure written by MMmdl.
 39 40  0  0  0  0  0  0  0  0  2 V2000
  150.4788  141.6252  157.8641 C   0  0  0  0  0  0  0  0  0  0  0  0
  150.8888  140.4236  157.0097 C   0  0  0  0  0  0  0  0  0  0  0  0
  151.4907  139.5013  157.5594 O   0  0  0  0  0  0  0  0  0  0  0  0
  150.5799  140.4107  155.6907 N   0  0  0  0  0  0  0  0  0  0  0  0
  149.7899  141.4276  154.9900 C   0  0  0  0  0  0  0  0  0  0  0  0
  148.4489  140.8079  154.5566 C   0  0  0  0  0  0  0  0  0  0  0  0
  148.6519  139.5858  153.7317 N   0  3  0  0  0  0  0  0  0  0  0  0
  147.3654  138.9853  153.2983 C   0  0  0  0  0  0  0  0  0  0  0  0
  146.3826  138.7851  154.4686 C   0  0  0  0  0  0  0  0  0  0  0  0
  144.9957  138.8881  154.0288 N   0  0  0  0  0  0  0  0  0  0  0  0
  144.0451  137.9757  154.2780 C   0  0  0  0  0  0  0  0  0  0  0  0
  144.2547  136.9398  154.9098 O   0  0  0  0  0  0  0  0  0  0  0  0
  142.8642  138.3414  153.7491 N   0  0  0  0  0  0  0  0  0  0  0  0
  141.6314  137.6369  153.7793 C   0  0  0  0  0  0  0  0  0  0  0  0
  141.4657  136.4528  154.3893 N   0  0  0  0  0  0  0  0  0  0  0  0
  140.1653  135.9816  154.2642 N   0  0  0  0  0  0  0  0  0  0  0  0
  139.4024  136.8278  153.5663 C   0  0  0  0  0  0  0  0  0  0  0  0
  140.1979  138.2839  152.9945 S   0  0  0  0  0  0  0  0  0  0  0  0
  149.5770  138.6084  154.3702 C   0  0  0  0  0  0  0  0  0  0  0  0
  150.8903  139.2793  154.8128 C   0  0  0  0  0  0  0  0  0  0  0  0
  149.3954  141.7496  157.8642 H   0  0  0  0  0  0  0  0  0  0  0  0
  150.9420  142.5398  157.4927 H   0  0  0  0  0  0  0  0  0  0  0  0
  150.7977  141.4879  158.8981 H   0  0  0  0  0  0  0  0  0  0  0  0
  149.6056  142.3243  155.5799 H   0  0  0  0  0  0  0  0  0  0  0  0
  150.3445  141.7651  154.1133 H   0  0  0  0  0  0  0  0  0  0  0  0
  147.8567  140.5546  155.4376 H   0  0  0  0  0  0  0  0  0  0  0  0
  147.8764  141.5424  153.9888 H   0  0  0  0  0  0  0  0  0  0  0  0
  146.9155  139.5978  152.5153 H   0  0  0  0  0  0  0  0  0  0  0  0
  147.5692  138.0127  152.8480 H   0  0  0  0  0  0  0  0  0  0  0  0
  146.5493  137.8189  154.9480 H   0  0  0  0  0  0  0  0  0  0  0  0
  146.5334  139.5432  155.2360 H   0  0  0  0  0  0  0  0  0  0  0  0
  144.7412  139.7134  153.5054 H   0  0  0  0  0  0  0  0  0  0  0  0
  142.8455  139.2227  153.2576 H   0  0  0  0  0  0  0  0  0  0  0  0
  138.3639  136.5928  153.3864 H   0  0  0  0  0  0  0  0  0  0  0  0
  149.0865  138.1568  155.2340 H   0  0  0  0  0  0  0  0  0  0  0  0
  149.8092  137.7993  153.6785 H   0  0  0  0  0  0  0  0  0  0  0  0
  151.4380  139.6423  153.9418 H   0  0  0  0  0  0  0  0  0  0  0  0
  151.5401  138.5410  155.2845 H   0  0  0  0  0  0  0  0  0  0  0  0
  149.1115  139.9041  152.8904 H   0  0  0  0  0  0  0  0  0  0  0  0
  1  2  1  0  0  0  0
  1 21  1  0  0  0  0
  1 22  1  0  0  0  0
  1 23  1  0  0  0  0
  2  3  2  0  0  0  0
  2  4  1  0  0  0  0
  4 20  1  0  0  0  0
  4  5  1  0  0  0  0
  5  6  1  0  0  0  0
  5 24  1  0  0  0  0
  5 25  1  0  0  0  0
  6  7  1  0  0  0  0
  6 26  1  0  0  0  0
  6 27  1  0  0  0  0
  7  8  1  0  0  0  0
  7 19  1  0  0  0  0
  7 39  1  0  0  0  0
  8  9  1  0  0  0  0
  8 28  1  0  0  0  0
  8 29  1  0  0  0  0
  9 10  1  0  0  0  0
  9 30  1  0  0  0  0
  9 31  1  0  0  0  0
 10 11  1  0  0  0  0
 10 32  1  0  0  0  0
 11 12  2  0  0  0  0
 11 13  1  0  0  0  0
 13 14  1  0  0  0  0
 13 33  1  0  0  0  0
 14 18  1  0  0  0  0
 14 15  2  0  0  0  0
 15 16  1  0  0  0  0
 16 17  2  0  0  0  0
 17 18  1  0  0  0  0
 17 34  1  0  0  0  0
 19 20  1  0  0  0  0
 19 35  1  0  0  0  0
 19 36  1  0  0  0  0
 20 37  1  0  0  0  0
 20 38  1  0  0  0  0
M  CHG  1   7   1
M  END
> <s_m_source_file>
AV-unprocessed.smi

> <i_m_source_file_index>
1680

> <i_lp_mmshare_version>
43012

> <i_f3d_flags>
0

> <s_epik_input>
W0NIM11DKD1PKU4xW0NIMl1bQ0gyXU4oW0NIMl1bQ0gyXTEpW0NIMl1bQ0gyXVtOSF1DKD1PKVtOSF1jMm5uW2NIXXMy

> <s_epik_cmdline>
J2VwaWtfcHl0aG9uJywgJy1waCcsICc3LjAnLCAnLXRuJywgJzgnLCAnLW1hJywgJzIwMCcsICctbWV0YWxfYmluZGluZycsICctaW1hZScsICc8aW5maWxlLm1hZT4nLCAnLW9tYWUnLCAnPG91dGZpbGUubWFlPic=

> <r_lp_tautomer_probability>
1

> <r_epik_Ionization_Penalty>
0.679071

> <r_epik_Ionization_Penalty_Charging>
0.67523

> <r_epik_Ionization_Penalty_Neutral>
0.00384089

> <r_epik_State_Penalty>
0.695776

> <r_epik_Charging_Adjusted_Penalty>
1.37101

> <i_epik_Tot_Q>
1

> <i_epik_Tot_abs_Q>
1

> <r_epik_Metal_State_Penalty>
1.03363

> <b_epik_Metal_Only>
0

> <s_lp_Force_Field>
OPLS_2005

> <r_lp_Energy>
38.3378

> <b_lp_Chiralities_Consistent>
1

> <s_lp_Variant>
AV-unprocessed.smi:1680-2

> <Gold.Version>
5.8.1

> <Gold.Id.Protein>
6NUR|6NUR_protein|mol2

> <Gold.PLP.Fitness>
44.7893

> <Gold.PLP.PLP>
-33.4162

> <Gold.PLP.part.hbond>
-4.2843

> <Gold.PLP.part.metal>
0.0000

> <Gold.PLP.part.buried>
-3.4453

> <Gold.PLP.part.nonpolar>
-24.6371

> <Gold.PLP.part.repulsive>
0.2631

> <Gold.PLP.ligand.clash>
0.0000

> <Gold.PLP.ligand.torsion>
0.3309

> <Gold.PLP.Chemscore.Hbond>
4.0000

> <Gold.PLP.Chemscore.CHOScore>
0.0000

> <Gold.PLP.Chemscore.Metal>
0.0000

> <Gold.Chemscore.Hbonds>
donor molecule, donor type, donor heavy atom, donor atom, acceptor molecule, acceptor atom, score
      L1  H     7    39       P1  7957  1.00
      L1  H    10    32       P1 10175  0.98
      L1  H    13    33       P1 10175  1.00
      P1  H 11000 11005       L1    16  0.75

> <Gold.PLP.Chemscore.Internal.Correction>
0.0349

> <Gold.Rescore>
     Score         DG    S(hbond)    S(metal)    S(lipo)     H(rot)  DE(clash)    DE(int)     intcor
     18.40     -20.16       3.77        0.00      57.86       1.83       0.10       1.66       ----

> <Gold.Chemscore.Fitness>
18.4039

> <Gold.Chemscore.DG>
-20.1604

> <Gold.Chemscore.ZeroCoef>
-5.4800

> <Gold.Chemscore.Hbond>
3.7691

> <Gold.Chemscore.Metal>
0.0000

> <Gold.Chemscore.Lipo>
57.8581

> <Gold.Chemscore.Internal_Hbond>
0.0000

> <Gold.Chemscore.DEClash>
0.0971

> <Gold.Chemscore.DEInternal>
1.6594

> <Gold.Chemscore.Rot>
1.8272

> <Gold.Chemscore.Internal.Correction>
   9.000000E+99

> <Gold.Chemscore.Hbonds>
donor molecule, donor type, donor heavy atom, donor atom, acceptor molecule, acceptor atom, score
      L1  H     7    39       P1  7957  1.00
      L1  H    10    32       P1 10175  0.93
      L1  H    13    33       P1 10175  0.96
      P1  H 11000 11005       L1    16  0.25

> <Gold.Chemscore.Hbond.Weighted>
-12.5887

> <Gold.Chemscore.Metal.Weighted>
-0.0000

> <Gold.Chemscore.Lipo.Weighted>
-6.7694

> <Gold.Chemscore.Internal_Hbond.Weighted>
0.0000

> <Gold.Chemscore.DEClash.Weighted>
0.0971

> <Gold.Chemscore.DEInternal.Weighted>
1.6594

> <Gold.Chemscore.Rot.Weighted>
4.6776

> <Gold.Chemscore.Internal.Correction.Weighted>
   9.000000E+99

> <Gold.Protein.RotatedTorsions>
[ 6907 6896 6895 6894 ] final   21.73 input  -60.11 | X-H torsion
[ 7974 7965 7964 7962 ] final   26.96 input  175.53 | X-H torsion
[ 8008 7997 7996 7995 ] final -176.30 input   59.86 | X-H torsion
[ 10167 10162 10161 10158 ] final -133.40 input  -65.29 | X-H torsion
[ 10718 10713 10712 10709 ] final  -59.33 input   66.30 | X-H torsion
[ 10763 10752 10751 10750 ] final  161.23 input  -60.55 | X-H torsion
[ 11005 11000 10999 10996 ] final   66.16 input  -57.11 | X-H torsion

> <Gold.Protein.ActiveResidues>
 VAL166  LYS551  ARG553  GLY616  TRP617  ASP618  TYR619  PRO620  LYS621  CYS622 
 ASP623  PHE694  ASN695  SER759  ASP760  ASP761  ALA762  ILE779  LEU786  VAL792 
 PHE793  MET794  SER795  GLU796  ALA797  LYS798  CYS799  TRP800  GLU811  SER814 

> <Gold.Protein.RotatedAtoms>
  151.9163  135.0317  160.0518 H   0  0  0  0  0  0  0  0  0  0  0  0  # atno 6907 bound_to 6896
  152.2237  133.4999  159.5185 H   0  0  0  0  0  0  0  0  0  0  0  0  # atno 6908 bound_to 6896
  150.7006  134.1225  159.4083 H   0  0  0  0  0  0  0  0  0  0  0  0  # atno 6909 bound_to 6896
  146.1810  139.7257  142.8900 H   0  0  0  0  0  0  0  0  0  0  0  0  # atno 7974 bound_to 7965
  155.9932  140.1205  157.0618 H   0  0  0  0  0  0  0  0  0  0  0  0  # atno 8008 bound_to 7997
  154.4218  140.1121  156.5663 H   0  0  0  0  0  0  0  0  0  0  0  0  # atno 8009 bound_to 7997
  155.6314  140.3473  155.4686 H   0  0  0  0  0  0  0  0  0  0  0  0  # atno 8010 bound_to 7997
  139.8986  143.6635  152.2599 H   0  0  0  0  0  0  0  0  0  0  0  0  # atno 10167 bound_to 10162
  156.1070  130.4179  150.0700 H   0  0  0  0  0  0  0  0  0  0  0  0  # atno 10718 bound_to 10713
  154.2597  135.2769  155.2783 H   0  0  0  0  0  0  0  0  0  0  0  0  # atno 10763 bound_to 10752
  154.5394  135.5707  153.6830 H   0  0  0  0  0  0  0  0  0  0  0  0  # atno 10764 bound_to 10752
  152.9964  135.6247  154.2747 H   0  0  0  0  0  0  0  0  0  0  0  0  # atno 10765 bound_to 10752
  139.9849  134.6684  156.0194 H   0  0  0  0  0  0  0  0  0  0  0  0  # atno 11005 bound_to 11000
  145.4076  141.0393  143.3035 LP  0  0  0  0  0  0  0  0  0  0  0  0  # atno 17320 bound_to 7965
  144.8315  139.5621  143.6941 LP  0  0  0  0  0  0  0  0  0  0  0  0  # atno 17321 bound_to 7965
  139.7045  144.7630  151.1216 LP  0  0  0  0  0  0  0  0  0  0  0  0  # atno 17342 bound_to 10162
  140.7711  143.5413  150.9310 LP  0  0  0  0  0  0  0  0  0  0  0  0  # atno 17343 bound_to 10162
  156.8673  130.9512  151.3612 LP  0  0  0  0  0  0  0  0  0  0  0  0  # atno 17370 bound_to 10713
  157.6247  130.8683  149.9170 LP  0  0  0  0  0  0  0  0  0  0  0  0  # atno 17371 bound_to 10713
  141.1515  133.6548  156.4029 LP  0  0  0  0  0  0  0  0  0  0  0  0  # atno 17394 bound_to 11000
  140.5022  134.6474  157.5253 LP  0  0  0  0  0  0  0  0  0  0  0  0  # atno 17395 bound_to 11000

$$$$
