AV-unprocessed.smi:1208|AV-procd|sdf|5068|dock4
  -GOLD-   22720 4113D 1   1.00000     0.00000
 Structure written by MMmdl.
 36 37  0  0  0  0  0  0  0  0  1 V2000
  153.7481  141.4873  161.0978 C   0  0  0  0  0  0  0  0  0  0  0  0
  153.1770  141.7867  159.7031 C   0  0  1  0  0  0  0  0  0  0  0  0
  152.4527  140.6063  159.2375 N   0  0  0  0  0  0  0  0  0  0  0  0
  153.0116  139.4733  158.7845 C   0  0  0  0  0  0  0  0  0  0  0  0
  154.2299  139.3018  158.7176 O   0  0  0  0  0  0  0  0  0  0  0  0
  152.0295  138.3813  158.3339 C   0  0  0  0  0  0  0  0  0  0  0  0
  151.6707  138.4615  156.9103 N   0  0  0  0  0  0  0  0  0  0  0  0
  151.0769  139.6603  156.5451 N   0  0  0  0  0  0  0  0  0  0  0  0
  150.7333  139.8622  155.3183 C   0  0  0  0  0  0  0  0  0  0  0  0
  150.1523  141.0652  155.0003 O   0  0  0  0  0  0  0  0  0  0  0  0
  150.9510  138.8543  154.3042 C   0  0  0  0  0  0  0  0  0  0  0  0
  151.5275  137.6885  154.6700 C   0  0  0  0  0  0  0  0  0  0  0  0
  151.9322  137.4275  156.0526 C   0  0  0  0  0  0  0  0  0  0  0  0
  152.4626  136.3767  156.4126 O   0  0  0  0  0  0  0  0  0  0  0  0
  152.2415  143.0146  159.7049 C   0  0  1  0  0  0  0  0  0  0  0  0
  152.4047  143.9422  160.9089 C   0  0  0  0  0  0  0  0  0  0  0  0
  151.8645  145.2706  160.4062 C   0  0  0  0  0  0  0  0  0  0  0  0
  151.9090  145.1359  158.8818 C   0  0  0  0  0  0  0  0  0  0  0  0
  152.5470  143.8915  158.6307 O   0  0  0  0  0  0  0  0  0  0  0  0
  150.8050  141.5348  154.5041 H   0  0  0  0  0  0  0  0  0  0  0  0
  154.3502  142.3169  161.4685 H   0  0  0  0  0  0  0  0  0  0  0  0
  154.3907  140.6066  161.0773 H   0  0  0  0  0  0  0  0  0  0  0  0
  152.9536  141.3030  161.8219 H   0  0  0  0  0  0  0  0  0  0  0  0
  154.0193  141.9839  159.0373 H   0  0  0  0  0  0  0  0  0  0  0  0
  151.4447  140.6593  159.2532 H   0  0  0  0  0  0  0  0  0  0  0  0
  152.4561  137.4037  158.5654 H   0  0  0  0  0  0  0  0  0  0  0  0
  151.1288  138.4567  158.9458 H   0  0  0  0  0  0  0  0  0  0  0  0
  150.6568  139.0390  153.2815 H   0  0  0  0  0  0  0  0  0  0  0  0
  151.6965  136.9271  153.9228 H   0  0  0  0  0  0  0  0  0  0  0  0
  151.1992  142.7010  159.6180 H   0  0  0  0  0  0  0  0  0  0  0  0
  151.8816  143.5829  161.7955 H   0  0  0  0  0  0  0  0  0  0  0  0
  153.4608  144.0494  161.1599 H   0  0  0  0  0  0  0  0  0  0  0  0
  150.8394  145.4299  160.7427 H   0  0  0  0  0  0  0  0  0  0  0  0
  152.4692  146.1050  160.7626 H   0  0  0  0  0  0  0  0  0  0  0  0
  150.8998  145.1138  158.4685 H   0  0  0  0  0  0  0  0  0  0  0  0
  152.4538  145.9519  158.4065 H   0  0  0  0  0  0  0  0  0  0  0  0
  1  2  1  0  0  0  0
  1 21  1  0  0  0  0
  1 22  1  0  0  0  0
  1 23  1  0  0  0  0
  2  3  1  0  0  0  0
  2 15  1  0  0  0  0
  2 24  1  0  0  0  0
  3  4  1  0  0  0  0
  3 25  1  0  0  0  0
  4  5  2  0  0  0  0
  4  6  1  0  0  0  0
  6 26  1  0  0  0  0
  6 27  1  0  0  0  0
  6  7  1  0  0  0  0
  7  8  1  0  0  0  0
  7 13  1  0  0  0  0
  8  9  2  0  0  0  0
  9 10  1  0  0  0  0
  9 11  1  0  0  0  0
 10 20  1  0  0  0  0
 11 28  1  0  0  0  0
 11 12  2  0  0  0  0
 12 29  1  0  0  0  0
 12 13  1  0  0  0  0
 13 14  2  0  0  0  0
 15 19  1  0  0  0  0
 15 16  1  0  0  0  0
 15 30  1  0  0  0  0
 16 17  1  0  0  0  0
 16 31  1  0  0  0  0
 16 32  1  0  0  0  0
 17 18  1  0  0  0  0
 17 33  1  0  0  0  0
 17 34  1  0  0  0  0
 18 19  1  0  0  0  0
 18 35  1  0  0  0  0
 18 36  1  0  0  0  0
M  END
> <s_m_source_file>
AV-unprocessed.smi

> <i_m_source_file_index>
1208

> <i_lp_mmshare_version>
43012

> <i_f3d_flags>
0

> <s_epik_input>
TzFbQ0gyXVtDSDJdW0NIMl1bQ0BIXTFbQ0BIXShbQ0gzXSlbTkhdQyg9TylbQ0gyXW4yW25IXWMoPU8pW2NIXVtjSF1jMj1P

> <s_epik_cmdline>
J2VwaWtfcHl0aG9uJywgJy1waCcsICc3LjAnLCAnLXRuJywgJzgnLCAnLW1hJywgJzIwMCcsICctbWV0YWxfYmluZGluZycsICctaW1hZScsICc8aW5maWxlLm1hZT4nLCAnLW9tYWUnLCAnPG91dGZpbGUubWFlPic=

> <r_lp_tautomer_probability>
0.9996

> <r_epik_Ionization_Penalty>
2.12735

> <r_epik_Ionization_Penalty_Charging>
3.86665e-08

> <r_epik_Ionization_Penalty_Neutral>
2.12735

> <r_epik_State_Penalty>
1.70441

> <r_epik_Charging_Adjusted_Penalty>
1.70441

> <i_epik_Tot_Q>
0

> <i_epik_Tot_abs_Q>
0

> <r_epik_Metal_State_Penalty>
1.70441

> <b_epik_Metal_Only>
0

> <s_lp_Force_Field>
OPLS_2005

> <r_lp_Energy>
29.9915

> <b_lp_Chiralities_Consistent>
1

> <s_lp_Variant>
AV-unprocessed.smi:1208-8

> <Gold.Version>
5.8.1

> <Gold.Id.Protein>
6NUR|6NUR_protein|mol2

> <Gold.PLP.Fitness>
43.4911

> <Gold.PLP.PLP>
-41.1148

> <Gold.PLP.part.hbond>
-3.0000

> <Gold.PLP.part.metal>
0.0000

> <Gold.PLP.part.buried>
-5.7129

> <Gold.PLP.part.nonpolar>
-31.7092

> <Gold.PLP.part.repulsive>
0.1416

> <Gold.PLP.ligand.clash>
0.0000

> <Gold.PLP.ligand.torsion>
1.8283

> <Gold.PLP.Chemscore.Hbond>
2.0000

> <Gold.PLP.Chemscore.CHOScore>
0.0000

> <Gold.PLP.Chemscore.Metal>
0.0000

> <Gold.Chemscore.Hbonds>
donor molecule, donor type, donor heavy atom, donor atom, acceptor molecule, acceptor atom, score
      P1  H  7997  8009       L1     5  1.00
      P1  H 10752 10763       L1    14  1.00

> <Gold.PLP.Chemscore.Internal.Correction>
0.0328

> <Gold.Rescore>
     Score         DG    S(hbond)    S(metal)    S(lipo)     H(rot)  DE(clash)    DE(int)     intcor
     14.29     -15.52       1.94        0.00      87.85       2.63       0.01       1.23       ----

> <Gold.Chemscore.Fitness>
14.2879

> <Gold.Chemscore.DG>
-15.5206

> <Gold.Chemscore.ZeroCoef>
-5.4800

> <Gold.Chemscore.Hbond>
1.9419

> <Gold.Chemscore.Metal>
0.0000

> <Gold.Chemscore.Lipo>
87.8484

> <Gold.Chemscore.Internal_Hbond>
0.0000

> <Gold.Chemscore.DEClash>
0.0060

> <Gold.Chemscore.DEInternal>
1.2267

> <Gold.Chemscore.Rot>
2.6264

> <Gold.Chemscore.Internal.Correction>
   9.000000E+99

> <Gold.Chemscore.Hbonds>
donor molecule, donor type, donor heavy atom, donor atom, acceptor molecule, acceptor atom, score
      P1  H  7997  8009       L1     5  0.38
      P1  H 10752 10763       L1    14  0.81

> <Gold.Chemscore.Hbond.Weighted>
-6.4860

> <Gold.Chemscore.Metal.Weighted>
-0.0000

> <Gold.Chemscore.Lipo.Weighted>
-10.2783

> <Gold.Chemscore.Internal_Hbond.Weighted>
0.0000

> <Gold.Chemscore.DEClash.Weighted>
0.0060

> <Gold.Chemscore.DEInternal.Weighted>
1.2267

> <Gold.Chemscore.Rot.Weighted>
6.7237

> <Gold.Chemscore.Internal.Correction.Weighted>
   9.000000E+99

> <Gold.Protein.RotatedTorsions>
[ 6907 6896 6895 6894 ] final  -15.15 input  -60.11 | X-H torsion
[ 7974 7965 7964 7962 ] final    1.33 input  175.53 | X-H torsion
[ 8008 7997 7996 7995 ] final  151.61 input   59.86 | X-H torsion
[ 10167 10162 10161 10158 ] final    6.58 input  -65.29 | X-H torsion
[ 10718 10713 10712 10709 ] final   48.33 input   66.30 | X-H torsion
[ 10763 10752 10751 10750 ] final   87.53 input  -60.55 | X-H torsion
[ 11005 11000 10999 10996 ] final -127.57 input  -57.11 | X-H torsion

> <Gold.Protein.ActiveResidues>
 VAL166  LYS551  ARG553  GLY616  TRP617  ASP618  TYR619  PRO620  LYS621  CYS622 
 ASP623  PHE694  ASN695  SER759  ASP760  ASP761  ALA762  ILE779  LEU786  VAL792 
 PHE793  MET794  SER795  GLU796  ALA797  LYS798  CYS799  TRP800  GLU811  SER814 

> <Gold.Protein.RotatedAtoms>
  151.3284  135.0836  159.9329 H   0  0  0  0  0  0  0  0  0  0  0  0  # atno 6907 bound_to 6896
  152.5240  133.9568  159.7708 H   0  0  0  0  0  0  0  0  0  0  0  0  # atno 6908 bound_to 6896
  150.9902  133.6105  159.2739 H   0  0  0  0  0  0  0  0  0  0  0  0  # atno 6909 bound_to 6896
  146.2439  140.1004  142.8348 H   0  0  0  0  0  0  0  0  0  0  0  0  # atno 7974 bound_to 7965
  156.2666  140.2043  156.6202 H   0  0  0  0  0  0  0  0  0  0  0  0  # atno 8008 bound_to 7997
  154.6762  140.0545  157.0242 H   0  0  0  0  0  0  0  0  0  0  0  0  # atno 8009 bound_to 7997
  155.1065  140.3211  155.4536 H   0  0  0  0  0  0  0  0  0  0  0  0  # atno 8010 bound_to 7997
  140.6420  143.7752  150.7442 H   0  0  0  0  0  0  0  0  0  0  0  0  # atno 10167 bound_to 10162
  157.4675  130.8235  149.7952 H   0  0  0  0  0  0  0  0  0  0  0  0  # atno 10718 bound_to 10713
  153.1677  135.4540  154.9860 H   0  0  0  0  0  0  0  0  0  0  0  0  # atno 10763 bound_to 10752
  154.7944  135.3232  154.7704 H   0  0  0  0  0  0  0  0  0  0  0  0  # atno 10764 bound_to 10752
  153.8185  135.6949  153.4885 H   0  0  0  0  0  0  0  0  0  0  0  0  # atno 10765 bound_to 10752
  140.9589  134.0964  157.3989 H   0  0  0  0  0  0  0  0  0  0  0  0  # atno 11005 bound_to 11000
  145.0574  140.9062  143.4959 LP  0  0  0  0  0  0  0  0  0  0  0  0  # atno 17320 bound_to 7965
  145.1113  139.2755  143.5636 LP  0  0  0  0  0  0  0  0  0  0  0  0  # atno 17321 bound_to 7965
  140.1385  143.4462  152.2209 LP  0  0  0  0  0  0  0  0  0  0  0  0  # atno 17342 bound_to 10162
  139.5629  144.7417  151.4103 LP  0  0  0  0  0  0  0  0  0  0  0  0  # atno 17343 bound_to 10162
  156.0057  130.3857  150.2439 LP  0  0  0  0  0  0  0  0  0  0  0  0  # atno 17370 bound_to 10713
  157.0620  131.0092  151.3219 LP  0  0  0  0  0  0  0  0  0  0  0  0  # atno 17371 bound_to 10713
  139.8871  135.0087  156.6541 LP  0  0  0  0  0  0  0  0  0  0  0  0  # atno 17394 bound_to 11000
  140.7496  133.8908  155.8337 LP  0  0  0  0  0  0  0  0  0  0  0  0  # atno 17395 bound_to 11000

$$$$
