AV-unprocessed.smi:2007|AV-procd|sdf|8135|dock1
  -GOLD-   2272010373D 1   1.00000     0.00000
 Structure written by MMmdl.
 37 38  0  0  0  0  0  0  0  0  2 V2000
  149.1069  139.7148  154.4364 C   0  0  0  0  0  0  0  0  0  0  0  0
  148.0429  140.7041  154.9305 C   0  0  2  0  0  0  0  0  0  0  0  0
  147.1742  141.2193  153.7589 C   0  0  0  0  0  0  0  0  0  0  0  0
  145.8503  141.7342  154.1922 N   0  3  0  0  0  0  0  0  0  0  0  0
  145.3677  141.1114  155.4470 C   0  0  0  0  0  0  0  0  0  0  0  0
  143.9645  141.6355  155.7984 C   0  0  0  0  0  0  0  0  0  0  0  0
  143.9927  143.0542  155.8966 O   0  0  0  0  0  0  0  0  0  0  0  0
  144.3747  143.6652  154.6702 C   0  0  0  0  0  0  0  0  0  0  0  0
  145.7949  143.2128  154.2931 C   0  0  0  0  0  0  0  0  0  0  0  0
  148.7071  141.8035  155.6328 N   0  0  0  0  0  0  0  0  0  0  0  0
  149.6027  141.6790  156.6241 C   0  0  0  0  0  0  0  0  0  0  0  0
  149.9503  140.5939  157.0908 O   0  0  0  0  0  0  0  0  0  0  0  0
  150.0484  142.8791  157.0337 N   0  0  0  0  0  0  0  0  0  0  0  0
  150.9633  143.1622  158.0819 C   0  0  0  0  0  0  0  0  0  0  0  0
  151.1574  142.3745  159.1461 N   0  0  0  0  0  0  0  0  0  0  0  0
  152.1121  142.9003  160.0203 C   0  0  0  0  0  0  0  0  0  0  0  0
  152.6343  144.1003  159.6055 C   0  0  0  0  0  0  0  0  0  0  0  0
  151.9469  144.6187  158.0894 S   0  0  0  0  0  0  0  0  0  0  0  0
  148.6463  138.8585  153.9431 H   0  0  0  0  0  0  0  0  0  0  0  0
  149.7043  139.3326  155.2651 H   0  0  0  0  0  0  0  0  0  0  0  0
  149.7867  140.1828  153.7233 H   0  0  0  0  0  0  0  0  0  0  0  0
  147.4133  140.1604  155.6361 H   0  0  0  0  0  0  0  0  0  0  0  0
  147.7219  142.0196  153.2584 H   0  0  0  0  0  0  0  0  0  0  0  0
  147.0325  140.4376  153.0109 H   0  0  0  0  0  0  0  0  0  0  0  0
  145.3339  140.0270  155.3342 H   0  0  0  0  0  0  0  0  0  0  0  0
  146.0651  141.3306  156.2569 H   0  0  0  0  0  0  0  0  0  0  0  0
  143.2342  141.3257  155.0491 H   0  0  0  0  0  0  0  0  0  0  0  0
  143.6371  141.2220  156.7524 H   0  0  0  0  0  0  0  0  0  0  0  0
  143.6624  143.4107  153.8835 H   0  0  0  0  0  0  0  0  0  0  0  0
  144.3445  144.7482  154.7894 H   0  0  0  0  0  0  0  0  0  0  0  0
  146.5084  143.5584  155.0428 H   0  0  0  0  0  0  0  0  0  0  0  0
  146.0805  143.6706  153.3464 H   0  0  0  0  0  0  0  0  0  0  0  0
  148.4849  142.7362  155.3164 H   0  0  0  0  0  0  0  0  0  0  0  0
  149.6871  143.6857  156.5457 H   0  0  0  0  0  0  0  0  0  0  0  0
  152.3596  142.3534  160.9182 H   0  0  0  0  0  0  0  0  0  0  0  0
  153.3794  144.7079  160.0976 H   0  0  0  0  0  0  0  0  0  0  0  0
  145.1924  141.4669  153.4734 H   0  0  0  0  0  0  0  0  0  0  0  0
  1  2  1  0  0  0  0
  1 19  1  0  0  0  0
  1 20  1  0  0  0  0
  1 21  1  0  0  0  0
  2  3  1  0  0  0  0
  2 10  1  0  0  0  0
  2 22  1  0  0  0  0
  3  4  1  0  0  0  0
  3 23  1  0  0  0  0
  3 24  1  0  0  0  0
  4  9  1  0  0  0  0
  4  5  1  0  0  0  0
  4 37  1  0  0  0  0
  5  6  1  0  0  0  0
  5 25  1  0  0  0  0
  5 26  1  0  0  0  0
  6  7  1  0  0  0  0
  6 27  1  0  0  0  0
  6 28  1  0  0  0  0
  7  8  1  0  0  0  0
  8  9  1  0  0  0  0
  8 29  1  0  0  0  0
  8 30  1  0  0  0  0
  9 31  1  0  0  0  0
  9 32  1  0  0  0  0
 10 11  1  0  0  0  0
 10 33  1  0  0  0  0
 11 12  2  0  0  0  0
 11 13  1  0  0  0  0
 13 14  1  0  0  0  0
 13 34  1  0  0  0  0
 14 18  1  0  0  0  0
 14 15  2  0  0  0  0
 15 16  1  0  0  0  0
 16 17  2  0  0  0  0
 16 35  1  0  0  0  0
 17 18  1  0  0  0  0
 17 36  1  0  0  0  0
M  CHG  1   4   1
M  END
> <s_m_source_file>
AV-unprocessed.smi

> <i_m_source_file_index>
2007

> <i_lp_mmshare_version>
43012

> <i_f3d_flags>
0

> <s_epik_input>
W0NIMl0xW0NIMl1PW0NIMl1bQ0gyXU4xW0NIMl1bQ0BASF0oW0NIM10pW05IXUMoPU8pW05IXWMybltjSF1bY0hdczI=

> <s_epik_cmdline>
J2VwaWtfcHl0aG9uJywgJy1waCcsICc3LjAnLCAnLXRuJywgJzgnLCAnLW1hJywgJzIwMCcsICctbWV0YWxfYmluZGluZycsICctaW1hZScsICc8aW5maWxlLm1hZT4nLCAnLW9tYWUnLCAnPG91dGZpbGUubWFlPic=

> <r_lp_tautomer_probability>
0.999

> <r_epik_Ionization_Penalty>
0.695848

> <r_epik_Ionization_Penalty_Charging>
0.695697

> <r_epik_Ionization_Penalty_Neutral>
0.000150585

> <r_epik_State_Penalty>
0.717972

> <r_epik_Charging_Adjusted_Penalty>
1.41367

> <i_epik_Tot_Q>
1

> <i_epik_Tot_abs_Q>
1

> <r_epik_Metal_State_Penalty>
0.763271

> <b_epik_Metal_Only>
0

> <s_lp_Force_Field>
OPLS_2005

> <r_lp_Energy>
20.6348

> <b_lp_Chiralities_Consistent>
1

> <s_lp_Variant>
AV-unprocessed.smi:2007-3

> <Gold.Version>
5.8.1

> <Gold.Id.Protein>
6NUR|6NUR_protein|mol2

> <Gold.PLP.Fitness>
42.6379

> <Gold.PLP.PLP>
-32.7946

> <Gold.PLP.part.hbond>
-2.9919

> <Gold.PLP.part.metal>
0.0000

> <Gold.PLP.part.buried>
-4.8342

> <Gold.PLP.part.nonpolar>
-26.1383

> <Gold.PLP.part.repulsive>
0.2313

> <Gold.PLP.ligand.clash>
0.0000

> <Gold.PLP.ligand.torsion>
0.9021

> <Gold.PLP.Chemscore.Hbond>
3.8548

> <Gold.PLP.Chemscore.CHOScore>
0.0000

> <Gold.PLP.Chemscore.Metal>
0.0000

> <Gold.Chemscore.Hbonds>
donor molecule, donor type, donor heavy atom, donor atom, acceptor molecule, acceptor atom, score
      L1  H     4    37       P1 10175  1.56
      L1  H    10    33       P1  8028  0.86
      L1  H    13    34       P1  8028  1.00

> <Gold.PLP.Chemscore.Internal.Correction>
0.0832

> <Gold.Rescore>
     Score         DG    S(hbond)    S(metal)    S(lipo)     H(rot)  DE(clash)    DE(int)     intcor
     15.31     -17.78       2.68        0.00      64.20       1.63       0.00       2.46       ----

> <Gold.Chemscore.Fitness>
15.3083

> <Gold.Chemscore.DG>
-17.7761

> <Gold.Chemscore.ZeroCoef>
-5.4800

> <Gold.Chemscore.Hbond>
2.6825

> <Gold.Chemscore.Metal>
0.0000

> <Gold.Chemscore.Lipo>
64.1950

> <Gold.Chemscore.Internal_Hbond>
0.0000

> <Gold.Chemscore.DEClash>
0.0048

> <Gold.Chemscore.DEInternal>
2.4630

> <Gold.Chemscore.Rot>
1.6306

> <Gold.Chemscore.Internal.Correction>
   9.000000E+99

> <Gold.Chemscore.Hbonds>
donor molecule, donor type, donor heavy atom, donor atom, acceptor molecule, acceptor atom, score
      L1  H     4    37       P1 10175  0.11
      L1  H    10    33       P1  8028  0.80
      L1  H    13    34       P1  8028  0.97

> <Gold.Chemscore.Hbond.Weighted>
-8.9596

> <Gold.Chemscore.Metal.Weighted>
-0.0000

> <Gold.Chemscore.Lipo.Weighted>
-7.5108

> <Gold.Chemscore.Internal_Hbond.Weighted>
0.0000

> <Gold.Chemscore.DEClash.Weighted>
0.0048

> <Gold.Chemscore.DEInternal.Weighted>
2.4630

> <Gold.Chemscore.Rot.Weighted>
4.1743

> <Gold.Chemscore.Internal.Correction.Weighted>
   9.000000E+99

> <Gold.Protein.RotatedTorsions>
[ 6907 6896 6895 6894 ] final  106.23 input  -60.11 | X-H torsion
[ 7974 7965 7964 7962 ] final  134.32 input  175.53 | X-H torsion
[ 8008 7997 7996 7995 ] final  147.55 input   59.86 | X-H torsion
[ 10167 10162 10161 10158 ] final -137.73 input  -65.29 | X-H torsion
[ 10718 10713 10712 10709 ] final  -21.23 input   66.30 | X-H torsion
[ 10763 10752 10751 10750 ] final  -68.88 input  -60.55 | X-H torsion
[ 11005 11000 10999 10996 ] final -140.22 input  -57.11 | X-H torsion

> <Gold.Protein.ActiveResidues>
 VAL166  LYS551  ARG553  GLY616  TRP617  ASP618  TYR619  PRO620  LYS621  CYS622 
 ASP623  PHE694  ASN695  SER759  ASP760  ASP761  ALA762  ILE779  LEU786  VAL792 
 PHE793  MET794  SER795  GLU796  ALA797  LYS798  CYS799  TRP800  GLU811  SER814 

> <Gold.Protein.RotatedAtoms>
  152.5201  133.9412  159.7626 H   0  0  0  0  0  0  0  0  0  0  0  0  # atno 6907 bound_to 6896
  150.9741  133.6304  159.2740 H   0  0  0  0  0  0  0  0  0  0  0  0  # atno 6908 bound_to 6896
  151.3505  135.0889  159.9454 H   0  0  0  0  0  0  0  0  0  0  0  0  # atno 6909 bound_to 6896
  144.9775  139.4539  143.5402 H   0  0  0  0  0  0  0  0  0  0  0  0  # atno 7974 bound_to 7965
  156.2821  140.2152  156.5556 H   0  0  0  0  0  0  0  0  0  0  0  0  # atno 8008 bound_to 7997
  154.7255  140.0500  157.0701 H   0  0  0  0  0  0  0  0  0  0  0  0  # atno 8009 bound_to 7997
  155.0422  140.3147  155.4724 H   0  0  0  0  0  0  0  0  0  0  0  0  # atno 8010 bound_to 7997
  139.8548  143.7152  152.2655 H   0  0  0  0  0  0  0  0  0  0  0  0  # atno 10167 bound_to 10162
  156.5210  130.4632  149.6597 H   0  0  0  0  0  0  0  0  0  0  0  0  # atno 10718 bound_to 10713
  154.3954  135.6043  153.5867 H   0  0  0  0  0  0  0  0  0  0  0  0  # atno 10763 bound_to 10752
  152.9787  135.5894  154.4247 H   0  0  0  0  0  0  0  0  0  0  0  0  # atno 10764 bound_to 10752
  154.4038  135.2843  155.2058 H   0  0  0  0  0  0  0  0  0  0  0  0  # atno 10765 bound_to 10752
  140.8444  134.2362  157.4793 H   0  0  0  0  0  0  0  0  0  0  0  0  # atno 11005 bound_to 11000
  146.3399  139.9027  142.8792 LP  0  0  0  0  0  0  0  0  0  0  0  0  # atno 17320 bound_to 7965
  145.2469  141.0030  143.3903 LP  0  0  0  0  0  0  0  0  0  0  0  0  # atno 17321 bound_to 7965
  139.7430  144.7554  151.0623 LP  0  0  0  0  0  0  0  0  0  0  0  0  # atno 17342 bound_to 10162
  140.7783  143.4950  150.9844 LP  0  0  0  0  0  0  0  0  0  0  0  0  # atno 17343 bound_to 10162
  156.3149  130.7249  151.2149 LP  0  0  0  0  0  0  0  0  0  0  0  0  # atno 17370 bound_to 10713
  157.7437  131.0471  150.4928 LP  0  0  0  0  0  0  0  0  0  0  0  0  # atno 17371 bound_to 10713
  139.8703  134.9652  156.4520 LP  0  0  0  0  0  0  0  0  0  0  0  0  # atno 17394 bound_to 11000
  140.8860  133.7883  155.9518 LP  0  0  0  0  0  0  0  0  0  0  0  0  # atno 17395 bound_to 11000

$$$$
