AV-unprocessed.smi:1661|AV-procd|sdf|6653|dock2
  -GOLD-   22720 7363D 1   1.00000     0.00000
 Structure written by MMmdl.
 38 39  0  0  0  0  0  0  0  0  2 V2000
  145.3245  132.1395  150.2913 C   0  0  0  0  0  0  0  0  0  0  0  0
  145.1421  133.3521  151.2147 C   0  0  2  0  0  0  0  0  0  0  0  0
  145.1421  134.6732  150.4278 C   0  0  0  0  0  0  0  0  0  0  0  0
  144.9911  135.8828  151.3657 C   0  0  0  0  0  0  0  0  0  0  0  0
  146.0584  135.8988  152.3991 N   0  3  1  0  0  0  0  0  0  0  0  0
  146.0105  137.1241  153.2355 C   0  0  0  0  0  0  0  0  0  0  0  0
  146.3764  138.3926  152.4399 C   0  0  0  0  0  0  0  0  0  0  0  0
  147.7372  138.8315  152.7268 N   0  0  0  0  0  0  0  0  0  0  0  0
  148.2847  138.8691  153.9504 C   0  0  0  0  0  0  0  0  0  0  0  0
  147.6782  138.5410  154.9706 O   0  0  0  0  0  0  0  0  0  0  0  0
  149.5555  139.3065  153.9056 N   0  0  0  0  0  0  0  0  0  0  0  0
  150.4613  139.4882  154.9843 C   0  0  0  0  0  0  0  0  0  0  0  0
  151.7500  139.8282  154.8246 N   0  0  0  0  0  0  0  0  0  0  0  0
  152.4126  139.9385  156.0403 N   0  0  0  0  0  0  0  0  0  0  0  0
  151.5989  139.6782  157.0674 C   0  0  0  0  0  0  0  0  0  0  0  0
  149.9429  139.2730  156.6501 S   0  0  0  0  0  0  0  0  0  0  0  0
  146.0567  134.6450  153.1998 C   0  0  0  0  0  0  0  0  0  0  0  0
  146.2302  133.4103  152.2997 C   0  0  0  0  0  0  0  0  0  0  0  0
  146.2786  132.1801  149.7649 H   0  0  0  0  0  0  0  0  0  0  0  0
  144.5331  132.0932  149.5427 H   0  0  0  0  0  0  0  0  0  0  0  0
  145.2959  131.2079  150.8573 H   0  0  0  0  0  0  0  0  0  0  0  0
  144.1745  133.2506  151.7086 H   0  0  0  0  0  0  0  0  0  0  0  0
  146.0692  134.7668  149.8601 H   0  0  0  0  0  0  0  0  0  0  0  0
  144.3322  134.6730  149.6975 H   0  0  0  0  0  0  0  0  0  0  0  0
  145.0359  136.7981  150.7742 H   0  0  0  0  0  0  0  0  0  0  0  0
  144.0135  135.8654  151.8502 H   0  0  0  0  0  0  0  0  0  0  0  0
  145.0008  137.2548  153.6276 H   0  0  0  0  0  0  0  0  0  0  0  0
  146.6611  136.9978  154.1024 H   0  0  0  0  0  0  0  0  0  0  0  0
  146.2732  138.2374  151.3657 H   0  0  0  0  0  0  0  0  0  0  0  0
  145.6966  139.2037  152.7020 H   0  0  0  0  0  0  0  0  0  0  0  0
  148.3031  139.1146  151.9399 H   0  0  0  0  0  0  0  0  0  0  0  0
  149.9198  139.5372  152.9930 H   0  0  0  0  0  0  0  0  0  0  0  0
  151.9766  139.7255  158.0782 H   0  0  0  0  0  0  0  0  0  0  0  0
  146.8616  134.6597  153.9335 H   0  0  0  0  0  0  0  0  0  0  0  0
  145.1233  134.5707  153.7605 H   0  0  0  0  0  0  0  0  0  0  0  0
  146.1977  132.5065  152.9092 H   0  0  0  0  0  0  0  0  0  0  0  0
  147.2172  133.4341  151.8354 H   0  0  0  0  0  0  0  0  0  0  0  0
  146.9342  135.9283  151.8969 H   0  0  0  0  0  0  0  0  0  0  0  0
  1  2  1  0  0  0  0
  1 19  1  0  0  0  0
  1 20  1  0  0  0  0
  1 21  1  0  0  0  0
  2 18  1  0  0  0  0
  2  3  1  0  0  0  0
  2 22  1  0  0  0  0
  3  4  1  0  0  0  0
  3 23  1  0  0  0  0
  3 24  1  0  0  0  0
  4  5  1  0  0  0  0
  4 25  1  0  0  0  0
  4 26  1  0  0  0  0
  5  6  1  0  0  0  0
  5 17  1  0  0  0  0
  5 38  1  0  0  0  0
  6  7  1  0  0  0  0
  6 27  1  0  0  0  0
  6 28  1  0  0  0  0
  7  8  1  0  0  0  0
  7 29  1  0  0  0  0
  7 30  1  0  0  0  0
  8  9  1  0  0  0  0
  8 31  1  0  0  0  0
  9 10  2  0  0  0  0
  9 11  1  0  0  0  0
 11 12  1  0  0  0  0
 11 32  1  0  0  0  0
 12 16  1  0  0  0  0
 12 13  2  0  0  0  0
 13 14  1  0  0  0  0
 14 15  2  0  0  0  0
 15 16  1  0  0  0  0
 15 33  1  0  0  0  0
 17 18  1  0  0  0  0
 17 34  1  0  0  0  0
 17 35  1  0  0  0  0
 18 36  1  0  0  0  0
 18 37  1  0  0  0  0
M  CHG  1   5   1
M  END
> <s_m_source_file>
AV-unprocessed.smi

> <i_m_source_file_index>
1661

> <i_lp_mmshare_version>
43012

> <i_f3d_flags>
0

> <s_epik_input>
W0NIM11bQ0hdMVtDSDJdW0NIMl1OKFtDSDJdW0NIMl0xKVtDSDJdW0NIMl1bTkhdQyg9TylbTkhdYzJubltjSF1zMg==

> <s_epik_cmdline>
J2VwaWtfcHl0aG9uJywgJy1waCcsICc3LjAnLCAnLXRuJywgJzgnLCAnLW1hJywgJzIwMCcsICctbWV0YWxfYmluZGluZycsICctaW1hZScsICc8aW5maWxlLm1hZT4nLCAnLW9tYWUnLCAnPG91dGZpbGUubWFlPic=

> <r_lp_tautomer_probability>
1

> <r_epik_Ionization_Penalty>
0.0053917

> <r_epik_Ionization_Penalty_Charging>
0.00168873

> <r_epik_Ionization_Penalty_Neutral>
0.00370297

> <r_epik_State_Penalty>
-0

> <r_epik_Charging_Adjusted_Penalty>
0.00168873

> <i_epik_Tot_Q>
1

> <i_epik_Tot_abs_Q>
1

> <r_epik_Metal_State_Penalty>
0.36997

> <b_epik_Metal_Only>
0

> <s_lp_Force_Field>
OPLS_2005

> <r_lp_Energy>
14.0049

> <b_lp_Chiralities_Consistent>
1

> <s_lp_Variant>
AV-unprocessed.smi:1661-1

> <Gold.Version>
5.8.1

> <Gold.Id.Protein>
6NUR|6NUR_protein|mol2

> <Gold.PLP.Fitness>
46.1080

> <Gold.PLP.PLP>
-29.0627

> <Gold.PLP.part.hbond>
-6.0000

> <Gold.PLP.part.metal>
0.0000

> <Gold.PLP.part.buried>
-3.3264

> <Gold.PLP.part.nonpolar>
-20.5823

> <Gold.PLP.part.repulsive>
0.3216

> <Gold.PLP.ligand.clash>
0.0000

> <Gold.PLP.ligand.torsion>
0.4934

> <Gold.PLP.Chemscore.Hbond>
6.0000

> <Gold.PLP.Chemscore.CHOScore>
0.0000

> <Gold.PLP.Chemscore.Metal>
0.0000

> <Gold.Chemscore.Hbonds>
donor molecule, donor type, donor heavy atom, donor atom, acceptor molecule, acceptor atom, score
      L1  H     5    38       P1  7948  2.00
      L1  H     8    31       P1  7957  1.00
      L1  H    11    32       P1  7957  1.00
      P1  H  7989  7998       L1    13  1.00
      P1  H  7997  8008       L1    14  1.00

> <Gold.PLP.Chemscore.Internal.Correction>
0.0321

> <Gold.Rescore>
     Score         DG    S(hbond)    S(metal)    S(lipo)     H(rot)  DE(clash)    DE(int)     intcor
     19.12     -22.51       4.55        0.00      53.09       1.70       0.11       3.28       ----

> <Gold.Chemscore.Fitness>
19.1160

> <Gold.Chemscore.DG>
-22.5101

> <Gold.Chemscore.ZeroCoef>
-5.4800

> <Gold.Chemscore.Hbond>
4.5456

> <Gold.Chemscore.Metal>
0.0000

> <Gold.Chemscore.Lipo>
53.0902

> <Gold.Chemscore.Internal_Hbond>
0.0000

> <Gold.Chemscore.DEClash>
0.1103

> <Gold.Chemscore.DEInternal>
3.2838

> <Gold.Chemscore.Rot>
1.7046

> <Gold.Chemscore.Internal.Correction>
   9.000000E+99

> <Gold.Chemscore.Hbonds>
donor molecule, donor type, donor heavy atom, donor atom, acceptor molecule, acceptor atom, score
      L1  H     5    38       P1  7948  0.92
      L1  H     8    31       P1  7957  0.97
      L1  H    11    32       P1  7957  0.94
      P1  H  7989  7998       L1    13  0.33
      P1  H  7997  8008       L1    14  0.98

> <Gold.Chemscore.Hbond.Weighted>
-15.1823

> <Gold.Chemscore.Metal.Weighted>
-0.0000

> <Gold.Chemscore.Lipo.Weighted>
-6.2115

> <Gold.Chemscore.Internal_Hbond.Weighted>
0.0000

> <Gold.Chemscore.DEClash.Weighted>
0.1103

> <Gold.Chemscore.DEInternal.Weighted>
3.2838

> <Gold.Chemscore.Rot.Weighted>
4.3638

> <Gold.Chemscore.Internal.Correction.Weighted>
   9.000000E+99

> <Gold.Protein.RotatedTorsions>
[ 6907 6896 6895 6894 ] final  100.31 input  -60.11 | X-H torsion
[ 7974 7965 7964 7962 ] final  -92.44 input  175.53 | X-H torsion
[ 8008 7997 7996 7995 ] final  -33.17 input   59.86 | X-H torsion
[ 10167 10162 10161 10158 ] final  -52.76 input  -65.29 | X-H torsion
[ 10718 10713 10712 10709 ] final -116.59 input   66.30 | X-H torsion
[ 10763 10752 10751 10750 ] final   43.62 input  -60.55 | X-H torsion
[ 11005 11000 10999 10996 ] final   13.16 input  -57.11 | X-H torsion

> <Gold.Protein.ActiveResidues>
 VAL166  LYS551  ARG553  GLY616  TRP617  ASP618  TYR619  PRO620  LYS621  CYS622 
 ASP623  PHE694  ASN695  SER759  ASP760  ASP761  ALA762  ILE779  LEU786  VAL792 
 PHE793  MET794  SER795  GLU796  ALA797  LYS798  CYS799  TRP800  GLU811  SER814 

> <Gold.Protein.RotatedAtoms>
  152.5374  134.0296  159.8018 H   0  0  0  0  0  0  0  0  0  0  0  0  # atno 6907 bound_to 6896
  151.0469  133.5650  159.2653 H   0  0  0  0  0  0  0  0  0  0  0  0  # atno 6908 bound_to 6896
  151.2599  135.0658  159.9148 H   0  0  0  0  0  0  0  0  0  0  0  0  # atno 6909 bound_to 6896
  145.3998  140.9536  143.2294 H   0  0  0  0  0  0  0  0  0  0  0  0  # atno 7974 bound_to 7965
  154.4157  140.1718  156.1845 H   0  0  0  0  0  0  0  0  0  0  0  0  # atno 8008 bound_to 7997
  155.9655  140.3390  155.6504 H   0  0  0  0  0  0  0  0  0  0  0  0  # atno 8009 bound_to 7997
  155.6693  140.0710  157.2516 H   0  0  0  0  0  0  0  0  0  0  0  0  # atno 8010 bound_to 7997
  140.6520  143.2573  151.4694 H   0  0  0  0  0  0  0  0  0  0  0  0  # atno 10167 bound_to 10162
  156.0974  130.6143  150.9055 H   0  0  0  0  0  0  0  0  0  0  0  0  # atno 10718 bound_to 10713
  152.9857  135.6096  154.3140 H   0  0  0  0  0  0  0  0  0  0  0  0  # atno 10763 bound_to 10752
  154.2854  135.2776  155.2680 H   0  0  0  0  0  0  0  0  0  0  0  0  # atno 10764 bound_to 10752
  154.5000  135.5869  153.6580 H   0  0  0  0  0  0  0  0  0  0  0  0  # atno 10765 bound_to 10752
  140.4839  134.0908  155.7756 H   0  0  0  0  0  0  0  0  0  0  0  0  # atno 11005 bound_to 11000
  144.8382  139.5515  143.6912 LP  0  0  0  0  0  0  0  0  0  0  0  0  # atno 17320 bound_to 7965
  146.2757  139.6748  142.9264 LP  0  0  0  0  0  0  0  0  0  0  0  0  # atno 17321 bound_to 7965
  139.5737  144.1869  152.1873 LP  0  0  0  0  0  0  0  0  0  0  0  0  # atno 17342 bound_to 10162
  140.1173  144.5405  150.6886 LP  0  0  0  0  0  0  0  0  0  0  0  0  # atno 17343 bound_to 10162
  157.6137  131.0934  150.8748 LP  0  0  0  0  0  0  0  0  0  0  0  0  # atno 17370 bound_to 10713
  156.8883  130.5204  149.5287 LP  0  0  0  0  0  0  0  0  0  0  0  0  # atno 17371 bound_to 10713
  141.1518  133.8956  157.2079 LP  0  0  0  0  0  0  0  0  0  0  0  0  # atno 17394 bound_to 11000
  139.9810  135.0098  156.9749 LP  0  0  0  0  0  0  0  0  0  0  0  0  # atno 17395 bound_to 11000

$$$$
