#       Name:                AV-unprocessed.smi:54
#       Creating user name   scv26
#       Creation time:       Thu Mar 26 16:42:43 2020


#       File generated by GOLD software.
#

@<TRIPOS>MOLECULE
AV-unprocessed.smi:54
    58    60     1
SMALL
NO_CHARGES


@<TRIPOS>ATOM
      1 ****         0.1164   5.6501  -0.4341 C.3            1 S1                 0.0000
      2 ****        -0.4593   5.0025   0.8358 C.3            1 S1                 0.0000
      3 ****         0.2656   5.5032   2.0955 C.3            1 S1                 0.0000
      4 ****        -0.3867   3.4743   0.7418 C.2            1 S1                 0.0000
      5 ****         0.6864   2.8768   0.6514 O.2            1 S1                 0.0000
      6 ****        -1.6667   2.7882   0.7658 N.am           1 S1                 0.0000
      7 ****        -1.8901   1.4554   0.6878 C.2            1 S1                 0.0000
      8 ****        -0.9183   0.5597   0.5867 N.2            1 S1                 0.0000
      9 ****        -1.3457  -0.7364   0.5091 C.2            1 S1                 0.0000
     10 ****        -2.6526  -1.1754   0.5310 C.2            1 S1                 0.0000
     11 ****        -2.6944  -2.5611   0.4250 N.2            1 S1                 0.0000
     12 ****        -1.4408  -2.9097   0.3367 C.2            1 S1                 0.0000
     13 ****        -0.5558  -1.8576   0.3804 N.pl3          1 S1                 0.0000
     14 ****         0.9365  -1.8661   0.2998 C.3            1 S1                 0.0000
     15 ****         1.3690  -3.1731   0.5407 O.3            1 S1                 0.0000
     16 ****         2.0726  -3.6918  -0.5838 C.3            1 S1                 0.0000
     17 ****         1.8602  -5.2101  -0.7145 C.3            1 S1                 0.0000
     18 ****         2.6642  -5.7289  -1.7524 O.3            1 S1                 0.0000
     19 ****         1.6471  -2.8211  -1.7748 C.3            1 S1                 0.0000
     20 ****         0.4771  -3.3174  -2.3985 O.3            1 S1                 0.0000
     21 ****         1.3746  -1.4757  -1.1204 C.3            1 S1                 0.0000
     22 ****         2.5404  -0.6767  -1.0923 O.3            1 S1                 0.0000
     23 ****        -3.7156  -0.2195   0.6480 C.2            1 S1                 0.0000
     24 ****        -4.9264  -0.4274   0.6859 O.2            1 S1                 0.0000
     25 ****        -3.2377   1.0958   0.7206 N.am           1 S1                 0.0000
     26 ****         1.2563  -1.1756   1.0816 H              1 S1                 0.0000
     27 ****         3.1291  -3.5004  -0.3881 H              1 S1                 0.0000
     28 ****         2.4277  -2.7640  -2.5346 H              1 S1                 0.0000
     29 ****         0.5974  -0.9074  -1.6346 H              1 S1                 0.0000
     30 ****        -0.3933   5.2908  -1.3288 H              1 S1                 0.0000
     31 ****         1.1799   5.4354  -0.5476 H              1 S1                 0.0000
     32 ****         0.0004   6.7338  -0.4054 H              1 S1                 0.0000
     33 ****        -1.5088   5.2898   0.9151 H              1 S1                 0.0000
     34 ****        -0.1347   5.0363   2.9963 H              1 S1                 0.0000
     35 ****         0.1501   6.5814   2.2079 H              1 S1                 0.0000
     36 ****         1.3344   5.2885   2.0556 H              1 S1                 0.0000
     37 ****        -2.4811   3.3790   0.8434 H              1 S1                 0.0000
     38 ****        -1.1337  -3.9401   0.2322 H              1 S1                 0.0000
     39 ****         2.1420  -5.7048   0.2152 H              1 S1                 0.0000
     40 ****         0.8141  -5.4558  -0.8985 H              1 S1                 0.0000
     41 ****         2.5440  -6.6659  -1.7864 H              1 S1                 0.0000
     42 ****         0.6757  -4.1611  -2.7756 H              1 S1                 0.0000
     43 ****         3.2122  -1.1427  -0.6183 H              1 S1                 0.0000
     44 ****        -3.9331   1.8231   0.7998 H              1 S1                 0.0000
     45 ****         1.5447   3.3898   0.6376 LP             1 S1                 0.0000
     46 ****         0.6995   1.8787   0.5918 LP             1 S1                 0.0000
     47 ****         0.0493   0.8118   0.5686 LP             1 S1                 0.0000
     48 ****        -3.4998  -3.1537   0.4181 LP             1 S1                 0.0000
     49 ****         0.5747  -3.7519   0.7252 LP             1 S1                 0.0000
     50 ****         1.9754  -3.1758   1.3359 LP             1 S1                 0.0000
     51 ****         3.6250  -5.5186  -1.5717 LP             1 S1                 0.0000
     52 ****         2.3924  -5.3223  -2.6247 LP             1 S1                 0.0000
     53 ****         0.1838  -2.6867  -3.1170 LP             1 S1                 0.0000
     54 ****        -0.2522  -3.4133  -1.7211 LP             1 S1                 0.0000
     55 ****         2.3442   0.1903  -0.6342 LP             1 S1                 0.0000
     56 ****         2.8492  -0.4977  -2.0264 LP             1 S1                 0.0000
     57 ****        -5.2749  -1.3631   0.6324 LP             1 S1                 0.0000
     58 ****        -5.5629   0.3392   0.7702 LP             1 S1                 0.0000
@<TRIPOS>BOND
    1    1    2 1     
    2    1   30 1     
    3    1   31 1     
    4    1   32 1     
    5    2    3 1     
    6    2    4 1     
    7    2   33 1     
    8    3   34 1     
    9    3   35 1     
   10    3   36 1     
   11    4    5 2     
   12    4    6 am    
   13    6   37 1     
   14    6    7 1     
   15    7   25 1     
   16    7    8 2     
   17    8    9 1     
   18    9   13 1     
   19    9   10 2     
   20   10   11 1     
   21   10   23 1     
   22   11   12 2     
   23   12   13 1     
   24   12   38 1     
   25   13   14 1     
   26   14   26 1     
   27   14   21 1     
   28   14   15 1     
   29   15   16 1     
   30   16   27 1     
   31   16   17 1     
   32   16   19 1     
   33   17   18 1     
   34   17   39 1     
   35   17   40 1     
   36   18   41 1     
   37   19   28 1     
   38   19   20 1     
   39   19   21 1     
   40   20   42 1     
   41   21   29 1     
   42   21   22 1     
   43   22   43 1     
   44   23   24 2     
   45   23   25 am    
   46   25   44 1     
   47    5   45 1     
   48    5   46 1     
   49    8   47 1     
   50   11   48 1     
   51   15   49 1     
   52   15   50 1     
   53   18   51 1     
   54   18   52 1     
   55   20   53 1     
   56   20   54 1     
   57   22   55 1     
   58   22   56 1     
   59   24   57 1     
   60   24   58 1     
@<TRIPOS>SUBSTRUCTURE
      1 S1             1
@<TRIPOS>SET
LONE_PAIRS      STATIC     ATOMS    <user>   **** ""
14 45 46 47 48 49 50 51 52 53 54 55 56 57 58
DONOR_HYDROGENS      STATIC     ATOMS    <user>   **** ""
5 37 41 42 43 44
ATOM$BLUE        STATIC     ATOMS    COLORGROUP SYSTEM
14 45 46 47 48 49 50 51 52 53 54 55 56 57 58
ATOM$RED        STATIC     ATOMS    COLORGROUP SYSTEM
5 37 41 42 43 44
