AV-unprocessed.smi:705|AV-procd|sdf|3448|dock3
  -GOLD-   22720 0433D 1   1.00000     0.00000
 Structure written by MMmdl.
 29 30  0  0  0  0  0  0  0  0  2 V2000
  152.5597  138.2372  154.9145 N   0  0  0  0  0  0  0  0  0  0  0  0
  151.7907  139.3122  155.1072 C   0  0  0  0  0  0  0  0  0  0  0  0
  150.9583  139.6915  154.2851 O   0  0  0  0  0  0  0  0  0  0  0  0
  152.0024  140.0356  156.4047 C   0  0  0  0  0  0  0  0  0  0  0  0
  151.3230  141.2619  156.6733 C   0  0  0  0  0  0  0  0  0  0  0  0
  151.7511  141.6217  157.9211 C   0  0  0  0  0  0  0  0  0  0  0  0
  151.4226  142.8057  158.7751 C   0  0  2  0  0  0  0  0  0  0  0  0
  151.7205  144.1360  158.0559 C   0  0  0  0  0  0  0  0  0  0  0  0
  151.3971  145.3319  158.9645 C   0  0  0  0  0  0  0  0  0  0  0  0
  152.1407  145.2182  160.3046 C   0  0  0  0  0  0  0  0  0  0  0  0
  151.8305  143.9315  160.9643 N   0  3  0  0  0  0  0  0  0  0  0  0
  152.1647  142.7580  160.1271 C   0  0  0  0  0  0  0  0  0  0  0  0
  152.6317  140.6417  158.3209 N   0  0  0  0  0  0  0  0  0  0  0  0
  152.7926  139.6679  157.4057 N   0  0  0  0  0  0  0  0  0  0  0  0
  153.1200  140.6210  159.2052 H   0  0  0  0  0  0  0  0  0  0  0  0
  152.4711  137.7007  154.0640 H   0  0  0  0  0  0  0  0  0  0  0  0
  153.2260  137.9672  155.6237 H   0  0  0  0  0  0  0  0  0  0  0  0
  150.6261  141.7969  156.0449 H   0  0  0  0  0  0  0  0  0  0  0  0
  150.3524  142.7820  158.9876 H   0  0  0  0  0  0  0  0  0  0  0  0
  152.7713  144.1765  157.7654 H   0  0  0  0  0  0  0  0  0  0  0  0
  151.1408  144.2036  157.1346 H   0  0  0  0  0  0  0  0  0  0  0  0
  151.6675  146.2627  158.4648 H   0  0  0  0  0  0  0  0  0  0  0  0
  150.3220  145.3776  159.1433 H   0  0  0  0  0  0  0  0  0  0  0  0
  153.2179  145.2915  160.1484 H   0  0  0  0  0  0  0  0  0  0  0  0
  151.8569  146.0368  160.9664 H   0  0  0  0  0  0  0  0  0  0  0  0
  152.3479  143.8737  161.8300 H   0  0  0  0  0  0  0  0  0  0  0  0
  151.8988  141.8523  160.6732 H   0  0  0  0  0  0  0  0  0  0  0  0
  153.2441  142.7289  159.9711 H   0  0  0  0  0  0  0  0  0  0  0  0
  150.8427  143.9074  161.1735 H   0  0  0  0  0  0  0  0  0  0  0  0
  1  2  1  0  0  0  0
  1 16  1  0  0  0  0
  1 17  1  0  0  0  0
  2  3  2  0  0  0  0
  2  4  1  0  0  0  0
  4 14  2  0  0  0  0
  4  5  1  0  0  0  0
  5  6  2  0  0  0  0
  5 18  1  0  0  0  0
  6  7  1  0  0  0  0
  6 13  1  0  0  0  0
  7 12  1  0  0  0  0
  7  8  1  0  0  0  0
  7 19  1  0  0  0  0
  8  9  1  0  0  0  0
  8 20  1  0  0  0  0
  8 21  1  0  0  0  0
  9 10  1  0  0  0  0
  9 22  1  0  0  0  0
  9 23  1  0  0  0  0
 10 11  1  0  0  0  0
 10 24  1  0  0  0  0
 10 25  1  0  0  0  0
 11 12  1  0  0  0  0
 11 26  1  0  0  0  0
 11 29  1  0  0  0  0
 12 27  1  0  0  0  0
 12 28  1  0  0  0  0
 13 15  1  0  0  0  0
 13 14  1  0  0  0  0
M  CHG  1  11   1
M  END
> <s_m_source_file>
AV-unprocessed.smi

> <i_m_source_file_index>
705

> <i_lp_mmshare_version>
43012

> <i_f3d_flags>
0

> <s_epik_input>
W05IMl1DKD1PKWMxW2NIXWMoW25IXW4xKVtDQEBIXTJbQ0gyXVtDSDJdW0NIMl1bTkhdW0NIMl0y

> <s_epik_cmdline>
J2VwaWtfcHl0aG9uJywgJy1waCcsICc3LjAnLCAnLXRuJywgJzgnLCAnLW1hJywgJzIwMCcsICctbWV0YWxfYmluZGluZycsICctaW1hZScsICc8aW5maWxlLm1hZT4nLCAnLW9tYWUnLCAnPG91dGZpbGUubWFlPic=

> <r_lp_tautomer_probability>
0.5

> <r_epik_Ionization_Penalty>
0.000245231

> <r_epik_Ionization_Penalty_Charging>
0.000226378

> <r_epik_Ionization_Penalty_Neutral>
1.88531e-05

> <r_epik_State_Penalty>
0.41068

> <r_epik_Charging_Adjusted_Penalty>
0.410906

> <i_epik_Tot_Q>
1

> <i_epik_Tot_abs_Q>
1

> <r_epik_Metal_State_Penalty>
0.446108

> <b_epik_Metal_Only>
0

> <s_lp_Force_Field>
OPLS_2005

> <r_lp_Energy>
15.347

> <b_lp_Chiralities_Consistent>
1

> <s_lp_Variant>
AV-unprocessed.smi:705-3

> <Gold.Version>
5.8.1

> <Gold.Id.Protein>
6NUR|6NUR_protein|mol2

> <Gold.PLP.Fitness>
37.0189

> <Gold.PLP.PLP>
-31.0531

> <Gold.PLP.part.hbond>
-2.0000

> <Gold.PLP.part.metal>
0.0000

> <Gold.PLP.part.buried>
-4.7820

> <Gold.PLP.part.nonpolar>
-24.0659

> <Gold.PLP.part.repulsive>
0.4989

> <Gold.PLP.ligand.clash>
0.0000

> <Gold.PLP.ligand.torsion>
0.0253

> <Gold.PLP.Chemscore.Hbond>
2.0000

> <Gold.PLP.Chemscore.CHOScore>
0.0000

> <Gold.PLP.Chemscore.Metal>
0.0000

> <Gold.Chemscore.Hbonds>
donor molecule, donor type, donor heavy atom, donor atom, acceptor molecule, acceptor atom, score
      P1  H  7989  7998       L1     3  1.00
      P1  H  7997  8009       L1    14  1.00

> <Gold.PLP.Chemscore.Internal.Correction>
0.0164

> <Gold.Rescore>
     Score         DG    S(hbond)    S(metal)    S(lipo)     H(rot)  DE(clash)    DE(int)     intcor
     15.97     -16.08       1.22        0.00      77.70       1.00       0.09       0.03       ----

> <Gold.Chemscore.Fitness>
15.9699

> <Gold.Chemscore.DG>
-16.0839

> <Gold.Chemscore.ZeroCoef>
-5.4800

> <Gold.Chemscore.Hbond>
1.2196

> <Gold.Chemscore.Metal>
0.0000

> <Gold.Chemscore.Lipo>
77.6956

> <Gold.Chemscore.Internal_Hbond>
0.0000

> <Gold.Chemscore.DEClash>
0.0877

> <Gold.Chemscore.DEInternal>
0.0263

> <Gold.Chemscore.Rot>
1.0000

> <Gold.Chemscore.Internal.Correction>
   9.000000E+99

> <Gold.Chemscore.Hbonds>
donor molecule, donor type, donor heavy atom, donor atom, acceptor molecule, acceptor atom, score
      P1  H  7989  7998       L1     3  0.53
      P1  H  7997  8009       L1    14  0.10

> <Gold.Chemscore.Hbond.Weighted>
-4.0735

> <Gold.Chemscore.Metal.Weighted>
-0.0000

> <Gold.Chemscore.Lipo.Weighted>
-9.0904

> <Gold.Chemscore.Internal_Hbond.Weighted>
0.0000

> <Gold.Chemscore.DEClash.Weighted>
0.0877

> <Gold.Chemscore.DEInternal.Weighted>
0.0263

> <Gold.Chemscore.Rot.Weighted>
2.5600

> <Gold.Chemscore.Internal.Correction.Weighted>
   9.000000E+99

> <Gold.Protein.RotatedTorsions>
[ 6907 6896 6895 6894 ] final  -21.07 input  -60.11 | X-H torsion
[ 7974 7965 7964 7962 ] final  114.44 input  175.53 | X-H torsion
[ 8008 7997 7996 7995 ] final  175.21 input   59.86 | X-H torsion
[ 10167 10162 10161 10158 ] final  -31.86 input  -65.29 | X-H torsion
[ 10718 10713 10712 10709 ] final -154.09 input   66.30 | X-H torsion
[ 10763 10752 10751 10750 ] final  -40.64 input  -60.55 | X-H torsion
[ 11005 11000 10999 10996 ] final  -98.30 input  -57.11 | X-H torsion

> <Gold.Protein.ActiveResidues>
 VAL166  LYS551  ARG553  GLY616  TRP617  ASP618  TYR619  PRO620  LYS621  CYS622 
 ASP623  PHE694  ASN695  SER759  ASP760  ASP761  ALA762  ILE779  LEU786  VAL792 
 PHE793  MET794  SER795  GLU796  ALA797  LYS798  CYS799  TRP800  GLU811  SER814 

> <Gold.Protein.RotatedAtoms>
  151.2388  135.0581  159.9016 H   0  0  0  0  0  0  0  0  0  0  0  0  # atno 6907 bound_to 6896
  152.5396  134.0457  159.8097 H   0  0  0  0  0  0  0  0  0  0  0  0  # atno 6908 bound_to 6896
  151.0647  133.5466  159.2663 H   0  0  0  0  0  0  0  0  0  0  0  0  # atno 6909 bound_to 6896
  145.2045  139.2936  143.4301 H   0  0  0  0  0  0  0  0  0  0  0  0  # atno 7974 bound_to 7965
  156.0894  140.1415  156.9611 H   0  0  0  0  0  0  0  0  0  0  0  0  # atno 8008 bound_to 7997
  154.4633  140.0935  156.6999 H   0  0  0  0  0  0  0  0  0  0  0  0  # atno 8009 bound_to 7997
  155.4944  140.3449  155.4362 H   0  0  0  0  0  0  0  0  0  0  0  0  # atno 8010 bound_to 7997
  140.7230  143.3738  151.1727 H   0  0  0  0  0  0  0  0  0  0  0  0  # atno 10167 bound_to 10162
  156.4946  130.8363  151.2584 H   0  0  0  0  0  0  0  0  0  0  0  0  # atno 10718 bound_to 10713
  153.9494  135.6752  153.4744 H   0  0  0  0  0  0  0  0  0  0  0  0  # atno 10763 bound_to 10752
  153.0892  135.4883  154.8653 H   0  0  0  0  0  0  0  0  0  0  0  0  # atno 10764 bound_to 10752
  154.7334  135.3143  154.8812 H   0  0  0  0  0  0  0  0  0  0  0  0  # atno 10765 bound_to 10752
  141.1349  133.8235  157.0821 H   0  0  0  0  0  0  0  0  0  0  0  0  # atno 11005 bound_to 11000
  146.3411  140.2300  142.8593 LP  0  0  0  0  0  0  0  0  0  0  0  0  # atno 17320 bound_to 7965
  144.9916  140.8552  143.5336 LP  0  0  0  0  0  0  0  0  0  0  0  0  # atno 17321 bound_to 7965
  139.7315  143.9065  152.3021 LP  0  0  0  0  0  0  0  0  0  0  0  0  # atno 17342 bound_to 10162
  139.8856  144.6994  150.8828 LP  0  0  0  0  0  0  0  0  0  0  0  0  # atno 17343 bound_to 10162
  157.7470  131.0002  150.2917 LP  0  0  0  0  0  0  0  0  0  0  0  0  # atno 17370 bound_to 10713
  156.3393  130.3813  149.7423 LP  0  0  0  0  0  0  0  0  0  0  0  0  # atno 17371 bound_to 10713
  140.0445  134.9837  157.1023 LP  0  0  0  0  0  0  0  0  0  0  0  0  # atno 17394 bound_to 11000
  140.4084  134.2007  155.7163 LP  0  0  0  0  0  0  0  0  0  0  0  0  # atno 17395 bound_to 11000

$$$$
