#       Name:                AV-unprocessed.smi:1821
#       Creating user name   scv26
#       Creation time:       Fri Mar 27 09:05:54 2020


#       File generated by GOLD software.
#

@<TRIPOS>MOLECULE
AV-unprocessed.smi:1821
    38    40     1
SMALL
NO_CHARGES


@<TRIPOS>ATOM
      1 ****        -1.1833   1.1537  -2.8908 C.3            1 S1                 0.0000
      2 ****        -1.3113   1.6143  -1.4778 C.2            1 S1                 0.0000
      3 ****        -1.7648   2.8324  -1.0680 N.pl3          1 S1                 1.0000
      4 ****        -1.7431   2.8998   0.3259 C.ar           1 S1                 0.0000
      5 ****        -2.1068   3.9248   1.1939 C.ar           1 S1                 0.0000
      6 ****        -1.9568   3.6695   2.5728 C.ar           1 S1                 0.0000
      7 ****        -1.4617   2.4352   3.0413 C.ar           1 S1                 0.0000
      8 ****        -1.0979   1.4028   2.1518 C.ar           1 S1                 0.0000
      9 ****        -1.2510   1.6623   0.7896 C.ar           1 S1                 0.0000
     10 ****        -1.0005   0.9008  -0.3585 N.pl3          1 S1                 0.0000
     11 ****        -0.4752  -0.4673  -0.2268 C.3            1 S1                 0.0000
     12 ****         1.0616  -0.5373  -0.3389 C.3            1 S1                 0.0000
     13 ****         1.6683   0.2812   0.6432 O.3            1 S1                 0.0000
     14 ****         1.5547  -1.9788  -0.2811 C.ar           1 S1                 0.0000
     15 ****         1.5581  -2.6931   0.9411 C.ar           1 S1                 0.0000
     16 ****         1.1226  -2.1077   2.0829 F              1 S1                 0.0000
     17 ****         2.0086  -4.0269   0.9830 C.ar           1 S1                 0.0000
     18 ****         2.4554  -4.6599  -0.1917 C.ar           1 S1                 0.0000
     19 ****         2.4466  -3.9593  -1.4119 C.ar           1 S1                 0.0000
     20 ****         1.9962  -2.6256  -1.4592 C.ar           1 S1                 0.0000
     21 ****         1.9879  -1.9739  -2.6471 F              1 S1                 0.0000
     22 ****        -1.5196   1.9293  -3.5794 H              1 S1                 0.0000
     23 ****        -1.7884   0.2613  -3.0519 H              1 S1                 0.0000
     24 ****        -0.1437   0.9157  -3.1166 H              1 S1                 0.0000
     25 ****        -2.4843   4.8718   0.8372 H              1 S1                 0.0000
     26 ****        -2.2248   4.4362   3.2852 H              1 S1                 0.0000
     27 ****        -1.3570   2.2768   4.1048 H              1 S1                 0.0000
     28 ****        -0.7138   0.4638   2.5223 H              1 S1                 0.0000
     29 ****        -0.8283  -0.8980   0.7101 H              1 S1                 0.0000
     30 ****        -0.9286  -1.0630  -1.0197 H              1 S1                 0.0000
     31 ****         1.3528  -0.1064  -1.2968 H              1 S1                 0.0000
     32 ****         2.6000   0.2979   0.4851 H              1 S1                 0.0000
     33 ****         2.0088  -4.5661   1.9188 H              1 S1                 0.0000
     34 ****         2.8006  -5.6828  -0.1578 H              1 S1                 0.0000
     35 ****         2.7841  -4.4461  -2.3152 H              1 S1                 0.0000
     36 ****        -2.0671   3.5641  -1.6982 H              1 S1                 0.0000
     37 ****         1.4871  -0.0925   1.5528 LP             1 S1                 0.0000
     38 ****         1.2994   1.2087   0.5843 LP             1 S1                 0.0000
@<TRIPOS>BOND
    1    1    2 1     
    2    1   22 1     
    3    1   23 1     
    4    1   24 1     
    5    2   10 1     
    6    2    3 2     
    7    3    4 1     
    8    3   36 1     
    9    4    9 ar    
   10    4    5 ar    
   11    5    6 ar    
   12    5   25 1     
   13    6    7 ar    
   14    6   26 1     
   15    7    8 ar    
   16    7   27 1     
   17    8    9 ar    
   18    8   28 1     
   19    9   10 1     
   20   10   11 1     
   21   11   12 1     
   22   11   29 1     
   23   11   30 1     
   24   12   13 1     
   25   12   14 1     
   26   12   31 1     
   27   13   32 1     
   28   14   20 ar    
   29   14   15 ar    
   30   15   16 1     
   31   15   17 ar    
   32   17   18 ar    
   33   17   33 1     
   34   18   19 ar    
   35   18   34 1     
   36   19   20 ar    
   37   19   35 1     
   38   20   21 1     
   39   13   37 1     
   40   13   38 1     
@<TRIPOS>SUBSTRUCTURE
      1 S1             1
@<TRIPOS>SET
LONE_PAIRS      STATIC     ATOMS    <user>   **** ""
2 37 38
DONOR_HYDROGENS      STATIC     ATOMS    <user>   **** ""
2 36 32
ATOM$BLUE        STATIC     ATOMS    COLORGROUP SYSTEM
2 37 38
ATOM$RED        STATIC     ATOMS    COLORGROUP SYSTEM
2 36 32
