AV-unprocessed.smi:653|AV-procd|sdf|3208|dock4
  -GOLD-   22720 0143D 1   1.00000     0.00000
 Structure written by MMmdl.
 45 46  0  0  0  0  0  0  0  0  2 V2000
  144.0198  131.7973  150.5856 C   0  0  0  0  0  0  0  0  0  0  0  0
  144.4999  133.1856  150.9529 C   0  0  0  0  0  0  0  0  0  0  0  0
  145.7387  133.4086  151.5911 C   0  0  0  0  0  0  0  0  0  0  0  0
  146.1260  134.7288  151.9013 C   0  0  0  0  0  0  0  0  0  0  0  0
  145.2675  135.8001  151.5680 C   0  0  0  0  0  0  0  0  0  0  0  0
  145.6577  137.2331  151.8859 C   0  0  0  0  0  0  0  0  0  0  0  0
  146.1217  137.3573  153.3390 C   0  0  0  0  0  0  0  0  0  0  0  0
  145.2962  137.5099  154.2397 O   0  0  0  0  0  0  0  0  0  0  0  0
  147.4443  137.2885  153.5544 N   0  0  0  0  0  0  0  0  0  0  0  0
  148.0837  137.3843  154.8622 C   0  0  0  0  0  0  0  0  0  0  0  0
  148.7118  138.7722  155.0987 C   0  0  2  0  0  0  0  0  0  0  0  0
  147.9684  139.9161  154.4356 C   0  0  0  0  0  0  0  0  0  0  0  0
  149.0290  141.0115  154.4229 C   0  0  0  0  0  0  0  0  0  0  0  0
  150.2740  140.3386  154.2648 O   0  0  0  0  0  0  0  0  0  0  0  0
  150.1109  138.9387  154.4876 C   0  0  1  0  0  0  0  0  0  0  0  0
  151.2863  138.3614  155.3100 C   0  0  0  0  0  0  0  0  0  0  0  0
  152.6683  138.6679  154.7043 C   0  0  0  0  0  0  0  0  0  0  0  0
  151.1134  136.8492  155.5220 C   0  0  0  0  0  0  0  0  0  0  0  0
  144.0404  135.5158  150.9303 C   0  0  0  0  0  0  0  0  0  0  0  0
  143.7066  134.2373  150.6486 N   0  3  0  0  0  0  0  0  0  0  0  0
  144.5037  131.0424  151.2060 H   0  0  0  0  0  0  0  0  0  0  0  0
  144.2500  131.5826  149.5418 H   0  0  0  0  0  0  0  0  0  0  0  0
  142.9420  131.7099  150.7260 H   0  0  0  0  0  0  0  0  0  0  0  0
  146.3869  132.5807  151.8396 H   0  0  0  0  0  0  0  0  0  0  0  0
  147.0736  134.9151  152.3856 H   0  0  0  0  0  0  0  0  0  0  0  0
  146.4424  137.5575  151.2003 H   0  0  0  0  0  0  0  0  0  0  0  0
  144.8062  137.8959  151.7267 H   0  0  0  0  0  0  0  0  0  0  0  0
  148.0522  137.1663  152.7574 H   0  0  0  0  0  0  0  0  0  0  0  0
  147.3571  137.1578  155.6441 H   0  0  0  0  0  0  0  0  0  0  0  0
  148.8485  136.6095  154.9229 H   0  0  0  0  0  0  0  0  0  0  0  0
  148.7492  138.9760  156.1683 H   0  0  0  0  0  0  0  0  0  0  0  0
  147.6918  139.6521  153.4138 H   0  0  0  0  0  0  0  0  0  0  0  0
  147.0644  140.2095  154.9703 H   0  0  0  0  0  0  0  0  0  0  0  0
  148.8659  141.7417  153.6301 H   0  0  0  0  0  0  0  0  0  0  0  0
  149.0399  141.5418  155.3761 H   0  0  0  0  0  0  0  0  0  0  0  0
  150.1039  138.4708  153.5016 H   0  0  0  0  0  0  0  0  0  0  0  0
  151.2555  138.8219  156.2979 H   0  0  0  0  0  0  0  0  0  0  0  0
  152.7609  138.2618  153.6967 H   0  0  0  0  0  0  0  0  0  0  0  0
  153.4631  138.2293  155.3081 H   0  0  0  0  0  0  0  0  0  0  0  0
  152.8652  139.7378  154.6527 H   0  0  0  0  0  0  0  0  0  0  0  0
  151.1341  136.3107  154.5742 H   0  0  0  0  0  0  0  0  0  0  0  0
  150.1652  136.6252  156.0114 H   0  0  0  0  0  0  0  0  0  0  0  0
  151.9079  136.4462  156.1507 H   0  0  0  0  0  0  0  0  0  0  0  0
  143.3222  136.2668  150.6350 H   0  0  0  0  0  0  0  0  0  0  0  0
  142.8160  134.0570  150.1846 H   0  0  0  0  0  0  0  0  0  0  0  0
  1  2  1  0  0  0  0
  1 21  1  0  0  0  0
  1 22  1  0  0  0  0
  1 23  1  0  0  0  0
  2 20  1  0  0  0  0
  2  3  2  0  0  0  0
  3  4  1  0  0  0  0
  3 24  1  0  0  0  0
  4  5  2  0  0  0  0
  4 25  1  0  0  0  0
  5  6  1  0  0  0  0
  5 19  1  0  0  0  0
  6  7  1  0  0  0  0
  6 26  1  0  0  0  0
  6 27  1  0  0  0  0
  7  8  2  0  0  0  0
  7  9  1  0  0  0  0
  9 10  1  0  0  0  0
  9 28  1  0  0  0  0
 10 11  1  0  0  0  0
 10 29  1  0  0  0  0
 10 30  1  0  0  0  0
 11 15  1  0  0  0  0
 11 12  1  0  0  0  0
 11 31  1  0  0  0  0
 12 13  1  0  0  0  0
 12 32  1  0  0  0  0
 12 33  1  0  0  0  0
 13 14  1  0  0  0  0
 13 34  1  0  0  0  0
 13 35  1  0  0  0  0
 14 15  1  0  0  0  0
 15 16  1  0  0  0  0
 15 36  1  0  0  0  0
 16 17  1  0  0  0  0
 16 18  1  0  0  0  0
 16 37  1  0  0  0  0
 17 38  1  0  0  0  0
 17 39  1  0  0  0  0
 17 40  1  0  0  0  0
 18 41  1  0  0  0  0
 18 42  1  0  0  0  0
 18 43  1  0  0  0  0
 19 20  2  0  0  0  0
 19 44  1  0  0  0  0
 20 45  1  0  0  0  0
M  CHG  1  20   1
M  END
> <s_m_source_file>
AV-unprocessed.smi

> <i_m_source_file_index>
653

> <i_lp_mmshare_version>
43012

> <i_f3d_flags>
0

> <s_epik_input>
W0NIM11jMVtjSF1bY0hdYyhbY0hdbjEpW0NIMl1DKD1PKVtOSF1bQ0gyXVtDQEBIXTJbQ0gyXVtDSDJdT1tDQEhdMltDSF0oW0NIM10pW0NIM10=

> <s_epik_cmdline>
J2VwaWtfcHl0aG9uJywgJy1waCcsICc3LjAnLCAnLXRuJywgJzgnLCAnLW1hJywgJzIwMCcsICctbWV0YWxfYmluZGluZycsICctaW1hZScsICc8aW5maWxlLm1hZT4nLCAnLW9tYWUnLCAnPG91dGZpbGUubWFlPic=

> <r_epik_Ionization_Penalty>
2.12486

> <r_epik_Ionization_Penalty_Charging>
2.12486

> <r_epik_Ionization_Penalty_Neutral>
9.0873e-08

> <r_epik_State_Penalty>
2.26279

> <r_epik_Charging_Adjusted_Penalty>
4.38765

> <i_epik_Tot_Q>
1

> <i_epik_Tot_abs_Q>
1

> <r_epik_Metal_State_Penalty>
2.27914

> <b_epik_Metal_Only>
0

> <s_lp_Force_Field>
OPLS_2005

> <r_lp_Energy>
26.2023

> <b_lp_Chiralities_Consistent>
1

> <s_lp_Variant>
AV-unprocessed.smi:653-5

> <Gold.Version>
5.8.1

> <Gold.Id.Protein>
6NUR|6NUR_protein|mol2

> <Gold.PLP.Fitness>
45.5041

> <Gold.PLP.PLP>
-35.3362

> <Gold.PLP.part.hbond>
-2.7388

> <Gold.PLP.part.metal>
0.0000

> <Gold.PLP.part.buried>
-4.3756

> <Gold.PLP.part.nonpolar>
-29.7751

> <Gold.PLP.part.repulsive>
0.2456

> <Gold.PLP.ligand.clash>
0.0000

> <Gold.PLP.ligand.torsion>
0.8725

> <Gold.PLP.Chemscore.Hbond>
3.9520

> <Gold.PLP.Chemscore.CHOScore>
0.0000

> <Gold.PLP.Chemscore.Metal>
0.0000

> <Gold.Chemscore.Hbonds>
donor molecule, donor type, donor heavy atom, donor atom, acceptor molecule, acceptor atom, score
      L1  H     9    28       P1  7948  1.00
      L1  H    20    45       P1 10186  2.00
      P1  H  7989  7998       L1    14  0.98

> <Gold.PLP.Chemscore.Internal.Correction>
0.0568

> <Gold.Rescore>
     Score         DG    S(hbond)    S(metal)    S(lipo)     H(rot)  DE(clash)    DE(int)     intcor
     20.06     -21.19       2.65        0.00      92.84       1.57       0.33       0.80       ----

> <Gold.Chemscore.Fitness>
20.0572

> <Gold.Chemscore.DG>
-21.1854

> <Gold.Chemscore.ZeroCoef>
-5.4800

> <Gold.Chemscore.Hbond>
2.6534

> <Gold.Chemscore.Metal>
0.0000

> <Gold.Chemscore.Lipo>
92.8441

> <Gold.Chemscore.Internal_Hbond>
0.0000

> <Gold.Chemscore.DEClash>
0.3256

> <Gold.Chemscore.DEInternal>
0.8026

> <Gold.Chemscore.Rot>
1.5701

> <Gold.Chemscore.Internal.Correction>
   9.000000E+99

> <Gold.Chemscore.Hbonds>
donor molecule, donor type, donor heavy atom, donor atom, acceptor molecule, acceptor atom, score
      L1  H     9    28       P1  7948  0.92
      L1  H    20    45       P1 10186  0.95
      P1  H  7989  7998       L1    14  0.89

> <Gold.Chemscore.Hbond.Weighted>
-8.8622

> <Gold.Chemscore.Metal.Weighted>
-0.0000

> <Gold.Chemscore.Lipo.Weighted>
-10.8628

> <Gold.Chemscore.Internal_Hbond.Weighted>
0.0000

> <Gold.Chemscore.DEClash.Weighted>
0.3256

> <Gold.Chemscore.DEInternal.Weighted>
0.8026

> <Gold.Chemscore.Rot.Weighted>
4.0196

> <Gold.Chemscore.Internal.Correction.Weighted>
   9.000000E+99

> <Gold.Protein.RotatedTorsions>
[ 6907 6896 6895 6894 ] final -160.20 input  -60.11 | X-H torsion
[ 7974 7965 7964 7962 ] final    4.68 input  175.53 | X-H torsion
[ 8008 7997 7996 7995 ] final  131.02 input   59.86 | X-H torsion
[ 10167 10162 10161 10158 ] final  132.20 input  -65.29 | X-H torsion
[ 10718 10713 10712 10709 ] final  -77.81 input   66.30 | X-H torsion
[ 10763 10752 10751 10750 ] final   48.20 input  -60.55 | X-H torsion
[ 11005 11000 10999 10996 ] final -140.55 input  -57.11 | X-H torsion

> <Gold.Protein.ActiveResidues>
 VAL166  LYS551  ARG553  GLY616  TRP617  ASP618  TYR619  PRO620  LYS621  CYS622 
 ASP623  PHE694  ASN695  SER759  ASP760  ASP761  ALA762  ILE779  LEU786  VAL792 
 PHE793  MET794  SER795  GLU796  ALA797  LYS798  CYS799  TRP800  GLU811  SER814 

> <Gold.Protein.RotatedAtoms>
  151.3454  133.3946  159.2674 H   0  0  0  0  0  0  0  0  0  0  0  0  # atno 6907 bound_to 6896
  150.9844  134.9193  159.7873 H   0  0  0  0  0  0  0  0  0  0  0  0  # atno 6908 bound_to 6896
  152.5227  134.3418  159.9272 H   0  0  0  0  0  0  0  0  0  0  0  0  # atno 6909 bound_to 6896
  146.2443  140.0498  142.8376 H   0  0  0  0  0  0  0  0  0  0  0  0  # atno 7974 bound_to 7965
  156.2964  140.2582  156.2856 H   0  0  0  0  0  0  0  0  0  0  0  0  # atno 8008 bound_to 7997
  154.9559  140.0393  157.2185 H   0  0  0  0  0  0  0  0  0  0  0  0  # atno 8009 bound_to 7997
  154.7992  140.2825  155.5938 H   0  0  0  0  0  0  0  0  0  0  0  0  # atno 8010 bound_to 7997
  139.5350  144.6673  151.4817 H   0  0  0  0  0  0  0  0  0  0  0  0  # atno 10167 bound_to 10162
  156.0135  130.4501  150.3401 H   0  0  0  0  0  0  0  0  0  0  0  0  # atno 10718 bound_to 10713
  152.9793  135.5952  154.3887 H   0  0  0  0  0  0  0  0  0  0  0  0  # atno 10763 bound_to 10752
  154.3544  135.2767  155.2356 H   0  0  0  0  0  0  0  0  0  0  0  0  # atno 10764 bound_to 10752
  154.4381  135.6020  153.6166 H   0  0  0  0  0  0  0  0  0  0  0  0  # atno 10765 bound_to 10752
  140.8411  134.2401  157.4809 H   0  0  0  0  0  0  0  0  0  0  0  0  # atno 11005 bound_to 11000
  145.0995  140.9336  143.4721 LP  0  0  0  0  0  0  0  0  0  0  0  0  # atno 17320 bound_to 7965
  145.0687  139.3048  143.5843 LP  0  0  0  0  0  0  0  0  0  0  0  0  # atno 17321 bound_to 7965
  140.6551  143.8616  150.6827 LP  0  0  0  0  0  0  0  0  0  0  0  0  # atno 17342 bound_to 10162
  140.1993  143.3973  152.1804 LP  0  0  0  0  0  0  0  0  0  0  0  0  # atno 17343 bound_to 10162
  157.1496  131.0317  151.2891 LP  0  0  0  0  0  0  0  0  0  0  0  0  # atno 17370 bound_to 10713
  157.4403  130.7540  149.7064 LP  0  0  0  0  0  0  0  0  0  0  0  0  # atno 17371 bound_to 10713
  139.8703  134.9636  156.4466 LP  0  0  0  0  0  0  0  0  0  0  0  0  # atno 17394 bound_to 11000
  140.8894  133.7859  155.9555 LP  0  0  0  0  0  0  0  0  0  0  0  0  # atno 17395 bound_to 11000

$$$$
