AV-unprocessed.smi:576|AV-procd|sdf|2979|dock6
  -GOLD-   2262023493D 1   1.00000     0.00000
 Structure written by MMmdl.
 35 36  0  0  0  0  0  0  0  0  1 V2000
  151.2980  138.2692  154.7001 C   0  0  0  0  0  0  0  0  0  0  0  0
  150.2729  139.1112  155.4724 C   0  0  1  0  0  0  0  0  0  0  0  0
  150.6401  139.1140  156.8847 N   0  0  0  0  0  0  0  0  0  0  0  0
  151.8786  139.2986  157.3668 C   0  0  0  0  0  0  0  0  0  0  0  0
  152.8570  139.5201  156.6520 O   0  0  0  0  0  0  0  0  0  0  0  0
  152.0212  139.2405  158.8941 C   0  0  0  0  0  0  0  0  0  0  0  0
  152.5113  140.5008  159.4772 N   0  0  0  0  0  0  0  0  0  0  0  0
  151.9378  141.6961  159.0006 C   0  0  0  0  0  0  0  0  0  0  0  0
  152.3112  142.9139  159.4384 C   0  0  0  0  0  0  0  0  0  0  0  0
  151.6374  144.1830  158.9402 C   0  0  0  0  0  0  0  0  0  0  0  0
  152.0947  145.2560  159.5861 F   0  0  0  0  0  0  0  0  0  0  0  0
  151.8811  144.3451  157.6406 F   0  0  0  0  0  0  0  0  0  0  0  0
  150.3162  144.1238  159.1103 F   0  0  0  0  0  0  0  0  0  0  0  0
  153.3285  142.9443  160.4711 C   0  0  0  0  0  0  0  0  0  0  0  0
  153.8830  141.8102  160.9425 C   0  0  0  0  0  0  0  0  0  0  0  0
  153.4841  140.4944  160.4376 C   0  0  0  0  0  0  0  0  0  0  0  0
  153.9909  139.4519  160.8530 O   0  0  0  0  0  0  0  0  0  0  0  0
  150.1580  140.5047  154.8769 C   0  0  0  0  0  0  0  0  0  0  0  0
  150.4884  141.7376  155.6851 C   0  0  0  0  0  0  0  0  0  0  0  0
  149.0553  141.4439  155.3051 C   0  0  0  0  0  0  0  0  0  0  0  0
  151.0311  138.1962  153.6454 H   0  0  0  0  0  0  0  0  0  0  0  0
  151.3524  137.2540  155.0946 H   0  0  0  0  0  0  0  0  0  0  0  0
  152.2961  138.7051  154.7601 H   0  0  0  0  0  0  0  0  0  0  0  0
  149.3044  138.6180  155.3672 H   0  0  0  0  0  0  0  0  0  0  0  0
  149.8963  138.9458  157.5466 H   0  0  0  0  0  0  0  0  0  0  0  0
  151.0508  138.9728  159.3143 H   0  0  0  0  0  0  0  0  0  0  0  0
  152.6864  138.4194  159.1683 H   0  0  0  0  0  0  0  0  0  0  0  0
  151.1747  141.5600  158.2480 H   0  0  0  0  0  0  0  0  0  0  0  0
  153.6559  143.8927  160.8708 H   0  0  0  0  0  0  0  0  0  0  0  0
  154.6404  141.8705  161.7102 H   0  0  0  0  0  0  0  0  0  0  0  0
  150.4210  140.5469  153.8212 H   0  0  0  0  0  0  0  0  0  0  0  0
  150.7658  141.6044  156.7288 H   0  0  0  0  0  0  0  0  0  0  0  0
  150.9906  142.5541  155.1700 H   0  0  0  0  0  0  0  0  0  0  0  0
  148.5998  142.0660  154.5373 H   0  0  0  0  0  0  0  0  0  0  0  0
  148.3854  141.1133  156.0965 H   0  0  0  0  0  0  0  0  0  0  0  0
  1  2  1  0  0  0  0
  1 21  1  0  0  0  0
  1 22  1  0  0  0  0
  1 23  1  0  0  0  0
  2  3  1  0  0  0  0
  2 18  1  0  0  0  0
  2 24  1  0  0  0  0
  3  4  1  0  0  0  0
  3 25  1  0  0  0  0
  4  5  2  0  0  0  0
  4  6  1  0  0  0  0
  6  7  1  0  0  0  0
  6 26  1  0  0  0  0
  6 27  1  0  0  0  0
  7 16  1  0  0  0  0
  7  8  1  0  0  0  0
  8  9  2  0  0  0  0
  8 28  1  0  0  0  0
  9 10  1  0  0  0  0
  9 14  1  0  0  0  0
 10 11  1  0  0  0  0
 10 12  1  0  0  0  0
 10 13  1  0  0  0  0
 14 15  2  0  0  0  0
 14 29  1  0  0  0  0
 15 16  1  0  0  0  0
 15 30  1  0  0  0  0
 16 17  2  0  0  0  0
 18 20  1  0  0  0  0
 18 19  1  0  0  0  0
 18 31  1  0  0  0  0
 19 20  1  0  0  0  0
 19 32  1  0  0  0  0
 19 33  1  0  0  0  0
 20 34  1  0  0  0  0
 20 35  1  0  0  0  0
M  END
> <s_m_source_file>
AV-unprocessed.smi

> <i_m_source_file_index>
576

> <i_lp_mmshare_version>
43012

> <i_f3d_flags>
0

> <s_epik_input>
W0NIMl0xW0NIMl1bQ0hdMVtDQEhdKFtDSDNdKVtOSF1DKD1PKVtDSDJdbjJbY0hdYyhDKEYpKEYpRilbY0hdW2NIXWMyPU8=

> <s_epik_cmdline>
J2VwaWtfcHl0aG9uJywgJy1waCcsICc3LjAnLCAnLXRuJywgJzgnLCAnLW1hJywgJzIwMCcsICctbWV0YWxfYmluZGluZycsICctaW1hZScsICc8aW5maWxlLm1hZT4nLCAnLW9tYWUnLCAnPG91dGZpbGUubWFlPic=

> <r_lp_tautomer_probability>
1

> <r_epik_Ionization_Penalty>
3.84201e-08

> <r_epik_Ionization_Penalty_Charging>
1.91184e-08

> <r_epik_Ionization_Penalty_Neutral>
1.93017e-08

> <r_epik_State_Penalty>
-0

> <r_epik_Charging_Adjusted_Penalty>
1.91184e-08

> <i_epik_Tot_Q>
0

> <i_epik_Tot_abs_Q>
0

> <r_epik_Metal_State_Penalty>
-0

> <b_epik_Metal_Only>
0

> <s_lp_Force_Field>
OPLS_2005

> <r_lp_Energy>
24.3329

> <b_lp_Chiralities_Consistent>
1

> <s_lp_Variant>
AV-unprocessed.smi:576-2

> <Gold.Version>
5.8.1

> <Gold.Id.Protein>
6NUR|6NUR_protein|mol2

> <Gold.PLP.Fitness>
48.9038

> <Gold.PLP.PLP>
-47.3000

> <Gold.PLP.part.hbond>
-1.0000

> <Gold.PLP.part.metal>
0.0000

> <Gold.PLP.part.buried>
-4.4425

> <Gold.PLP.part.nonpolar>
-41.8629

> <Gold.PLP.part.repulsive>
0.0066

> <Gold.PLP.ligand.clash>
0.0000

> <Gold.PLP.ligand.torsion>
1.2599

> <Gold.PLP.Chemscore.Hbond>
1.0000

> <Gold.PLP.Chemscore.CHOScore>
0.0000

> <Gold.PLP.Chemscore.Metal>
0.0000

> <Gold.Chemscore.Hbonds>
donor molecule, donor type, donor heavy atom, donor atom, acceptor molecule, acceptor atom, score
      P1  H  7997  8010       L1     5  1.00

> <Gold.PLP.Chemscore.Internal.Correction>
1.1237

> <Gold.Rescore>
     Score         DG    S(hbond)    S(metal)    S(lipo)     H(rot)  DE(clash)    DE(int)     intcor
     12.48     -15.11       0.99        0.00      92.57       1.77       0.13       2.50       ----

> <Gold.Chemscore.Fitness>
12.4789

> <Gold.Chemscore.DG>
-15.1082

> <Gold.Chemscore.ZeroCoef>
-5.4800

> <Gold.Chemscore.Hbond>
0.9930

> <Gold.Chemscore.Metal>
0.0000

> <Gold.Chemscore.Lipo>
92.5696

> <Gold.Chemscore.Internal_Hbond>
0.0000

> <Gold.Chemscore.DEClash>
0.1271

> <Gold.Chemscore.DEInternal>
2.5022

> <Gold.Chemscore.Rot>
1.7653

> <Gold.Chemscore.Internal.Correction>
   9.000000E+99

> <Gold.Chemscore.Hbonds>
donor molecule, donor type, donor heavy atom, donor atom, acceptor molecule, acceptor atom, score
      P1  H  7997  8010       L1     5  0.97

> <Gold.Chemscore.Hbond.Weighted>
-3.3167

> <Gold.Chemscore.Metal.Weighted>
-0.0000

> <Gold.Chemscore.Lipo.Weighted>
-10.8306

> <Gold.Chemscore.Internal_Hbond.Weighted>
0.0000

> <Gold.Chemscore.DEClash.Weighted>
0.1271

> <Gold.Chemscore.DEInternal.Weighted>
2.5022

> <Gold.Chemscore.Rot.Weighted>
4.5191

> <Gold.Chemscore.Internal.Correction.Weighted>
   9.000000E+99

> <Gold.Protein.RotatedTorsions>
[ 6907 6896 6895 6894 ] final  119.65 input  -60.11 | X-H torsion
[ 7974 7965 7964 7962 ] final  -94.05 input  175.53 | X-H torsion
[ 8008 7997 7996 7995 ] final   49.42 input   59.86 | X-H torsion
[ 10167 10162 10161 10158 ] final  167.06 input  -65.29 | X-H torsion
[ 10718 10713 10712 10709 ] final  103.36 input   66.30 | X-H torsion
[ 10763 10752 10751 10750 ] final  171.90 input  -60.55 | X-H torsion
[ 11005 11000 10999 10996 ] final  147.91 input  -57.11 | X-H torsion

> <Gold.Protein.ActiveResidues>
 VAL166  LYS551  ARG553  GLY616  TRP617  ASP618  TYR619  PRO620  LYS621  CYS622 
 ASP623  PHE694  ASN695  SER759  ASP760  ASP761  ALA762  ILE779  LEU786  VAL792 
 PHE793  MET794  SER795  GLU796  ALA797  LYS798  CYS799  TRP800  GLU811  SER814 

> <Gold.Protein.RotatedAtoms>
  152.4456  133.7531  159.6704 H   0  0  0  0  0  0  0  0  0  0  0  0  # atno 6907 bound_to 6896
  150.8356  133.8009  159.3087 H   0  0  0  0  0  0  0  0  0  0  0  0  # atno 6908 bound_to 6896
  151.5650  135.1067  160.0033 H   0  0  0  0  0  0  0  0  0  0  0  0  # atno 6909 bound_to 6896
  145.3785  140.9514  143.2407 H   0  0  0  0  0  0  0  0  0  0  0  0  # atno 7974 bound_to 7965
  155.4019  140.3438  155.4257 H   0  0  0  0  0  0  0  0  0  0  0  0  # atno 8008 bound_to 7997
  156.1498  140.1567  156.8820 H   0  0  0  0  0  0  0  0  0  0  0  0  # atno 8009 bound_to 7997
  154.5043  140.0806  156.7843 H   0  0  0  0  0  0  0  0  0  0  0  0  # atno 8010 bound_to 7997
  139.4937  144.3962  151.9462 H   0  0  0  0  0  0  0  0  0  0  0  0  # atno 10167 bound_to 10162
  157.6775  131.0777  150.5543 H   0  0  0  0  0  0  0  0  0  0  0  0  # atno 10718 bound_to 10713
  154.4185  135.2757  155.1991 H   0  0  0  0  0  0  0  0  0  0  0  0  # atno 10763 bound_to 10752
  154.3947  135.6058  153.5866 H   0  0  0  0  0  0  0  0  0  0  0  0  # atno 10764 bound_to 10752
  152.9832  135.5912  154.4477 H   0  0  0  0  0  0  0  0  0  0  0  0  # atno 10765 bound_to 10752
  140.0916  134.9038  157.1659 H   0  0  0  0  0  0  0  0  0  0  0  0  # atno 11005 bound_to 11000
  144.8525  139.5300  143.6850 LP  0  0  0  0  0  0  0  0  0  0  0  0  # atno 17320 bound_to 7965
  146.2853  139.6987  142.9200 LP  0  0  0  0  0  0  0  0  0  0  0  0  # atno 17321 bound_to 7965
  140.3400  144.3215  150.5969 LP  0  0  0  0  0  0  0  0  0  0  0  0  # atno 17342 bound_to 10162
  140.5574  143.2197  151.7824 LP  0  0  0  0  0  0  0  0  0  0  0  0  # atno 17343 bound_to 10162
  156.5847  130.4313  149.5962 LP  0  0  0  0  0  0  0  0  0  0  0  0  # atno 17370 bound_to 10713
  156.2633  130.6975  151.1750 LP  0  0  0  0  0  0  0  0  0  0  0  0  # atno 17371 bound_to 10713
  140.3345  134.2773  155.7222 LP  0  0  0  0  0  0  0  0  0  0  0  0  # atno 17394 bound_to 11000
  141.2079  133.7792  157.0089 LP  0  0  0  0  0  0  0  0  0  0  0  0  # atno 17395 bound_to 11000

$$$$
