AV-unprocessed.smi:2893|AV-procd|sdf|11122|dock6
  -GOLD-   2272015593D 1   1.00000     0.00000
 Structure written by MMmdl.
 37 39  0  0  0  0  0  0  0  0  1 V2000
  145.8868  137.8476  152.2748 C   0  0  0  0  0  0  0  0  0  0  0  0
  146.8743  138.9236  151.8045 C   0  0  0  0  0  0  0  0  0  0  0  0
  147.7679  139.3365  152.8801 N   0  0  0  0  0  0  0  0  0  0  0  0
  147.6867  140.4966  153.5541 C   0  0  0  0  0  0  0  0  0  0  0  0
  146.8430  141.3605  153.3102 O   0  0  0  0  0  0  0  0  0  0  0  0
  148.7266  140.7117  154.6210 C   0  0  0  0  0  0  0  0  0  0  0  0
  149.8581  139.8699  154.6868 C   0  0  0  0  0  0  0  0  0  0  0  0
  150.8083  140.1241  155.6904 C   0  0  0  0  0  0  0  0  0  0  0  0
  150.5693  141.2044  156.5606 C   0  0  0  0  0  0  0  0  0  0  0  0
  151.5050  141.4822  157.5672 N   0  0  0  0  0  0  0  0  0  0  0  0
  151.3323  142.6090  158.4780 C   0  0  2  0  0  0  0  0  0  0  0  0
  151.5707  143.9552  157.7868 C   0  0  0  0  0  0  0  0  0  0  0  0
  152.6423  144.5885  158.6832 C   0  0  1  0  0  0  0  0  0  0  0  0
  152.0986  144.9607  160.0698 C   0  0  0  0  0  0  0  0  0  0  0  0
  151.9546  143.5886  160.7280 C   0  0  0  0  0  0  0  0  0  0  0  0
  152.3918  142.6488  159.5966 C   0  0  2  0  0  0  0  0  0  0  0  0
  153.4074  143.4401  159.0008 O   0  0  0  0  0  0  0  0  0  0  0  0
  149.4654  141.9829  156.4447 N   0  0  0  0  0  0  0  0  0  0  0  0
  148.5606  141.7409  155.4903 N   0  0  0  0  0  0  0  0  0  0  0  0
  145.2446  137.5261  151.4548 H   0  0  0  0  0  0  0  0  0  0  0  0
  145.2429  138.2205  153.0721 H   0  0  0  0  0  0  0  0  0  0  0  0
  146.4115  136.9686  152.6507 H   0  0  0  0  0  0  0  0  0  0  0  0
  147.4820  138.5327  150.9883 H   0  0  0  0  0  0  0  0  0  0  0  0
  146.3361  139.7852  151.4062 H   0  0  0  0  0  0  0  0  0  0  0  0
  148.5007  138.6921  153.1407 H   0  0  0  0  0  0  0  0  0  0  0  0
  149.9999  139.0530  153.9941 H   0  0  0  0  0  0  0  0  0  0  0  0
  151.6915  139.5093  155.7849 H   0  0  0  0  0  0  0  0  0  0  0  0
  152.2476  140.8233  157.7512 H   0  0  0  0  0  0  0  0  0  0  0  0
  150.3272  142.5755  158.9005 H   0  0  0  0  0  0  0  0  0  0  0  0
  151.9584  143.8265  156.7749 H   0  0  0  0  0  0  0  0  0  0  0  0
  150.6669  144.5622  157.7264 H   0  0  0  0  0  0  0  0  0  0  0  0
  153.2081  145.3852  158.1999 H   0  0  0  0  0  0  0  0  0  0  0  0
  152.8149  145.5739  160.6177 H   0  0  0  0  0  0  0  0  0  0  0  0
  151.1554  145.5048  160.0108 H   0  0  0  0  0  0  0  0  0  0  0  0
  152.6266  143.5024  161.5826 H   0  0  0  0  0  0  0  0  0  0  0  0
  150.9393  143.3858  161.0703 H   0  0  0  0  0  0  0  0  0  0  0  0
  152.7263  141.6722  159.9480 H   0  0  0  0  0  0  0  0  0  0  0  0
  1  2  1  0  0  0  0
  1 20  1  0  0  0  0
  1 21  1  0  0  0  0
  1 22  1  0  0  0  0
  2  3  1  0  0  0  0
  2 23  1  0  0  0  0
  2 24  1  0  0  0  0
  3  4  1  0  0  0  0
  3 25  1  0  0  0  0
  4  5  2  0  0  0  0
  4  6  1  0  0  0  0
  6 19  1  0  0  0  0
  6  7  2  0  0  0  0
  7  8  1  0  0  0  0
  7 26  1  0  0  0  0
  8  9  2  0  0  0  0
  8 27  1  0  0  0  0
  9 10  1  0  0  0  0
  9 18  1  0  0  0  0
 10 11  1  0  0  0  0
 10 28  1  0  0  0  0
 11 16  1  0  0  0  0
 11 12  1  0  0  0  0
 11 29  1  0  0  0  0
 12 13  1  0  0  0  0
 12 30  1  0  0  0  0
 12 31  1  0  0  0  0
 13 17  1  0  0  0  0
 13 14  1  0  0  0  0
 13 32  1  0  0  0  0
 14 15  1  0  0  0  0
 14 33  1  0  0  0  0
 14 34  1  0  0  0  0
 15 16  1  0  0  0  0
 15 35  1  0  0  0  0
 15 36  1  0  0  0  0
 16 17  1  0  0  0  0
 16 37  1  0  0  0  0
 18 19  2  0  0  0  0
M  END
> <s_m_source_file>
AV-unprocessed.smi

> <i_m_source_file_index>
2893

> <i_lp_mmshare_version>
43012

> <i_f3d_flags>
0

> <s_epik_input>
W0NIM11bQ0gyXVtOSF1DKD1PKWMxW2NIXVtjSF1jKG5uMSlbTkhdW0NASF0oW0NIMl1bQ0BASF0yMylbQ0BASF0oTzMpW0NIMl1bQ0gyXTI=

> <s_epik_cmdline>
J2VwaWtfcHl0aG9uJywgJy1waCcsICc3LjAnLCAnLXRuJywgJzgnLCAnLW1hJywgJzIwMCcsICctbWV0YWxfYmluZGluZycsICctaW1hZScsICc8aW5maWxlLm1hZT4nLCAnLW9tYWUnLCAnPG91dGZpbGUubWFlPic=

> <r_lp_tautomer_probability>
1

> <r_epik_Ionization_Penalty>
0.00432031

> <r_epik_Ionization_Penalty_Charging>
0

> <r_epik_Ionization_Penalty_Neutral>
0.00432031

> <r_epik_State_Penalty>
-0

> <r_epik_Charging_Adjusted_Penalty>
0

> <i_epik_Tot_Q>
0

> <i_epik_Tot_abs_Q>
0

> <r_epik_Metal_State_Penalty>
-0

> <b_epik_Metal_Only>
0

> <s_lp_Force_Field>
OPLS_2005

> <r_lp_Energy>
51.3486

> <b_lp_Chiralities_Consistent>
1

> <s_lp_Variant>
AV-unprocessed.smi:2893-1

> <Gold.Version>
5.8.1

> <Gold.Id.Protein>
6NUR|6NUR_protein|mol2

> <Gold.PLP.Fitness>
41.4355

> <Gold.PLP.PLP>
-41.9190

> <Gold.PLP.part.hbond>
-1.0000

> <Gold.PLP.part.metal>
0.0000

> <Gold.PLP.part.buried>
-3.1288

> <Gold.PLP.part.nonpolar>
-40.0453

> <Gold.PLP.part.repulsive>
2.4457

> <Gold.PLP.ligand.clash>
0.0000

> <Gold.PLP.ligand.torsion>
0.2533

> <Gold.PLP.Chemscore.Hbond>
0.0000

> <Gold.PLP.Chemscore.CHOScore>
0.0000

> <Gold.PLP.Chemscore.Metal>
0.0000

> <Gold.PLP.Chemscore.Internal.Correction>
0.0231

> <Gold.Rescore>
     Score         DG    S(hbond)    S(metal)    S(lipo)     H(rot)  DE(clash)    DE(int)     intcor
     13.69     -15.27       0.00        0.00     110.11       1.21       1.42       0.16       ----

> <Gold.Chemscore.Fitness>
13.6889

> <Gold.Chemscore.DG>
-15.2748

> <Gold.Chemscore.ZeroCoef>
-5.4800

> <Gold.Chemscore.Hbond>
0.0000

> <Gold.Chemscore.Metal>
0.0000

> <Gold.Chemscore.Lipo>
110.1062

> <Gold.Chemscore.Internal_Hbond>
0.0000

> <Gold.Chemscore.DEClash>
1.4221

> <Gold.Chemscore.DEInternal>
0.1638

> <Gold.Chemscore.Rot>
1.2061

> <Gold.Chemscore.Internal.Correction>
   9.000000E+99

> <Gold.Chemscore.Hbond.Weighted>
-0.0000

> <Gold.Chemscore.Metal.Weighted>
-0.0000

> <Gold.Chemscore.Lipo.Weighted>
-12.8824

> <Gold.Chemscore.Internal_Hbond.Weighted>
0.0000

> <Gold.Chemscore.DEClash.Weighted>
1.4221

> <Gold.Chemscore.DEInternal.Weighted>
0.1638

> <Gold.Chemscore.Rot.Weighted>
3.0876

> <Gold.Chemscore.Internal.Correction.Weighted>
   9.000000E+99

> <Gold.Protein.RotatedTorsions>
[ 6907 6896 6895 6894 ] final    2.69 input  -60.11 | X-H torsion
[ 7974 7965 7964 7962 ] final  -68.89 input  175.53 | X-H torsion
[ 8008 7997 7996 7995 ] final  -86.84 input   59.86 | X-H torsion
[ 10167 10162 10161 10158 ] final -106.22 input  -65.29 | X-H torsion
[ 10718 10713 10712 10709 ] final    3.28 input   66.30 | X-H torsion
[ 10763 10752 10751 10750 ] final -132.28 input  -60.55 | X-H torsion
[ 11005 11000 10999 10996 ] final  -53.01 input  -57.11 | X-H torsion

> <Gold.Protein.ActiveResidues>
 VAL166  LYS551  ARG553  GLY616  TRP617  ASP618  TYR619  PRO620  LYS621  CYS622 
 ASP623  PHE694  ASN695  SER759  ASP760  ASP761  ALA762  ILE779  LEU786  VAL792 
 PHE793  MET794  SER795  GLU796  ALA797  LYS798  CYS799  TRP800  GLU811  SER814 

> <Gold.Protein.RotatedAtoms>
  151.6129  135.1039  160.0084 H   0  0  0  0  0  0  0  0  0  0  0  0  # atno 6907 bound_to 6896
  152.4199  133.7095  159.6481 H   0  0  0  0  0  0  0  0  0  0  0  0  # atno 6908 bound_to 6896
  150.8086  133.8390  159.3215 H   0  0  0  0  0  0  0  0  0  0  0  0  # atno 6909 bound_to 6896
  145.7108  140.9079  143.0682 H   0  0  0  0  0  0  0  0  0  0  0  0  # atno 7974 bound_to 7965
  154.6565  140.0573  157.0014 H   0  0  0  0  0  0  0  0  0  0  0  0  # atno 8008 bound_to 7997
  155.1293  140.3255  155.4459 H   0  0  0  0  0  0  0  0  0  0  0  0  # atno 8009 bound_to 7997
  156.2599  140.1983  156.6413 H   0  0  0  0  0  0  0  0  0  0  0  0  # atno 8010 bound_to 7997
  140.1901  143.3899  152.1213 H   0  0  0  0  0  0  0  0  0  0  0  0  # atno 10167 bound_to 10162
  156.8755  130.5635  149.5655 H   0  0  0  0  0  0  0  0  0  0  0  0  # atno 10718 bound_to 10713
  154.8744  135.3803  154.4383 H   0  0  0  0  0  0  0  0  0  0  0  0  # atno 10763 bound_to 10752
  153.5071  135.7030  153.5806 H   0  0  0  0  0  0  0  0  0  0  0  0  # atno 10764 bound_to 10752
  153.4112  135.3924  155.2018 H   0  0  0  0  0  0  0  0  0  0  0  0  # atno 10765 bound_to 10752
  141.0954  133.6625  156.4109 H   0  0  0  0  0  0  0  0  0  0  0  0  # atno 11005 bound_to 11000
  144.6942  139.9072  143.7461 LP  0  0  0  0  0  0  0  0  0  0  0  0  # atno 17320 bound_to 7965
  146.0714  139.3703  143.0520 LP  0  0  0  0  0  0  0  0  0  0  0  0  # atno 17321 bound_to 7965
  139.5260  144.7102  151.5230 LP  0  0  0  0  0  0  0  0  0  0  0  0  # atno 17342 bound_to 10162
  140.6462  143.8790  150.6739 LP  0  0  0  0  0  0  0  0  0  0  0  0  # atno 17343 bound_to 10162
  156.0704  130.5738  150.9372 LP  0  0  0  0  0  0  0  0  0  0  0  0  # atno 17370 bound_to 10713
  157.6171  131.0932  150.8691 LP  0  0  0  0  0  0  0  0  0  0  0  0  # atno 17371 bound_to 10713
  140.5153  134.6356  157.5299 LP  0  0  0  0  0  0  0  0  0  0  0  0  # atno 17394 bound_to 11000
  139.9789  134.7169  155.9896 LP  0  0  0  0  0  0  0  0  0  0  0  0  # atno 17395 bound_to 11000

$$$$
