#       Name:                AV-unprocessed.smi:2153
#       Creating user name   scv26
#       Creation time:       Fri Mar 27 11:55:02 2020


#       File generated by GOLD software.
#

@<TRIPOS>MOLECULE
AV-unprocessed.smi:2153
    56    57     1
SMALL
NO_CHARGES


@<TRIPOS>ATOM
      1 ****        -1.2061   0.0638  -3.9185 C.3            1 S1                 0.0000
      2 ****        -1.3143   0.3511  -2.4124 C.3            1 S1                 0.0000
      3 ****        -2.7413   0.8063  -2.0454 C.3            1 S1                 0.0000
      4 ****        -2.8785   1.1013  -0.5442 C.3            1 S1                 0.0000
      5 ****        -2.4755  -0.1193   0.2925 C.3            1 S1                 0.0000
      6 ****        -1.0538  -0.5769  -0.0580 C.3            1 S1                 0.0000
      7 ****        -0.8903  -0.8704  -1.5651 C.3            1 S1                 0.0000
      8 ****         0.4817  -1.1267  -1.8356 O.3            1 S1                 0.0000
      9 ****         0.9061  -2.4540  -1.5565 C.3            1 S1                 0.0000
     10 ****         2.4372  -2.4638  -1.4171 C.3            1 S1                 0.0000
     11 ****         2.8923  -1.4990  -0.4206 N.am           1 S1                 0.0000
     12 ****         2.6864  -1.5896   0.9021 C.2            1 S1                 0.0000
     13 ****         2.1511  -2.5575   1.4416 O.2            1 S1                 0.0000
     14 ****         3.1468  -0.3959   1.7447 C.3            1 S1                 0.0000
     15 ****         2.0682   0.5871   1.9068 N.am           1 S1                 0.0000
     16 ****         2.0173   1.6835   1.0646 C.2            1 S1                 0.0000
     17 ****         1.0442   2.6193   1.1153 C.2            1 S1                 0.0000
     18 ****        -0.0423   2.5185   2.0820 C.2            1 S1                 0.0000
     19 ****        -0.9477   3.3492   2.1615 O.2            1 S1                 0.0000
     20 ****         0.0292   1.3844   2.9265 N.am           1 S1                 0.0000
     21 ****        -1.0049   1.1881   3.9211 C.3            1 S1                 0.0000
     22 ****         1.0629   0.4222   2.8845 C.2            1 S1                 0.0000
     23 ****         1.0934  -0.5324   3.6648 O.2            1 S1                 0.0000
     24 ****        -1.8522  -0.7645  -4.2110 H              1 S1                 0.0000
     25 ****        -0.1855  -0.1953  -4.2014 H              1 S1                 0.0000
     26 ****        -1.4953   0.9354  -4.5059 H              1 S1                 0.0000
     27 ****        -0.6348   1.1736  -2.1827 H              1 S1                 0.0000
     28 ****        -3.0065   1.6974  -2.6153 H              1 S1                 0.0000
     29 ****        -3.4584   0.0348  -2.3292 H              1 S1                 0.0000
     30 ****        -2.2511   1.9527  -0.2775 H              1 S1                 0.0000
     31 ****        -3.9045   1.3883  -0.3125 H              1 S1                 0.0000
     32 ****        -2.5362   0.1218   1.3541 H              1 S1                 0.0000
     33 ****        -3.1775  -0.9356   0.1178 H              1 S1                 0.0000
     34 ****        -0.3490   0.2025   0.2234 H              1 S1                 0.0000
     35 ****        -0.8000  -1.4481   0.5445 H              1 S1                 0.0000
     36 ****        -1.5011  -1.7299  -1.8487 H              1 S1                 0.0000
     37 ****         0.4522  -2.8425  -0.6454 H              1 S1                 0.0000
     38 ****         0.5907  -3.1114  -2.3671 H              1 S1                 0.0000
     39 ****         2.7903  -3.4627  -1.1577 H              1 S1                 0.0000
     40 ****         2.8962  -2.2060  -2.3717 H              1 S1                 0.0000
     41 ****         3.3459  -0.6680  -0.7712 H              1 S1                 0.0000
     42 ****         3.4939  -0.7502   2.7168 H              1 S1                 0.0000
     43 ****         4.0157   0.0695   1.2764 H              1 S1                 0.0000
     44 ****         2.7941   1.7986   0.3225 H              1 S1                 0.0000
     45 ****         1.0660   3.4509   0.4263 H              1 S1                 0.0000
     46 ****        -1.3080   0.1398   3.8937 H              1 S1                 0.0000
     47 ****        -1.8772   1.8035   3.7017 H              1 S1                 0.0000
     48 ****        -0.5710   1.4545   4.8861 H              1 S1                 0.0000
     49 ****         1.0304  -0.5014  -1.2806 LP             1 S1                 0.0000
     50 ****         0.6471  -0.9445  -2.8049 LP             1 S1                 0.0000
     51 ****         1.8436  -3.3316   0.8882 LP             1 S1                 0.0000
     52 ****         2.0237  -2.5699   2.4334 LP             1 S1                 0.0000
     53 ****        -0.9590   4.1369   1.5455 LP             1 S1                 0.0000
     54 ****        -1.6716   3.2362   2.8420 LP             1 S1                 0.0000
     55 ****         1.8358  -1.2001   3.6092 LP             1 S1                 0.0000
     56 ****         0.3758  -0.6387   4.3531 LP             1 S1                 0.0000
@<TRIPOS>BOND
    1    1    2 1     
    2    1   24 1     
    3    1   25 1     
    4    1   26 1     
    5    2    7 1     
    6    2    3 1     
    7    2   27 1     
    8    3    4 1     
    9    3   28 1     
   10    3   29 1     
   11    4    5 1     
   12    4   30 1     
   13    4   31 1     
   14    5    6 1     
   15    5   32 1     
   16    5   33 1     
   17    6    7 1     
   18    6   34 1     
   19    6   35 1     
   20    7    8 1     
   21    7   36 1     
   22    8    9 1     
   23    9   10 1     
   24    9   37 1     
   25    9   38 1     
   26   10   11 1     
   27   10   39 1     
   28   10   40 1     
   29   11   12 am    
   30   11   41 1     
   31   12   13 2     
   32   12   14 1     
   33   14   15 1     
   34   14   42 1     
   35   14   43 1     
   36   15   22 am    
   37   15   16 1     
   38   16   17 2     
   39   16   44 1     
   40   17   18 1     
   41   17   45 1     
   42   18   19 2     
   43   18   20 am    
   44   20   21 1     
   45   20   22 am    
   46   21   46 1     
   47   21   47 1     
   48   21   48 1     
   49   22   23 2     
   50    8   49 1     
   51    8   50 1     
   52   13   51 1     
   53   13   52 1     
   54   19   53 1     
   55   19   54 1     
   56   23   55 1     
   57   23   56 1     
@<TRIPOS>SUBSTRUCTURE
      1 S1             1
@<TRIPOS>SET
LONE_PAIRS      STATIC     ATOMS    <user>   **** ""
8 49 50 51 52 53 54 55 56
DONOR_HYDROGENS      STATIC     ATOMS    <user>   **** ""
1 41
ATOM$BLUE        STATIC     ATOMS    COLORGROUP SYSTEM
8 49 50 51 52 53 54 55 56
ATOM$RED        STATIC     ATOMS    COLORGROUP SYSTEM
1 41
