#       Name:                AV-unprocessed.smi:2356
#       Creating user name   scv26
#       Creation time:       Fri Mar 27 13:02:47 2020


#       File generated by GOLD software.
#

@<TRIPOS>MOLECULE
AV-unprocessed.smi:2356
    58    61     1
SMALL
NO_CHARGES


@<TRIPOS>ATOM
      1 ****        -0.5403  -0.9011   0.8279 C.3            1 S1                 0.0000
      2 ****        -1.3722  -0.0338  -0.1017 C.ar           1 S1                 0.0000
      3 ****        -2.7067  -0.2291  -0.0338 N.ar           1 S1                 0.0000
      4 ****        -3.5240   0.4971  -0.8316 C.ar           1 S1                 0.0000
      5 ****        -4.9085   0.2561  -0.7249 N.pl3          1 S1                 0.0000
      6 ****        -5.8620   0.7957  -1.6807 C.3            1 S1                 0.0000
      7 ****        -7.2002   0.1667  -1.2948 C.3            1 S1                 0.0000
      8 ****        -6.7955  -1.1976  -0.7374 C.3            1 S1                 0.0000
      9 ****        -5.4340  -0.9421  -0.0818 C.3            1 S1                 0.0000
     10 ****        -3.0147   1.4621  -1.7318 C.ar           1 S1                 0.0000
     11 ****        -1.6242   1.6680  -1.8029 C.ar           1 S1                 0.0000
     12 ****        -0.7718   0.9126  -0.9649 C.ar           1 S1                 0.0000
     13 ****         0.6451   1.0267  -0.9794 N.am           1 S1                 0.0000
     14 ****         1.4105   2.0709  -1.3520 C.2            1 S1                 0.0000
     15 ****         0.9794   3.1374  -1.7849 O.2            1 S1                 0.0000
     16 ****         2.7309   1.8669  -1.1880 N.am           1 S1                 0.0000
     17 ****         3.8314   2.7864  -1.4896 C.3            1 S1                 0.0000
     18 ****         5.0966   2.3681  -0.7270 C.3            1 S1                 0.0000
     19 ****         6.2857   3.2582  -1.1273 C.3            1 S1                 0.0000
     20 ****         6.4820   3.2130  -2.5378 O.3            1 S1                 0.0000
     21 ****         5.3657   3.7023  -3.2756 C.3            1 S1                 0.0000
     22 ****         5.7258   3.7142  -4.7477 C.3            1 S1                 0.0000
     23 ****         6.3535   4.9321  -5.3852 C.3            1 S1                 0.0000
     24 ****         4.9314   4.5547  -5.7212 C.3            1 S1                 0.0000
     25 ****         4.1456   2.8083  -2.9955 C.3            1 S1                 0.0000
     26 ****        -0.0316  -0.2819   1.5668 H              1 S1                 0.0000
     27 ****         0.2113  -1.4554   0.2651 H              1 S1                 0.0000
     28 ****        -1.1584  -1.6231   1.3631 H              1 S1                 0.0000
     29 ****        -5.9053   1.8844  -1.6382 H              1 S1                 0.0000
     30 ****        -5.5732   0.4976  -2.6894 H              1 S1                 0.0000
     31 ****        -7.6749   0.7581  -0.5105 H              1 S1                 0.0000
     32 ****        -7.8939   0.0985  -2.1330 H              1 S1                 0.0000
     33 ****        -7.5285  -1.6097  -0.0436 H              1 S1                 0.0000
     34 ****        -6.6775  -1.9050  -1.5593 H              1 S1                 0.0000
     35 ****        -4.7767  -1.8039  -0.2022 H              1 S1                 0.0000
     36 ****        -5.5485  -0.7461   0.9847 H              1 S1                 0.0000
     37 ****        -3.6638   2.0416  -2.3708 H              1 S1                 0.0000
     38 ****        -1.2410   2.3881  -2.5088 H              1 S1                 0.0000
     39 ****         1.1418   0.2471  -0.5737 H              1 S1                 0.0000
     40 ****         3.0004   0.9775  -0.7930 H              1 S1                 0.0000
     41 ****         3.5622   3.7926  -1.1625 H              1 S1                 0.0000
     42 ****         4.9297   2.4290   0.3491 H              1 S1                 0.0000
     43 ****         5.3380   1.3275  -0.9482 H              1 S1                 0.0000
     44 ****         6.1241   4.2885  -0.8066 H              1 S1                 0.0000
     45 ****         7.1944   2.9122  -0.6346 H              1 S1                 0.0000
     46 ****         5.1494   4.7262  -2.9648 H              1 S1                 0.0000
     47 ****         6.0608   2.7498  -5.1255 H              1 S1                 0.0000
     48 ****         6.5051   5.8112  -4.7620 H              1 S1                 0.0000
     49 ****         7.1122   4.7650  -6.1471 H              1 S1                 0.0000
     50 ****         4.7399   4.1339  -6.7062 H              1 S1                 0.0000
     51 ****         4.1368   5.1808  -5.3195 H              1 S1                 0.0000
     52 ****         4.3448   1.7948  -3.3472 H              1 S1                 0.0000
     53 ****         3.2879   3.1692  -3.5626 H              1 S1                 0.0000
     54 ****        -3.0870  -0.9032   0.5993 LP             1 S1                 0.0000
     55 ****        -0.0062   3.2761  -1.8813 LP             1 S1                 0.0000
     56 ****         1.6143   3.8665  -2.0407 LP             1 S1                 0.0000
     57 ****         6.6486   2.2639  -2.8053 LP             1 S1                 0.0000
     58 ****         7.2817   3.7687  -2.7654 LP             1 S1                 0.0000
@<TRIPOS>BOND
    1    1    2 1     
    2    1   26 1     
    3    1   27 1     
    4    1   28 1     
    5    2   12 ar    
    6    2    3 ar    
    7    3    4 ar    
    8    4    5 1     
    9    4   10 ar    
   10    5    9 1     
   11    5    6 1     
   12    6    7 1     
   13    6   29 1     
   14    6   30 1     
   15    7    8 1     
   16    7   31 1     
   17    7   32 1     
   18    8    9 1     
   19    8   33 1     
   20    8   34 1     
   21    9   35 1     
   22    9   36 1     
   23   10   11 ar    
   24   10   37 1     
   25   11   12 ar    
   26   11   38 1     
   27   12   13 1     
   28   13   14 am    
   29   13   39 1     
   30   14   15 2     
   31   14   16 am    
   32   16   17 1     
   33   16   40 1     
   34   17   25 1     
   35   17   18 1     
   36   17   41 1     
   37   18   19 1     
   38   18   42 1     
   39   18   43 1     
   40   19   20 1     
   41   19   44 1     
   42   19   45 1     
   43   20   21 1     
   44   21   22 1     
   45   21   25 1     
   46   21   46 1     
   47   22   24 1     
   48   22   23 1     
   49   22   47 1     
   50   23   24 1     
   51   23   48 1     
   52   23   49 1     
   53   24   50 1     
   54   24   51 1     
   55   25   52 1     
   56   25   53 1     
   57    3   54 1     
   58   15   55 1     
   59   15   56 1     
   60   20   57 1     
   61   20   58 1     
@<TRIPOS>SUBSTRUCTURE
      1 S1             1
@<TRIPOS>SET
LONE_PAIRS      STATIC     ATOMS    <user>   **** ""
5 54 55 56 57 58
DONOR_HYDROGENS      STATIC     ATOMS    <user>   **** ""
2 39 40
ATOM$BLUE        STATIC     ATOMS    COLORGROUP SYSTEM
5 54 55 56 57 58
ATOM$RED        STATIC     ATOMS    COLORGROUP SYSTEM
2 39 40
