AV-unprocessed.smi:2544|AV-procd|sdf|9994|dock7
  -GOLD-   2272014 43D 1   1.00000     0.00000
 Structure written by MMmdl.
 40 41  0  0  0  0  0  0  0  0  1 V2000
  153.8784  140.2939  159.7154 C   0  0  0  0  0  0  0  0  0  0  0  0
  153.9265  141.5326  160.6170 C   0  0  0  0  0  0  0  0  0  0  0  0
  152.9685  142.5447  160.1955 N   0  0  0  0  0  0  0  0  0  0  0  0
  152.7811  143.7108  160.9303 C   0  0  0  0  0  0  0  0  0  0  0  0
  151.8775  144.6605  160.6211 C   0  0  0  0  0  0  0  0  0  0  0  0
  151.0127  144.4787  159.4374 C   0  0  0  0  0  0  0  0  0  0  0  0
  150.1819  145.3303  159.1218 O   0  0  0  0  0  0  0  0  0  0  0  0
  151.2019  143.2251  158.6600 C   0  0  0  0  0  0  0  0  0  0  0  0
  150.3761  143.0617  157.5349 N   0  0  0  0  0  0  0  0  0  0  0  0
  150.2176  141.9870  156.7405 C   0  0  0  0  0  0  0  0  0  0  0  0
  150.7706  140.8967  156.8823 O   0  0  0  0  0  0  0  0  0  0  0  0
  149.3539  142.2484  155.7485 N   0  0  0  0  0  0  0  0  0  0  0  0
  148.9672  141.3109  154.6976 C   0  0  0  0  0  0  0  0  0  0  0  0
  147.6741  141.7993  154.0177 C   0  0  0  0  0  0  0  0  0  0  0  0
  147.2041  140.8149  152.9343 C   0  0  0  0  0  0  0  0  0  0  0  0
  147.0219  139.4003  153.5065 C   0  0  0  0  0  0  0  0  0  0  0  0
  148.3080  138.9074  154.1886 C   0  0  0  0  0  0  0  0  0  0  0  0
  148.7799  139.8912  155.2717 C   0  0  0  0  0  0  0  0  0  0  0  0
  152.1542  142.3533  159.0808 C   0  0  0  0  0  0  0  0  0  0  0  0
  154.5946  139.5435  160.0498 H   0  0  0  0  0  0  0  0  0  0  0  0
  154.1202  140.5485  158.6831 H   0  0  0  0  0  0  0  0  0  0  0  0
  152.8881  139.8378  159.7258 H   0  0  0  0  0  0  0  0  0  0  0  0
  153.7233  141.2461  161.6496 H   0  0  0  0  0  0  0  0  0  0  0  0
  154.9309  141.9574  160.6099 H   0  0  0  0  0  0  0  0  0  0  0  0
  153.4335  143.8072  161.7862 H   0  0  0  0  0  0  0  0  0  0  0  0
  151.7703  145.5532  161.2198 H   0  0  0  0  0  0  0  0  0  0  0  0
  149.8197  143.8726  157.3062 H   0  0  0  0  0  0  0  0  0  0  0  0
  148.9410  143.1688  155.7088 H   0  0  0  0  0  0  0  0  0  0  0  0
  149.7538  141.2824  153.9408 H   0  0  0  0  0  0  0  0  0  0  0  0
  146.8862  141.9200  154.7627 H   0  0  0  0  0  0  0  0  0  0  0  0
  147.8334  142.7827  153.5738 H   0  0  0  0  0  0  0  0  0  0  0  0
  146.2678  141.1624  152.4969 H   0  0  0  0  0  0  0  0  0  0  0  0
  147.9330  140.7899  152.1233 H   0  0  0  0  0  0  0  0  0  0  0  0
  146.2027  139.3993  154.2266 H   0  0  0  0  0  0  0  0  0  0  0  0
  146.7357  138.7118  152.7108 H   0  0  0  0  0  0  0  0  0  0  0  0
  148.1424  137.9227  154.6266 H   0  0  0  0  0  0  0  0  0  0  0  0
  149.0931  138.7847  153.4414 H   0  0  0  0  0  0  0  0  0  0  0  0
  149.7139  139.5329  155.7061 H   0  0  0  0  0  0  0  0  0  0  0  0
  148.0507  139.9131  156.0831 H   0  0  0  0  0  0  0  0  0  0  0  0
  152.3740  141.4302  158.5689 H   0  0  0  0  0  0  0  0  0  0  0  0
  1  2  1  0  0  0  0
  1 20  1  0  0  0  0
  1 21  1  0  0  0  0
  1 22  1  0  0  0  0
  2  3  1  0  0  0  0
  2 23  1  0  0  0  0
  2 24  1  0  0  0  0
  3 19  1  0  0  0  0
  3  4  1  0  0  0  0
  4  5  2  0  0  0  0
  4 25  1  0  0  0  0
  5  6  1  0  0  0  0
  5 26  1  0  0  0  0
  6  7  2  0  0  0  0
  6  8  1  0  0  0  0
  8  9  1  0  0  0  0
  8 19  2  0  0  0  0
  9 10  1  0  0  0  0
  9 27  1  0  0  0  0
 10 11  2  0  0  0  0
 10 12  1  0  0  0  0
 12 13  1  0  0  0  0
 12 28  1  0  0  0  0
 13 18  1  0  0  0  0
 13 14  1  0  0  0  0
 13 29  1  0  0  0  0
 14 15  1  0  0  0  0
 14 30  1  0  0  0  0
 14 31  1  0  0  0  0
 15 16  1  0  0  0  0
 15 32  1  0  0  0  0
 15 33  1  0  0  0  0
 16 17  1  0  0  0  0
 16 34  1  0  0  0  0
 16 35  1  0  0  0  0
 17 18  1  0  0  0  0
 17 36  1  0  0  0  0
 17 37  1  0  0  0  0
 18 38  1  0  0  0  0
 18 39  1  0  0  0  0
 19 40  1  0  0  0  0
M  END
> <s_m_source_file>
AV-unprocessed.smi

> <i_m_source_file_index>
2544

> <i_lp_mmshare_version>
43012

> <i_f3d_flags>
0

> <s_epik_input>
W0NIM11bQ0gyXW4xW2NIXVtjSF1jKD1PKWMoW2NIXTEpW05IXUMoPU8pW05IXVtDSF0yW0NIMl1bQ0gyXVtDSDJdW0NIMl1bQ0gyXTI=

> <s_epik_cmdline>
J2VwaWtfcHl0aG9uJywgJy1waCcsICc3LjAnLCAnLXRuJywgJzgnLCAnLW1hJywgJzIwMCcsICctbWV0YWxfYmluZGluZycsICctaW1hZScsICc8aW5maWxlLm1hZT4nLCAnLW9tYWUnLCAnPG91dGZpbGUubWFlPic=

> <r_lp_tautomer_probability>
1

> <r_epik_Ionization_Penalty>
0.00144746

> <r_epik_Ionization_Penalty_Charging>
0.00142605

> <r_epik_Ionization_Penalty_Neutral>
2.14089e-05

> <r_epik_State_Penalty>
0.000952116

> <r_epik_Charging_Adjusted_Penalty>
0.00237816

> <i_epik_Tot_Q>
0

> <i_epik_Tot_abs_Q>
0

> <r_epik_Metal_State_Penalty>
-0

> <b_epik_Metal_Only>
0

> <s_lp_Force_Field>
OPLS_2005

> <r_lp_Energy>
3.66557

> <b_lp_Chiralities_Consistent>
1

> <s_lp_Variant>
AV-unprocessed.smi:2544-1

> <Gold.Version>
5.8.1

> <Gold.Id.Protein>
6NUR|6NUR_protein|mol2

> <Gold.PLP.Fitness>
44.7192

> <Gold.PLP.PLP>
-39.7006

> <Gold.PLP.part.hbond>
-2.3748

> <Gold.PLP.part.metal>
0.0000

> <Gold.PLP.part.buried>
-5.1672

> <Gold.PLP.part.nonpolar>
-32.6858

> <Gold.PLP.part.repulsive>
1.2446

> <Gold.PLP.ligand.clash>
0.0000

> <Gold.PLP.ligand.torsion>
0.2806

> <Gold.PLP.Chemscore.Hbond>
1.8564

> <Gold.PLP.Chemscore.CHOScore>
0.0000

> <Gold.PLP.Chemscore.Metal>
0.0000

> <Gold.Chemscore.Hbonds>
donor molecule, donor type, donor heavy atom, donor atom, acceptor molecule, acceptor atom, score
      L1  H     9    27       P1  8028  0.75
      L1  H    12    28       P1  8028  1.00

> <Gold.PLP.Chemscore.Internal.Correction>
0.0104

> <Gold.Rescore>
     Score         DG    S(hbond)    S(metal)    S(lipo)     H(rot)  DE(clash)    DE(int)     intcor
     16.93     -20.08       1.77        0.00      99.64       1.17       0.28       2.86       ----

> <Gold.Chemscore.Fitness>
16.9332

> <Gold.Chemscore.DG>
-20.0760

> <Gold.Chemscore.ZeroCoef>
-5.4800

> <Gold.Chemscore.Hbond>
1.7734

> <Gold.Chemscore.Metal>
0.0000

> <Gold.Chemscore.Lipo>
99.6405

> <Gold.Chemscore.Internal_Hbond>
0.0000

> <Gold.Chemscore.DEClash>
0.2816

> <Gold.Chemscore.DEInternal>
2.8613

> <Gold.Chemscore.Rot>
1.1660

> <Gold.Chemscore.Internal.Correction>
   9.000000E+99

> <Gold.Chemscore.Hbonds>
donor molecule, donor type, donor heavy atom, donor atom, acceptor molecule, acceptor atom, score
      L1  H     9    27       P1  8028  0.53
      L1  H    12    28       P1  8028  0.95

> <Gold.Chemscore.Hbond.Weighted>
-5.9231

> <Gold.Chemscore.Metal.Weighted>
-0.0000

> <Gold.Chemscore.Lipo.Weighted>
-11.6579

> <Gold.Chemscore.Internal_Hbond.Weighted>
0.0000

> <Gold.Chemscore.DEClash.Weighted>
0.2816

> <Gold.Chemscore.DEInternal.Weighted>
2.8613

> <Gold.Chemscore.Rot.Weighted>
2.9850

> <Gold.Chemscore.Internal.Correction.Weighted>
   9.000000E+99

> <Gold.Protein.RotatedTorsions>
[ 6907 6896 6895 6894 ] final  -23.51 input  -60.11 | X-H torsion
[ 7974 7965 7964 7962 ] final  -73.14 input  175.53 | X-H torsion
[ 8008 7997 7996 7995 ] final  -62.50 input   59.86 | X-H torsion
[ 10167 10162 10161 10158 ] final  147.59 input  -65.29 | X-H torsion
[ 10718 10713 10712 10709 ] final   90.13 input   66.30 | X-H torsion
[ 10763 10752 10751 10750 ] final   48.28 input  -60.55 | X-H torsion
[ 11005 11000 10999 10996 ] final -144.75 input  -57.11 | X-H torsion

> <Gold.Protein.ActiveResidues>
 VAL166  LYS551  ARG553  GLY616  TRP617  ASP618  TYR619  PRO620  LYS621  CYS622 
 ASP623  PHE694  ASN695  SER759  ASP760  ASP761  ALA762  ILE779  LEU786  VAL792 
 PHE793  MET794  SER795  GLU796  ALA797  LYS798  CYS799  TRP800  GLU811  SER814 

> <Gold.Protein.RotatedAtoms>
  151.2029  135.0450  159.8879 H   0  0  0  0  0  0  0  0  0  0  0  0  # atno 6907 bound_to 6896
  152.5431  134.0830  159.8254 H   0  0  0  0  0  0  0  0  0  0  0  0  # atno 6908 bound_to 6896
  151.0973  133.5222  159.2643 H   0  0  0  0  0  0  0  0  0  0  0  0  # atno 6909 bound_to 6896
  145.6560  140.9268  143.0959 H   0  0  0  0  0  0  0  0  0  0  0  0  # atno 7974 bound_to 7965
  154.4503  140.0995  156.6596 H   0  0  0  0  0  0  0  0  0  0  0  0  # atno 8008 bound_to 7997
  155.5308  140.3481  155.4407 H   0  0  0  0  0  0  0  0  0  0  0  0  # atno 8009 bound_to 7997
  156.0666  140.1339  156.9868 H   0  0  0  0  0  0  0  0  0  0  0  0  # atno 8010 bound_to 7997
  139.4888  144.5744  151.6993 H   0  0  0  0  0  0  0  0  0  0  0  0  # atno 10167 bound_to 10162
  157.6958  131.0359  150.3531 H   0  0  0  0  0  0  0  0  0  0  0  0  # atno 10718 bound_to 10713
  152.9793  135.5949  154.3901 H   0  0  0  0  0  0  0  0  0  0  0  0  # atno 10763 bound_to 10752
  154.3557  135.2767  155.2349 H   0  0  0  0  0  0  0  0  0  0  0  0  # atno 10764 bound_to 10752
  154.4369  135.6023  153.6159 H   0  0  0  0  0  0  0  0  0  0  0  0  # atno 10765 bound_to 10752
  140.7993  134.2876  157.4985 H   0  0  0  0  0  0  0  0  0  0  0  0  # atno 11005 bound_to 11000
  144.7105  139.8388  143.7416 LP  0  0  0  0  0  0  0  0  0  0  0  0  # atno 17320 bound_to 7965
  146.1164  139.4176  143.0255 LP  0  0  0  0  0  0  0  0  0  0  0  0  # atno 17321 bound_to 7965
  140.5338  144.0689  150.6063 LP  0  0  0  0  0  0  0  0  0  0  0  0  # atno 17342 bound_to 10162
  140.3688  143.2866  152.0302 LP  0  0  0  0  0  0  0  0  0  0  0  0  # atno 17343 bound_to 10162
  156.3977  130.3910  149.6983 LP  0  0  0  0  0  0  0  0  0  0  0  0  # atno 17370 bound_to 10713
  156.4311  130.7815  151.2835 LP  0  0  0  0  0  0  0  0  0  0  0  0  # atno 17371 bound_to 10713
  139.8723  134.9420  156.3812 LP  0  0  0  0  0  0  0  0  0  0  0  0  # atno 17394 bound_to 11000
  140.9311  133.7578  156.0026 LP  0  0  0  0  0  0  0  0  0  0  0  0  # atno 17395 bound_to 11000

$$$$
