#       Name:                AV-unprocessed.smi:3094
#       Creating user name   scv26
#       Creation time:       Fri Mar 27 17:16:56 2020


#       File generated by GOLD software.
#

@<TRIPOS>MOLECULE
AV-unprocessed.smi:3094
    32    33     1
SMALL
NO_CHARGES


@<TRIPOS>ATOM
      1 ****        -0.6472  -2.3815  -2.0161 C.3            1 S1                 0.0000
      2 ****        -0.1592  -1.5445  -0.8261 C.3            1 S1                 0.0000
      3 ****         1.3817  -1.5372  -0.7396 C.3            1 S1                 0.0000
      4 ****         1.8704  -0.9130   0.4763 N.pl3          1 S1                 0.0000
      5 ****         1.8329  -1.4394   1.7609 C.2            1 S1                 0.0000
      6 ****         2.3956  -0.4947   2.5889 C.2            1 S1                 0.0000
      7 ****         2.7912   0.6106   1.8392 N.2            1 S1                 0.0000
      8 ****         2.4508   0.2888   0.5979 C.2            1 S1                 0.0000
      9 ****        -0.6810  -0.1841  -0.9562 N.am           1 S1                 0.0000
     10 ****        -1.1549   0.5752   0.0446 C.2            1 S1                 0.0000
     11 ****        -1.2124   0.1906   1.2133 O.2            1 S1                 0.0000
     12 ****        -1.5902   1.9374  -0.3849 C.3            1 S1                 0.0000
     13 ****        -1.2874   3.0916   0.5485 C.3            1 S1                 0.0000
     14 ****        -2.7059   2.6024   0.3957 C.3            1 S1                 0.0000
     15 ****        -0.2957  -3.4109  -1.9412 H              1 S1                 0.0000
     16 ****        -0.2884  -1.9755  -2.9627 H              1 S1                 0.0000
     17 ****        -1.7366  -2.4098  -2.0565 H              1 S1                 0.0000
     18 ****        -0.5586  -2.0103   0.0767 H              1 S1                 0.0000
     19 ****         1.7631  -2.5588  -0.7624 H              1 S1                 0.0000
     20 ****         1.8135  -1.0243  -1.6005 H              1 S1                 0.0000
     21 ****         1.4129  -2.4113   1.9743 H              1 S1                 0.0000
     22 ****         2.5450  -0.5258   3.6582 H              1 S1                 0.0000
     23 ****         2.6200   0.9473  -0.2416 H              1 S1                 0.0000
     24 ****        -0.6695   0.2172  -1.8828 H              1 S1                 0.0000
     25 ****        -1.5429   2.1498  -1.4520 H              1 S1                 0.0000
     26 ****        -0.7823   2.8795   1.4896 H              1 S1                 0.0000
     27 ****        -1.0209   4.0409   0.0883 H              1 S1                 0.0000
     28 ****        -3.4017   3.2210  -0.1675 H              1 S1                 0.0000
     29 ****        -3.1437   2.0694   1.2381 H              1 S1                 0.0000
     30 ****         3.2292   1.4500   2.1611 LP             1 S1                 0.0000
     31 ****        -0.8969  -0.7274   1.4537 LP             1 S1                 0.0000
     32 ****        -1.5744   0.7963   1.9218 LP             1 S1                 0.0000
@<TRIPOS>BOND
    1    1    2 1     
    2    1   15 1     
    3    1   16 1     
    4    1   17 1     
    5    2    3 1     
    6    2    9 1     
    7    2   18 1     
    8    3    4 1     
    9    3   19 1     
   10    3   20 1     
   11    4    8 1     
   12    4    5 1     
   13    5    6 2     
   14    5   21 1     
   15    6    7 1     
   16    6   22 1     
   17    7    8 2     
   18    8   23 1     
   19    9   10 am    
   20    9   24 1     
   21   10   11 2     
   22   10   12 1     
   23   12   14 1     
   24   12   13 1     
   25   12   25 1     
   26   13   14 1     
   27   13   26 1     
   28   13   27 1     
   29   14   28 1     
   30   14   29 1     
   31    7   30 1     
   32   11   31 1     
   33   11   32 1     
@<TRIPOS>SUBSTRUCTURE
      1 S1             1
@<TRIPOS>SET
LONE_PAIRS      STATIC     ATOMS    <user>   **** ""
3 30 31 32
DONOR_HYDROGENS      STATIC     ATOMS    <user>   **** ""
1 24
ATOM$BLUE        STATIC     ATOMS    COLORGROUP SYSTEM
3 30 31 32
ATOM$RED        STATIC     ATOMS    COLORGROUP SYSTEM
1 24
