AV-unprocessed.smi:1697|AV-procd|sdf|6804|dock10
  -GOLD-   22720 7573D 1   1.00000     0.00000
 Structure written by MMmdl.
 54 56  0  0  0  0  0  0  0  0  2 V2000
  144.3677  133.7664  150.7859 C   0  0  0  0  0  0  0  0  0  0  0  0
  145.0010  135.1637  150.8385 C   0  0  0  0  0  0  0  0  0  0  0  0
  144.7989  135.7983  152.0954 O   0  0  0  0  0  0  0  0  0  0  0  0
  145.7897  136.7497  152.4640 C   0  0  2  0  0  0  0  0  0  0  0  0
  145.3421  137.4418  153.7590 C   0  0  0  0  0  0  0  0  0  0  0  0
  146.3040  138.5810  154.1367 C   0  0  0  0  0  0  0  0  0  0  0  0
  146.4247  139.5693  153.0336 N   0  3  1  0  0  0  0  0  0  0  0  0
  147.2386  140.7513  153.4176 C   0  0  0  0  0  0  0  0  0  0  0  0
  148.5422  140.3551  154.1373 C   0  0  1  0  0  0  0  0  0  0  0  0
  149.6430  140.7985  153.3665 O   0  0  0  0  0  0  0  0  0  0  0  0
  148.6318  140.9647  155.5493 C   0  0  0  0  0  0  0  0  0  0  0  0
  149.8917  140.6567  156.2011 N   0  0  0  0  0  0  0  0  0  0  0  0
  150.7113  139.6179  155.9487 C   0  0  0  0  0  0  0  0  0  0  0  0
  151.8202  139.5270  156.6772 N   0  0  0  0  0  0  0  0  0  0  0  0
  151.7087  140.6376  157.4962 C   0  0  0  0  0  0  0  0  0  0  0  0
  152.5643  141.1200  158.5106 C   0  0  0  0  0  0  0  0  0  0  0  0
  152.2447  142.2930  159.2312 C   0  0  0  0  0  0  0  0  0  0  0  0
  153.1920  142.7743  160.3161 C   0  0  0  0  0  0  0  0  0  0  0  0
  151.0529  143.0043  158.9394 C   0  0  0  0  0  0  0  0  0  0  0  0
  150.6889  144.2666  159.7008 C   0  0  0  0  0  0  0  0  0  0  0  0
  150.1875  142.5367  157.9285 C   0  0  0  0  0  0  0  0  0  0  0  0
  150.5154  141.3670  157.2208 C   0  0  0  0  0  0  0  0  0  0  0  0
  146.8809  138.9267  151.7714 C   0  0  0  0  0  0  0  0  0  0  0  0
  145.9266  137.7983  151.3493 C   0  0  0  0  0  0  0  0  0  0  0  0
  144.6134  133.2674  149.8484 H   0  0  0  0  0  0  0  0  0  0  0  0
  143.2812  133.8126  150.8552 H   0  0  0  0  0  0  0  0  0  0  0  0
  144.7322  133.1406  151.6009 H   0  0  0  0  0  0  0  0  0  0  0  0
  146.0767  135.0697  150.6893 H   0  0  0  0  0  0  0  0  0  0  0  0
  144.6308  135.7926  150.0277 H   0  0  0  0  0  0  0  0  0  0  0  0
  146.7573  136.2752  152.6403 H   0  0  0  0  0  0  0  0  0  0  0  0
  144.3346  137.8418  153.6350 H   0  0  0  0  0  0  0  0  0  0  0  0
  145.2883  136.7144  154.5698 H   0  0  0  0  0  0  0  0  0  0  0  0
  145.9335  139.0755  155.0355 H   0  0  0  0  0  0  0  0  0  0  0  0
  147.2898  138.1793  154.3773 H   0  0  0  0  0  0  0  0  0  0  0  0
  147.4956  141.3340  152.5313 H   0  0  0  0  0  0  0  0  0  0  0  0
  146.6367  141.4093  154.0465 H   0  0  0  0  0  0  0  0  0  0  0  0
  148.6090  139.2713  154.2251 H   0  0  0  0  0  0  0  0  0  0  0  0
  149.8307  140.1511  152.7037 H   0  0  0  0  0  0  0  0  0  0  0  0
  148.5081  142.0481  155.5116 H   0  0  0  0  0  0  0  0  0  0  0  0
  147.8268  140.5800  156.1767 H   0  0  0  0  0  0  0  0  0  0  0  0
  150.4787  138.8836  155.1912 H   0  0  0  0  0  0  0  0  0  0  0  0
  153.4717  140.5781  158.7332 H   0  0  0  0  0  0  0  0  0  0  0  0
  152.6909  142.7810  161.2843 H   0  0  0  0  0  0  0  0  0  0  0  0
  153.5418  143.7837  160.0993 H   0  0  0  0  0  0  0  0  0  0  0  0
  154.0668  142.1286  160.3968 H   0  0  0  0  0  0  0  0  0  0  0  0
  149.7417  144.6807  159.3547 H   0  0  0  0  0  0  0  0  0  0  0  0
  151.4562  145.0291  159.5658 H   0  0  0  0  0  0  0  0  0  0  0  0
  150.5929  144.0562  160.7660 H   0  0  0  0  0  0  0  0  0  0  0  0
  149.2769  143.0685  157.6959 H   0  0  0  0  0  0  0  0  0  0  0  0
  146.9356  139.6590  150.9670 H   0  0  0  0  0  0  0  0  0  0  0  0
  147.8894  138.5323  151.9053 H   0  0  0  0  0  0  0  0  0  0  0  0
  146.2880  137.3323  150.4327 H   0  0  0  0  0  0  0  0  0  0  0  0
  144.9475  138.2184  151.1150 H   0  0  0  0  0  0  0  0  0  0  0  0
  145.4904  139.9162  152.8665 H   0  0  0  0  0  0  0  0  0  0  0  0
  1  2  1  0  0  0  0
  1 25  1  0  0  0  0
  1 26  1  0  0  0  0
  1 27  1  0  0  0  0
  2  3  1  0  0  0  0
  2 28  1  0  0  0  0
  2 29  1  0  0  0  0
  3  4  1  0  0  0  0
  4 24  1  0  0  0  0
  4  5  1  0  0  0  0
  4 30  1  0  0  0  0
  5  6  1  0  0  0  0
  5 31  1  0  0  0  0
  5 32  1  0  0  0  0
  6  7  1  0  0  0  0
  6 33  1  0  0  0  0
  6 34  1  0  0  0  0
  7  8  1  0  0  0  0
  7 23  1  0  0  0  0
  7 54  1  0  0  0  0
  8  9  1  0  0  0  0
  8 35  1  0  0  0  0
  8 36  1  0  0  0  0
  9 10  1  0  0  0  0
  9 11  1  0  0  0  0
  9 37  1  0  0  0  0
 10 38  1  0  0  0  0
 11 12  1  0  0  0  0
 11 39  1  0  0  0  0
 11 40  1  0  0  0  0
 12 22  1  0  0  0  0
 12 13  1  0  0  0  0
 13 14  2  0  0  0  0
 13 41  1  0  0  0  0
 14 15  1  0  0  0  0
 15 22  2  0  0  0  0
 15 16  1  0  0  0  0
 16 17  2  0  0  0  0
 16 42  1  0  0  0  0
 17 18  1  0  0  0  0
 17 19  1  0  0  0  0
 18 43  1  0  0  0  0
 18 44  1  0  0  0  0
 18 45  1  0  0  0  0
 19 20  1  0  0  0  0
 19 21  2  0  0  0  0
 20 46  1  0  0  0  0
 20 47  1  0  0  0  0
 20 48  1  0  0  0  0
 21 22  1  0  0  0  0
 21 49  1  0  0  0  0
 23 24  1  0  0  0  0
 23 50  1  0  0  0  0
 23 51  1  0  0  0  0
 24 52  1  0  0  0  0
 24 53  1  0  0  0  0
M  CHG  1   7   1
M  END
> <s_m_source_file>
AV-unprocessed.smi

> <i_m_source_file_index>
1697

> <i_lp_mmshare_version>
43012

> <i_f3d_flags>
0

> <s_epik_input>
W0NIM11bQ0gyXU9bQ0hdMVtDSDJdW0NIMl1OKFtDSDJdW0NIMl0xKVtDSDJdW0NASF0oW09IXSlbQ0gyXW4oW2NIXW4yKWMoYzIzKVtjSF1jKFtDSDNdKWMoW2NIXTMpW0NIM10=

> <s_epik_cmdline>
J2VwaWtfcHl0aG9uJywgJy1waCcsICc3LjAnLCAnLXRuJywgJzgnLCAnLW1hJywgJzIwMCcsICctbWV0YWxfYmluZGluZycsICctaW1hZScsICc8aW5maWxlLm1hZT4nLCAnLW9tYWUnLCAnPG91dGZpbGUubWFlPic=

> <r_epik_Ionization_Penalty>
0.112476

> <r_epik_Ionization_Penalty_Charging>
0.0244612

> <r_epik_Ionization_Penalty_Neutral>
0.0880147

> <r_epik_State_Penalty>
0.0961447

> <r_epik_Charging_Adjusted_Penalty>
0.120606

> <i_epik_Tot_Q>
1

> <i_epik_Tot_abs_Q>
1

> <r_epik_Metal_State_Penalty>
0.0206204

> <b_epik_Metal_Only>
0

> <s_lp_Force_Field>
OPLS_2005

> <r_lp_Energy>
24.3812

> <b_lp_Chiralities_Consistent>
1

> <s_lp_Variant>
AV-unprocessed.smi:1697-2

> <Gold.Version>
5.8.1

> <Gold.Id.Protein>
6NUR|6NUR_protein|mol2

> <Gold.PLP.Fitness>
52.5404

> <Gold.PLP.PLP>
-43.8559

> <Gold.PLP.part.hbond>
-3.2913

> <Gold.PLP.part.metal>
0.0000

> <Gold.PLP.part.buried>
-0.8182

> <Gold.PLP.part.nonpolar>
-40.9855

> <Gold.PLP.part.repulsive>
0.1513

> <Gold.PLP.ligand.clash>
0.0000

> <Gold.PLP.ligand.torsion>
1.4269

> <Gold.PLP.Chemscore.Hbond>
3.7869

> <Gold.PLP.Chemscore.CHOScore>
0.0000

> <Gold.PLP.Chemscore.Metal>
0.0000

> <Gold.Chemscore.Hbonds>
donor molecule, donor type, donor heavy atom, donor atom, acceptor molecule, acceptor atom, score
      L1  H     7    54       P1 10175  2.00
      L1  H    10    38       P1  7957  0.72
      P1  H  7989  7998       L1    10  0.03
      P1  H  8011  8017       L1    10  1.00

> <Gold.PLP.Chemscore.Internal.Correction>
0.1778

> <Gold.Rescore>
     Score         DG    S(hbond)    S(metal)    S(lipo)     H(rot)  DE(clash)    DE(int)     intcor
     19.43     -21.78       2.12        0.00     128.59       2.27       0.75       1.59       ----

> <Gold.Chemscore.Fitness>
19.4332

> <Gold.Chemscore.DG>
-21.7755

> <Gold.Chemscore.ZeroCoef>
-5.4800

> <Gold.Chemscore.Hbond>
2.1150

> <Gold.Chemscore.Metal>
0.0000

> <Gold.Chemscore.Lipo>
128.5904

> <Gold.Chemscore.Internal_Hbond>
0.0000

> <Gold.Chemscore.DEClash>
0.7500

> <Gold.Chemscore.DEInternal>
1.5923

> <Gold.Chemscore.Rot>
2.2710

> <Gold.Chemscore.Internal.Correction>
   9.000000E+99

> <Gold.Chemscore.Hbonds>
donor molecule, donor type, donor heavy atom, donor atom, acceptor molecule, acceptor atom, score
      L1  H     7    54       P1 10175  0.99
      L1  H    10    38       P1  7957  0.69
      P1  H  8011  8017       L1    10  0.25

> <Gold.Chemscore.Hbond.Weighted>
-7.0641

> <Gold.Chemscore.Metal.Weighted>
-0.0000

> <Gold.Chemscore.Lipo.Weighted>
-15.0451

> <Gold.Chemscore.Internal_Hbond.Weighted>
0.0000

> <Gold.Chemscore.DEClash.Weighted>
0.7500

> <Gold.Chemscore.DEInternal.Weighted>
1.5923

> <Gold.Chemscore.Rot.Weighted>
5.8137

> <Gold.Chemscore.Internal.Correction.Weighted>
   9.000000E+99

> <Gold.Protein.RotatedTorsions>
[ 6907 6896 6895 6894 ] final  127.31 input  -60.11 | X-H torsion
[ 7974 7965 7964 7962 ] final  106.27 input  175.53 | X-H torsion
[ 8008 7997 7996 7995 ] final   10.02 input   59.86 | X-H torsion
[ 10167 10162 10161 10158 ] final  119.53 input  -65.29 | X-H torsion
[ 10718 10713 10712 10709 ] final -138.78 input   66.30 | X-H torsion
[ 10763 10752 10751 10750 ] final  171.59 input  -60.55 | X-H torsion
[ 11005 11000 10999 10996 ] final  133.89 input  -57.11 | X-H torsion

> <Gold.Protein.ActiveResidues>
 VAL166  LYS551  ARG553  GLY616  TRP617  ASP618  TYR619  PRO620  LYS621  CYS622 
 ASP623  PHE694  ASN695  SER759  ASP760  ASP761  ALA762  ILE779  LEU786  VAL792 
 PHE793  MET794  SER795  GLU796  ALA797  LYS798  CYS799  TRP800  GLU811  SER814 

> <Gold.Protein.RotatedAtoms>
  152.3824  133.6564  159.6171 H   0  0  0  0  0  0  0  0  0  0  0  0  # atno 6907 bound_to 6896
  150.7752  133.9091  159.3373 H   0  0  0  0  0  0  0  0  0  0  0  0  # atno 6908 bound_to 6896
  151.6894  135.0950  160.0282 H   0  0  0  0  0  0  0  0  0  0  0  0  # atno 6909 bound_to 6896
  145.3088  139.2547  143.3774 H   0  0  0  0  0  0  0  0  0  0  0  0  # atno 7974 bound_to 7965
  154.7877  140.2830  155.6015 H   0  0  0  0  0  0  0  0  0  0  0  0  # atno 8008 bound_to 7997
  156.2960  140.2611  156.2646 H   0  0  0  0  0  0  0  0  0  0  0  0  # atno 8009 bound_to 7997
  154.9707  140.0376  157.2223 H   0  0  0  0  0  0  0  0  0  0  0  0  # atno 8010 bound_to 7997
  139.6040  144.7065  151.2997 H   0  0  0  0  0  0  0  0  0  0  0  0  # atno 10167 bound_to 10162
  156.3032  130.7440  151.1497 H   0  0  0  0  0  0  0  0  0  0  0  0  # atno 10718 bound_to 10713
  154.4140  135.2756  155.2018 H   0  0  0  0  0  0  0  0  0  0  0  0  # atno 10763 bound_to 10752
  154.3992  135.6048  153.5891 H   0  0  0  0  0  0  0  0  0  0  0  0  # atno 10764 bound_to 10752
  152.9831  135.5922  154.4426 H   0  0  0  0  0  0  0  0  0  0  0  0  # atno 10765 bound_to 10752
  139.9880  134.9525  156.9789 H   0  0  0  0  0  0  0  0  0  0  0  0  # atno 11005 bound_to 11000
  146.3125  140.3619  142.8665 LP  0  0  0  0  0  0  0  0  0  0  0  0  # atno 17320 bound_to 7965
  144.9033  140.7669  143.5853 LP  0  0  0  0  0  0  0  0  0  0  0  0  # atno 17321 bound_to 7965
  140.7271  143.6973  150.7873 LP  0  0  0  0  0  0  0  0  0  0  0  0  # atno 17342 bound_to 10162
  140.0555  143.5207  152.2653 LP  0  0  0  0  0  0  0  0  0  0  0  0  # atno 17343 bound_to 10162
  157.7373  131.0553  150.5363 LP  0  0  0  0  0  0  0  0  0  0  0  0  # atno 17370 bound_to 10713
  156.5493  130.4227  149.6115 LP  0  0  0  0  0  0  0  0  0  0  0  0  # atno 17371 bound_to 10713
  140.4964  134.1142  155.7242 LP  0  0  0  0  0  0  0  0  0  0  0  0  # atno 17394 bound_to 11000
  141.1542  133.8914  157.2021 LP  0  0  0  0  0  0  0  0  0  0  0  0  # atno 17395 bound_to 11000

$$$$
