AV-unprocessed.smi:1641|AV-procd|sdf|6563|dock3
  -GOLD-   22720 7243D 1   1.00000     0.00000
 Structure written by MMmdl.
 40 41  0  0  0  0  0  0  0  0  2 V2000
  146.9011  133.9095  162.4129 C   0  0  0  0  0  0  0  0  0  0  0  0
  147.6096  135.0742  161.8108 C   0  0  0  0  0  0  0  0  0  0  0  0
  148.4429  135.8552  162.5030 N   0  0  0  0  0  0  0  0  0  0  0  0
  148.9788  136.8693  161.7222 N   0  0  0  0  0  0  0  0  0  0  0  0
  148.5534  136.8345  160.4512 C   0  0  0  0  0  0  0  0  0  0  0  0
  148.9523  137.7284  159.5312 N   0  5  0  0  0  0  0  0  0  0  0  0
  150.2182  137.6885  159.0565 C   0  0  0  0  0  0  0  0  0  0  0  0
  151.0193  136.7603  159.1905 O   0  0  0  0  0  0  0  0  0  0  0  0
  150.5764  138.7888  158.3791 N   0  0  0  0  0  0  0  0  0  0  0  0
  151.8688  139.0174  157.7430 C   0  0  0  0  0  0  0  0  0  0  0  0
  152.0954  140.5141  157.4576 C   0  0  0  0  0  0  0  0  0  0  0  0
  151.8774  141.4005  158.5994 N   0  0  0  0  0  0  0  0  0  0  0  0
  152.9602  141.2764  159.5681 C   0  0  0  0  0  0  0  0  0  0  0  0
  152.7510  142.1923  160.7888 C   0  0  1  0  0  0  0  0  0  0  0  0
  153.9218  142.1213  161.7743 C   0  0  0  0  0  0  0  0  0  0  0  0
  152.6216  143.5388  160.3407 O   0  0  0  0  0  0  0  0  0  0  0  0
  151.5472  143.7253  159.4231 C   0  0  1  0  0  0  0  0  0  0  0  0
  151.5050  145.2046  159.0266 C   0  0  0  0  0  0  0  0  0  0  0  0
  151.7524  142.8017  158.2066 C   0  0  0  0  0  0  0  0  0  0  0  0
  147.4154  135.5271  160.1264 S   0  0  0  0  0  0  0  0  0  0  0  0
  147.4015  132.9836  162.1295 H   0  0  0  0  0  0  0  0  0  0  0  0
  145.8709  133.8748  162.0582 H   0  0  0  0  0  0  0  0  0  0  0  0
  146.8925  133.9858  163.5006 H   0  0  0  0  0  0  0  0  0  0  0  0
  149.8903  139.5247  158.2954 H   0  0  0  0  0  0  0  0  0  0  0  0
  152.6320  138.6312  158.4176 H   0  0  0  0  0  0  0  0  0  0  0  0
  151.9410  138.4356  156.8226 H   0  0  0  0  0  0  0  0  0  0  0  0
  153.1239  140.6370  157.1159 H   0  0  0  0  0  0  0  0  0  0  0  0
  151.4658  140.8261  156.6230 H   0  0  0  0  0  0  0  0  0  0  0  0
  153.0354  140.2416  159.9044 H   0  0  0  0  0  0  0  0  0  0  0  0
  153.9112  141.5180  159.0904 H   0  0  0  0  0  0  0  0  0  0  0  0
  151.8366  141.9033  161.3099 H   0  0  0  0  0  0  0  0  0  0  0  0
  154.0542  141.1074  162.1525 H   0  0  0  0  0  0  0  0  0  0  0  0
  153.7506  142.7751  162.6299 H   0  0  0  0  0  0  0  0  0  0  0  0
  154.8551  142.4281  161.3016 H   0  0  0  0  0  0  0  0  0  0  0  0
  150.6102  143.4692  159.9208 H   0  0  0  0  0  0  0  0  0  0  0  0
  150.6849  145.4023  158.3359 H   0  0  0  0  0  0  0  0  0  0  0  0
  152.4330  145.5096  158.5421 H   0  0  0  0  0  0  0  0  0  0  0  0
  151.3623  145.8379  159.9026 H   0  0  0  0  0  0  0  0  0  0  0  0
  152.6447  143.1120  157.6606 H   0  0  0  0  0  0  0  0  0  0  0  0
  150.9100  142.9291  157.5276 H   0  0  0  0  0  0  0  0  0  0  0  0
  1  2  1  0  0  0  0
  1 21  1  0  0  0  0
  1 22  1  0  0  0  0
  1 23  1  0  0  0  0
  2 20  1  0  0  0  0
  2  3  2  0  0  0  0
  3  4  1  0  0  0  0
  4  5  2  0  0  0  0
  5  6  1  0  0  0  0
  5 20  1  0  0  0  0
  6  7  1  0  0  0  0
  7  8  2  0  0  0  0
  7  9  1  0  0  0  0
  9 10  1  0  0  0  0
  9 24  1  0  0  0  0
 10 11  1  0  0  0  0
 10 25  1  0  0  0  0
 10 26  1  0  0  0  0
 11 12  1  0  0  0  0
 11 27  1  0  0  0  0
 11 28  1  0  0  0  0
 12 19  1  0  0  0  0
 12 13  1  0  0  0  0
 13 14  1  0  0  0  0
 13 29  1  0  0  0  0
 13 30  1  0  0  0  0
 14 15  1  0  0  0  0
 14 16  1  0  0  0  0
 14 31  1  0  0  0  0
 15 32  1  0  0  0  0
 15 33  1  0  0  0  0
 15 34  1  0  0  0  0
 16 17  1  0  0  0  0
 17 18  1  0  0  0  0
 17 19  1  0  0  0  0
 17 35  1  0  0  0  0
 18 36  1  0  0  0  0
 18 37  1  0  0  0  0
 18 38  1  0  0  0  0
 19 39  1  0  0  0  0
 19 40  1  0  0  0  0
M  CHG  1   6  -1
M  END
> <s_m_source_file>
AV-unprocessed.smi

> <i_m_source_file_index>
1641

> <i_lp_mmshare_version>
43012

> <i_f3d_flags>
0

> <s_epik_input>
W0NIM11jMW5uYyhzMSlbTkhdQyg9TylbTkhdW0NIMl1bQ0gyXU4yW0NIMl1bQ0BASF0oW0NIM10pT1tDQEBIXShbQ0gzXSlbQ0gyXTI=

> <s_epik_cmdline>
J2VwaWtfcHl0aG9uJywgJy1waCcsICc3LjAnLCAnLXRuJywgJzgnLCAnLW1hJywgJzIwMCcsICctbWV0YWxfYmluZGluZycsICctaW1hZScsICc8aW5maWxlLm1hZT4nLCAnLW9tYWUnLCAnPG91dGZpbGUubWFlPic=

> <r_lp_tautomer_probability>
1

> <r_epik_Ionization_Penalty>
3.81681

> <r_epik_Ionization_Penalty_Charging>
3.36369

> <r_epik_Ionization_Penalty_Neutral>
0.45313

> <r_epik_State_Penalty>
3.571

> <r_epik_Charging_Adjusted_Penalty>
6.93469

> <i_epik_Tot_Q>
-1

> <i_epik_Tot_abs_Q>
1

> <r_epik_Metal_State_Penalty>
0.710322

> <b_epik_Metal_Only>
1

> <s_lp_Force_Field>
OPLS_2005

> <r_lp_Energy>
16.5126

> <b_lp_Chiralities_Consistent>
1

> <s_lp_Variant>
AV-unprocessed.smi:1641-8

> <Gold.Version>
5.8.1

> <Gold.Id.Protein>
6NUR|6NUR_protein|mol2

> <Gold.PLP.Fitness>
40.9084

> <Gold.PLP.PLP>
-36.8605

> <Gold.PLP.part.hbond>
-3.5253

> <Gold.PLP.part.metal>
0.0000

> <Gold.PLP.part.buried>
-5.0591

> <Gold.PLP.part.nonpolar>
-27.8835

> <Gold.PLP.part.repulsive>
0.1435

> <Gold.PLP.ligand.clash>
0.0000

> <Gold.PLP.ligand.torsion>
0.9593

> <Gold.PLP.Chemscore.Hbond>
1.9750

> <Gold.PLP.Chemscore.CHOScore>
0.0000

> <Gold.PLP.Chemscore.Metal>
0.0000

> <Gold.Chemscore.Hbonds>
donor molecule, donor type, donor heavy atom, donor atom, acceptor molecule, acceptor atom, score
      P1  H  6896  6907       L1     8  1.00
      P1  H  6931  6943       L1     4  0.62

> <Gold.PLP.Chemscore.Internal.Correction>
0.0415

> <Gold.Rescore>
     Score         DG    S(hbond)    S(metal)    S(lipo)     H(rot)  DE(clash)    DE(int)     intcor
     17.02     -17.95       1.87        0.00      87.41       1.57       0.00       0.92       ----

> <Gold.Chemscore.Fitness>
17.0222

> <Gold.Chemscore.DG>
-17.9483

> <Gold.Chemscore.ZeroCoef>
-5.4800

> <Gold.Chemscore.Hbond>
1.8735

> <Gold.Chemscore.Metal>
0.0000

> <Gold.Chemscore.Lipo>
87.4051

> <Gold.Chemscore.Internal_Hbond>
0.0000

> <Gold.Chemscore.DEClash>
0.0038

> <Gold.Chemscore.DEInternal>
0.9223

> <Gold.Chemscore.Rot>
1.5686

> <Gold.Chemscore.Internal.Correction>
   9.000000E+99

> <Gold.Chemscore.Hbonds>
donor molecule, donor type, donor heavy atom, donor atom, acceptor molecule, acceptor atom, score
      P1  H  6896  6907       L1     8  0.99
      P1  H  6931  6943       L1     4  0.16

> <Gold.Chemscore.Hbond.Weighted>
-6.2576

> <Gold.Chemscore.Metal.Weighted>
-0.0000

> <Gold.Chemscore.Lipo.Weighted>
-10.2264

> <Gold.Chemscore.Internal_Hbond.Weighted>
0.0000

> <Gold.Chemscore.DEClash.Weighted>
0.0038

> <Gold.Chemscore.DEInternal.Weighted>
0.9223

> <Gold.Chemscore.Rot.Weighted>
4.0157

> <Gold.Chemscore.Internal.Correction.Weighted>
   9.000000E+99

> <Gold.Protein.RotatedTorsions>
[ 6907 6896 6895 6894 ] final  -19.58 input  -60.11 | X-H torsion
[ 7974 7965 7964 7962 ] final -109.84 input  175.53 | X-H torsion
[ 8008 7997 7996 7995 ] final -117.67 input   59.86 | X-H torsion
[ 10167 10162 10161 10158 ] final -128.00 input  -65.29 | X-H torsion
[ 10718 10713 10712 10709 ] final -102.44 input   66.30 | X-H torsion
[ 10763 10752 10751 10750 ] final   50.47 input  -60.55 | X-H torsion
[ 11005 11000 10999 10996 ] final -106.01 input  -57.11 | X-H torsion

> <Gold.Protein.ActiveResidues>
 VAL166  LYS551  ARG553  GLY616  TRP617  ASP618  TYR619  PRO620  LYS621  CYS622 
 ASP623  PHE694  ASN695  SER759  ASP760  ASP761  ALA762  ILE779  LEU786  VAL792 
 PHE793  MET794  SER795  GLU796  ALA797  LYS798  CYS799  TRP800  GLU811  SER814 

> <Gold.Protein.RotatedAtoms>
  151.2610  135.0654  159.9097 H   0  0  0  0  0  0  0  0  0  0  0  0  # atno 6907 bound_to 6896
  152.5366  134.0231  159.8001 H   0  0  0  0  0  0  0  0  0  0  0  0  # atno 6908 bound_to 6896
  151.0454  133.5620  159.2678 H   0  0  0  0  0  0  0  0  0  0  0  0  # atno 6909 bound_to 6896
  145.1755  140.8946  143.3510 H   0  0  0  0  0  0  0  0  0  0  0  0  # atno 7974 bound_to 7965
  155.0875  140.0394  157.2658 H   0  0  0  0  0  0  0  0  0  0  0  0  # atno 8008 bound_to 7997
  154.6858  140.2643  155.6837 H   0  0  0  0  0  0  0  0  0  0  0  0  # atno 8009 bound_to 7997
  156.2711  140.2769  156.1419 H   0  0  0  0  0  0  0  0  0  0  0  0  # atno 8010 bound_to 7997
  139.9550  143.6014  152.2463 H   0  0  0  0  0  0  0  0  0  0  0  0  # atno 10167 bound_to 10162
  156.0229  130.5420  150.7108 H   0  0  0  0  0  0  0  0  0  0  0  0  # atno 10718 bound_to 10713
  152.9784  135.5878  154.4258 H   0  0  0  0  0  0  0  0  0  0  0  0  # atno 10763 bound_to 10752
  154.3877  135.2767  155.2176 H   0  0  0  0  0  0  0  0  0  0  0  0  # atno 10764 bound_to 10752
  154.4062  135.6092  153.5980 H   0  0  0  0  0  0  0  0  0  0  0  0  # atno 10765 bound_to 10752
  141.1025  133.8857  157.1805 H   0  0  0  0  0  0  0  0  0  0  0  0  # atno 11005 bound_to 11000
  145.0189  139.3442  143.6082 LP  0  0  0  0  0  0  0  0  0  0  0  0  # atno 17320 bound_to 7965
  146.3462  139.9481  142.8732 LP  0  0  0  0  0  0  0  0  0  0  0  0  # atno 17321 bound_to 7965
  139.6599  144.7662  151.1983 LP  0  0  0  0  0  0  0  0  0  0  0  0  # atno 17342 bound_to 10162
  140.7571  143.6027  150.8684 LP  0  0  0  0  0  0  0  0  0  0  0  0  # atno 17343 bound_to 10162
  157.4747  131.0896  151.0603 LP  0  0  0  0  0  0  0  0  0  0  0  0  # atno 17370 bound_to 10713
  157.1054  130.5999  149.5469 LP  0  0  0  0  0  0  0  0  0  0  0  0  # atno 17371 bound_to 10713
  139.9882  135.0074  156.9913 LP  0  0  0  0  0  0  0  0  0  0  0  0  # atno 17394 bound_to 11000
  140.4985  134.1121  155.7246 LP  0  0  0  0  0  0  0  0  0  0  0  0  # atno 17395 bound_to 11000

$$$$
