#       Name:                AV-unprocessed.smi:3030
#       Creating user name   scv26
#       Creation time:       Fri Mar 27 16:48:23 2020


#       File generated by GOLD software.
#

@<TRIPOS>MOLECULE
AV-unprocessed.smi:3030
    56    57     1
SMALL
NO_CHARGES


@<TRIPOS>ATOM
      1 ****        -3.2359   5.6740   0.7831 C.3            1 S1                 0.0000
      2 ****        -3.4600   4.5583   1.8101 C.3            1 S1                 0.0000
      3 ****        -3.6447   3.2640   1.1700 N.pl3          1 S1                 0.0000
      4 ****        -4.9127   2.7910   0.8488 C.2            1 S1                 0.0000
      5 ****        -5.1523   1.5785   0.3134 C.2            1 S1                 0.0000
      6 ****        -4.0197   0.6700   0.0431 C.2            1 S1                 0.0000
      7 ****        -4.2027  -0.4443  -0.4470 O.2            1 S1                 0.0000
      8 ****        -2.6644   1.1726   0.3919 C.2            1 S1                 0.0000
      9 ****        -1.5930   0.3050   0.1216 N.am           1 S1                 0.0000
     10 ****        -0.2872   0.4419   0.4159 C.2            1 S1                 0.0000
     11 ****         0.2227   1.3816   1.0255 O.2            1 S1                 0.0000
     12 ****         0.4151  -0.6032  -0.0438 N.am           1 S1                 0.0000
     13 ****         1.8622  -0.7829   0.0865 C.3            1 S1                 0.0000
     14 ****         2.2137  -1.4342   1.4411 C.3            1 S1                 0.0000
     15 ****         1.7781  -2.9081   1.5184 C.3            1 S1                 0.0000
     16 ****         2.1482  -3.5329   2.8711 C.3            1 S1                 0.0000
     17 ****         2.3887  -3.6933   0.3473 C.3            1 S1                 0.0000
     18 ****         2.0193  -3.0717  -1.0086 C.3            1 S1                 0.0000
     19 ****         2.4403  -1.5839  -1.1152 C.3            1 S1                 0.0000
     20 ****         2.0971  -0.9635  -2.5052 C.3            1 S1                 0.0000
     21 ****         2.7546  -1.7243  -3.6727 C.3            1 S1                 0.0000
     22 ****         2.4847   0.5249  -2.6045 C.3            1 S1                 0.0000
     23 ****        -2.5651   2.4180   0.9240 C.2            1 S1                 0.0000
     24 ****        -3.0974   6.6348   1.2789 H              1 S1                 0.0000
     25 ****        -4.0880   5.7666   0.1088 H              1 S1                 0.0000
     26 ****        -2.3486   5.4804   0.1796 H              1 S1                 0.0000
     27 ****        -2.6107   4.5082   2.4925 H              1 S1                 0.0000
     28 ****        -4.3317   4.7884   2.4239 H              1 S1                 0.0000
     29 ****        -5.7134   3.4857   1.0577 H              1 S1                 0.0000
     30 ****        -6.1551   1.2550   0.0763 H              1 S1                 0.0000
     31 ****        -1.8558  -0.5435  -0.3588 H              1 S1                 0.0000
     32 ****        -0.0862  -1.3312  -0.5314 H              1 S1                 0.0000
     33 ****         2.3314   0.2017   0.0905 H              1 S1                 0.0000
     34 ****         3.2918  -1.3701   1.5940 H              1 S1                 0.0000
     35 ****         1.7627  -0.8674   2.2569 H              1 S1                 0.0000
     36 ****         0.6919  -2.9518   1.4262 H              1 S1                 0.0000
     37 ****         3.2268  -3.5244   3.0311 H              1 S1                 0.0000
     38 ****         1.8107  -4.5680   2.9306 H              1 S1                 0.0000
     39 ****         1.6853  -2.9881   3.6946 H              1 S1                 0.0000
     40 ****         3.4746  -3.7232   0.4484 H              1 S1                 0.0000
     41 ****         2.0484  -4.7290   0.3763 H              1 S1                 0.0000
     42 ****         2.5025  -3.6653  -1.7830 H              1 S1                 0.0000
     43 ****         0.9454  -3.1673  -1.1739 H              1 S1                 0.0000
     44 ****         3.5266  -1.5554  -1.0150 H              1 S1                 0.0000
     45 ****         1.0186  -1.0257  -2.6552 H              1 S1                 0.0000
     46 ****         3.8351  -1.7938  -3.5435 H              1 S1                 0.0000
     47 ****         2.5684  -1.2230  -4.6229 H              1 S1                 0.0000
     48 ****         2.3601  -2.7342  -3.7772 H              1 S1                 0.0000
     49 ****         3.5431   0.6739  -2.3885 H              1 S1                 0.0000
     50 ****         1.9092   1.1443  -1.9171 H              1 S1                 0.0000
     51 ****         2.2935   0.9159  -3.6043 H              1 S1                 0.0000
     52 ****        -1.6239   2.8706   1.1912 H              1 S1                 0.0000
     53 ****        -5.1297  -0.7470  -0.6686 LP             1 S1                 0.0000
     54 ****        -3.4244  -1.0469  -0.6236 LP             1 S1                 0.0000
     55 ****        -0.3484   2.1352   1.3508 LP             1 S1                 0.0000
     56 ****         1.2081   1.3915   1.1954 LP             1 S1                 0.0000
@<TRIPOS>BOND
    1    1    2 1     
    2    1   24 1     
    3    1   25 1     
    4    1   26 1     
    5    2    3 1     
    6    2   27 1     
    7    2   28 1     
    8    3   23 1     
    9    3    4 1     
   10    4    5 2     
   11    4   29 1     
   12    5    6 1     
   13    5   30 1     
   14    6    7 2     
   15    6    8 1     
   16    8    9 1     
   17    8   23 2     
   18    9   10 am    
   19    9   31 1     
   20   10   11 2     
   21   10   12 am    
   22   12   13 1     
   23   12   32 1     
   24   13   19 1     
   25   13   14 1     
   26   13   33 1     
   27   14   15 1     
   28   14   34 1     
   29   14   35 1     
   30   15   16 1     
   31   15   17 1     
   32   15   36 1     
   33   16   37 1     
   34   16   38 1     
   35   16   39 1     
   36   17   18 1     
   37   17   40 1     
   38   17   41 1     
   39   18   19 1     
   40   18   42 1     
   41   18   43 1     
   42   19   20 1     
   43   19   44 1     
   44   20   21 1     
   45   20   22 1     
   46   20   45 1     
   47   21   46 1     
   48   21   47 1     
   49   21   48 1     
   50   22   49 1     
   51   22   50 1     
   52   22   51 1     
   53   23   52 1     
   54    7   53 1     
   55    7   54 1     
   56   11   55 1     
   57   11   56 1     
@<TRIPOS>SUBSTRUCTURE
      1 S1             1
@<TRIPOS>SET
LONE_PAIRS      STATIC     ATOMS    <user>   **** ""
4 53 54 55 56
DONOR_HYDROGENS      STATIC     ATOMS    <user>   **** ""
2 31 32
ATOM$BLUE        STATIC     ATOMS    COLORGROUP SYSTEM
4 53 54 55 56
ATOM$RED        STATIC     ATOMS    COLORGROUP SYSTEM
2 31 32
