AV-unprocessed.smi:3158|AV-procd|sdf|12041|dock6
  -GOLD-   2272017463D 1   1.00000     0.00000
 Structure written by MMmdl.
 40 40  0  0  0  0  0  0  0  0  2 V2000
  144.4049  132.3366  150.0206 C   0  0  0  0  0  0  0  0  0  0  0  0
  145.7933  132.5780  150.6313 C   0  0  0  0  0  0  0  0  0  0  0  0
  145.8614  133.8165  151.5441 C   0  0  2  0  0  0  0  0  0  0  0  0
  145.5529  135.1081  150.7705 C   0  0  0  0  0  0  0  0  0  0  0  0
  147.1793  133.9102  152.1685 N   0  0  0  0  0  0  0  0  0  0  0  0
  147.7048  133.0136  153.0175 C   0  0  0  0  0  0  0  0  0  0  0  0
  147.1143  131.9932  153.3752 O   0  0  0  0  0  0  0  0  0  0  0  0
  149.1194  133.3141  153.5343 C   0  0  2  0  0  0  0  0  0  0  0  0
  149.5688  132.2104  154.5042 C   0  0  0  0  0  0  0  0  0  0  0  0
  149.1884  134.6300  154.2082 N   0  3  0  0  0  0  0  0  0  0  0  0
  150.3246  134.8028  155.1404 C   0  0  0  0  0  0  0  0  0  0  0  0
  150.1478  136.0545  156.0128 C   0  0  0  0  0  0  0  0  0  0  0  0
  151.0308  137.1296  155.5981 N   0  0  0  0  0  0  0  0  0  0  0  0
  151.1439  137.7143  154.3544 C   0  0  0  0  0  0  0  0  0  0  0  0
  152.0900  138.6941  154.4512 C   0  0  0  0  0  0  0  0  0  0  0  0
  152.5039  138.6316  155.8112 C   0  0  0  0  0  0  0  0  0  0  0  0
  151.8660  137.6959  156.4960 N   0  0  0  0  0  0  0  0  0  0  0  0
  144.4222  131.4776  149.3498 H   0  0  0  0  0  0  0  0  0  0  0  0
  144.0744  133.2007  149.4437 H   0  0  0  0  0  0  0  0  0  0  0  0
  143.6560  132.1389  150.7878 H   0  0  0  0  0  0  0  0  0  0  0  0
  146.1016  131.6907  151.1862 H   0  0  0  0  0  0  0  0  0  0  0  0
  146.5135  132.6920  149.8201 H   0  0  0  0  0  0  0  0  0  0  0  0
  145.1044  133.6971  152.3214 H   0  0  0  0  0  0  0  0  0  0  0  0
  144.5650  135.0629  150.3113 H   0  0  0  0  0  0  0  0  0  0  0  0
  146.2804  135.2795  149.9765 H   0  0  0  0  0  0  0  0  0  0  0  0
  145.5665  135.9770  151.4291 H   0  0  0  0  0  0  0  0  0  0  0  0
  147.7370  134.7159  151.9242 H   0  0  0  0  0  0  0  0  0  0  0  0
  149.8107  133.3274  152.6897 H   0  0  0  0  0  0  0  0  0  0  0  0
  149.5601  131.2308  154.0242 H   0  0  0  0  0  0  0  0  0  0  0  0
  148.9200  132.1573  155.3798 H   0  0  0  0  0  0  0  0  0  0  0  0
  150.5851  132.3899  154.8562 H   0  0  0  0  0  0  0  0  0  0  0  0
  149.2446  135.3438  153.4945 H   0  0  0  0  0  0  0  0  0  0  0  0
  150.3982  133.9170  155.7721 H   0  0  0  0  0  0  0  0  0  0  0  0
  151.2620  134.8761  154.5876 H   0  0  0  0  0  0  0  0  0  0  0  0
  149.1147  136.4049  155.9854 H   0  0  0  0  0  0  0  0  0  0  0  0
  150.3697  135.8158  157.0536 H   0  0  0  0  0  0  0  0  0  0  0  0
  150.5468  137.3910  153.5144 H   0  0  0  0  0  0  0  0  0  0  0  0
  152.4339  139.3556  153.6698 H   0  0  0  0  0  0  0  0  0  0  0  0
  153.2426  139.2353  156.3177 H   0  0  0  0  0  0  0  0  0  0  0  0
  148.3362  134.7679  154.7320 H   0  0  0  0  0  0  0  0  0  0  0  0
  1  2  1  0  0  0  0
  1 18  1  0  0  0  0
  1 19  1  0  0  0  0
  1 20  1  0  0  0  0
  2  3  1  0  0  0  0
  2 21  1  0  0  0  0
  2 22  1  0  0  0  0
  3  4  1  0  0  0  0
  3  5  1  0  0  0  0
  3 23  1  0  0  0  0
  4 24  1  0  0  0  0
  4 25  1  0  0  0  0
  4 26  1  0  0  0  0
  5  6  1  0  0  0  0
  5 27  1  0  0  0  0
  6  7  2  0  0  0  0
  6  8  1  0  0  0  0
  8  9  1  0  0  0  0
  8 10  1  0  0  0  0
  8 28  1  0  0  0  0
  9 29  1  0  0  0  0
  9 30  1  0  0  0  0
  9 31  1  0  0  0  0
 10 11  1  0  0  0  0
 10 32  1  0  0  0  0
 10 40  1  0  0  0  0
 11 12  1  0  0  0  0
 11 33  1  0  0  0  0
 11 34  1  0  0  0  0
 12 13  1  0  0  0  0
 12 35  1  0  0  0  0
 12 36  1  0  0  0  0
 13 17  1  0  0  0  0
 13 14  1  0  0  0  0
 14 15  2  0  0  0  0
 14 37  1  0  0  0  0
 15 16  1  0  0  0  0
 15 38  1  0  0  0  0
 16 17  2  0  0  0  0
 16 39  1  0  0  0  0
M  CHG  1  10   1
M  END
> <s_m_source_file>
AV-unprocessed.smi

> <i_m_source_file_index>
3158

> <i_lp_mmshare_version>
43012

> <i_f3d_flags>
0

> <s_epik_input>
W0NIM11bQ0gyXVtDQEhdKFtDSDNdKVtOSF1DKD1PKVtDQEhdKFtDSDNdKVtOSF1bQ0gyXVtDSDJdbjFbY0hdW2NIXVtjSF1uMQ==

> <s_epik_cmdline>
J2VwaWtfcHl0aG9uJywgJy1waCcsICc3LjAnLCAnLXRuJywgJzgnLCAnLW1hJywgJzIwMCcsICctbWV0YWxfYmluZGluZycsICctaW1hZScsICc8aW5maWxlLm1hZT4nLCAnLW9tYWUnLCAnPG91dGZpbGUubWFlPic=

> <r_lp_tautomer_probability>
1

> <r_epik_Ionization_Penalty>
0.20724

> <r_epik_Ionization_Penalty_Charging>
0.207237

> <r_epik_Ionization_Penalty_Neutral>
3.33806e-06

> <r_epik_State_Penalty>
0.197234

> <r_epik_Charging_Adjusted_Penalty>
0.404471

> <i_epik_Tot_Q>
1

> <i_epik_Tot_abs_Q>
1

> <r_epik_Metal_State_Penalty>
0.197524

> <b_epik_Metal_Only>
0

> <s_lp_Force_Field>
OPLS_2005

> <r_lp_Energy>
5.42496

> <b_lp_Chiralities_Consistent>
1

> <s_lp_Variant>
AV-unprocessed.smi:3158-1

> <Gold.Version>
5.8.1

> <Gold.Id.Protein>
6NUR|6NUR_protein|mol2

> <Gold.PLP.Fitness>
47.0192

> <Gold.PLP.PLP>
-35.6525

> <Gold.PLP.part.hbond>
-2.0000

> <Gold.PLP.part.metal>
0.0000

> <Gold.PLP.part.buried>
-5.0176

> <Gold.PLP.part.nonpolar>
-28.5512

> <Gold.PLP.part.repulsive>
0.1428

> <Gold.PLP.ligand.clash>
0.0000

> <Gold.PLP.ligand.torsion>
0.6578

> <Gold.PLP.Chemscore.Hbond>
3.0000

> <Gold.PLP.Chemscore.CHOScore>
1.1882

> <Gold.PLP.Chemscore.Metal>
0.0000

> <Gold.Chemscore.Hbonds>
donor molecule, donor type, donor heavy atom, donor atom, acceptor molecule, acceptor atom, score
      L1  H     5    27       P1  7948  1.00
      L1  H    10    32       P1  7948  2.00
      L1  C    14    37       P1  7948  0.62
      L1  C    14    37       P1  7949  0.57

> <Gold.PLP.Chemscore.Internal.Correction>
0.1178

> <Gold.Rescore>
     Score         DG    S(hbond)    S(metal)    S(lipo)     H(rot)  DE(clash)    DE(int)     intcor
     13.11     -13.72       1.62        0.00      72.75       2.21       0.02       0.59       ----

> <Gold.Chemscore.Fitness>
13.1101

> <Gold.Chemscore.DG>
-13.7225

> <Gold.Chemscore.ZeroCoef>
-5.4800

> <Gold.Chemscore.Hbond>
1.6158

> <Gold.Chemscore.Metal>
0.0000

> <Gold.Chemscore.Lipo>
72.7466

> <Gold.Chemscore.Internal_Hbond>
0.0000

> <Gold.Chemscore.DEClash>
0.0202

> <Gold.Chemscore.DEInternal>
0.5921

> <Gold.Chemscore.Rot>
2.2132

> <Gold.Chemscore.Internal.Correction>
   9.000000E+99

> <Gold.Chemscore.Hbonds>
donor molecule, donor type, donor heavy atom, donor atom, acceptor molecule, acceptor atom, score
      L1  H     5    27       P1  7948  0.45
      L1  H    10    32       P1  7948  0.30

> <Gold.Chemscore.Hbond.Weighted>
-5.3969

> <Gold.Chemscore.Metal.Weighted>
-0.0000

> <Gold.Chemscore.Lipo.Weighted>
-8.5114

> <Gold.Chemscore.Internal_Hbond.Weighted>
0.0000

> <Gold.Chemscore.DEClash.Weighted>
0.0202

> <Gold.Chemscore.DEInternal.Weighted>
0.5921

> <Gold.Chemscore.Rot.Weighted>
5.6658

> <Gold.Chemscore.Internal.Correction.Weighted>
   9.000000E+99

> <Gold.Protein.RotatedTorsions>
[ 6907 6896 6895 6894 ] final   87.55 input  -60.11 | X-H torsion
[ 7974 7965 7964 7962 ] final  142.92 input  175.53 | X-H torsion
[ 8008 7997 7996 7995 ] final  -29.04 input   59.86 | X-H torsion
[ 10167 10162 10161 10158 ] final  139.40 input  -65.29 | X-H torsion
[ 10718 10713 10712 10709 ] final  -28.15 input   66.30 | X-H torsion
[ 10763 10752 10751 10750 ] final  -99.43 input  -60.55 | X-H torsion
[ 11005 11000 10999 10996 ] final -124.23 input  -57.11 | X-H torsion

> <Gold.Protein.ActiveResidues>
 VAL166  LYS551  ARG553  GLY616  TRP617  ASP618  TYR619  PRO620  LYS621  CYS622 
 ASP623  PHE694  ASN695  SER759  ASP760  ASP761  ALA762  ILE779  LEU786  VAL792 
 PHE793  MET794  SER795  GLU796  ALA797  LYS798  CYS799  TRP800  GLU811  SER814 

> <Gold.Protein.RotatedAtoms>
  152.5413  134.2258  159.8805 H   0  0  0  0  0  0  0  0  0  0  0  0  # atno 6907 bound_to 6896
  151.2233  133.4483  159.2609 H   0  0  0  0  0  0  0  0  0  0  0  0  # atno 6908 bound_to 6896
  151.0785  134.9856  159.8400 H   0  0  0  0  0  0  0  0  0  0  0  0  # atno 6909 bound_to 6896
  144.8966  139.5482  143.5773 H   0  0  0  0  0  0  0  0  0  0  0  0  # atno 7974 bound_to 7965
  154.4306  140.1829  156.1185 H   0  0  0  0  0  0  0  0  0  0  0  0  # atno 8008 bound_to 7997
  156.0162  140.3345  155.6966 H   0  0  0  0  0  0  0  0  0  0  0  0  # atno 8009 bound_to 7997
  155.6041  140.0643  157.2715 H   0  0  0  0  0  0  0  0  0  0  0  0  # atno 8010 bound_to 7997
  139.5080  144.6297  151.5848 H   0  0  0  0  0  0  0  0  0  0  0  0  # atno 10167 bound_to 10162
  156.4290  130.4441  149.7130 H   0  0  0  0  0  0  0  0  0  0  0  0  # atno 10718 bound_to 10713
  154.7497  135.4972  153.9267 H   0  0  0  0  0  0  0  0  0  0  0  0  # atno 10763 bound_to 10752
  153.1130  135.6714  153.9475 H   0  0  0  0  0  0  0  0  0  0  0  0  # atno 10764 bound_to 10752
  153.9229  135.3086  155.3426 H   0  0  0  0  0  0  0  0  0  0  0  0  # atno 10765 bound_to 10752
  140.9857  134.0610  157.3714 H   0  0  0  0  0  0  0  0  0  0  0  0  # atno 11005 bound_to 11000
  146.3084  139.7661  142.9038 LP  0  0  0  0  0  0  0  0  0  0  0  0  # atno 17320 bound_to 7965
  145.3690  141.0339  143.3242 LP  0  0  0  0  0  0  0  0  0  0  0  0  # atno 17321 bound_to 7965
  140.6026  143.9583  150.6396 LP  0  0  0  0  0  0  0  0  0  0  0  0  # atno 17342 bound_to 10162
  140.2799  143.3396  152.1160 LP  0  0  0  0  0  0  0  0  0  0  0  0  # atno 17343 bound_to 10162
  156.4041  130.7689  151.2699 LP  0  0  0  0  0  0  0  0  0  0  0  0  # atno 17370 bound_to 10713
  157.7508  131.0231  150.3820 LP  0  0  0  0  0  0  0  0  0  0  0  0  # atno 17371 bound_to 10713
  139.8969  135.0148  156.7076 LP  0  0  0  0  0  0  0  0  0  0  0  0  # atno 17394 bound_to 11000
  140.7118  133.9216  155.8089 LP  0  0  0  0  0  0  0  0  0  0  0  0  # atno 17395 bound_to 11000

$$$$
