AV-unprocessed.smi:2971|AV-procd|sdf|11332|dock9
  -GOLD-   2272016243D 1   1.00000     0.00000
 Structure written by MMmdl.
 36 38  0  0  0  0  0  0  0  0  1 V2000
  149.7964  141.0013  153.6926 O   0  0  0  0  0  0  0  0  0  0  0  0
  149.0744  141.5156  154.7948 C   0  0  2  0  0  0  0  0  0  0  0  0
  149.8781  141.2388  156.0752 C   0  0  0  0  0  0  0  0  0  0  0  0
  150.6928  142.3683  156.3609 O   0  0  0  0  0  0  0  0  0  0  0  0
  151.3086  142.4371  157.5930 C   0  0  0  0  0  0  0  0  0  0  0  0
  151.3214  141.3773  158.5358 C   0  0  0  0  0  0  0  0  0  0  0  0
  151.9753  141.5310  159.7738 C   0  0  0  0  0  0  0  0  0  0  0  0
  152.6218  142.7408  160.0867 C   0  0  0  0  0  0  0  0  0  0  0  0
  152.6136  143.7982  159.1586 C   0  0  0  0  0  0  0  0  0  0  0  0
  151.9613  143.6453  157.9196 C   0  0  0  0  0  0  0  0  0  0  0  0
  151.9627  144.6707  157.0345 F   0  0  0  0  0  0  0  0  0  0  0  0
  147.6839  140.8521  154.8360 C   0  0  0  0  0  0  0  0  0  0  0  0
  146.6498  141.7513  155.3174 N   0  0  0  0  0  0  0  0  0  0  0  0
  146.0023  141.6811  156.4962 C   0  0  0  0  0  0  0  0  0  0  0  0
  145.0798  142.6070  156.7417 N   0  0  0  0  0  0  0  0  0  0  0  0
  145.1353  143.3688  155.5869 C   0  0  0  0  0  0  0  0  0  0  0  0
  144.4001  144.5151  155.2085 C   0  0  0  0  0  0  0  0  0  0  0  0
  144.6317  145.1331  153.9619 C   0  0  0  0  0  0  0  0  0  0  0  0
  145.6006  144.6170  153.0768 C   0  0  0  0  0  0  0  0  0  0  0  0
  146.3452  143.4758  153.4318 C   0  0  0  0  0  0  0  0  0  0  0  0
  146.1095  142.8605  154.6753 C   0  0  0  0  0  0  0  0  0  0  0  0
  149.2565  140.3605  153.2550 H   0  0  0  0  0  0  0  0  0  0  0  0
  148.9499  142.5918  154.6662 H   0  0  0  0  0  0  0  0  0  0  0  0
  149.1885  141.0946  156.9086 H   0  0  0  0  0  0  0  0  0  0  0  0
  150.4708  140.3278  155.9711 H   0  0  0  0  0  0  0  0  0  0  0  0
  150.8365  140.4346  158.3342 H   0  0  0  0  0  0  0  0  0  0  0  0
  151.9802  140.7179  160.4848 H   0  0  0  0  0  0  0  0  0  0  0  0
  153.1228  142.8576  161.0365 H   0  0  0  0  0  0  0  0  0  0  0  0
  153.1084  144.7283  159.3965 H   0  0  0  0  0  0  0  0  0  0  0  0
  147.4022  140.4900  153.8462 H   0  0  0  0  0  0  0  0  0  0  0  0
  147.7026  139.9799  155.4907 H   0  0  0  0  0  0  0  0  0  0  0  0
  146.2205  140.9045  157.2148 H   0  0  0  0  0  0  0  0  0  0  0  0
  143.6566  144.9199  155.8790 H   0  0  0  0  0  0  0  0  0  0  0  0
  144.0635  146.0083  153.6834 H   0  0  0  0  0  0  0  0  0  0  0  0
  145.7726  145.0986  152.1254 H   0  0  0  0  0  0  0  0  0  0  0  0
  147.0907  143.0794  152.7585 H   0  0  0  0  0  0  0  0  0  0  0  0
  1  2  1  0  0  0  0
  1 22  1  0  0  0  0
  2  3  1  0  0  0  0
  2 12  1  0  0  0  0
  2 23  1  0  0  0  0
  3  4  1  0  0  0  0
  3 24  1  0  0  0  0
  3 25  1  0  0  0  0
  4  5  1  0  0  0  0
  5 10  1  0  0  0  0
  5  6  2  0  0  0  0
  6  7  1  0  0  0  0
  6 26  1  0  0  0  0
  7  8  2  0  0  0  0
  7 27  1  0  0  0  0
  8  9  1  0  0  0  0
  8 28  1  0  0  0  0
  9 10  2  0  0  0  0
  9 29  1  0  0  0  0
 10 11  1  0  0  0  0
 12 13  1  0  0  0  0
 12 30  1  0  0  0  0
 12 31  1  0  0  0  0
 13 21  1  0  0  0  0
 13 14  1  0  0  0  0
 14 15  2  0  0  0  0
 14 32  1  0  0  0  0
 15 16  1  0  0  0  0
 16 21  2  0  0  0  0
 16 17  1  0  0  0  0
 17 18  2  0  0  0  0
 17 33  1  0  0  0  0
 18 19  1  0  0  0  0
 18 34  1  0  0  0  0
 19 20  2  0  0  0  0
 19 35  1  0  0  0  0
 20 21  1  0  0  0  0
 20 36  1  0  0  0  0
M  END
> <s_m_source_file>
AV-unprocessed.smi

> <i_m_source_file_index>
2971

> <i_lp_mmshare_version>
43012

> <i_f3d_flags>
0

> <s_epik_input>
W2NIXTFbY0hdW2NIXVtjSF1jKGMxMiluKFtjSF1uMilbQ0gyXVtDQEhdKFtPSF0pW0NIMl1PYzNbY0hdW2NIXVtjSF1bY0hdYzNG

> <s_epik_cmdline>
J2VwaWtfcHl0aG9uJywgJy1waCcsICc3LjAnLCAnLXRuJywgJzgnLCAnLW1hJywgJzIwMCcsICctbWV0YWxfYmluZGluZycsICctaW1hZScsICc8aW5maWxlLm1hZT4nLCAnLW9tYWUnLCAnPG91dGZpbGUubWFlPic=

> <r_lp_tautomer_probability>
1

> <r_epik_Ionization_Penalty>
0.0600913

> <r_epik_Ionization_Penalty_Charging>
0

> <r_epik_Ionization_Penalty_Neutral>
0.0600913

> <r_epik_State_Penalty>
0.0520726

> <r_epik_Charging_Adjusted_Penalty>
0.0520726

> <i_epik_Tot_Q>
0

> <i_epik_Tot_abs_Q>
0

> <r_epik_Metal_State_Penalty>
5.44269e-05

> <b_epik_Metal_Only>
0

> <s_lp_Force_Field>
OPLS_2005

> <r_lp_Energy>
16.3694

> <b_lp_Chiralities_Consistent>
1

> <s_lp_Variant>
AV-unprocessed.smi:2971-1

> <Gold.Version>
5.8.1

> <Gold.Id.Protein>
6NUR|6NUR_protein|mol2

> <Gold.PLP.Fitness>
47.7225

> <Gold.PLP.PLP>
-45.0847

> <Gold.PLP.part.hbond>
-2.6899

> <Gold.PLP.part.metal>
0.0000

> <Gold.PLP.part.buried>
-6.4177

> <Gold.PLP.part.nonpolar>
-36.1764

> <Gold.PLP.part.repulsive>
0.2818

> <Gold.PLP.ligand.clash>
0.0000

> <Gold.PLP.ligand.torsion>
1.0952

> <Gold.PLP.Chemscore.Hbond>
1.5955

> <Gold.PLP.Chemscore.CHOScore>
0.0000

> <Gold.PLP.Chemscore.Metal>
0.0000

> <Gold.Chemscore.Hbonds>
donor molecule, donor type, donor heavy atom, donor atom, acceptor molecule, acceptor atom, score
      L1  H     1    22       P1  7957  0.24
      P1  H  7989  7998       L1     1  0.34
      P1  H  8011  8017       L1     1  0.96

> <Gold.PLP.Chemscore.Internal.Correction>
0.0416

> <Gold.Rescore>
     Score         DG    S(hbond)    S(metal)    S(lipo)     H(rot)  DE(clash)    DE(int)     intcor
     13.70     -15.74       0.89        0.00     114.28       2.37       1.02       1.03       ----

> <Gold.Chemscore.Fitness>
13.6990

> <Gold.Chemscore.DG>
-15.7416

> <Gold.Chemscore.ZeroCoef>
-5.4800

> <Gold.Chemscore.Hbond>
0.8885

> <Gold.Chemscore.Metal>
0.0000

> <Gold.Chemscore.Lipo>
114.2752

> <Gold.Chemscore.Internal_Hbond>
0.0000

> <Gold.Chemscore.DEClash>
1.0172

> <Gold.Chemscore.DEInternal>
1.0253

> <Gold.Chemscore.Rot>
2.3735

> <Gold.Chemscore.Internal.Correction>
   9.000000E+99

> <Gold.Chemscore.Hbonds>
donor molecule, donor type, donor heavy atom, donor atom, acceptor molecule, acceptor atom, score
      L1  H     1    22       P1  7957  0.24
      P1  H  7989  7998       L1     1  0.33
      P1  H  8011  8017       L1     1  0.14

> <Gold.Chemscore.Hbond.Weighted>
-2.9676

> <Gold.Chemscore.Metal.Weighted>
-0.0000

> <Gold.Chemscore.Lipo.Weighted>
-13.3702

> <Gold.Chemscore.Internal_Hbond.Weighted>
0.0000

> <Gold.Chemscore.DEClash.Weighted>
1.0172

> <Gold.Chemscore.DEInternal.Weighted>
1.0253

> <Gold.Chemscore.Rot.Weighted>
6.0762

> <Gold.Chemscore.Internal.Correction.Weighted>
   9.000000E+99

> <Gold.Protein.RotatedTorsions>
[ 6907 6896 6895 6894 ] final  -74.22 input  -60.11 | X-H torsion
[ 7974 7965 7964 7962 ] final  -32.49 input  175.53 | X-H torsion
[ 8008 7997 7996 7995 ] final -117.04 input   59.86 | X-H torsion
[ 10167 10162 10161 10158 ] final  -83.86 input  -65.29 | X-H torsion
[ 10718 10713 10712 10709 ] final   32.52 input   66.30 | X-H torsion
[ 10763 10752 10751 10750 ] final  -89.94 input  -60.55 | X-H torsion
[ 11005 11000 10999 10996 ] final   66.16 input  -57.11 | X-H torsion

> <Gold.Protein.ActiveResidues>
 VAL166  LYS551  ARG553  GLY616  TRP617  ASP618  TYR619  PRO620  LYS621  CYS622 
 ASP623  PHE694  ASN695  SER759  ASP760  ASP761  ALA762  ILE779  LEU786  VAL792 
 PHE793  MET794  SER795  GLU796  ALA797  LYS798  CYS799  TRP800  GLU811  SER814 

> <Gold.Protein.RotatedAtoms>
  150.7101  134.4901  159.5511 H   0  0  0  0  0  0  0  0  0  0  0  0  # atno 6907 bound_to 6896
  152.2520  134.8120  160.0453 H   0  0  0  0  0  0  0  0  0  0  0  0  # atno 6908 bound_to 6896
  151.8864  133.3471  159.3820 H   0  0  0  0  0  0  0  0  0  0  0  0  # atno 6909 bound_to 6896
  146.0985  140.5799  142.8831 H   0  0  0  0  0  0  0  0  0  0  0  0  # atno 7974 bound_to 7965
  155.0774  140.0394  157.2628 H   0  0  0  0  0  0  0  0  0  0  0  0  # atno 8008 bound_to 7997
  154.6934  140.2658  155.6766 H   0  0  0  0  0  0  0  0  0  0  0  0  # atno 8009 bound_to 7997
  156.2736  140.2755  156.1519 H   0  0  0  0  0  0  0  0  0  0  0  0  # atno 8010 bound_to 7997
  140.4187  143.2593  151.8920 H   0  0  0  0  0  0  0  0  0  0  0  0  # atno 10167 bound_to 10162
  157.2862  130.7280  149.6584 H   0  0  0  0  0  0  0  0  0  0  0  0  # atno 10718 bound_to 10713
  154.6605  135.5322  153.8013 H   0  0  0  0  0  0  0  0  0  0  0  0  # atno 10763 bound_to 10752
  153.0439  135.6504  154.0878 H   0  0  0  0  0  0  0  0  0  0  0  0  # atno 10764 bound_to 10752
  154.0787  135.2948  155.3274 H   0  0  0  0  0  0  0  0  0  0  0  0  # atno 10765 bound_to 10752
  139.9849  134.6684  156.0194 H   0  0  0  0  0  0  0  0  0  0  0  0  # atno 11005 bound_to 11000
  144.7414  140.4953  143.6866 LP  0  0  0  0  0  0  0  0  0  0  0  0  # atno 17320 bound_to 7965
  145.5900  139.1495  143.3187 LP  0  0  0  0  0  0  0  0  0  0  0  0  # atno 17321 bound_to 7965
  139.4782  144.5461  151.8456 LP  0  0  0  0  0  0  0  0  0  0  0  0  # atno 17342 bound_to 10162
  140.4558  144.1791  150.5901 LP  0  0  0  0  0  0  0  0  0  0  0  0  # atno 17343 bound_to 10162
  155.9665  130.4323  150.4956 LP  0  0  0  0  0  0  0  0  0  0  0  0  # atno 17370 bound_to 10713
  157.2910  131.0626  151.2134 LP  0  0  0  0  0  0  0  0  0  0  0  0  # atno 17371 bound_to 10713
  141.1516  133.6548  156.4030 LP  0  0  0  0  0  0  0  0  0  0  0  0  # atno 17394 bound_to 11000
  140.5022  134.6475  157.5253 LP  0  0  0  0  0  0  0  0  0  0  0  0  # atno 17395 bound_to 11000

$$$$
