AV-unprocessed.smi:34|AV-procd|sdf|215|dock8
  -GOLD-   2262015523D 1   1.00000     0.00000
 Structure written by MMmdl.
 55 59  0  0  0  0  0  0  0  0  1 V2000
  153.6809  140.0426  158.8907 O   0  0  0  0  0  0  0  0  0  0  0  0
  152.6891  140.7447  158.6914 C   0  0  0  0  0  0  0  0  0  0  0  0
  151.6648  140.3805  157.7287 N   0  0  0  0  0  0  0  0  0  0  0  0
  151.5989  139.2714  156.9557 C   0  0  0  0  0  0  0  0  0  0  0  0
  152.2659  139.1620  155.7769 N   0  0  0  0  0  0  0  0  0  0  0  0
  152.1532  138.0525  155.0419 C   0  0  0  0  0  0  0  0  0  0  0  0
  151.4367  136.9555  155.2943 N   0  0  0  0  0  0  0  0  0  0  0  0
  150.7693  137.0518  156.4800 C   0  0  0  0  0  0  0  0  0  0  0  0
  150.8043  138.1683  157.3620 C   0  0  0  0  0  0  0  0  0  0  0  0
  150.0104  137.9169  158.4726 N   0  0  0  0  0  0  0  0  0  0  0  0
  149.5310  136.7227  158.2524 C   0  0  0  0  0  0  0  0  0  0  0  0
  149.9253  136.1322  157.0720 N   0  0  0  0  0  0  0  0  0  0  0  0
  149.5173  134.7862  156.5608 C   0  0  2  0  0  0  0  0  0  0  0  0
  150.0782  133.8041  157.3860 O   0  0  0  0  0  0  0  0  0  0  0  0
  150.9638  132.9783  156.6308 C   0  0  1  0  0  0  0  0  0  0  0  0
  151.0184  131.5569  157.2052 C   0  0  0  0  0  0  0  0  0  0  0  0
  152.1749  130.9009  156.7110 O   0  0  0  0  0  0  0  0  0  0  0  0
  153.3993  131.3932  156.9796 C   0  0  0  0  0  0  0  0  0  0  0  0
  153.6537  132.0892  157.9647 O   0  0  0  0  0  0  0  0  0  0  0  0
  154.4167  131.0036  155.9606 C   0  0  0  0  0  0  0  0  0  0  0  0
  155.6948  131.6090  155.9900 C   0  0  0  0  0  0  0  0  0  0  0  0
  156.6764  131.2599  155.0420 C   0  0  0  0  0  0  0  0  0  0  0  0
  156.3919  130.3010  154.0525 C   0  0  0  0  0  0  0  0  0  0  0  0
  155.1247  129.6907  154.0127 C   0  0  0  0  0  0  0  0  0  0  0  0
  154.1418  130.0382  154.9601 C   0  0  0  0  0  0  0  0  0  0  0  0
  150.4238  133.0814  155.2050 C   0  0  1  0  0  0  0  0  0  0  0  0
  149.3405  132.3063  155.0909 F   0  0  0  0  0  0  0  0  0  0  0  0
  150.0439  134.5502  155.1381 C   0  0  1  0  0  0  0  0  0  0  0  0
  149.0782  134.7671  154.1290 O   0  0  0  0  0  0  0  0  0  0  0  0
  152.5109  142.0708  159.3719 C   0  0  0  0  0  0  0  0  0  0  0  0
  151.9353  143.1534  158.6693 C   0  0  0  0  0  0  0  0  0  0  0  0
  151.7712  144.4042  159.2958 C   0  0  0  0  0  0  0  0  0  0  0  0
  152.1887  144.5856  160.6277 C   0  0  0  0  0  0  0  0  0  0  0  0
  152.7746  143.5164  161.3314 C   0  0  0  0  0  0  0  0  0  0  0  0
  152.9391  142.2649  160.7059 C   0  0  0  0  0  0  0  0  0  0  0  0
  150.9109  141.0424  157.6150 H   0  0  0  0  0  0  0  0  0  0  0  0
  152.7147  138.0443  154.1193 H   0  0  0  0  0  0  0  0  0  0  0  0
  148.8607  136.2395  158.9484 H   0  0  0  0  0  0  0  0  0  0  0  0
  148.4298  134.7594  156.6415 H   0  0  0  0  0  0  0  0  0  0  0  0
  151.9621  133.4131  156.6670 H   0  0  0  0  0  0  0  0  0  0  0  0
  151.0619  131.5954  158.2943 H   0  0  0  0  0  0  0  0  0  0  0  0
  150.1200  131.0005  156.9339 H   0  0  0  0  0  0  0  0  0  0  0  0
  155.9368  132.3477  156.7408 H   0  0  0  0  0  0  0  0  0  0  0  0
  157.6488  131.7286  155.0750 H   0  0  0  0  0  0  0  0  0  0  0  0
  157.1449  130.0338  153.3256 H   0  0  0  0  0  0  0  0  0  0  0  0
  154.9051  128.9535  153.2545 H   0  0  0  0  0  0  0  0  0  0  0  0
  153.1802  129.5499  154.9012 H   0  0  0  0  0  0  0  0  0  0  0  0
  151.1415  132.7780  154.4422 H   0  0  0  0  0  0  0  0  0  0  0  0
  150.9298  135.1597  154.9548 H   0  0  0  0  0  0  0  0  0  0  0  0
  149.3940  135.4483  153.5551 H   0  0  0  0  0  0  0  0  0  0  0  0
  151.6088  143.0300  157.6464 H   0  0  0  0  0  0  0  0  0  0  0  0
  151.3240  145.2247  158.7538 H   0  0  0  0  0  0  0  0  0  0  0  0
  152.0622  145.5445  161.1084 H   0  0  0  0  0  0  0  0  0  0  0  0
  153.0992  143.6568  162.3518 H   0  0  0  0  0  0  0  0  0  0  0  0
  153.3974  141.4601  161.2622 H   0  0  0  0  0  0  0  0  0  0  0  0
  1  2  2  0  0  0  0
  2  3  1  0  0  0  0
  2 30  1  0  0  0  0
  3  4  1  0  0  0  0
  3 36  1  0  0  0  0
  4  9  1  0  0  0  0
  4  5  2  0  0  0  0
  5  6  1  0  0  0  0
  6  7  2  0  0  0  0
  6 37  1  0  0  0  0
  7  8  1  0  0  0  0
  8 12  1  0  0  0  0
  8  9  2  0  0  0  0
  9 10  1  0  0  0  0
 10 11  2  0  0  0  0
 11 12  1  0  0  0  0
 11 38  1  0  0  0  0
 12 13  1  0  0  0  0
 13 28  1  0  0  0  0
 13 14  1  0  0  0  0
 13 39  1  0  0  0  0
 14 15  1  0  0  0  0
 15 16  1  0  0  0  0
 15 26  1  0  0  0  0
 15 40  1  0  0  0  0
 16 17  1  0  0  0  0
 16 41  1  0  0  0  0
 16 42  1  0  0  0  0
 17 18  1  0  0  0  0
 18 19  2  0  0  0  0
 18 20  1  0  0  0  0
 20 25  1  0  0  0  0
 20 21  2  0  0  0  0
 21 22  1  0  0  0  0
 21 43  1  0  0  0  0
 22 23  2  0  0  0  0
 22 44  1  0  0  0  0
 23 24  1  0  0  0  0
 23 45  1  0  0  0  0
 24 25  2  0  0  0  0
 24 46  1  0  0  0  0
 25 47  1  0  0  0  0
 26 27  1  0  0  0  0
 26 28  1  0  0  0  0
 26 48  1  0  0  0  0
 28 29  1  0  0  0  0
 28 49  1  0  0  0  0
 29 50  1  0  0  0  0
 30 35  1  0  0  0  0
 30 31  2  0  0  0  0
 31 32  1  0  0  0  0
 31 51  1  0  0  0  0
 32 33  2  0  0  0  0
 32 52  1  0  0  0  0
 33 34  1  0  0  0  0
 33 53  1  0  0  0  0
 34 35  2  0  0  0  0
 34 54  1  0  0  0  0
 35 55  1  0  0  0  0
M  END
> <s_m_source_file>
AV-unprocessed.smi

> <i_m_source_file_index>
34

> <i_lp_mmshare_version>
43012

> <i_f3d_flags>
0

> <s_epik_input>
W2NIXTFbY0hdW2NIXVtjSF1bY0hdYzFDKD1PKVtOSF1jKG5bY0hdbjIpYyhjMjMpbltjSF1uM1tDQEBIXTRPW0NASF0oW0NAQEhdKEYpW0NASF00W09IXSlbQ0gyXU9DKD1PKWM1W2NIXVtjSF1bY0hdW2NIXVtjSF01

> <s_epik_cmdline>
J2VwaWtfcHl0aG9uJywgJy1waCcsICc3LjAnLCAnLXRuJywgJzgnLCAnLW1hJywgJzIwMCcsICctbWV0YWxfYmluZGluZycsICctaW1hZScsICc8aW5maWxlLm1hZT4nLCAnLW9tYWUnLCAnPG91dGZpbGUubWFlPic=

> <r_lp_tautomer_probability>
1

> <r_epik_Ionization_Penalty>
0.00257489

> <r_epik_Ionization_Penalty_Charging>
0

> <r_epik_Ionization_Penalty_Neutral>
0.00257489

> <r_epik_State_Penalty>
0.00519398

> <r_epik_Charging_Adjusted_Penalty>
0.00519398

> <i_epik_Tot_Q>
0

> <i_epik_Tot_abs_Q>
0

> <r_epik_Metal_State_Penalty>
0.335891

> <b_epik_Metal_Only>
0

> <s_epik_Chemistry_Notes>
This compound has an ester and may undergo hydrolysis at high or low pH. This compound contains an acetal/aminal-like group ( X-CH(R)-Y where X, Y are N, S, or O) that may be acid/base labile, releasing an aldehyde.

> <s_lp_Force_Field>
OPLS_2005

> <r_lp_Energy>
46.7099

> <b_lp_Chiralities_Consistent>
1

> <s_lp_Variant>
AV-unprocessed.smi:34-1

> <Gold.Version>
5.8.1

> <Gold.Id.Protein>
6NUR|6NUR_protein|mol2

> <Gold.PLP.Fitness>
61.0012

> <Gold.PLP.PLP>
-54.8395

> <Gold.PLP.part.hbond>
-3.7030

> <Gold.PLP.part.metal>
0.0000

> <Gold.PLP.part.buried>
-8.6346

> <Gold.PLP.part.nonpolar>
-41.8048

> <Gold.PLP.part.repulsive>
0.1603

> <Gold.PLP.ligand.clash>
0.0000

> <Gold.PLP.ligand.torsion>
1.9102

> <Gold.PLP.Chemscore.Hbond>
3.2218

> <Gold.PLP.Chemscore.CHOScore>
0.0000

> <Gold.PLP.Chemscore.Metal>
0.0000

> <Gold.Chemscore.Hbonds>
donor molecule, donor type, donor heavy atom, donor atom, acceptor molecule, acceptor atom, score
      L1  H    29    50       P1  7948  0.74
      P1  H  6896  6907       L1    14  0.96
      P1  H  7997  8008       L1     1  1.00
      P1  H 10752 10765       L1     7  0.48

> <Gold.PLP.Chemscore.Internal.Correction>
0.3168

> <Gold.Rescore>
     Score         DG    S(hbond)    S(metal)    S(lipo)     H(rot)  DE(clash)    DE(int)     intcor
     16.70     -20.14       2.10        0.00     125.03       2.72       0.15       3.29       ----

> <Gold.Chemscore.Fitness>
16.7035

> <Gold.Chemscore.DG>
-20.1434

> <Gold.Chemscore.ZeroCoef>
-5.4800

> <Gold.Chemscore.Hbond>
2.0965

> <Gold.Chemscore.Metal>
0.0000

> <Gold.Chemscore.Lipo>
125.0262

> <Gold.Chemscore.Internal_Hbond>
0.0000

> <Gold.Chemscore.DEClash>
0.1521

> <Gold.Chemscore.DEInternal>
3.2878

> <Gold.Chemscore.Rot>
2.7215

> <Gold.Chemscore.Internal.Correction>
   9.000000E+99

> <Gold.Chemscore.Hbonds>
donor molecule, donor type, donor heavy atom, donor atom, acceptor molecule, acceptor atom, score
      L1  H    29    50       P1  7948  0.17
      P1  H  6896  6907       L1    14  0.30
      P1  H  7997  8008       L1     1  0.59
      P1  H 10752 10765       L1     7  0.05

> <Gold.Chemscore.Hbond.Weighted>
-7.0023

> <Gold.Chemscore.Metal.Weighted>
-0.0000

> <Gold.Chemscore.Lipo.Weighted>
-14.6281

> <Gold.Chemscore.Internal_Hbond.Weighted>
0.0000

> <Gold.Chemscore.DEClash.Weighted>
0.1521

> <Gold.Chemscore.DEInternal.Weighted>
3.2878

> <Gold.Chemscore.Rot.Weighted>
6.9670

> <Gold.Chemscore.Internal.Correction.Weighted>
   9.000000E+99

> <Gold.Protein.RotatedTorsions>
[ 6907 6896 6895 6894 ] final -127.90 input  -60.11 | X-H torsion
[ 7974 7965 7964 7962 ] final   59.58 input  175.53 | X-H torsion
[ 8008 7997 7996 7995 ] final  -99.99 input   59.86 | X-H torsion
[ 10167 10162 10161 10158 ] final  -97.25 input  -65.29 | X-H torsion
[ 10718 10713 10712 10709 ] final -140.15 input   66.30 | X-H torsion
[ 10763 10752 10751 10750 ] final  172.92 input  -60.55 | X-H torsion
[ 11005 11000 10999 10996 ] final -167.08 input  -57.11 | X-H torsion

> <Gold.Protein.ActiveResidues>
 VAL166  LYS551  ARG553  GLY616  TRP617  ASP618  TYR619  PRO620  LYS621  CYS622 
 ASP623  PHE694  ASN695  SER759  ASP760  ASP761  ALA762  ILE779  LEU786  VAL792 
 PHE793  MET794  SER795  GLU796  ALA797  LYS798  CYS799  TRP800  GLU811  SER814 

> <Gold.Protein.RotatedAtoms>
  150.9122  133.6983  159.2851 H   0  0  0  0  0  0  0  0  0  0  0  0  # atno 6907 bound_to 6896
  151.4466  135.1024  159.9695 H   0  0  0  0  0  0  0  0  0  0  0  0  # atno 6908 bound_to 6896
  152.4936  133.8518  159.7260 H   0  0  0  0  0  0  0  0  0  0  0  0  # atno 6909 bound_to 6896
  145.9056  139.3614  143.0566 H   0  0  0  0  0  0  0  0  0  0  0  0  # atno 7974 bound_to 7965
  154.8224  140.0444  157.1420 H   0  0  0  0  0  0  0  0  0  0  0  0  # atno 8008 bound_to 7997
  154.9245  140.3031  155.5179 H   0  0  0  0  0  0  0  0  0  0  0  0  # atno 8009 bound_to 7997
  156.2981  140.2334  156.4298 H   0  0  0  0  0  0  0  0  0  0  0  0  # atno 8010 bound_to 7997
  140.2853  143.3255  152.0400 H   0  0  0  0  0  0  0  0  0  0  0  0  # atno 10167 bound_to 10162
  156.3190  130.7523  151.1617 H   0  0  0  0  0  0  0  0  0  0  0  0  # atno 10718 bound_to 10713
  154.4329  135.2760  155.1900 H   0  0  0  0  0  0  0  0  0  0  0  0  # atno 10763 bound_to 10752
  154.3799  135.6090  153.5788 H   0  0  0  0  0  0  0  0  0  0  0  0  # atno 10764 bound_to 10752
  152.9837  135.5877  154.4643 H   0  0  0  0  0  0  0  0  0  0  0  0  # atno 10765 bound_to 10752
  140.5572  134.5369  157.5135 H   0  0  0  0  0  0  0  0  0  0  0  0  # atno 11005 bound_to 11000
  145.8736  140.9405  143.0638 LP  0  0  0  0  0  0  0  0  0  0  0  0  # atno 17320 bound_to 7965
  144.6739  140.0687  143.7473 LP  0  0  0  0  0  0  0  0  0  0  0  0  # atno 17321 bound_to 7965
  139.4952  144.6563  151.6565 LP  0  0  0  0  0  0  0  0  0  0  0  0  # atno 17342 bound_to 10162
  140.5777  143.9999  150.6251 LP  0  0  0  0  0  0  0  0  0  0  0  0  # atno 17343 bound_to 10162
  157.7408  131.0513  150.5144 LP  0  0  0  0  0  0  0  0  0  0  0  0  # atno 17370 bound_to 10713
  156.5293  130.4181  149.6210 LP  0  0  0  0  0  0  0  0  0  0  0  0  # atno 17371 bound_to 10713
  139.9425  134.7760  156.0642 LP  0  0  0  0  0  0  0  0  0  0  0  0  # atno 17394 bound_to 11000
  141.1136  133.6635  156.3039 LP  0  0  0  0  0  0  0  0  0  0  0  0  # atno 17395 bound_to 11000

$$$$
