AV-unprocessed.smi:411|AV-procd|sdf|2509|dock10
  -GOLD-   2262022463D 1   1.00000     0.00000
 Structure written by MMmdl.
 35 36  0  0  0  0  0  0  0  0  1 V2000
  148.2685  138.4121  155.3678 O   0  0  0  0  0  0  0  0  0  0  0  0
  148.1036  139.1575  154.4011 C   0  0  0  0  0  0  0  0  0  0  0  0
  146.7032  139.4010  153.8192 C   0  0  0  0  0  0  0  0  0  0  0  0
  146.1946  138.2753  153.0159 N   0  0  0  0  0  0  0  0  0  0  0  0
  146.5615  138.2466  151.6587 C   0  0  0  0  0  0  0  0  0  0  0  0
  146.1555  137.2680  150.8385 C   0  0  0  0  0  0  0  0  0  0  0  0
  145.3215  136.2244  151.3824 C   0  0  0  0  0  0  0  0  0  0  0  0
  144.9470  136.2279  152.6827 C   0  0  0  0  0  0  0  0  0  0  0  0
  144.0684  135.1288  153.2753 C   0  0  0  0  0  0  0  0  0  0  0  0
  144.6997  134.5082  154.2728 F   0  0  0  0  0  0  0  0  0  0  0  0
  142.9361  135.6441  153.7555 F   0  0  0  0  0  0  0  0  0  0  0  0
  143.7444  134.2094  152.3648 F   0  0  0  0  0  0  0  0  0  0  0  0
  145.3970  137.3143  153.5771 C   0  0  0  0  0  0  0  0  0  0  0  0
  145.0781  137.3647  154.7664 O   0  0  0  0  0  0  0  0  0  0  0  0
  149.1079  139.8167  153.8038 N   0  0  0  0  0  0  0  0  0  0  0  0
  150.5149  139.7380  154.1880 C   0  0  1  0  0  0  0  0  0  0  0  0
  150.7369  140.3122  155.6145 C   0  0  0  0  0  0  0  0  0  0  0  0
  151.3870  139.2696  156.5368 C   0  0  0  0  0  0  0  0  0  0  0  0
  152.2755  138.1302  155.4283 S   0  0  0  0  0  0  0  0  0  0  0  0
  153.5260  138.7720  154.9956 O   0  0  0  0  0  0  0  0  0  0  0  0
  152.2653  136.7661  155.9779 O   0  0  0  0  0  0  0  0  0  0  0  0
  151.0426  138.2911  154.0965 C   0  0  0  0  0  0  0  0  0  0  0  0
  146.0254  139.6154  154.6466 H   0  0  0  0  0  0  0  0  0  0  0  0
  146.7164  140.3135  153.2203 H   0  0  0  0  0  0  0  0  0  0  0  0
  147.1814  139.0679  151.3295 H   0  0  0  0  0  0  0  0  0  0  0  0
  146.4424  137.2623  149.7973 H   0  0  0  0  0  0  0  0  0  0  0  0
  144.9981  135.4319  150.7240 H   0  0  0  0  0  0  0  0  0  0  0  0
  148.8830  140.4103  153.0186 H   0  0  0  0  0  0  0  0  0  0  0  0
  151.0966  140.3549  153.5000 H   0  0  0  0  0  0  0  0  0  0  0  0
  151.4013  141.1739  155.5400 H   0  0  0  0  0  0  0  0  0  0  0  0
  149.8127  140.6847  156.0585 H   0  0  0  0  0  0  0  0  0  0  0  0
  152.0715  139.7019  157.2669 H   0  0  0  0  0  0  0  0  0  0  0  0
  150.6258  138.6950  157.0650 H   0  0  0  0  0  0  0  0  0  0  0  0
  150.2520  137.5663  154.2948 H   0  0  0  0  0  0  0  0  0  0  0  0
  151.4948  138.0584  153.1321 H   0  0  0  0  0  0  0  0  0  0  0  0
  1  2  2  0  0  0  0
  2  3  1  0  0  0  0
  2 15  1  0  0  0  0
  3  4  1  0  0  0  0
  3 23  1  0  0  0  0
  3 24  1  0  0  0  0
  4 13  1  0  0  0  0
  4  5  1  0  0  0  0
  5  6  2  0  0  0  0
  5 25  1  0  0  0  0
  6  7  1  0  0  0  0
  6 26  1  0  0  0  0
  7  8  2  0  0  0  0
  7 27  1  0  0  0  0
  8  9  1  0  0  0  0
  8 13  1  0  0  0  0
  9 10  1  0  0  0  0
  9 11  1  0  0  0  0
  9 12  1  0  0  0  0
 13 14  2  0  0  0  0
 15 16  1  0  0  0  0
 15 28  1  0  0  0  0
 16 22  1  0  0  0  0
 16 17  1  0  0  0  0
 16 29  1  0  0  0  0
 17 18  1  0  0  0  0
 17 30  1  0  0  0  0
 17 31  1  0  0  0  0
 18 19  1  0  0  0  0
 18 32  1  0  0  0  0
 18 33  1  0  0  0  0
 19 20  2  0  0  0  0
 19 21  2  0  0  0  0
 19 22  1  0  0  0  0
 22 34  1  0  0  0  0
 22 35  1  0  0  0  0
M  END
> <s_m_source_file>
AV-unprocessed.smi

> <i_m_source_file_index>
411

> <i_lp_mmshare_version>
43012

> <i_f3d_flags>
0

> <s_epik_input>
Tz1TMSg9TylbQ0gyXVtDSDJdW0NASF0oW0NIMl0xKVtOSF1DKD1PKVtDSDJdbjJbY0hdW2NIXVtjSF1jKEMoRikoRilGKWMyPU8=

> <s_epik_cmdline>
J2VwaWtfcHl0aG9uJywgJy1waCcsICc3LjAnLCAnLXRuJywgJzgnLCAnLW1hJywgJzIwMCcsICctbWV0YWxfYmluZGluZycsICctaW1hZScsICc8aW5maWxlLm1hZT4nLCAnLW9tYWUnLCAnPG91dGZpbGUubWFlPic=

> <r_lp_tautomer_probability>
1

> <r_epik_Ionization_Penalty>
1.08759e-07

> <r_epik_Ionization_Penalty_Charging>
1.56656e-09

> <r_epik_Ionization_Penalty_Neutral>
1.07193e-07

> <r_epik_State_Penalty>
-0

> <r_epik_Charging_Adjusted_Penalty>
1.56656e-09

> <i_epik_Tot_Q>
0

> <i_epik_Tot_abs_Q>
0

> <r_epik_Metal_State_Penalty>
-0

> <b_epik_Metal_Only>
0

> <s_lp_Force_Field>
OPLS_2005

> <r_lp_Energy>
15.8783

> <b_lp_Chiralities_Consistent>
1

> <s_lp_Variant>
AV-unprocessed.smi:411-2

> <Gold.Version>
5.8.1

> <Gold.Id.Protein>
6NUR|6NUR_protein|mol2

> <Gold.PLP.Fitness>
38.8338

> <Gold.PLP.PLP>
-29.6863

> <Gold.PLP.part.hbond>
-3.0000

> <Gold.PLP.part.metal>
0.0000

> <Gold.PLP.part.buried>
4.6461

> <Gold.PLP.part.nonpolar>
-30.8908

> <Gold.PLP.part.repulsive>
0.2444

> <Gold.PLP.ligand.clash>
0.3299

> <Gold.PLP.ligand.torsion>
0.5618

> <Gold.PLP.Chemscore.Hbond>
2.4201

> <Gold.PLP.Chemscore.CHOScore>
1.0000

> <Gold.PLP.Chemscore.Metal>
0.0000

> <Gold.Chemscore.Hbonds>
donor molecule, donor type, donor heavy atom, donor atom, acceptor molecule, acceptor atom, score
      L1  H    15    28       P1  7957  0.45
      P1  H  7997  8010       L1    20  0.98
      P1  H 10752 10764       L1    21  1.00
      L1  C     5    25       P1  7957  0.90

> <Gold.PLP.Chemscore.Internal.Correction>
0.3407

> <Gold.Rescore>
     Score         DG    S(hbond)    S(metal)    S(lipo)     H(rot)  DE(clash)    DE(int)     intcor
      9.98     -16.49       2.23        0.00      68.16       1.73       2.91       3.60       ----

> <Gold.Chemscore.Fitness>
9.9764

> <Gold.Chemscore.DG>
-16.4871

> <Gold.Chemscore.ZeroCoef>
-5.4800

> <Gold.Chemscore.Hbond>
2.2348

> <Gold.Chemscore.Metal>
0.0000

> <Gold.Chemscore.Lipo>
68.1640

> <Gold.Chemscore.Internal_Hbond>
0.0000

> <Gold.Chemscore.DEClash>
2.9060

> <Gold.Chemscore.DEInternal>
3.6047

> <Gold.Chemscore.Rot>
1.7314

> <Gold.Chemscore.Internal.Correction>
   9.000000E+99

> <Gold.Chemscore.Hbonds>
donor molecule, donor type, donor heavy atom, donor atom, acceptor molecule, acceptor atom, score
      L1  H    15    28       P1  7957  0.41
      P1  H  7997  8010       L1    20  0.93
      P1  H 10752 10764       L1    21  0.91

> <Gold.Chemscore.Hbond.Weighted>
-7.4643

> <Gold.Chemscore.Metal.Weighted>
-0.0000

> <Gold.Chemscore.Lipo.Weighted>
-7.9752

> <Gold.Chemscore.Internal_Hbond.Weighted>
0.0000

> <Gold.Chemscore.DEClash.Weighted>
2.9060

> <Gold.Chemscore.DEInternal.Weighted>
3.6047

> <Gold.Chemscore.Rot.Weighted>
4.4324

> <Gold.Chemscore.Internal.Correction.Weighted>
   9.000000E+99

> <Gold.Protein.RotatedTorsions>
[ 6907 6896 6895 6894 ] final  -23.82 input  -60.11 | X-H torsion
[ 7974 7965 7964 7962 ] final -129.63 input  175.53 | X-H torsion
[ 8008 7997 7996 7995 ] final  111.28 input   59.86 | X-H torsion
[ 10167 10162 10161 10158 ] final  -76.48 input  -65.29 | X-H torsion
[ 10718 10713 10712 10709 ] final -130.22 input   66.30 | X-H torsion
[ 10763 10752 10751 10750 ] final  -31.12 input  -60.55 | X-H torsion
[ 11005 11000 10999 10996 ] final  -93.46 input  -57.11 | X-H torsion

> <Gold.Protein.ActiveResidues>
 VAL166  LYS551  ARG553  GLY616  TRP617  ASP618  TYR619  PRO620  LYS621  CYS622 
 ASP623  PHE694  ASN695  SER759  ASP760  ASP761  ALA762  ILE779  LEU786  VAL792 
 PHE793  MET794  SER795  GLU796  ALA797  LYS798  CYS799  TRP800  GLU811  SER814 

> <Gold.Protein.RotatedAtoms>
  151.1984  135.0432  159.8861 H   0  0  0  0  0  0  0  0  0  0  0  0  # atno 6907 bound_to 6896
  152.5434  134.0877  159.8273 H   0  0  0  0  0  0  0  0  0  0  0  0  # atno 6908 bound_to 6896
  151.1015  133.5193  159.2642 H   0  0  0  0  0  0  0  0  0  0  0  0  # atno 6909 bound_to 6896
  144.9553  140.7389  143.4762 H   0  0  0  0  0  0  0  0  0  0  0  0  # atno 7974 bound_to 7965
  156.2113  140.3022  155.9738 H   0  0  0  0  0  0  0  0  0  0  0  0  # atno 8008 bound_to 7997
  155.2717  140.0434  157.3024 H   0  0  0  0  0  0  0  0  0  0  0  0  # atno 8009 bound_to 7997
  154.5703  140.2346  155.8210 H   0  0  0  0  0  0  0  0  0  0  0  0  # atno 8010 bound_to 7997
  140.4854  143.2392  151.7993 H   0  0  0  0  0  0  0  0  0  0  0  0  # atno 10167 bound_to 10162
  156.2123  130.6926  151.0664 H   0  0  0  0  0  0  0  0  0  0  0  0  # atno 10718 bound_to 10713
  153.7921  135.6897  153.4869 H   0  0  0  0  0  0  0  0  0  0  0  0  # atno 10763 bound_to 10752
  153.1742  135.4531  154.9942 H   0  0  0  0  0  0  0  0  0  0  0  0  # atno 10764 bound_to 10752
  154.8040  135.3349  154.7417 H   0  0  0  0  0  0  0  0  0  0  0  0  # atno 10765 bound_to 10752
  141.1496  133.7889  157.0162 H   0  0  0  0  0  0  0  0  0  0  0  0  # atno 11005 bound_to 11000
  145.2782  139.1928  143.4805 LP  0  0  0  0  0  0  0  0  0  0  0  0  # atno 17320 bound_to 7965
  146.3335  140.2739  142.8607 LP  0  0  0  0  0  0  0  0  0  0  0  0  # atno 17321 bound_to 7965
  139.4841  144.4719  151.9414 LP  0  0  0  0  0  0  0  0  0  0  0  0  # atno 17342 bound_to 10162
  140.3805  144.2742  150.5909 LP  0  0  0  0  0  0  0  0  0  0  0  0  # atno 17343 bound_to 10162
  157.7045  131.0762  150.6712 LP  0  0  0  0  0  0  0  0  0  0  0  0  # atno 17370 bound_to 10713
  156.6772  130.4556  149.5639 LP  0  0  0  0  0  0  0  0  0  0  0  0  # atno 17371 bound_to 10713
  140.0845  134.9629  157.1678 LP  0  0  0  0  0  0  0  0  0  0  0  0  # atno 17394 bound_to 11000
  140.3530  134.2577  155.7196 LP  0  0  0  0  0  0  0  0  0  0  0  0  # atno 17395 bound_to 11000

$$$$
