AV-unprocessed.smi:2245|AV-procd|sdf|9078|dock3
  -GOLD-   2272012283D 1   1.00000     0.00000
 Structure written by MMmdl.
 45 46  0  0  0  0  0  0  0  0  2 V2000
  152.2568  145.8933  160.2065 C   0  0  0  0  0  0  0  0  0  0  0  0
  152.1729  144.5197  159.5748 C   0  0  0  0  0  0  0  0  0  0  0  0
  152.9360  143.4478  160.0759 C   0  0  0  0  0  0  0  0  0  0  0  0
  152.8117  142.1927  159.4485 C   0  0  0  0  0  0  0  0  0  0  0  0
  153.6021  140.9962  159.9350 C   0  0  0  0  0  0  0  0  0  0  0  0
  151.9965  141.9735  158.3948 N   0  0  0  0  0  0  0  0  0  0  0  0
  151.2569  142.9986  157.9034 C   0  0  0  0  0  0  0  0  0  0  0  0
  150.3695  142.8720  156.8017 N   0  0  0  0  0  0  0  0  0  0  0  0
  150.1058  141.7751  156.0699 C   0  0  0  0  0  0  0  0  0  0  0  0
  150.6255  140.6698  156.2268 O   0  0  0  0  0  0  0  0  0  0  0  0
  149.1825  142.0277  155.1307 N   0  0  0  0  0  0  0  0  0  0  0  0
  148.6666  141.0508  154.1769 C   0  0  0  0  0  0  0  0  0  0  0  0
  147.1336  141.1268  154.0299 C   0  0  2  0  0  0  0  0  0  0  0  0
  146.5504  142.5149  154.2886 C   0  0  0  0  0  0  0  0  0  0  0  0
  145.0888  142.2536  154.6783 C   0  0  0  0  0  0  0  0  0  0  0  0
  144.9794  140.8090  154.9949 N   0  3  2  0  0  0  0  0  0  0  0  0
  144.1744  140.4760  156.1949 C   0  0  0  0  0  0  0  0  0  0  0  0
  143.5083  139.0925  156.0944 C   0  0  0  0  0  0  0  0  0  0  0  0
  142.6759  139.0855  155.0545 F   0  0  0  0  0  0  0  0  0  0  0  0
  144.4145  138.1315  155.9175 F   0  0  0  0  0  0  0  0  0  0  0  0
  142.8112  138.8404  157.2022 F   0  0  0  0  0  0  0  0  0  0  0  0
  146.3493  140.2593  155.0141 C   0  0  0  0  0  0  0  0  0  0  0  0
  151.3226  144.2894  158.4743 C   0  0  0  0  0  0  0  0  0  0  0  0
  153.1546  145.9906  160.8177 H   0  0  0  0  0  0  0  0  0  0  0  0
  151.3882  146.0686  160.8416 H   0  0  0  0  0  0  0  0  0  0  0  0
  152.2841  146.6668  159.4386 H   0  0  0  0  0  0  0  0  0  0  0  0
  153.5980  143.5839  160.9188 H   0  0  0  0  0  0  0  0  0  0  0  0
  154.2599  141.2654  160.7619 H   0  0  0  0  0  0  0  0  0  0  0  0
  154.2165  140.5937  159.1290 H   0  0  0  0  0  0  0  0  0  0  0  0
  152.9277  140.2110  160.2783 H   0  0  0  0  0  0  0  0  0  0  0  0
  149.8703  143.7120  156.5501 H   0  0  0  0  0  0  0  0  0  0  0  0
  148.8148  142.9658  155.0660 H   0  0  0  0  0  0  0  0  0  0  0  0
  149.1458  141.2374  153.2152 H   0  0  0  0  0  0  0  0  0  0  0  0
  148.9676  140.0469  154.4812 H   0  0  0  0  0  0  0  0  0  0  0  0
  146.8530  140.8310  153.0175 H   0  0  0  0  0  0  0  0  0  0  0  0
  147.0682  142.9893  155.1236 H   0  0  0  0  0  0  0  0  0  0  0  0
  146.6420  143.1744  153.4250 H   0  0  0  0  0  0  0  0  0  0  0  0
  144.8050  142.8841  155.5220 H   0  0  0  0  0  0  0  0  0  0  0  0
  144.4149  142.4827  153.8522 H   0  0  0  0  0  0  0  0  0  0  0  0
  144.8388  140.4728  157.0604 H   0  0  0  0  0  0  0  0  0  0  0  0
  143.4319  141.2540  156.3783 H   0  0  0  0  0  0  0  0  0  0  0  0
  146.3580  139.2031  154.7426 H   0  0  0  0  0  0  0  0  0  0  0  0
  146.7717  140.3560  156.0161 H   0  0  0  0  0  0  0  0  0  0  0  0
  150.7269  145.0977  158.0746 H   0  0  0  0  0  0  0  0  0  0  0  0
  144.5231  140.3794  154.2024 H   0  0  0  0  0  0  0  0  0  0  0  0
  1  2  1  0  0  0  0
  1 24  1  0  0  0  0
  1 25  1  0  0  0  0
  1 26  1  0  0  0  0
  2 23  1  0  0  0  0
  2  3  2  0  0  0  0
  3  4  1  0  0  0  0
  3 27  1  0  0  0  0
  4  5  1  0  0  0  0
  4  6  2  0  0  0  0
  5 28  1  0  0  0  0
  5 29  1  0  0  0  0
  5 30  1  0  0  0  0
  6  7  1  0  0  0  0
  7  8  1  0  0  0  0
  7 23  2  0  0  0  0
  8  9  1  0  0  0  0
  8 31  1  0  0  0  0
  9 10  2  0  0  0  0
  9 11  1  0  0  0  0
 11 12  1  0  0  0  0
 11 32  1  0  0  0  0
 12 13  1  0  0  0  0
 12 33  1  0  0  0  0
 12 34  1  0  0  0  0
 13 22  1  0  0  0  0
 13 14  1  0  0  0  0
 13 35  1  0  0  0  0
 14 15  1  0  0  0  0
 14 36  1  0  0  0  0
 14 37  1  0  0  0  0
 15 16  1  0  0  0  0
 15 38  1  0  0  0  0
 15 39  1  0  0  0  0
 16 17  1  0  0  0  0
 16 22  1  0  0  0  0
 16 45  1  0  0  0  0
 17 18  1  0  0  0  0
 17 40  1  0  0  0  0
 17 41  1  0  0  0  0
 18 19  1  0  0  0  0
 18 20  1  0  0  0  0
 18 21  1  0  0  0  0
 22 42  1  0  0  0  0
 22 43  1  0  0  0  0
 23 44  1  0  0  0  0
M  CHG  1  16   1
M  END
> <s_m_source_file>
AV-unprocessed.smi

> <i_m_source_file_index>
2245

> <i_lp_mmshare_version>
43012

> <i_f3d_flags>
0

> <s_epik_input>
W0NIM11jMVtjSF1jKFtDSDNdKW5jKFtjSF0xKVtOSF1DKD1PKVtOSF1bQ0gyXVtDQEBIXTJbQ0gyXVtDSDJdTihbQ0gyXTIpW0NIMl1DKEYpKEYpRg==

> <s_epik_cmdline>
J2VwaWtfcHl0aG9uJywgJy1waCcsICc3LjAnLCAnLXRuJywgJzgnLCAnLW1hJywgJzIwMCcsICctbWV0YWxfYmluZGluZycsICctaW1hZScsICc8aW5maWxlLm1hZT4nLCAnLW9tYWUnLCAnPG91dGZpbGUubWFlPic=

> <r_epik_Ionization_Penalty>
0.628315

> <r_epik_Ionization_Penalty_Charging>
0.628113

> <r_epik_Ionization_Penalty_Neutral>
0.000202271

> <r_epik_State_Penalty>
0.644725

> <r_epik_Charging_Adjusted_Penalty>
1.27284

> <i_epik_Tot_Q>
1

> <i_epik_Tot_abs_Q>
1

> <r_epik_Metal_State_Penalty>
0.644752

> <b_epik_Metal_Only>
0

> <s_lp_Force_Field>
OPLS_2005

> <r_lp_Energy>
28.9213

> <b_lp_Chiralities_Consistent>
1

> <s_lp_Variant>
AV-unprocessed.smi:2245-3

> <Gold.Version>
5.8.1

> <Gold.Id.Protein>
6NUR|6NUR_protein|mol2

> <Gold.PLP.Fitness>
51.5241

> <Gold.PLP.PLP>
-40.6752

> <Gold.PLP.part.hbond>
-3.0000

> <Gold.PLP.part.metal>
0.0000

> <Gold.PLP.part.buried>
-4.2951

> <Gold.PLP.part.nonpolar>
-34.1171

> <Gold.PLP.part.repulsive>
0.2593

> <Gold.PLP.ligand.clash>
0.0000

> <Gold.PLP.ligand.torsion>
0.7855

> <Gold.PLP.Chemscore.Hbond>
3.9760

> <Gold.PLP.Chemscore.CHOScore>
0.0000

> <Gold.PLP.Chemscore.Metal>
0.0000

> <Gold.Chemscore.Hbonds>
donor molecule, donor type, donor heavy atom, donor atom, acceptor molecule, acceptor atom, score
      L1  H     8    31       P1  8028  1.00
      L1  H    11    32       P1  8028  0.98
      L1  H    16    45       P1 10175  2.00

> <Gold.PLP.Chemscore.Internal.Correction>
0.4919

> <Gold.Rescore>
     Score         DG    S(hbond)    S(metal)    S(lipo)     H(rot)  DE(clash)    DE(int)     intcor
     19.07     -21.72       2.81        0.00      93.75       1.61       0.35       2.30       ----

> <Gold.Chemscore.Fitness>
19.0707

> <Gold.Chemscore.DG>
-21.7161

> <Gold.Chemscore.ZeroCoef>
-5.4800

> <Gold.Chemscore.Hbond>
2.8143

> <Gold.Chemscore.Metal>
0.0000

> <Gold.Chemscore.Lipo>
93.7513

> <Gold.Chemscore.Internal_Hbond>
0.0000

> <Gold.Chemscore.DEClash>
0.3490

> <Gold.Chemscore.DEInternal>
2.2964

> <Gold.Chemscore.Rot>
1.6143

> <Gold.Chemscore.Internal.Correction>
   9.000000E+99

> <Gold.Chemscore.Hbonds>
donor molecule, donor type, donor heavy atom, donor atom, acceptor molecule, acceptor atom, score
      L1  H     8    31       P1  8028  0.99
      L1  H    11    32       P1  8028  0.93
      L1  H    16    45       P1 10175  0.95

> <Gold.Chemscore.Hbond.Weighted>
-9.3997

> <Gold.Chemscore.Metal.Weighted>
-0.0000

> <Gold.Chemscore.Lipo.Weighted>
-10.9689

> <Gold.Chemscore.Internal_Hbond.Weighted>
0.0000

> <Gold.Chemscore.DEClash.Weighted>
0.3490

> <Gold.Chemscore.DEInternal.Weighted>
2.2964

> <Gold.Chemscore.Rot.Weighted>
4.1325

> <Gold.Chemscore.Internal.Correction.Weighted>
   9.000000E+99

> <Gold.Protein.RotatedTorsions>
[ 6907 6896 6895 6894 ] final  -64.33 input  -60.11 | X-H torsion
[ 7974 7965 7964 7962 ] final  101.65 input  175.53 | X-H torsion
[ 8008 7997 7996 7995 ] final  -52.11 input   59.86 | X-H torsion
[ 10167 10162 10161 10158 ] final  159.56 input  -65.29 | X-H torsion
[ 10718 10713 10712 10709 ] final   -9.54 input   66.30 | X-H torsion
[ 10763 10752 10751 10750 ] final -114.93 input  -60.55 | X-H torsion
[ 11005 11000 10999 10996 ] final   49.95 input  -57.11 | X-H torsion

> <Gold.Protein.ActiveResidues>
 VAL166  LYS551  ARG553  GLY616  TRP617  ASP618  TYR619  PRO620  LYS621  CYS622 
 ASP623  PHE694  ASN695  SER759  ASP760  ASP761  ALA762  ILE779  LEU786  VAL792 
 PHE793  MET794  SER795  GLU796  ALA797  LYS798  CYS799  TRP800  GLU811  SER814 

> <Gold.Protein.RotatedAtoms>
  150.7592  134.6312  159.6187 H   0  0  0  0  0  0  0  0  0  0  0  0  # atno 6907 bound_to 6896
  152.3589  134.6897  160.0222 H   0  0  0  0  0  0  0  0  0  0  0  0  # atno 6908 bound_to 6896
  151.7294  133.3281  159.3372 H   0  0  0  0  0  0  0  0  0  0  0  0  # atno 6909 bound_to 6896
  145.3695  139.2401  143.3463 H   0  0  0  0  0  0  0  0  0  0  0  0  # atno 7974 bound_to 7965
  154.4098  140.1232  156.4937 H   0  0  0  0  0  0  0  0  0  0  0  0  # atno 8008 bound_to 7997
  155.6964  140.3495  155.4895 H   0  0  0  0  0  0  0  0  0  0  0  0  # atno 8009 bound_to 7997
  155.9424  140.1089  157.1035 H   0  0  0  0  0  0  0  0  0  0  0  0  # atno 8010 bound_to 7997
  139.4833  144.4718  151.8565 H   0  0  0  0  0  0  0  0  0  0  0  0  # atno 10167 bound_to 10162
  156.6865  130.5052  149.5956 H   0  0  0  0  0  0  0  0  0  0  0  0  # atno 10718 bound_to 10713
  154.8461  135.4400  154.1584 H   0  0  0  0  0  0  0  0  0  0  0  0  # atno 10763 bound_to 10752
  153.2727  135.6946  153.7471 H   0  0  0  0  0  0  0  0  0  0  0  0  # atno 10764 bound_to 10752
  153.6705  135.3419  155.3127 H   0  0  0  0  0  0  0  0  0  0  0  0  # atno 10765 bound_to 10752
  140.1059  134.5019  155.8720 H   0  0  0  0  0  0  0  0  0  0  0  0  # atno 11005 bound_to 11000
  146.2892  140.4343  142.8746 LP  0  0  0  0  0  0  0  0  0  0  0  0  # atno 17320 bound_to 7965
  144.8587  140.7108  143.6121 LP  0  0  0  0  0  0  0  0  0  0  0  0  # atno 17321 bound_to 7965
  140.4188  144.2271  150.5887 LP  0  0  0  0  0  0  0  0  0  0  0  0  # atno 17342 bound_to 10162
  140.4894  143.2352  151.8840 LP  0  0  0  0  0  0  0  0  0  0  0  0  # atno 17343 bound_to 10162
  156.1829  130.6510  151.0972 LP  0  0  0  0  0  0  0  0  0  0  0  0  # atno 17370 bound_to 10713
  157.7024  131.0770  150.6776 LP  0  0  0  0  0  0  0  0  0  0  0  0  # atno 17371 bound_to 10713
  141.2118  133.6711  156.6610 LP  0  0  0  0  0  0  0  0  0  0  0  0  # atno 17394 bound_to 11000
  140.3156  134.8050  157.4212 LP  0  0  0  0  0  0  0  0  0  0  0  0  # atno 17395 bound_to 11000

$$$$
