AV-unprocessed.smi:72|AV-procd|sdf|687|dock6
  -GOLD-   2262017 03D 1   1.00000     0.00000
 Structure written by MMmdl.
 29 30  0  0  0  0  0  0  0  0  1 V2000
  154.1756  138.3743  154.7458 N   0  0  0  0  0  0  0  0  0  0  0  0
  152.9059  138.5676  154.7729 C   0  0  0  0  0  0  0  0  0  0  0  0
  151.9484  137.7628  154.1369 N   0  0  0  0  0  0  0  0  0  0  0  0
  150.6955  138.0775  154.2574 C   0  0  0  0  0  0  0  0  0  0  0  0
  150.2557  139.2280  155.0322 N   0  0  0  0  0  0  0  0  0  0  0  0
  148.7832  139.5596  155.1568 C   0  0  2  0  0  0  0  0  0  0  0  0
  148.0488  138.4704  154.6898 O   0  0  0  0  0  0  0  0  0  0  0  0
  146.9118  138.9384  153.9818 C   0  0  2  0  0  0  0  0  0  0  0  0
  146.4360  137.8445  153.0124 C   0  0  0  0  0  0  0  0  0  0  0  0
  147.1356  137.9252  151.7891 O   0  0  0  0  0  0  0  0  0  0  0  0
  147.4052  140.2270  153.3127 C   0  0  1  0  0  0  0  0  0  0  0  0
  146.3281  141.1130  153.0811 O   0  0  0  0  0  0  0  0  0  0  0  0
  148.3613  140.8087  154.3483 C   0  0  2  0  0  0  0  0  0  0  0  0
  149.4293  141.4950  153.7196 O   0  0  0  0  0  0  0  0  0  0  0  0
  151.2105  140.0615  155.6639 C   0  0  0  0  0  0  0  0  0  0  0  0
  150.8957  141.0651  156.3030 O   0  0  0  0  0  0  0  0  0  0  0  0
  152.4992  139.6879  155.5098 N   0  0  0  0  0  0  0  0  0  0  0  0
  148.5716  139.6660  156.2218 H   0  0  0  0  0  0  0  0  0  0  0  0
  146.1399  139.1602  154.7220 H   0  0  0  0  0  0  0  0  0  0  0  0
  147.9277  139.9986  152.3822 H   0  0  0  0  0  0  0  0  0  0  0  0
  147.8428  141.4840  155.0308 H   0  0  0  0  0  0  0  0  0  0  0  0
  154.3895  137.5527  154.1984 H   0  0  0  0  0  0  0  0  0  0  0  0
  149.8937  137.5080  153.7849 H   0  0  0  0  0  0  0  0  0  0  0  0
  146.5623  136.8524  153.4469 H   0  0  0  0  0  0  0  0  0  0  0  0
  145.3735  137.9699  152.8018 H   0  0  0  0  0  0  0  0  0  0  0  0
  147.7011  137.1716  151.7154 H   0  0  0  0  0  0  0  0  0  0  0  0
  145.5728  140.6071  152.8241 H   0  0  0  0  0  0  0  0  0  0  0  0
  149.5775  141.1055  152.8714 H   0  0  0  0  0  0  0  0  0  0  0  0
  153.2083  140.2572  155.9488 H   0  0  0  0  0  0  0  0  0  0  0  0
  1  2  2  0  0  0  0
  1 22  1  0  0  0  0
  2 17  1  0  0  0  0
  2  3  1  0  0  0  0
  3  4  2  0  0  0  0
  4  5  1  0  0  0  0
  4 23  1  0  0  0  0
  5  6  1  0  0  0  0
  5 15  1  0  0  0  0
  6 18  1  0  0  0  0
  6 13  1  0  0  0  0
  6  7  1  0  0  0  0
  7  8  1  0  0  0  0
  8 19  1  0  0  0  0
  8  9  1  0  0  0  0
  8 11  1  0  0  0  0
  9 10  1  0  0  0  0
  9 24  1  0  0  0  0
  9 25  1  0  0  0  0
 10 26  1  0  0  0  0
 11 20  1  0  0  0  0
 11 12  1  0  0  0  0
 11 13  1  0  0  0  0
 12 27  1  0  0  0  0
 13 21  1  0  0  0  0
 13 14  1  0  0  0  0
 14 28  1  0  0  0  0
 15 16  2  0  0  0  0
 15 17  1  0  0  0  0
 17 29  1  0  0  0  0
M  END
> <s_m_source_file>
AV-unprocessed.smi

> <i_m_source_file_index>
72

> <i_lp_mmshare_version>
43012

> <i_f3d_flags>
0

> <s_epik_input>
W05IMl1jMW5bY0hdbihjKD1PKW4xKVtDQEBIXTJPW0NASF0oW0NIMl1bT0hdKVtDQEBIXShbT0hdKVtDQEhdMltPSF0=

> <s_epik_cmdline>
J2VwaWtfcHl0aG9uJywgJy1waCcsICc3LjAnLCAnLXRuJywgJzgnLCAnLW1hJywgJzIwMCcsICctbWV0YWxfYmluZGluZycsICctaW1hZScsICc8aW5maWxlLm1hZT4nLCAnLW9tYWUnLCAnPG91dGZpbGUubWFlPic=

> <r_lp_tautomer_probability>
7.17554e-07

> <r_epik_Ionization_Penalty>
0.0066451

> <r_epik_Ionization_Penalty_Charging>
0.00663793

> <r_epik_Ionization_Penalty_Neutral>
7.17052e-06

> <r_epik_State_Penalty>
0.419231

> <r_epik_Charging_Adjusted_Penalty>
0.425868

> <i_epik_Tot_Q>
0

> <i_epik_Tot_abs_Q>
0

> <r_epik_Metal_State_Penalty>
1.44144

> <b_epik_Metal_Only>
0

> <s_epik_Chemistry_Notes>
This compound contains an acetal/aminal-like group ( X-CH(R)-Y where X, Y are N, S, or O) that may be acid/base labile, releasing an aldehyde.

> <s_lp_Force_Field>
OPLS_2005

> <r_lp_Energy>
41.3964

> <b_lp_Chiralities_Consistent>
1

> <s_lp_Variant>
AV-unprocessed.smi:72-25

> <Gold.Version>
5.8.1

> <Gold.Id.Protein>
6NUR|6NUR_protein|mol2

> <Gold.PLP.Fitness>
40.5427

> <Gold.PLP.PLP>
-27.4455

> <Gold.PLP.part.hbond>
-7.9520

> <Gold.PLP.part.metal>
0.0000

> <Gold.PLP.part.buried>
-2.5212

> <Gold.PLP.part.nonpolar>
-18.5645

> <Gold.PLP.part.repulsive>
1.1375

> <Gold.PLP.ligand.clash>
0.0000

> <Gold.PLP.ligand.torsion>
0.5967

> <Gold.PLP.Chemscore.Hbond>
3.7217

> <Gold.PLP.Chemscore.CHOScore>
1.0000

> <Gold.PLP.Chemscore.Metal>
0.0000

> <Gold.Chemscore.Hbonds>
donor molecule, donor type, donor heavy atom, donor atom, acceptor molecule, acceptor atom, score
      L1  H    10    26       P1  7948  1.00
      L1  H    12    27       P1 10175  0.99
      L1  H    14    28       P1  7957  1.00
      P1  H  7997  8009       L1     1  0.48
      P1  H 10752 10765       L1     3  0.28
      L1  C     4    23       P1  7948  1.00

> <Gold.PLP.Chemscore.Internal.Correction>
0.1254

> <Gold.Rescore>
     Score         DG    S(hbond)    S(metal)    S(lipo)     H(rot)  DE(clash)    DE(int)     intcor
      6.47      -7.40       2.94        0.00      21.28       4.06       0.13       0.81       ----

> <Gold.Chemscore.Fitness>
6.4656

> <Gold.Chemscore.DG>
-7.4009

> <Gold.Chemscore.ZeroCoef>
-5.4800

> <Gold.Chemscore.Hbond>
2.9414

> <Gold.Chemscore.Metal>
0.0000

> <Gold.Chemscore.Lipo>
21.2847

> <Gold.Chemscore.Internal_Hbond>
0.0000

> <Gold.Chemscore.DEClash>
0.1274

> <Gold.Chemscore.DEInternal>
0.8078

> <Gold.Chemscore.Rot>
4.0600

> <Gold.Chemscore.Internal.Correction>
   9.000000E+99

> <Gold.Chemscore.Hbonds>
donor molecule, donor type, donor heavy atom, donor atom, acceptor molecule, acceptor atom, score
      L1  H    10    26       P1  7948  0.94
      L1  H    12    27       P1 10175  0.61
      L1  H    14    28       P1  7957  0.96
      P1  H  7997  8009       L1     1  0.12
      P1  H 10752 10765       L1     3  0.08

> <Gold.Chemscore.Hbond.Weighted>
-9.8242

> <Gold.Chemscore.Metal.Weighted>
-0.0000

> <Gold.Chemscore.Lipo.Weighted>
-2.4903

> <Gold.Chemscore.Internal_Hbond.Weighted>
0.0000

> <Gold.Chemscore.DEClash.Weighted>
0.1274

> <Gold.Chemscore.DEInternal.Weighted>
0.8078

> <Gold.Chemscore.Rot.Weighted>
10.3936

> <Gold.Chemscore.Internal.Correction.Weighted>
   9.000000E+99

> <Gold.Protein.RotatedTorsions>
[ 6907 6896 6895 6894 ] final  149.04 input  -60.11 | X-H torsion
[ 7974 7965 7964 7962 ] final  -54.90 input  175.53 | X-H torsion
[ 8008 7997 7996 7995 ] final -104.52 input   59.86 | X-H torsion
[ 10167 10162 10161 10158 ] final  -19.30 input  -65.29 | X-H torsion
[ 10718 10713 10712 10709 ] final   16.11 input   66.30 | X-H torsion
[ 10763 10752 10751 10750 ] final  155.65 input  -60.55 | X-H torsion
[ 11005 11000 10999 10996 ] final  137.79 input  -57.11 | X-H torsion

> <Gold.Protein.ActiveResidues>
 VAL166  LYS551  ARG553  GLY616  TRP617  ASP618  TYR619  PRO620  LYS621  CYS622 
 ASP623  PHE694  ASN695  SER759  ASP760  ASP761  ALA762  ILE779  LEU786  VAL792 
 PHE793  MET794  SER795  GLU796  ALA797  LYS798  CYS799  TRP800  GLU811  SER814 

> <Gold.Protein.RotatedAtoms>
  152.1334  133.4421  159.4731 H   0  0  0  0  0  0  0  0  0  0  0  0  # atno 6907 bound_to 6896
  150.6880  134.2393  159.4475 H   0  0  0  0  0  0  0  0  0  0  0  0  # atno 6908 bound_to 6896
  152.0279  134.9784  160.0622 H   0  0  0  0  0  0  0  0  0  0  0  0  # atno 6909 bound_to 6896
  145.8803  140.8150  142.9843 H   0  0  0  0  0  0  0  0  0  0  0  0  # atno 7974 bound_to 7965
  154.8865  140.0417  157.1813 H   0  0  0  0  0  0  0  0  0  0  0  0  # atno 8008 bound_to 7997
  154.8585  140.2940  155.5533 H   0  0  0  0  0  0  0  0  0  0  0  0  # atno 8009 bound_to 7997
  156.2998  140.2451  156.3555 H   0  0  0  0  0  0  0  0  0  0  0  0  # atno 8010 bound_to 7997
  140.7267  143.4832  151.0090 H   0  0  0  0  0  0  0  0  0  0  0  0  # atno 10167 bound_to 10162
  157.0632  130.6317  149.5790 H   0  0  0  0  0  0  0  0  0  0  0  0  # atno 10718 bound_to 10713
  154.1718  135.2804  155.3078 H   0  0  0  0  0  0  0  0  0  0  0  0  # atno 10763 bound_to 10752
  154.6069  135.5511  153.7436 H   0  0  0  0  0  0  0  0  0  0  0  0  # atno 10764 bound_to 10752
  153.0162  135.6406  154.1858 H   0  0  0  0  0  0  0  0  0  0  0  0  # atno 10765 bound_to 10752
  140.0138  134.9427  157.0333 H   0  0  0  0  0  0  0  0  0  0  0  0  # atno 11005 bound_to 11000
  144.6727  140.1373  143.7439 LP  0  0  0  0  0  0  0  0  0  0  0  0  # atno 17320 bound_to 7965
  145.9032  139.2443  143.1481 LP  0  0  0  0  0  0  0  0  0  0  0  0  # atno 17321 bound_to 7965
  139.8532  143.7411  152.3177 LP  0  0  0  0  0  0  0  0  0  0  0  0  # atno 17342 bound_to 10162
  139.7601  144.7509  151.0377 LP  0  0  0  0  0  0  0  0  0  0  0  0  # atno 17343 bound_to 10162
  155.9972  130.5043  150.7526 LP  0  0  0  0  0  0  0  0  0  0  0  0  # atno 17370 bound_to 10713
  157.4938  131.0913  151.0396 LP  0  0  0  0  0  0  0  0  0  0  0  0  # atno 17371 bound_to 10713
  140.4507  134.1585  155.7181 LP  0  0  0  0  0  0  0  0  0  0  0  0  # atno 17394 bound_to 11000
  141.1729  133.8572  157.1514 LP  0  0  0  0  0  0  0  0  0  0  0  0  # atno 17395 bound_to 11000

$$$$
