AV-unprocessed.smi:287|AV-procd|sdf|2196|dock7
  -GOLD-   2262022 03D 1   1.00000     0.00000
 Structure written by MMmdl.
 55 58  0  0  0  0  0  0  0  0  1 V2000
  153.9373  141.5295  161.3341 C   0  0  0  0  0  0  0  0  0  0  0  0
  153.0415  141.9535  160.2212 C   0  0  0  0  0  0  0  0  0  0  0  0
  151.9612  141.3868  159.6100 C   0  0  0  0  0  0  0  0  0  0  0  0
  151.5244  142.2884  158.5942 C   0  0  0  0  0  0  0  0  0  0  0  0
  150.3398  142.0744  157.6609 C   0  0  2  0  0  0  0  0  0  0  0  0
  150.8199  141.9910  156.2010 C   0  0  0  0  0  0  0  0  0  0  0  0
  149.4214  143.1501  157.6809 O   0  0  0  0  0  0  0  0  0  0  0  0
  149.5351  140.8074  158.0274 C   0  0  0  0  0  0  0  0  0  0  0  0
  148.4367  140.5465  157.1060 N   0  0  0  0  0  0  0  0  0  0  0  0
  147.5467  139.5601  157.3420 C   0  0  0  0  0  0  0  0  0  0  0  0
  147.9126  138.6665  158.2902 N   0  0  0  0  0  0  0  0  0  0  0  0
  147.1077  137.6472  158.5951 C   0  0  0  0  0  0  0  0  0  0  0  0
  145.9154  137.3474  158.0807 N   0  0  0  0  0  0  0  0  0  0  0  0
  145.5279  138.2405  157.1240 C   0  0  0  0  0  0  0  0  0  0  0  0
  146.2864  139.3718  156.6988 C   0  0  0  0  0  0  0  0  0  0  0  0
  145.5833  140.0505  155.7116 N   0  0  0  0  0  0  0  0  0  0  0  0
  144.4896  139.3578  155.5596 C   0  0  0  0  0  0  0  0  0  0  0  0
  144.3605  138.2566  156.3755 N   0  0  0  0  0  0  0  0  0  0  0  0
  143.2086  137.2867  156.3596 C   0  0  1  0  0  0  0  0  0  0  0  0
  142.9662  136.9147  155.0408 O   0  0  0  0  0  0  0  0  0  0  0  0
  143.6492  135.7034  154.7514 C   0  0  2  0  0  0  0  0  0  0  0  0
  142.9794  135.0014  153.5604 C   0  0  0  0  0  0  0  0  0  0  0  0
  141.7819  134.3791  153.9751 O   0  0  0  0  0  0  0  0  0  0  0  0
  143.5298  134.9199  156.0683 C   0  0  1  0  0  0  0  0  0  0  0  0
  144.6581  134.0885  156.2504 O   0  0  0  0  0  0  0  0  0  0  0  0
  143.4637  135.9960  157.1576 C   0  0  2  0  0  0  0  0  0  0  0  0
  142.3956  135.7240  158.0428 O   0  0  0  0  0  0  0  0  0  0  0  0
  152.3881  143.3547  158.6771 C   0  0  0  0  0  0  0  0  0  0  0  0
  152.5151  144.6484  157.9421 C   0  0  0  0  0  0  0  0  0  0  0  0
  153.3122  143.1576  159.6583 O   0  0  0  0  0  0  0  0  0  0  0  0
  142.3725  137.8726  156.7443 H   0  0  0  0  0  0  0  0  0  0  0  0
  144.6931  135.9205  154.5248 H   0  0  0  0  0  0  0  0  0  0  0  0
  142.6215  134.3144  156.0640 H   0  0  0  0  0  0  0  0  0  0  0  0
  144.3764  136.0784  157.7469 H   0  0  0  0  0  0  0  0  0  0  0  0
  153.5637  140.6230  161.8109 H   0  0  0  0  0  0  0  0  0  0  0  0
  154.0046  142.3076  162.0947 H   0  0  0  0  0  0  0  0  0  0  0  0
  154.9429  141.3276  160.9647 H   0  0  0  0  0  0  0  0  0  0  0  0
  151.5290  140.4303  159.8645 H   0  0  0  0  0  0  0  0  0  0  0  0
  151.5023  141.1533  156.0523 H   0  0  0  0  0  0  0  0  0  0  0  0
  151.3464  142.8991  155.9040 H   0  0  0  0  0  0  0  0  0  0  0  0
  149.9848  141.8536  155.5129 H   0  0  0  0  0  0  0  0  0  0  0  0
  149.4235  143.5614  156.8303 H   0  0  0  0  0  0  0  0  0  0  0  0
  150.1906  139.9381  158.0972 H   0  0  0  0  0  0  0  0  0  0  0  0
  149.0942  140.9542  159.0144 H   0  0  0  0  0  0  0  0  0  0  0  0
  148.3535  141.1918  156.3337 H   0  0  0  0  0  0  0  0  0  0  0  0
  147.4697  136.9752  159.3588 H   0  0  0  0  0  0  0  0  0  0  0  0
  143.7375  139.6348  154.8352 H   0  0  0  0  0  0  0  0  0  0  0  0
  142.7186  135.7323  152.7945 H   0  0  0  0  0  0  0  0  0  0  0  0
  143.6477  134.2729  153.1004 H   0  0  0  0  0  0  0  0  0  0  0  0
  141.9053  133.4425  153.9523 H   0  0  0  0  0  0  0  0  0  0  0  0
  144.6377  133.4086  155.5945 H   0  0  0  0  0  0  0  0  0  0  0  0
  141.7283  135.2497  157.5707 H   0  0  0  0  0  0  0  0  0  0  0  0
  152.7219  144.4742  156.8862 H   0  0  0  0  0  0  0  0  0  0  0  0
  153.3255  145.2557  158.3466 H   0  0  0  0  0  0  0  0  0  0  0  0
  151.5941  145.2267  158.0174 H   0  0  0  0  0  0  0  0  0  0  0  0
  1  2  1  0  0  0  0
  1 35  1  0  0  0  0
  1 36  1  0  0  0  0
  1 37  1  0  0  0  0
  2 30  1  0  0  0  0
  2  3  2  0  0  0  0
  3  4  1  0  0  0  0
  3 38  1  0  0  0  0
  4  5  1  0  0  0  0
  4 28  2  0  0  0  0
  5  6  1  0  0  0  0
  5  7  1  0  0  0  0
  5  8  1  0  0  0  0
  6 39  1  0  0  0  0
  6 40  1  0  0  0  0
  6 41  1  0  0  0  0
  7 42  1  0  0  0  0
  8  9  1  0  0  0  0
  8 43  1  0  0  0  0
  8 44  1  0  0  0  0
  9 10  1  0  0  0  0
  9 45  1  0  0  0  0
 10 15  1  0  0  0  0
 10 11  2  0  0  0  0
 11 12  1  0  0  0  0
 12 13  2  0  0  0  0
 12 46  1  0  0  0  0
 13 14  1  0  0  0  0
 14 18  1  0  0  0  0
 14 15  2  0  0  0  0
 15 16  1  0  0  0  0
 16 17  2  0  0  0  0
 17 18  1  0  0  0  0
 17 47  1  0  0  0  0
 18 19  1  0  0  0  0
 19 31  1  0  0  0  0
 19 26  1  0  0  0  0
 19 20  1  0  0  0  0
 20 21  1  0  0  0  0
 21 32  1  0  0  0  0
 21 22  1  0  0  0  0
 21 24  1  0  0  0  0
 22 23  1  0  0  0  0
 22 48  1  0  0  0  0
 22 49  1  0  0  0  0
 23 50  1  0  0  0  0
 24 33  1  0  0  0  0
 24 25  1  0  0  0  0
 24 26  1  0  0  0  0
 25 51  1  0  0  0  0
 26 34  1  0  0  0  0
 26 27  1  0  0  0  0
 27 52  1  0  0  0  0
 28 29  1  0  0  0  0
 28 30  1  0  0  0  0
 29 53  1  0  0  0  0
 29 54  1  0  0  0  0
 29 55  1  0  0  0  0
M  END
> <s_m_source_file>
AV-unprocessed.smi

> <i_m_source_file_index>
287

> <i_lp_mmshare_version>
43012

> <i_f3d_flags>
0

> <s_epik_input>
W0NIM11jMVtjSF1jKGMobzEpW0NIM10pW0NAQF0oW0NIM10pKFtPSF0pW0NIMl1bTkhdYyhuW2NIXW4yKWMoYzIzKW5bY0hdbjNbQ0BASF00T1tDQEhdKFtDSDJdW09IXSlbQ0BASF0oW09IXSlbQ0BIXTRbT0hd

> <s_epik_cmdline>
J2VwaWtfcHl0aG9uJywgJy1waCcsICc3LjAnLCAnLXRuJywgJzgnLCAnLW1hJywgJzIwMCcsICctbWV0YWxfYmluZGluZycsICctaW1hZScsICc8aW5maWxlLm1hZT4nLCAnLW9tYWUnLCAnPG91dGZpbGUubWFlPic=

> <r_lp_tautomer_probability>
1

> <r_epik_Ionization_Penalty>
0.000992612

> <r_epik_Ionization_Penalty_Charging>
0

> <r_epik_Ionization_Penalty_Neutral>
0.000992612

> <r_epik_State_Penalty>
-0

> <r_epik_Charging_Adjusted_Penalty>
0

> <i_epik_Tot_Q>
0

> <i_epik_Tot_abs_Q>
0

> <r_epik_Metal_State_Penalty>
-0

> <b_epik_Metal_Only>
0

> <s_epik_Chemistry_Notes>
This compound contains an acetal/aminal-like group ( X-CH(R)-Y where X, Y are N, S, or O) that may be acid/base labile, releasing an aldehyde.

> <s_lp_Force_Field>
OPLS_2005

> <r_lp_Energy>
37.3025

> <b_lp_Chiralities_Consistent>
1

> <s_lp_Variant>
AV-unprocessed.smi:287-20

> <Gold.Version>
5.8.1

> <Gold.Id.Protein>
6NUR|6NUR_protein|mol2

> <Gold.PLP.Fitness>
49.4090

> <Gold.PLP.PLP>
-37.4759

> <Gold.PLP.part.hbond>
-5.2444

> <Gold.PLP.part.metal>
0.0000

> <Gold.PLP.part.buried>
-6.4927

> <Gold.PLP.part.nonpolar>
-26.3633

> <Gold.PLP.part.repulsive>
0.1508

> <Gold.PLP.ligand.clash>
0.0000

> <Gold.PLP.ligand.torsion>
0.5631

> <Gold.PLP.Chemscore.Hbond>
3.3251

> <Gold.PLP.Chemscore.CHOScore>
0.9972

> <Gold.PLP.Chemscore.Metal>
0.0000

> <Gold.Chemscore.Hbonds>
donor molecule, donor type, donor heavy atom, donor atom, acceptor molecule, acceptor atom, score
      L1  H     7    42       P1  8028  1.00
      L1  H    23    50       P1 10957  1.00
      L1  H    27    52       P1 11000  1.00
      P1  H 11000 11005       L1    23  0.29
      L1  C    17    47       P1 10175  1.00

> <Gold.PLP.Chemscore.Internal.Correction>
0.0924

> <Gold.Rescore>
     Score         DG    S(hbond)    S(metal)    S(lipo)     H(rot)  DE(clash)    DE(int)     intcor
     10.36     -11.98       2.81        0.00      90.59       5.27       0.02       1.60       ----

> <Gold.Chemscore.Fitness>
10.3554

> <Gold.Chemscore.DG>
-11.9767

> <Gold.Chemscore.ZeroCoef>
-5.4800

> <Gold.Chemscore.Hbond>
2.8089

> <Gold.Chemscore.Metal>
0.0000

> <Gold.Chemscore.Lipo>
90.5882

> <Gold.Chemscore.Internal_Hbond>
0.0000

> <Gold.Chemscore.DEClash>
0.0164

> <Gold.Chemscore.DEInternal>
1.6049

> <Gold.Chemscore.Rot>
5.2672

> <Gold.Chemscore.Internal.Correction>
   9.000000E+99

> <Gold.Chemscore.Hbonds>
donor molecule, donor type, donor heavy atom, donor atom, acceptor molecule, acceptor atom, score
      L1  H     7    42       P1  8028  0.93
      L1  H    23    50       P1 10957  0.91
      L1  H    27    52       P1 11000  0.65
      P1  H 11000 11005       L1    23  0.01

> <Gold.Chemscore.Hbond.Weighted>
-9.3818

> <Gold.Chemscore.Metal.Weighted>
-0.0000

> <Gold.Chemscore.Lipo.Weighted>
-10.5988

> <Gold.Chemscore.Internal_Hbond.Weighted>
0.0000

> <Gold.Chemscore.DEClash.Weighted>
0.0164

> <Gold.Chemscore.DEInternal.Weighted>
1.6049

> <Gold.Chemscore.Rot.Weighted>
13.4839

> <Gold.Chemscore.Internal.Correction.Weighted>
   9.000000E+99

> <Gold.Protein.RotatedTorsions>
[ 6907 6896 6895 6894 ] final   91.49 input  -60.11 | X-H torsion
[ 7974 7965 7964 7962 ] final  -47.89 input  175.53 | X-H torsion
[ 8008 7997 7996 7995 ] final   14.19 input   59.86 | X-H torsion
[ 10167 10162 10161 10158 ] final  117.67 input  -65.29 | X-H torsion
[ 10718 10713 10712 10709 ] final -174.83 input   66.30 | X-H torsion
[ 10763 10752 10751 10750 ] final  -79.45 input  -60.55 | X-H torsion
[ 11005 11000 10999 10996 ] final   14.45 input  -57.11 | X-H torsion

> <Gold.Protein.ActiveResidues>
 VAL166  LYS551  ARG553  GLY616  TRP617  ASP618  TYR619  PRO620  LYS621  CYS622 
 ASP623  PHE694  ASN695  SER759  ASP760  ASP761  ALA762  ILE779  LEU786  VAL792 
 PHE793  MET794  SER795  GLU796  ALA797  LYS798  CYS799  TRP800  GLU811  SER814 

> <Gold.Protein.RotatedAtoms>
  152.5450  134.1648  159.8572 H   0  0  0  0  0  0  0  0  0  0  0  0  # atno 6907 bound_to 6896
  151.1663  133.4805  159.2601 H   0  0  0  0  0  0  0  0  0  0  0  0  # atno 6908 bound_to 6896
  151.1321  135.0146  159.8642 H   0  0  0  0  0  0  0  0  0  0  0  0  # atno 6909 bound_to 6896
  145.9569  140.7518  142.9477 H   0  0  0  0  0  0  0  0  0  0  0  0  # atno 7974 bound_to 7965
  154.8449  140.2920  155.5635 H   0  0  0  0  0  0  0  0  0  0  0  0  # atno 8008 bound_to 7997
  156.3013  140.2507  156.3330 H   0  0  0  0  0  0  0  0  0  0  0  0  # atno 8009 bound_to 7997
  154.9084  140.0389  157.1922 H   0  0  0  0  0  0  0  0  0  0  0  0  # atno 8010 bound_to 7997
  139.6163  144.7092  151.2732 H   0  0  0  0  0  0  0  0  0  0  0  0  # atno 10167 bound_to 10162
  156.7909  130.9518  151.3120 H   0  0  0  0  0  0  0  0  0  0  0  0  # atno 10718 bound_to 10713
  154.5388  135.5695  153.6821 H   0  0  0  0  0  0  0  0  0  0  0  0  # atno 10763 bound_to 10752
  152.9958  135.6222  154.2530 H   0  0  0  0  0  0  0  0  0  0  0  0  # atno 10764 bound_to 10752
  154.2460  135.2861  155.2815 H   0  0  0  0  0  0  0  0  0  0  0  0  # atno 10765 bound_to 10752
  140.4694  134.1046  155.7730 H   0  0  0  0  0  0  0  0  0  0  0  0  # atno 11005 bound_to 11000
  144.6807  140.2526  143.7329 LP  0  0  0  0  0  0  0  0  0  0  0  0  # atno 17320 bound_to 7965
  145.8094  139.1997  143.2002 LP  0  0  0  0  0  0  0  0  0  0  0  0  # atno 17321 bound_to 7965
  140.7353  143.6741  150.8057 LP  0  0  0  0  0  0  0  0  0  0  0  0  # atno 17342 bound_to 10162
  140.0344  143.5410  152.2746 LP  0  0  0  0  0  0  0  0  0  0  0  0  # atno 17343 bound_to 10162
  157.6601  130.8958  149.9811 LP  0  0  0  0  0  0  0  0  0  0  0  0  # atno 17370 bound_to 10713
  156.1159  130.3648  149.9968 LP  0  0  0  0  0  0  0  0  0  0  0  0  # atno 17371 bound_to 10713
  141.1584  133.8839  157.1915 LP  0  0  0  0  0  0  0  0  0  0  0  0  # atno 17394 bound_to 11000
  139.9894  135.0070  156.9940 LP  0  0  0  0  0  0  0  0  0  0  0  0  # atno 17395 bound_to 11000

$$$$
