AV-unprocessed.smi:53|AV-procd|sdf|519|dock2
  -GOLD-   2262016393D 1   1.00000     0.00000
 Structure written by MMmdl.
 30 31  0  0  0  0  0  0  0  0  1 V2000
  154.0496  137.9065  155.5601 N   0  0  0  0  0  0  0  0  0  0  0  0
  152.7792  138.3246  155.4737 C   0  0  0  0  0  0  0  0  0  0  0  0
  151.8004  137.5411  154.7544 C   0  0  0  0  0  0  0  0  0  0  0  0
  150.5404  138.0272  154.7112 C   0  0  0  0  0  0  0  0  0  0  0  0
  150.1874  139.2219  155.3258 N   0  0  0  0  0  0  0  0  0  0  0  0
  148.7731  139.7714  155.2751 C   0  0  2  0  0  0  0  0  0  0  0  0
  147.8803  138.7454  154.9474 O   0  0  0  0  0  0  0  0  0  0  0  0
  147.3902  138.9236  153.6210 C   0  0  1  0  0  0  0  0  0  0  0  0
  146.0338  138.2185  153.4698 C   0  0  0  0  0  0  0  0  0  0  0  0
  145.5122  138.4467  152.1779 O   0  0  0  0  0  0  0  0  0  0  0  0
  147.3077  140.4462  153.5263 C   0  0  2  0  0  0  0  0  0  0  0  0
  147.1916  140.9165  152.1962 O   0  0  0  0  0  0  0  0  0  0  0  0
  148.5915  140.8903  154.2204 C   0  0  2  0  0  0  0  0  0  0  0  0
  149.6774  140.9979  153.3110 O   0  0  0  0  0  0  0  0  0  0  0  0
  151.1704  139.9678  156.0193 C   0  0  0  0  0  0  0  0  0  0  0  0
  150.9032  141.0388  156.5634 O   0  0  0  0  0  0  0  0  0  0  0  0
  152.4409  139.4595  156.0540 N   0  0  0  0  0  0  0  0  0  0  0  0
  148.5391  140.0910  156.2924 H   0  0  0  0  0  0  0  0  0  0  0  0
  148.1150  138.5497  152.8953 H   0  0  0  0  0  0  0  0  0  0  0  0
  146.4513  140.8010  154.1020 H   0  0  0  0  0  0  0  0  0  0  0  0
  148.4651  141.8499  154.7225 H   0  0  0  0  0  0  0  0  0  0  0  0
  154.7307  138.4569  156.0628 H   0  0  0  0  0  0  0  0  0  0  0  0
  154.3233  137.0397  155.1203 H   0  0  0  0  0  0  0  0  0  0  0  0
  152.0314  136.6068  154.2629 H   0  0  0  0  0  0  0  0  0  0  0  0
  149.8063  137.4464  154.1740 H   0  0  0  0  0  0  0  0  0  0  0  0
  146.1182  137.1487  153.6632 H   0  0  0  0  0  0  0  0  0  0  0  0
  145.3180  138.6222  154.1866 H   0  0  0  0  0  0  0  0  0  0  0  0
  144.7721  139.0298  152.2511 H   0  0  0  0  0  0  0  0  0  0  0  0
  147.9747  140.6770  151.7246 H   0  0  0  0  0  0  0  0  0  0  0  0
  149.6672  140.2404  152.7454 H   0  0  0  0  0  0  0  0  0  0  0  0
  1  2  1  0  0  0  0
  1 22  1  0  0  0  0
  1 23  1  0  0  0  0
  2 17  2  0  0  0  0
  2  3  1  0  0  0  0
  3  4  2  0  0  0  0
  3 24  1  0  0  0  0
  4  5  1  0  0  0  0
  4 25  1  0  0  0  0
  5  6  1  0  0  0  0
  5 15  1  0  0  0  0
  6 18  1  0  0  0  0
  6 13  1  0  0  0  0
  6  7  1  0  0  0  0
  7  8  1  0  0  0  0
  8 19  1  0  0  0  0
  8  9  1  0  0  0  0
  8 11  1  0  0  0  0
  9 10  1  0  0  0  0
  9 26  1  0  0  0  0
  9 27  1  0  0  0  0
 10 28  1  0  0  0  0
 11 20  1  0  0  0  0
 11 12  1  0  0  0  0
 11 13  1  0  0  0  0
 12 29  1  0  0  0  0
 13 21  1  0  0  0  0
 13 14  1  0  0  0  0
 14 30  1  0  0  0  0
 15 16  2  0  0  0  0
 15 17  1  0  0  0  0
M  END
> <s_m_source_file>
AV-unprocessed.smi

> <i_m_source_file_index>
53

> <i_lp_mmshare_version>
43012

> <i_f3d_flags>
0

> <s_epik_input>
W05IMl1jMVtjSF1bY0hdbihjKD1PKW4xKVtDQEBIXTJPW0NASF0oW0NIMl1bT0hdKVtDQEBIXShbT0hdKVtDQEBIXTJbT0hd

> <s_epik_cmdline>
J2VwaWtfcHl0aG9uJywgJy1waCcsICc3LjAnLCAnLXRuJywgJzgnLCAnLW1hJywgJzIwMCcsICctbWV0YWxfYmluZGluZycsICctaW1hZScsICc8aW5maWxlLm1hZT4nLCAnLW9tYWUnLCAnPG91dGZpbGUubWFlPic=

> <r_lp_tautomer_probability>
0.99996

> <r_epik_Ionization_Penalty>
0.00069087

> <r_epik_Ionization_Penalty_Charging>
2.61959e-08

> <r_epik_Ionization_Penalty_Neutral>
0.000690844

> <r_epik_State_Penalty>
1.15523e-05

> <r_epik_Charging_Adjusted_Penalty>
1.15785e-05

> <i_epik_Tot_Q>
0

> <i_epik_Tot_abs_Q>
0

> <r_epik_Metal_State_Penalty>
-0

> <b_epik_Metal_Only>
0

> <s_epik_Chemistry_Notes>
This compound contains an acetal/aminal-like group ( X-CH(R)-Y where X, Y are N, S, or O) that may be acid/base labile, releasing an aldehyde.

> <s_lp_Force_Field>
OPLS_2005

> <r_lp_Energy>
37.6577

> <b_lp_Chiralities_Consistent>
1

> <s_lp_Variant>
AV-unprocessed.smi:53-7

> <Gold.Version>
5.8.1

> <Gold.Id.Protein>
6NUR|6NUR_protein|mol2

> <Gold.PLP.Fitness>
42.4594

> <Gold.PLP.PLP>
-26.7805

> <Gold.PLP.part.hbond>
-6.4681

> <Gold.PLP.part.metal>
0.0000

> <Gold.PLP.part.buried>
-1.5230

> <Gold.PLP.part.nonpolar>
-21.5384

> <Gold.PLP.part.repulsive>
2.0798

> <Gold.PLP.ligand.clash>
0.0000

> <Gold.PLP.ligand.torsion>
0.5445

> <Gold.PLP.Chemscore.Hbond>
4.5602

> <Gold.PLP.Chemscore.CHOScore>
1.0000

> <Gold.PLP.Chemscore.Metal>
0.0000

> <Gold.Chemscore.Hbonds>
donor molecule, donor type, donor heavy atom, donor atom, acceptor molecule, acceptor atom, score
      L1  H    10    28       P1 10175  1.00
      L1  H    12    29       P1  7957  1.00
      L1  H    14    30       P1  7957  0.67
      P1  H  7989  7998       L1    14  0.11
      P1  H  7997  8009       L1    17  0.80
      P1  H  8011  8017       L1    14  1.00
      L1  C     4    25       P1  7948  0.53

> <Gold.PLP.Chemscore.Internal.Correction>
0.0875

> <Gold.Rescore>
     Score         DG    S(hbond)    S(metal)    S(lipo)     H(rot)  DE(clash)    DE(int)     intcor
      8.65     -11.92       3.26        0.00      43.06       3.71       2.56       0.71       ----

> <Gold.Chemscore.Fitness>
8.6481

> <Gold.Chemscore.DG>
-11.9178

> <Gold.Chemscore.ZeroCoef>
-5.4800

> <Gold.Chemscore.Hbond>
3.2624

> <Gold.Chemscore.Metal>
0.0000

> <Gold.Chemscore.Lipo>
43.0587

> <Gold.Chemscore.Internal_Hbond>
0.0000

> <Gold.Chemscore.DEClash>
2.5598

> <Gold.Chemscore.DEInternal>
0.7099

> <Gold.Chemscore.Rot>
3.7095

> <Gold.Chemscore.Internal.Correction>
   9.000000E+99

> <Gold.Chemscore.Hbonds>
donor molecule, donor type, donor heavy atom, donor atom, acceptor molecule, acceptor atom, score
      L1  H    10    28       P1 10175  1.00
      L1  H    12    29       P1  7957  1.00
      L1  H    14    30       P1  7957  0.67
      P1  H  7989  7998       L1    14  0.01
      P1  H  7997  8009       L1    17  0.13
      P1  H  8011  8017       L1    14  0.63

> <Gold.Chemscore.Hbond.Weighted>
-10.8963

> <Gold.Chemscore.Metal.Weighted>
-0.0000

> <Gold.Chemscore.Lipo.Weighted>
-5.0379

> <Gold.Chemscore.Internal_Hbond.Weighted>
0.0000

> <Gold.Chemscore.DEClash.Weighted>
2.5598

> <Gold.Chemscore.DEInternal.Weighted>
0.7099

> <Gold.Chemscore.Rot.Weighted>
9.4964

> <Gold.Chemscore.Internal.Correction.Weighted>
   9.000000E+99

> <Gold.Protein.RotatedTorsions>
[ 6907 6896 6895 6894 ] final  142.42 input  -60.11 | X-H torsion
[ 7974 7965 7964 7962 ] final -173.44 input  175.53 | X-H torsion
[ 8008 7997 7996 7995 ] final -172.65 input   59.86 | X-H torsion
[ 10167 10162 10161 10158 ] final   73.28 input  -65.29 | X-H torsion
[ 10718 10713 10712 10709 ] final  127.65 input   66.30 | X-H torsion
[ 10763 10752 10751 10750 ] final  169.48 input  -60.55 | X-H torsion
[ 11005 11000 10999 10996 ] final   78.24 input  -57.11 | X-H torsion

> <Gold.Protein.ActiveResidues>
 VAL166  LYS551  ARG553  GLY616  TRP617  ASP618  TYR619  PRO620  LYS621  CYS622 
 ASP623  PHE694  ASN695  SER759  ASP760  ASP761  ALA762  ILE779  LEU786  VAL792 
 PHE793  MET794  SER795  GLU796  ALA797  LYS798  CYS799  TRP800  GLU811  SER814 

> <Gold.Protein.RotatedAtoms>
  152.2189  133.4968  159.5150 H   0  0  0  0  0  0  0  0  0  0  0  0  # atno 6907 bound_to 6896
  150.7008  134.1369  159.4099 H   0  0  0  0  0  0  0  0  0  0  0  0  # atno 6908 bound_to 6896
  151.9289  135.0265  160.0578 H   0  0  0  0  0  0  0  0  0  0  0  0  # atno 6909 bound_to 6896
  144.7138  140.1622  143.6375 H   0  0  0  0  0  0  0  0  0  0  0  0  # atno 7974 bound_to 7965
  155.9473  140.1120  157.1006 H   0  0  0  0  0  0  0  0  0  0  0  0  # atno 8008 bound_to 7997
  154.4102  140.1207  156.5072 H   0  0  0  0  0  0  0  0  0  0  0  0  # atno 8009 bound_to 7997
  155.6886  140.3473  155.4887 H   0  0  0  0  0  0  0  0  0  0  0  0  # atno 8010 bound_to 7997
  140.0262  144.5502  150.7543 H   0  0  0  0  0  0  0  0  0  0  0  0  # atno 10167 bound_to 10162
  157.5315  131.1098  150.9002 H   0  0  0  0  0  0  0  0  0  0  0  0  # atno 10718 bound_to 10713
  154.3837  135.2753  155.2196 H   0  0  0  0  0  0  0  0  0  0  0  0  # atno 10763 bound_to 10752
  154.4291  135.5981  153.6061 H   0  0  0  0  0  0  0  0  0  0  0  0  # atno 10764 bound_to 10752
  152.9834  135.5991  154.4083 H   0  0  0  0  0  0  0  0  0  0  0  0  # atno 10765 bound_to 10752
  139.9221  134.7747  156.1624 H   0  0  0  0  0  0  0  0  0  0  0  0  # atno 11005 bound_to 11000
  145.9020  139.2436  143.1488 LP  0  0  0  0  0  0  0  0  0  0  0  0  # atno 17320 bound_to 7965
  145.9801  140.8690  143.0119 LP  0  0  0  0  0  0  0  0  0  0  0  0  # atno 17321 bound_to 7965
  140.7322  143.2702  151.3912 LP  0  0  0  0  0  0  0  0  0  0  0  0  # atno 17342 bound_to 10162
  139.6107  144.1105  152.2295 LP  0  0  0  0  0  0  0  0  0  0  0  0  # atno 17343 bound_to 10162
  156.9582  130.5445  149.5285 LP  0  0  0  0  0  0  0  0  0  0  0  0  # atno 17370 bound_to 10713
  156.0426  130.5506  150.8806 LP  0  0  0  0  0  0  0  0  0  0  0  0  # atno 17371 bound_to 10713
  141.0750  133.6779  156.2218 LP  0  0  0  0  0  0  0  0  0  0  0  0  # atno 17394 bound_to 11000
  140.6444  134.5133  157.5572 LP  0  0  0  0  0  0  0  0  0  0  0  0  # atno 17395 bound_to 11000

$$$$
