AV-unprocessed.smi:832|AV-procd|sdf|3877|dock2
  -GOLD-   22720 1333D 1   1.00000     0.00000
 Structure written by MMmdl.
 42 43  0  0  0  0  0  0  0  0  2 V2000
  150.5458  141.8046  156.2925 C   0  0  0  0  0  0  0  0  0  0  0  0
  150.1280  140.7220  155.3573 C   0  0  0  0  0  0  0  0  0  0  0  0
  148.9285  140.3937  154.7916 C   0  0  0  0  0  0  0  0  0  0  0  0
  149.2497  139.2502  154.0034 C   0  0  0  0  0  0  0  0  0  0  0  0
  148.3508  138.5045  153.1977 N   0  0  0  0  0  0  0  0  0  0  0  0
  147.0078  138.5454  153.1885 C   0  0  0  0  0  0  0  0  0  0  0  0
  146.3101  139.2594  153.9085 O   0  0  0  0  0  0  0  0  0  0  0  0
  146.5021  137.6959  152.2826 N   0  0  0  0  0  0  0  0  0  0  0  0
  145.0804  137.5171  152.0046 C   0  0  0  0  0  0  0  0  0  0  0  0
  144.6096  136.0715  152.2572 C   0  0  1  0  0  0  0  0  0  0  0  0
  143.1989  135.9700  152.8268 C   0  0  0  0  0  0  0  0  0  0  0  0
  142.8148  134.5333  152.4919 C   0  0  0  0  0  0  0  0  0  0  0  0
  143.3868  134.2810  151.1501 N   0  3  2  0  0  0  0  0  0  0  0  0
  143.6300  132.8503  150.8100 C   0  0  0  0  0  0  0  0  0  0  0  0
  144.7657  132.2626  151.6694 C   0  0  0  0  0  0  0  0  0  0  0  0
  143.9710  132.6662  149.3184 C   0  0  0  0  0  0  0  0  0  0  0  0
  144.5636  135.1771  151.0067 C   0  0  0  0  0  0  0  0  0  0  0  0
  150.5239  138.9153  154.0883 N   0  0  0  0  0  0  0  0  0  0  0  0
  151.0954  139.8552  154.9540 O   0  0  0  0  0  0  0  0  0  0  0  0
  149.7719  142.5680  156.3744 H   0  0  0  0  0  0  0  0  0  0  0  0
  151.4595  142.2867  155.9449 H   0  0  0  0  0  0  0  0  0  0  0  0
  150.7317  141.4028  157.2886 H   0  0  0  0  0  0  0  0  0  0  0  0
  147.9862  140.9016  154.9304 H   0  0  0  0  0  0  0  0  0  0  0  0
  148.7859  137.8712  152.5430 H   0  0  0  0  0  0  0  0  0  0  0  0
  147.1474  137.1500  151.7299 H   0  0  0  0  0  0  0  0  0  0  0  0
  144.4980  138.2147  152.6090 H   0  0  0  0  0  0  0  0  0  0  0  0
  144.9040  137.7916  150.9641 H   0  0  0  0  0  0  0  0  0  0  0  0
  145.2799  135.6008  152.9785 H   0  0  0  0  0  0  0  0  0  0  0  0
  143.1570  136.1807  153.8959 H   0  0  0  0  0  0  0  0  0  0  0  0
  142.5283  136.6637  152.3174 H   0  0  0  0  0  0  0  0  0  0  0  0
  143.2669  133.8575  153.2201 H   0  0  0  0  0  0  0  0  0  0  0  0
  141.7353  134.3804  152.5086 H   0  0  0  0  0  0  0  0  0  0  0  0
  142.7154  132.2921  151.0177 H   0  0  0  0  0  0  0  0  0  0  0  0
  144.9538  131.2210  151.4075 H   0  0  0  0  0  0  0  0  0  0  0  0
  144.5327  132.2830  152.7338 H   0  0  0  0  0  0  0  0  0  0  0  0
  145.6966  132.8113  151.5224 H   0  0  0  0  0  0  0  0  0  0  0  0
  144.1959  131.6227  149.0961 H   0  0  0  0  0  0  0  0  0  0  0  0
  144.8418  133.2583  149.0341 H   0  0  0  0  0  0  0  0  0  0  0  0
  143.1437  132.9530  148.6694 H   0  0  0  0  0  0  0  0  0  0  0  0
  144.4351  135.7657  150.0977 H   0  0  0  0  0  0  0  0  0  0  0  0
  145.5001  134.6255  150.9134 H   0  0  0  0  0  0  0  0  0  0  0  0
  142.6998  134.6233  150.4934 H   0  0  0  0  0  0  0  0  0  0  0  0
  1  2  1  0  0  0  0
  1 20  1  0  0  0  0
  1 21  1  0  0  0  0
  1 22  1  0  0  0  0
  2 19  1  0  0  0  0
  2  3  2  0  0  0  0
  3  4  1  0  0  0  0
  3 23  1  0  0  0  0
  4  5  1  0  0  0  0
  4 18  2  0  0  0  0
  5  6  1  0  0  0  0
  5 24  1  0  0  0  0
  6  7  2  0  0  0  0
  6  8  1  0  0  0  0
  8  9  1  0  0  0  0
  8 25  1  0  0  0  0
  9 10  1  0  0  0  0
  9 26  1  0  0  0  0
  9 27  1  0  0  0  0
 10 17  1  0  0  0  0
 10 11  1  0  0  0  0
 10 28  1  0  0  0  0
 11 12  1  0  0  0  0
 11 29  1  0  0  0  0
 11 30  1  0  0  0  0
 12 13  1  0  0  0  0
 12 31  1  0  0  0  0
 12 32  1  0  0  0  0
 13 14  1  0  0  0  0
 13 17  1  0  0  0  0
 13 42  1  0  0  0  0
 14 15  1  0  0  0  0
 14 16  1  0  0  0  0
 14 33  1  0  0  0  0
 15 34  1  0  0  0  0
 15 35  1  0  0  0  0
 15 36  1  0  0  0  0
 16 37  1  0  0  0  0
 16 38  1  0  0  0  0
 16 39  1  0  0  0  0
 17 40  1  0  0  0  0
 17 41  1  0  0  0  0
 18 19  1  0  0  0  0
M  CHG  1  13   1
M  END
> <s_m_source_file>
AV-unprocessed.smi

> <i_m_source_file_index>
832

> <i_lp_mmshare_version>
43012

> <i_f3d_flags>
0

> <s_epik_input>
W0NIM11jMVtjSF1jKG5vMSlbTkhdQyg9TylbTkhdW0NIMl1bQ0BASF0yW0NIMl1bQ0gyXU4oW0NIMl0yKVtDSF0oW0NIM10pW0NIM10=

> <s_epik_cmdline>
J2VwaWtfcHl0aG9uJywgJy1waCcsICc3LjAnLCAnLXRuJywgJzgnLCAnLW1hJywgJzIwMCcsICctbWV0YWxfYmluZGluZycsICctaW1hZScsICc8aW5maWxlLm1hZT4nLCAnLW9tYWUnLCAnPG91dGZpbGUubWFlPic=

> <r_lp_tautomer_probability>
1

> <r_epik_Ionization_Penalty>
0.000242791

> <r_epik_Ionization_Penalty_Charging>
0.000220876

> <r_epik_Ionization_Penalty_Neutral>
2.19143e-05

> <r_epik_State_Penalty>
-0

> <r_epik_Charging_Adjusted_Penalty>
0.000220876

> <i_epik_Tot_Q>
1

> <i_epik_Tot_abs_Q>
1

> <r_epik_Metal_State_Penalty>
-0

> <b_epik_Metal_Only>
0

> <s_lp_Force_Field>
OPLS_2005

> <r_lp_Energy>
29.9722

> <b_lp_Chiralities_Consistent>
1

> <s_lp_Variant>
AV-unprocessed.smi:832-2

> <Gold.Version>
5.8.1

> <Gold.Id.Protein>
6NUR|6NUR_protein|mol2

> <Gold.PLP.Fitness>
46.3781

> <Gold.PLP.PLP>
-34.8034

> <Gold.PLP.part.hbond>
-5.4075

> <Gold.PLP.part.metal>
0.0000

> <Gold.PLP.part.buried>
-1.3194

> <Gold.PLP.part.nonpolar>
-29.4650

> <Gold.PLP.part.repulsive>
0.5442

> <Gold.PLP.ligand.clash>
0.0000

> <Gold.PLP.ligand.torsion>
0.5918

> <Gold.PLP.Chemscore.Hbond>
4.2400

> <Gold.PLP.Chemscore.CHOScore>
0.0000

> <Gold.PLP.Chemscore.Metal>
0.0000

> <Gold.Chemscore.Hbonds>
donor molecule, donor type, donor heavy atom, donor atom, acceptor molecule, acceptor atom, score
      L1  H     5    24       P1  7948  1.00
      L1  H     8    25       P1  7948  0.85
      L1  H    13    42       P1 10186  2.00
      P1  H  7989  7998       L1    19  0.38

> <Gold.PLP.Chemscore.Internal.Correction>
0.0382

> <Gold.Rescore>
     Score         DG    S(hbond)    S(metal)    S(lipo)     H(rot)  DE(clash)    DE(int)     intcor
     16.71     -19.39       2.74        0.00      73.92       1.51       1.33       1.35       ----

> <Gold.Chemscore.Fitness>
16.7127

> <Gold.Chemscore.DG>
-19.3947

> <Gold.Chemscore.ZeroCoef>
-5.4800

> <Gold.Chemscore.Hbond>
2.7375

> <Gold.Chemscore.Metal>
0.0000

> <Gold.Chemscore.Lipo>
73.9218

> <Gold.Chemscore.Internal_Hbond>
0.0000

> <Gold.Chemscore.DEClash>
1.3279

> <Gold.Chemscore.DEInternal>
1.3541

> <Gold.Chemscore.Rot>
1.5146

> <Gold.Chemscore.Internal.Correction>
   9.000000E+99

> <Gold.Chemscore.Hbonds>
donor molecule, donor type, donor heavy atom, donor atom, acceptor molecule, acceptor atom, score
      L1  H     5    24       P1  7948  0.96
      L1  H     8    25       P1  7948  0.80
      L1  H    13    42       P1 10186  0.28

> <Gold.Chemscore.Hbond.Weighted>
-9.1432

> <Gold.Chemscore.Metal.Weighted>
-0.0000

> <Gold.Chemscore.Lipo.Weighted>
-8.6489

> <Gold.Chemscore.Internal_Hbond.Weighted>
0.0000

> <Gold.Chemscore.DEClash.Weighted>
1.3279

> <Gold.Chemscore.DEInternal.Weighted>
1.3541

> <Gold.Chemscore.Rot.Weighted>
3.8774

> <Gold.Chemscore.Internal.Correction.Weighted>
   9.000000E+99

> <Gold.Protein.RotatedTorsions>
[ 6907 6896 6895 6894 ] final  -52.16 input  -60.11 | X-H torsion
[ 7974 7965 7964 7962 ] final   23.04 input  175.53 | X-H torsion
[ 8008 7997 7996 7995 ] final   50.67 input   59.86 | X-H torsion
[ 10167 10162 10161 10158 ] final -167.93 input  -65.29 | X-H torsion
[ 10718 10713 10712 10709 ] final  -26.57 input   66.30 | X-H torsion
[ 10763 10752 10751 10750 ] final -135.60 input  -60.55 | X-H torsion
[ 11005 11000 10999 10996 ] final -121.80 input  -57.11 | X-H torsion

> <Gold.Protein.ActiveResidues>
 VAL166  LYS551  ARG553  GLY616  TRP617  ASP618  TYR619  PRO620  LYS621  CYS622 
 ASP623  PHE694  ASN695  SER759  ASP760  ASP761  ALA762  ILE779  LEU786  VAL792 
 PHE793  MET794  SER795  GLU796  ALA797  LYS798  CYS799  TRP800  GLU811  SER814 

> <Gold.Protein.RotatedAtoms>
  150.8544  134.7878  159.7033 H   0  0  0  0  0  0  0  0  0  0  0  0  # atno 6907 bound_to 6896
  152.4600  134.5203  159.9790 H   0  0  0  0  0  0  0  0  0  0  0  0  # atno 6908 bound_to 6896
  151.5318  133.3409  159.2955 H   0  0  0  0  0  0  0  0  0  0  0  0  # atno 6909 bound_to 6896
  146.2002  139.7800  142.8767 H   0  0  0  0  0  0  0  0  0  0  0  0  # atno 7974 bound_to 7965
  155.4226  140.3447  155.4273 H   0  0  0  0  0  0  0  0  0  0  0  0  # atno 8008 bound_to 7997
  156.1384  140.1534  156.8990 H   0  0  0  0  0  0  0  0  0  0  0  0  # atno 8009 bound_to 7997
  154.4950  140.0830  156.7658 H   0  0  0  0  0  0  0  0  0  0  0  0  # atno 8010 bound_to 7997
  139.6018  144.0995  152.1751 H   0  0  0  0  0  0  0  0  0  0  0  0  # atno 10167 bound_to 10162
  156.4494  130.4481  149.7000 H   0  0  0  0  0  0  0  0  0  0  0  0  # atno 10718 bound_to 10713
  154.8700  135.3698  154.4925 H   0  0  0  0  0  0  0  0  0  0  0  0  # atno 10763 bound_to 10752
  153.5571  135.7023  153.5569 H   0  0  0  0  0  0  0  0  0  0  0  0  # atno 10764 bound_to 10752
  153.3662  135.4033  155.1719 H   0  0  0  0  0  0  0  0  0  0  0  0  # atno 10765 bound_to 10752
  141.0043  134.0357  157.3497 H   0  0  0  0  0  0  0  0  0  0  0  0  # atno 11005 bound_to 11000
  145.3509  141.0307  143.3339 LP  0  0  0  0  0  0  0  0  0  0  0  0  # atno 17320 bound_to 7965
  144.8667  139.5098  143.6787 LP  0  0  0  0  0  0  0  0  0  0  0  0  # atno 17321 bound_to 7965
  140.0593  144.5869  150.7275 LP  0  0  0  0  0  0  0  0  0  0  0  0  # atno 17342 bound_to 10162
  140.7255  143.2632  151.4134 LP  0  0  0  0  0  0  0  0  0  0  0  0  # atno 17343 bound_to 10162
  156.3832  130.7589  151.2584 LP  0  0  0  0  0  0  0  0  0  0  0  0  # atno 17370 bound_to 10713
  157.7503  131.0289  150.4071 LP  0  0  0  0  0  0  0  0  0  0  0  0  # atno 17371 bound_to 10713
  139.9055  135.0178  156.7466 LP  0  0  0  0  0  0  0  0  0  0  0  0  # atno 17394 bound_to 11000
  140.6838  133.9451  155.7926 LP  0  0  0  0  0  0  0  0  0  0  0  0  # atno 17395 bound_to 11000

$$$$
