AV-unprocessed.smi:1712|AV-procd|sdf|6903|dock10
  -GOLD-   22720 8103D 1   1.00000     0.00000
 Structure written by MMmdl.
 38 39  0  0  0  0  0  0  0  0  2 V2000
  148.4044  140.4474  155.2032 C   0  0  0  0  0  0  0  0  0  0  0  0
  148.4501  139.5717  153.9263 C   0  0  2  0  0  0  0  0  0  0  0  0
  147.0327  139.0382  153.5724 C   0  0  0  0  0  0  0  0  0  0  0  0
  147.0519  137.8022  152.7924 N   0  0  0  0  0  0  0  0  0  0  0  0
  145.9684  137.1179  152.3956 C   0  0  0  0  0  0  0  0  0  0  0  0
  144.8142  137.4812  152.6222 O   0  0  0  0  0  0  0  0  0  0  0  0
  146.3104  136.0059  151.7246 N   0  0  0  0  0  0  0  0  0  0  0  0
  145.4391  135.0520  151.1401 C   0  0  0  0  0  0  0  0  0  0  0  0
  145.7143  133.6615  151.0349 C   0  0  0  0  0  0  0  0  0  0  0  0
  144.7210  133.0152  150.4415 N   0  0  0  0  0  0  0  0  0  0  0  0
  143.8141  133.9797  150.1671 N   0  0  0  0  0  0  0  0  0  0  0  0
  144.2085  135.2351  150.5740 C   0  0  0  0  0  0  0  0  0  0  0  0
  149.4566  138.4627  154.0534 N   0  3  0  0  0  0  0  0  0  0  0  0
  150.8675  138.9331  154.1601 C   0  0  0  0  0  0  0  0  0  0  0  0
  151.8520  137.7594  154.2957 C   0  0  0  0  0  0  0  0  0  0  0  0
  151.5024  136.9666  155.4180 O   0  0  0  0  0  0  0  0  0  0  0  0
  150.2135  136.3977  155.2584 C   0  0  0  0  0  0  0  0  0  0  0  0
  149.1606  137.5146  155.1655 C   0  0  0  0  0  0  0  0  0  0  0  0
  142.9403  133.7681  149.7064 H   0  0  0  0  0  0  0  0  0  0  0  0
  147.6595  141.2381  155.1300 H   0  0  0  0  0  0  0  0  0  0  0  0
  149.3416  140.9690  155.3888 H   0  0  0  0  0  0  0  0  0  0  0  0
  148.1649  139.8513  156.0842 H   0  0  0  0  0  0  0  0  0  0  0  0
  148.7728  140.2101  153.1021 H   0  0  0  0  0  0  0  0  0  0  0  0
  146.4806  138.7785  154.4742 H   0  0  0  0  0  0  0  0  0  0  0  0
  146.4525  139.8131  153.0680 H   0  0  0  0  0  0  0  0  0  0  0  0
  147.9597  137.4291  152.5552 H   0  0  0  0  0  0  0  0  0  0  0  0
  147.2971  135.8230  151.6152 H   0  0  0  0  0  0  0  0  0  0  0  0
  146.5841  133.1106  151.3614 H   0  0  0  0  0  0  0  0  0  0  0  0
  143.5939  136.1104  150.4251 H   0  0  0  0  0  0  0  0  0  0  0  0
  151.1629  139.4898  153.2727 H   0  0  0  0  0  0  0  0  0  0  0  0
  150.9663  139.6032  155.0157 H   0  0  0  0  0  0  0  0  0  0  0  0
  151.8620  137.1507  153.3900 H   0  0  0  0  0  0  0  0  0  0  0  0
  152.8657  138.1361  154.4344 H   0  0  0  0  0  0  0  0  0  0  0  0
  150.1866  135.7603  154.3729 H   0  0  0  0  0  0  0  0  0  0  0  0
  150.0045  135.7573  156.1156 H   0  0  0  0  0  0  0  0  0  0  0  0
  149.1133  138.0612  156.1087 H   0  0  0  0  0  0  0  0  0  0  0  0
  148.1968  137.0302  155.0225 H   0  0  0  0  0  0  0  0  0  0  0  0
  149.4013  137.9264  153.1991 H   0  0  0  0  0  0  0  0  0  0  0  0
  1  2  1  0  0  0  0
  1 20  1  0  0  0  0
  1 21  1  0  0  0  0
  1 22  1  0  0  0  0
  2  3  1  0  0  0  0
  2 13  1  0  0  0  0
  2 23  1  0  0  0  0
  3  4  1  0  0  0  0
  3 24  1  0  0  0  0
  3 25  1  0  0  0  0
  4  5  1  0  0  0  0
  4 26  1  0  0  0  0
  5  6  2  0  0  0  0
  5  7  1  0  0  0  0
  7  8  1  0  0  0  0
  7 27  1  0  0  0  0
  8 12  2  0  0  0  0
  8  9  1  0  0  0  0
  9 10  2  0  0  0  0
  9 28  1  0  0  0  0
 10 11  1  0  0  0  0
 11 19  1  0  0  0  0
 11 12  1  0  0  0  0
 12 29  1  0  0  0  0
 13 18  1  0  0  0  0
 13 14  1  0  0  0  0
 13 38  1  0  0  0  0
 14 15  1  0  0  0  0
 14 30  1  0  0  0  0
 14 31  1  0  0  0  0
 15 16  1  0  0  0  0
 15 32  1  0  0  0  0
 15 33  1  0  0  0  0
 16 17  1  0  0  0  0
 17 18  1  0  0  0  0
 17 34  1  0  0  0  0
 17 35  1  0  0  0  0
 18 36  1  0  0  0  0
 18 37  1  0  0  0  0
M  CHG  1  13   1
M  END
> <s_m_source_file>
AV-unprocessed.smi

> <i_m_source_file_index>
1712

> <i_lp_mmshare_version>
43012

> <i_f3d_flags>
0

> <s_epik_input>
W0NIMl0xW0NIMl1PW0NIMl1bQ0gyXU4xW0NASF0oW0NIM10pW0NIMl1bTkhdQyg9TylbTkhdYzJbY0hdbltuSF1bY0hdMg==

> <s_epik_cmdline>
J2VwaWtfcHl0aG9uJywgJy1waCcsICc3LjAnLCAnLXRuJywgJzgnLCAnLW1hJywgJzIwMCcsICctbWV0YWxfYmluZGluZycsICctaW1hZScsICc8aW5maWxlLm1hZT4nLCAnLW9tYWUnLCAnPG91dGZpbGUubWFlPic=

> <r_lp_tautomer_probability>
0.5

> <r_epik_Ionization_Penalty>
0.646007

> <r_epik_Ionization_Penalty_Charging>
0.645968

> <r_epik_Ionization_Penalty_Neutral>
3.91929e-05

> <r_epik_State_Penalty>
0.664063

> <r_epik_Charging_Adjusted_Penalty>
1.31003

> <i_epik_Tot_Q>
1

> <i_epik_Tot_abs_Q>
1

> <r_epik_Metal_State_Penalty>
0.664064

> <b_epik_Metal_Only>
0

> <s_lp_Force_Field>
OPLS_2005

> <r_lp_Energy>
23.9653

> <b_lp_Chiralities_Consistent>
1

> <s_lp_Variant>
AV-unprocessed.smi:1712-3

> <Gold.Version>
5.8.1

> <Gold.Id.Protein>
6NUR|6NUR_protein|mol2

> <Gold.PLP.Fitness>
43.2767

> <Gold.PLP.PLP>
-25.6420

> <Gold.PLP.part.hbond>
-5.0953

> <Gold.PLP.part.metal>
0.0000

> <Gold.PLP.part.buried>
-2.6585

> <Gold.PLP.part.nonpolar>
-18.4442

> <Gold.PLP.part.repulsive>
0.6707

> <Gold.PLP.ligand.clash>
0.0000

> <Gold.PLP.ligand.torsion>
0.5833

> <Gold.PLP.Chemscore.Hbond>
5.2506

> <Gold.PLP.Chemscore.CHOScore>
1.0000

> <Gold.PLP.Chemscore.Metal>
0.0000

> <Gold.Chemscore.Hbonds>
donor molecule, donor type, donor heavy atom, donor atom, acceptor molecule, acceptor atom, score
      L1  H     4    26       P1  7948  1.00
      L1  H     7    27       P1  7948  1.00
      L1  H    11    19       P1 10186  0.80
      L1  H    13    38       P1  7948  1.30
      P1  H 10752 10764       L1    16  0.32
      L1  C    12    29       P1 10171  0.97

> <Gold.PLP.Chemscore.Internal.Correction>
0.0497

> <Gold.Rescore>
     Score         DG    S(hbond)    S(metal)    S(lipo)     H(rot)  DE(clash)    DE(int)     intcor
     20.04     -20.77       3.84        0.00      57.82       1.68       0.09       0.65       ----

> <Gold.Chemscore.Fitness>
20.0389

> <Gold.Chemscore.DG>
-20.7740

> <Gold.Chemscore.ZeroCoef>
-5.4800

> <Gold.Chemscore.Hbond>
3.8392

> <Gold.Chemscore.Metal>
0.0000

> <Gold.Chemscore.Lipo>
57.8170

> <Gold.Chemscore.Internal_Hbond>
0.0000

> <Gold.Chemscore.DEClash>
0.0895

> <Gold.Chemscore.DEInternal>
0.6456

> <Gold.Chemscore.Rot>
1.6771

> <Gold.Chemscore.Internal.Correction>
   9.000000E+99

> <Gold.Chemscore.Hbonds>
donor molecule, donor type, donor heavy atom, donor atom, acceptor molecule, acceptor atom, score
      L1  H     4    26       P1  7948  0.96
      L1  H     7    27       P1  7948  0.97
      L1  H    11    19       P1 10186  0.76
      L1  H    13    38       P1  7948  0.61
      P1  H 10752 10764       L1    16  0.01

> <Gold.Chemscore.Hbond.Weighted>
-12.8229

> <Gold.Chemscore.Metal.Weighted>
-0.0000

> <Gold.Chemscore.Lipo.Weighted>
-6.7646

> <Gold.Chemscore.Internal_Hbond.Weighted>
0.0000

> <Gold.Chemscore.DEClash.Weighted>
0.0895

> <Gold.Chemscore.DEInternal.Weighted>
0.6456

> <Gold.Chemscore.Rot.Weighted>
4.2935

> <Gold.Chemscore.Internal.Correction.Weighted>
   9.000000E+99

> <Gold.Protein.RotatedTorsions>
[ 6907 6896 6895 6894 ] final  -22.07 input  -60.11 | X-H torsion
[ 7974 7965 7964 7962 ] final  141.51 input  175.53 | X-H torsion
[ 8008 7997 7996 7995 ] final -105.86 input   59.86 | X-H torsion
[ 10167 10162 10161 10158 ] final  -30.56 input  -65.29 | X-H torsion
[ 10718 10713 10712 10709 ] final   86.25 input   66.30 | X-H torsion
[ 10763 10752 10751 10750 ] final  -39.34 input  -60.55 | X-H torsion
[ 11005 11000 10999 10996 ] final   69.20 input  -57.11 | X-H torsion

> <Gold.Protein.ActiveResidues>
 VAL166  LYS551  ARG553  GLY616  TRP617  ASP618  TYR619  PRO620  LYS621  CYS622 
 ASP623  PHE694  ASN695  SER759  ASP760  ASP761  ALA762  ILE779  LEU786  VAL792 
 PHE793  MET794  SER795  GLU796  ALA797  LYS798  CYS799  TRP800  GLU811  SER814 

> <Gold.Protein.RotatedAtoms>
  151.2240  135.0529  159.8960 H   0  0  0  0  0  0  0  0  0  0  0  0  # atno 6907 bound_to 6896
  152.5412  134.0609  159.8162 H   0  0  0  0  0  0  0  0  0  0  0  0  # atno 6908 bound_to 6896
  151.0779  133.5365  159.2654 H   0  0  0  0  0  0  0  0  0  0  0  0  # atno 6909 bound_to 6896
  144.9089  139.5319  143.5718 H   0  0  0  0  0  0  0  0  0  0  0  0  # atno 7974 bound_to 7965
  154.9060  140.0411  157.1920 H   0  0  0  0  0  0  0  0  0  0  0  0  # atno 8008 bound_to 7997
  154.8396  140.2912  155.5647 H   0  0  0  0  0  0  0  0  0  0  0  0  # atno 8009 bound_to 7997
  156.2991  140.2485  156.3336 H   0  0  0  0  0  0  0  0  0  0  0  0  # atno 8010 bound_to 7997
  140.7248  143.3839  151.1551 H   0  0  0  0  0  0  0  0  0  0  0  0  # atno 10167 bound_to 10162
  157.6926  131.0208  150.2945 H   0  0  0  0  0  0  0  0  0  0  0  0  # atno 10718 bound_to 10713
  153.9278  135.6775  153.4746 H   0  0  0  0  0  0  0  0  0  0  0  0  # atno 10763 bound_to 10752
  153.0995  135.4835  154.8838 H   0  0  0  0  0  0  0  0  0  0  0  0  # atno 10764 bound_to 10752
  154.7444  135.3168  154.8628 H   0  0  0  0  0  0  0  0  0  0  0  0  # atno 10765 bound_to 10752
  139.9667  134.6969  156.0531 H   0  0  0  0  0  0  0  0  0  0  0  0  # atno 11005 bound_to 11000
  146.3148  139.7880  142.8992 LP  0  0  0  0  0  0  0  0  0  0  0  0  # atno 17320 bound_to 7965
  145.3487  141.0303  143.3351 LP  0  0  0  0  0  0  0  0  0  0  0  0  # atno 17321 bound_to 7965
  139.7433  143.8891  152.3056 LP  0  0  0  0  0  0  0  0  0  0  0  0  # atno 17342 bound_to 10162
  139.8720  144.7063  150.8977 LP  0  0  0  0  0  0  0  0  0  0  0  0  # atno 17343 bound_to 10162
  156.3471  130.3825  149.7360 LP  0  0  0  0  0  0  0  0  0  0  0  0  # atno 17370 bound_to 10713
  156.4850  130.8058  151.3071 LP  0  0  0  0  0  0  0  0  0  0  0  0  # atno 17371 bound_to 10713
  141.1347  133.6578  156.3560 LP  0  0  0  0  0  0  0  0  0  0  0  0  # atno 17394 bound_to 11000
  140.5381  134.6147  157.5371 LP  0  0  0  0  0  0  0  0  0  0  0  0  # atno 17395 bound_to 11000

$$$$
