#       Name:                AV-unprocessed.smi:2701
#       Creating user name   scv26
#       Creation time:       Fri Mar 27 14:46:59 2020


#       File generated by GOLD software.
#

@<TRIPOS>MOLECULE
AV-unprocessed.smi:2701
    39    40     1
SMALL
NO_CHARGES


@<TRIPOS>ATOM
      1 ****        -2.7253   0.0025   1.8360 C.3            1 S1                 0.0000
      2 ****        -2.2623   0.7897   0.5968 C.3            1 S1                 0.0000
      3 ****        -0.7302   1.0316   0.6471 C.2            1 S1                 0.0000
      4 ****        -0.2976   2.1200   1.0284 O.2            1 S1                 0.0000
      5 ****        -0.0233  -0.0556   0.2581 N.pl3          1 S1                -1.0000
      6 ****         1.5928  -0.0533   0.2421 S.o2           1 S1                 0.0000
      7 ****         2.1442   0.8815  -0.7516 O.2            1 S1                 0.0000
      8 ****         2.1655  -0.0159   1.5971 O.2            1 S1                 0.0000
      9 ****         1.9278  -1.7461  -0.4086 C.3            1 S1                 0.0000
     10 ****         3.4092  -1.9735  -0.5212 C.2            1 S1                 0.0000
     11 ****         4.3414  -2.2587   0.5150 C.2            1 S1                 0.0000
     12 ****         5.5293  -2.3745  -0.1470 C.2            1 S1                 0.0000
     13 ****         5.3514  -2.1880  -1.4790 O.3            1 S1                 0.0000
     14 ****         3.9940  -1.9362  -1.7088 N.2            1 S1                 0.0000
     15 ****        -3.0763   2.0778   0.3871 C.3            1 S1                 0.0000
     16 ****        -2.9619   2.3397  -1.1056 C.3            1 S1                 0.0000
     17 ****        -2.7082   0.9498  -1.6960 C.3            1 S1                 0.0000
     18 ****        -2.6163   0.0630  -0.5815 O.3            1 S1                 0.0000
     19 ****        -2.5480   0.5685   2.7511 H              1 S1                 0.0000
     20 ****        -2.2007  -0.9494   1.9265 H              1 S1                 0.0000
     21 ****        -3.7914  -0.2198   1.7859 H              1 S1                 0.0000
     22 ****         1.4744  -2.4684   0.2695 H              1 S1                 0.0000
     23 ****         1.4339  -1.8436  -1.3757 H              1 S1                 0.0000
     24 ****         4.1647  -2.3552   1.5760 H              1 S1                 0.0000
     25 ****         6.5402  -2.5797   0.1730 H              1 S1                 0.0000
     26 ****        -4.1226   1.9010   0.6403 H              1 S1                 0.0000
     27 ****        -2.7404   2.9221   0.9902 H              1 S1                 0.0000
     28 ****        -3.8592   2.8092  -1.5094 H              1 S1                 0.0000
     29 ****        -2.1156   2.9955  -1.3143 H              1 S1                 0.0000
     30 ****        -3.5139   0.6318  -2.3578 H              1 S1                 0.0000
     31 ****        -1.7769   0.9328  -2.2636 H              1 S1                 0.0000
     32 ****        -0.9326   2.8419   1.3034 LP             1 S1                 0.0000
     33 ****         0.6887   2.2818   1.0629 LP             1 S1                 0.0000
     34 ****        -0.5129  -0.8799  -0.0262 LP             1 S1                 0.0000
     35 ****         5.6322  -3.0090  -1.9761 LP             1 S1                 0.0000
     36 ****         5.8971  -1.4087  -1.7874 LP             1 S1                 0.0000
     37 ****         3.5550  -1.7632  -2.5905 LP             1 S1                 0.0000
     38 ****        -3.4995  -0.3844  -0.4412 LP             1 S1                 0.0000
     39 ****        -1.9178  -0.6285  -0.7659 LP             1 S1                 0.0000
@<TRIPOS>BOND
    1    1    2 1     
    2    1   19 1     
    3    1   20 1     
    4    1   21 1     
    5    2   18 1     
    6    2    3 1     
    7    2   15 1     
    8    3    4 2     
    9    3    5 1     
   10    5    6 1     
   11    6    7 2     
   12    6    8 2     
   13    6    9 1     
   14    9   10 1     
   15    9   22 1     
   16    9   23 1     
   17   10   14 2     
   18   10   11 1     
   19   11   12 2     
   20   11   24 1     
   21   12   13 1     
   22   12   25 1     
   23   13   14 1     
   24   15   16 1     
   25   15   26 1     
   26   15   27 1     
   27   16   17 1     
   28   16   28 1     
   29   16   29 1     
   30   17   18 1     
   31   17   30 1     
   32   17   31 1     
   33    4   32 1     
   34    4   33 1     
   35    5   34 1     
   36   13   35 1     
   37   13   36 1     
   38   14   37 1     
   39   18   38 1     
   40   18   39 1     
@<TRIPOS>SUBSTRUCTURE
      1 S1             1
@<TRIPOS>SET
LONE_PAIRS      STATIC     ATOMS    <user>   **** ""
10 32 33 34 7 8 35 36 37 38 39
ATOM$BLUE        STATIC     ATOMS    COLORGROUP SYSTEM
10 32 33 34 7 8 35 36 37 38 39
