#       Name:                AV-unprocessed.smi:3245
#       Creating user name   scv26
#       Creation time:       Fri Mar 27 18:28:06 2020


#       File generated by GOLD software.
#

@<TRIPOS>MOLECULE
AV-unprocessed.smi:3245
    41    42     1
SMALL
NO_CHARGES


@<TRIPOS>ATOM
      1 ****        -2.4658  -2.4225  -1.8770 C.3            1 S1                 0.0000
      2 ****        -1.8570  -1.5163  -0.7985 C.3            1 S1                 0.0000
      3 ****        -2.1558  -2.0719   0.6112 C.3            1 S1                 0.0000
      4 ****        -1.6948  -1.1981   1.6754 N.pl3          1 S1                 0.0000
      5 ****        -2.3329  -0.1071   2.2267 C.2            1 S1                 0.0000
      6 ****        -1.5028   0.4092   3.1801 C.2            1 S1                 0.0000
      7 ****        -0.3679  -0.4484   3.1421 C.2            1 S1                 0.0000
      8 ****        -0.4858  -1.4096   2.2400 N.2            1 S1                 0.0000
      9 ****        -0.3992  -1.3914  -1.0266 N.4            1 S1                 1.0000
     10 ****         0.1420  -0.0259  -0.8693 C.3            1 S1                 0.0000
     11 ****         1.6771  -0.0438  -0.8531 C.3            1 S1                 0.0000
     12 ****         2.2215   1.3031  -0.6656 N.am           1 S1                 0.0000
     13 ****         2.5863   2.1164  -1.6649 C.2            1 S1                 0.0000
     14 ****         2.5351   1.8869  -2.8726 O.2            1 S1                 0.0000
     15 ****         3.0790   3.4167  -1.0681 C.3            1 S1                 0.0000
     16 ****         2.8848   3.1196   0.3350 N.am           1 S1                 0.0000
     17 ****         2.3855   1.8928   0.5329 C.2            1 S1                 0.0000
     18 ****         2.1178   1.4028   1.6289 O.2            1 S1                 0.0000
     19 ****        -3.5468  -2.5030  -1.7574 H              1 S1                 0.0000
     20 ****        -2.0508  -3.4301  -1.8314 H              1 S1                 0.0000
     21 ****        -2.2755  -2.0287  -2.8760 H              1 S1                 0.0000
     22 ****        -2.3220  -0.5342  -0.9011 H              1 S1                 0.0000
     23 ****        -3.2306  -2.2096   0.7370 H              1 S1                 0.0000
     24 ****        -1.7027  -3.0566   0.7395 H              1 S1                 0.0000
     25 ****        -3.3107   0.2106   1.8955 H              1 S1                 0.0000
     26 ****        -1.6790   1.2685   3.8101 H              1 S1                 0.0000
     27 ****         0.5323  -0.3994   3.7368 H              1 S1                 0.0000
     28 ****         0.0741  -2.0081  -0.3812 H              1 S1                 0.0000
     29 ****        -0.2245   0.5974  -1.6861 H              1 S1                 0.0000
     30 ****        -0.2268   0.4160   0.0560 H              1 S1                 0.0000
     31 ****         2.0330  -0.6953  -0.0529 H              1 S1                 0.0000
     32 ****         2.0558  -0.4786  -1.7798 H              1 S1                 0.0000
     33 ****         4.1296   3.5943  -1.3007 H              1 S1                 0.0000
     34 ****         2.4721   4.2639  -1.3887 H              1 S1                 0.0000
     35 ****         3.1007   3.7763   1.0713 H              1 S1                 0.0000
     36 ****        -0.1950  -1.6942  -1.9684 H              1 S1                 0.0000
     37 ****         0.1725  -2.1309   2.0246 LP             1 S1                 0.0000
     38 ****         2.1896   1.0075  -3.2002 LP             1 S1                 0.0000
     39 ****         2.8390   2.5797  -3.5265 LP             1 S1                 0.0000
     40 ****         1.7394   0.4788   1.6846 LP             1 S1                 0.0000
     41 ****         2.2786   1.9283   2.4643 LP             1 S1                 0.0000
@<TRIPOS>BOND
    1    1    2 1     
    2    1   19 1     
    3    1   20 1     
    4    1   21 1     
    5    2    3 1     
    6    2    9 1     
    7    2   22 1     
    8    3    4 1     
    9    3   23 1     
   10    3   24 1     
   11    4    8 1     
   12    4    5 1     
   13    5    6 2     
   14    5   25 1     
   15    6    7 1     
   16    6   26 1     
   17    7    8 2     
   18    7   27 1     
   19    9   10 1     
   20    9   28 1     
   21    9   36 1     
   22   10   11 1     
   23   10   29 1     
   24   10   30 1     
   25   11   12 1     
   26   11   31 1     
   27   11   32 1     
   28   12   17 am    
   29   12   13 am    
   30   13   14 2     
   31   13   15 1     
   32   15   16 1     
   33   15   33 1     
   34   15   34 1     
   35   16   17 am    
   36   16   35 1     
   37   17   18 2     
   38    8   37 1     
   39   14   38 1     
   40   14   39 1     
   41   18   40 1     
   42   18   41 1     
@<TRIPOS>SUBSTRUCTURE
      1 S1             1
@<TRIPOS>SET
LONE_PAIRS      STATIC     ATOMS    <user>   **** ""
5 37 38 39 40 41
DONOR_HYDROGENS      STATIC     ATOMS    <user>   **** ""
3 28 36 35
ATOM$BLUE        STATIC     ATOMS    COLORGROUP SYSTEM
5 37 38 39 40 41
ATOM$RED        STATIC     ATOMS    COLORGROUP SYSTEM
3 28 36 35
