AV-unprocessed.smi:1218|AV-procd|sdf|5110|dock3
  -GOLD-   22720 4163D 1   1.00000     0.00000
 Structure written by MMmdl.
 44 45  0  0  0  0  0  0  0  0  1 V2000
  150.7740  137.9337  156.2978 C   0  0  0  0  0  0  0  0  0  0  0  0
  151.1422  138.4236  154.8886 C   0  0  0  0  0  0  0  0  0  0  0  0
  152.6709  138.4168  154.7160 C   0  0  0  0  0  0  0  0  0  0  0  0
  150.5378  139.8206  154.6118 C   0  0  0  0  0  0  0  0  0  0  0  0
  149.0791  139.8674  154.5011 N   0  0  0  0  0  0  0  0  0  0  0  0
  148.6079  141.2461  154.4243 C   0  0  0  0  0  0  0  0  0  0  0  0
  147.0777  141.3262  154.3038 C   0  0  0  0  0  0  0  0  0  0  0  0
  146.6554  140.5785  153.1695 O   0  0  0  0  0  0  0  0  0  0  0  0
  147.0370  139.2064  153.2325 C   0  0  1  0  0  0  0  0  0  0  0  0
  146.5208  138.4834  151.9771 C   0  0  0  0  0  0  0  0  0  0  0  0
  146.6511  137.0351  152.0997 N   0  0  0  0  0  0  0  0  0  0  0  0
  145.6340  136.1601  152.0987 C   0  0  0  0  0  0  0  0  0  0  0  0
  144.4552  136.4966  151.9752 O   0  0  0  0  0  0  0  0  0  0  0  0
  146.0280  134.6868  152.2657 C   0  0  0  0  0  0  0  0  0  0  0  0
  145.5172  133.8376  151.2013 N   0  0  0  0  0  0  0  0  0  0  0  0
  146.1796  132.8529  150.4979 C   0  0  0  0  0  0  0  0  0  0  0  0
  145.2952  132.3299  149.5988 C   0  0  0  0  0  0  0  0  0  0  0  0
  144.1007  133.0671  149.8321 C   0  0  0  0  0  0  0  0  0  0  0  0
  144.2356  133.9667  150.7932 N   0  0  0  0  0  0  0  0  0  0  0  0
  148.5729  139.1283  153.3472 C   0  0  0  0  0  0  0  0  0  0  0  0
  151.1596  138.6057  157.0655 H   0  0  0  0  0  0  0  0  0  0  0  0
  151.1819  136.9407  156.4890 H   0  0  0  0  0  0  0  0  0  0  0  0
  149.6924  137.8710  156.4218 H   0  0  0  0  0  0  0  0  0  0  0  0
  150.7145  137.7073  154.1855 H   0  0  0  0  0  0  0  0  0  0  0  0
  153.1519  139.0812  155.4343 H   0  0  0  0  0  0  0  0  0  0  0  0
  152.9693  138.7400  153.7196 H   0  0  0  0  0  0  0  0  0  0  0  0
  153.0772  137.4164  154.8680 H   0  0  0  0  0  0  0  0  0  0  0  0
  150.8280  140.4797  155.4314 H   0  0  0  0  0  0  0  0  0  0  0  0
  150.9954  140.2577  153.7228 H   0  0  0  0  0  0  0  0  0  0  0  0
  148.9275  141.7972  155.3094 H   0  0  0  0  0  0  0  0  0  0  0  0
  149.0613  141.7444  153.5659 H   0  0  0  0  0  0  0  0  0  0  0  0
  146.5958  140.9418  155.2040 H   0  0  0  0  0  0  0  0  0  0  0  0
  146.7596  142.3621  154.1862 H   0  0  0  0  0  0  0  0  0  0  0  0
  146.5872  138.7504  154.1168 H   0  0  0  0  0  0  0  0  0  0  0  0
  145.4897  138.7702  151.7632 H   0  0  0  0  0  0  0  0  0  0  0  0
  147.1091  138.7899  151.1117 H   0  0  0  0  0  0  0  0  0  0  0  0
  147.5868  136.6714  152.2085 H   0  0  0  0  0  0  0  0  0  0  0  0
  147.1151  134.6001  152.2811 H   0  0  0  0  0  0  0  0  0  0  0  0
  145.6625  134.3211  153.2265 H   0  0  0  0  0  0  0  0  0  0  0  0
  147.2143  132.6123  150.6925 H   0  0  0  0  0  0  0  0  0  0  0  0
  145.4743  131.5419  148.8827 H   0  0  0  0  0  0  0  0  0  0  0  0
  143.1464  132.9752  149.3353 H   0  0  0  0  0  0  0  0  0  0  0  0
  149.0274  139.5139  152.4333 H   0  0  0  0  0  0  0  0  0  0  0  0
  148.8585  138.0798  153.4233 H   0  0  0  0  0  0  0  0  0  0  0  0
  1  2  1  0  0  0  0
  1 21  1  0  0  0  0
  1 22  1  0  0  0  0
  1 23  1  0  0  0  0
  2  3  1  0  0  0  0
  2  4  1  0  0  0  0
  2 24  1  0  0  0  0
  3 25  1  0  0  0  0
  3 26  1  0  0  0  0
  3 27  1  0  0  0  0
  4  5  1  0  0  0  0
  4 28  1  0  0  0  0
  4 29  1  0  0  0  0
  5 20  1  0  0  0  0
  5  6  1  0  0  0  0
  6  7  1  0  0  0  0
  6 30  1  0  0  0  0
  6 31  1  0  0  0  0
  7  8  1  0  0  0  0
  7 32  1  0  0  0  0
  7 33  1  0  0  0  0
  8  9  1  0  0  0  0
  9 10  1  0  0  0  0
  9 20  1  0  0  0  0
  9 34  1  0  0  0  0
 10 11  1  0  0  0  0
 10 35  1  0  0  0  0
 10 36  1  0  0  0  0
 11 12  1  0  0  0  0
 11 37  1  0  0  0  0
 12 13  2  0  0  0  0
 12 14  1  0  0  0  0
 14 15  1  0  0  0  0
 14 38  1  0  0  0  0
 14 39  1  0  0  0  0
 15 19  1  0  0  0  0
 15 16  1  0  0  0  0
 16 17  2  0  0  0  0
 16 40  1  0  0  0  0
 17 18  1  0  0  0  0
 17 41  1  0  0  0  0
 18 19  2  0  0  0  0
 18 42  1  0  0  0  0
 20 43  1  0  0  0  0
 20 44  1  0  0  0  0
M  END
> <s_m_source_file>
AV-unprocessed.smi

> <i_m_source_file_index>
1218

> <i_lp_mmshare_version>
43012

> <i_f3d_flags>
0

> <s_epik_input>
W0NIM11bQ0hdKFtDSDNdKVtDSDJdTjFbQ0gyXVtDSDJdT1tDQEhdKFtDSDJdMSlbQ0gyXVtOSF1DKD1PKVtDSDJdbjJbY0hdW2NIXVtjSF1uMg==

> <s_epik_cmdline>
J2VwaWtfcHl0aG9uJywgJy1waCcsICc3LjAnLCAnLXRuJywgJzgnLCAnLW1hJywgJzIwMCcsICctbWV0YWxfYmluZGluZycsICctaW1hZScsICc8aW5maWxlLm1hZT4nLCAnLW9tYWUnLCAnPG91dGZpbGUubWFlPic=

> <r_lp_tautomer_probability>
1

> <r_epik_Ionization_Penalty>
1.10621

> <r_epik_Ionization_Penalty_Charging>
0

> <r_epik_Ionization_Penalty_Neutral>
1.10621

> <r_epik_State_Penalty>
1.16377

> <r_epik_Charging_Adjusted_Penalty>
1.16377

> <i_epik_Tot_Q>
0

> <i_epik_Tot_abs_Q>
0

> <r_epik_Metal_State_Penalty>
1.16377

> <b_epik_Metal_Only>
0

> <s_lp_Force_Field>
OPLS_2005

> <r_lp_Energy>
27.1639

> <b_lp_Chiralities_Consistent>
1

> <s_lp_Variant>
AV-unprocessed.smi:1218-5

> <Gold.Version>
5.8.1

> <Gold.Id.Protein>
6NUR|6NUR_protein|mol2

> <Gold.PLP.Fitness>
42.2389

> <Gold.PLP.PLP>
-34.2043

> <Gold.PLP.part.hbond>
-0.7586

> <Gold.PLP.part.metal>
0.0000

> <Gold.PLP.part.buried>
-1.3223

> <Gold.PLP.part.nonpolar>
-35.5518

> <Gold.PLP.part.repulsive>
1.6785

> <Gold.PLP.ligand.clash>
0.0000

> <Gold.PLP.ligand.torsion>
0.3457

> <Gold.PLP.Chemscore.Hbond>
0.9100

> <Gold.PLP.Chemscore.CHOScore>
1.9358

> <Gold.PLP.Chemscore.Metal>
0.0000

> <Gold.Chemscore.Hbonds>
donor molecule, donor type, donor heavy atom, donor atom, acceptor molecule, acceptor atom, score
      L1  H    11    37       P1  7948  0.83
      L1  C    16    40       P1 10747  1.00
      L1  C    18    42       P1 10186  0.86

> <Gold.PLP.Chemscore.Internal.Correction>
0.1887

> <Gold.Rescore>
     Score         DG    S(hbond)    S(metal)    S(lipo)     H(rot)  DE(clash)    DE(int)     intcor
     11.38     -15.44       0.96        0.00      99.26       1.90       2.45       1.61       ----

> <Gold.Chemscore.Fitness>
11.3775

> <Gold.Chemscore.DG>
-15.4391

> <Gold.Chemscore.ZeroCoef>
-5.4800

> <Gold.Chemscore.Hbond>
0.9588

> <Gold.Chemscore.Metal>
0.0000

> <Gold.Chemscore.Lipo>
99.2563

> <Gold.Chemscore.Internal_Hbond>
0.0000

> <Gold.Chemscore.DEClash>
2.4467

> <Gold.Chemscore.DEInternal>
1.6149

> <Gold.Chemscore.Rot>
1.8970

> <Gold.Chemscore.Internal.Correction>
   9.000000E+99

> <Gold.Chemscore.Hbonds>
donor molecule, donor type, donor heavy atom, donor atom, acceptor molecule, acceptor atom, score
      L1  H    11    37       P1  7948  0.82

> <Gold.Chemscore.Hbond.Weighted>
-3.2025

> <Gold.Chemscore.Metal.Weighted>
-0.0000

> <Gold.Chemscore.Lipo.Weighted>
-11.6130

> <Gold.Chemscore.Internal_Hbond.Weighted>
0.0000

> <Gold.Chemscore.DEClash.Weighted>
2.4467

> <Gold.Chemscore.DEInternal.Weighted>
1.6149

> <Gold.Chemscore.Rot.Weighted>
4.8564

> <Gold.Chemscore.Internal.Correction.Weighted>
   9.000000E+99

> <Gold.Protein.RotatedTorsions>
[ 6907 6896 6895 6894 ] final -164.52 input  -60.11 | X-H torsion
[ 7974 7965 7964 7962 ] final   53.56 input  175.53 | X-H torsion
[ 8008 7997 7996 7995 ] final  -99.07 input   59.86 | X-H torsion
[ 10167 10162 10161 10158 ] final -154.75 input  -65.29 | X-H torsion
[ 10718 10713 10712 10709 ] final   68.16 input   66.30 | X-H torsion
[ 10763 10752 10751 10750 ] final -172.14 input  -60.55 | X-H torsion
[ 11005 11000 10999 10996 ] final  -95.90 input  -57.11 | X-H torsion

> <Gold.Protein.ActiveResidues>
 VAL166  LYS551  ARG553  GLY616  TRP617  ASP618  TYR619  PRO620  LYS621  CYS622 
 ASP623  PHE694  ASN695  SER759  ASP760  ASP761  ALA762  ILE779  LEU786  VAL792 
 PHE793  MET794  SER795  GLU796  ALA797  LYS798  CYS799  TRP800  GLU811  SER814 

> <Gold.Protein.RotatedAtoms>
  151.4131  133.3721  159.2746 H   0  0  0  0  0  0  0  0  0  0  0  0  # atno 6907 bound_to 6896
  150.9348  134.8763  159.7585 H   0  0  0  0  0  0  0  0  0  0  0  0  # atno 6908 bound_to 6896
  152.5045  134.4078  159.9490 H   0  0  0  0  0  0  0  0  0  0  0  0  # atno 6909 bound_to 6896
  145.9699  139.4139  143.0197 H   0  0  0  0  0  0  0  0  0  0  0  0  # atno 7974 bound_to 7965
  154.8097  140.0450  157.1334 H   0  0  0  0  0  0  0  0  0  0  0  0  # atno 8008 bound_to 7997
  154.9382  140.3049  155.5114 H   0  0  0  0  0  0  0  0  0  0  0  0  # atno 8009 bound_to 7997
  156.2970  140.2310  156.4449 H   0  0  0  0  0  0  0  0  0  0  0  0  # atno 8010 bound_to 7997
  139.6988  143.9298  152.2419 H   0  0  0  0  0  0  0  0  0  0  0  0  # atno 10167 bound_to 10162
  157.6273  130.9359  150.0340 H   0  0  0  0  0  0  0  0  0  0  0  0  # atno 10718 bound_to 10713
  154.6227  135.2877  155.0308 H   0  0  0  0  0  0  0  0  0  0  0  0  # atno 10763 bound_to 10752
  154.1497  135.6505  153.4964 H   0  0  0  0  0  0  0  0  0  0  0  0  # atno 10764 bound_to 10752
  153.0243  135.5352  154.7023 H   0  0  0  0  0  0  0  0  0  0  0  0  # atno 10765 bound_to 10752
  141.1428  133.8059  157.0498 H   0  0  0  0  0  0  0  0  0  0  0  0  # atno 11005 bound_to 11000
  145.7921  140.9809  143.1043 LP  0  0  0  0  0  0  0  0  0  0  0  0  # atno 17320 bound_to 7965
  144.6834  139.9696  143.7482 LP  0  0  0  0  0  0  0  0  0  0  0  0  # atno 17321 bound_to 7965
  139.9135  144.6842  150.8537 LP  0  0  0  0  0  0  0  0  0  0  0  0  # atno 17342 bound_to 10162
  140.7704  143.3426  151.2176 LP  0  0  0  0  0  0  0  0  0  0  0  0  # atno 17343 bound_to 10162
  156.1453  130.3642  149.9520 LP  0  0  0  0  0  0  0  0  0  0  0  0  # atno 17370 bound_to 10713
  156.7551  130.9130  151.3639 LP  0  0  0  0  0  0  0  0  0  0  0  0  # atno 17371 bound_to 10713
  140.0639  134.9739  157.1352 LP  0  0  0  0  0  0  0  0  0  0  0  0  # atno 17394 bound_to 11000
  140.3808  134.2289  155.7171 LP  0  0  0  0  0  0  0  0  0  0  0  0  # atno 17395 bound_to 11000

$$$$
