AV-unprocessed.smi:3282|AV-procd|sdf|12565|dock3
  -GOLD-   2272018483D 1   1.00000     0.00000
 Structure written by MMmdl.
 34 35  0  0  0  0  0  0  0  0  1 V2000
  152.1468  144.9715  159.1125 C   0  0  0  0  0  0  0  0  0  0  0  0
  151.8150  143.6911  158.3288 C   0  0  0  0  0  0  0  0  0  0  0  0
  152.0796  142.3966  159.1161 C   0  0  0  0  0  0  0  0  0  0  0  0
  152.5624  142.4547  160.2481 O   0  0  0  0  0  0  0  0  0  0  0  0
  151.7703  141.2209  158.5304 N   0  0  0  0  0  0  0  0  0  0  0  0
  151.1831  141.1141  157.1975 C   0  0  0  0  0  0  0  0  0  0  0  0
  150.7763  139.6499  157.0326 C   0  0  0  0  0  0  0  0  0  0  0  0
  151.6779  138.8874  157.9995 C   0  0  2  0  0  0  0  0  0  0  0  0
  151.0308  137.6783  158.4992 N   0  0  0  0  0  0  0  0  0  0  0  0
  149.7515  137.5928  158.8937 C   0  0  0  0  0  0  0  0  0  0  0  0
  148.9964  138.5700  158.8738 O   0  0  0  0  0  0  0  0  0  0  0  0
  149.4650  136.3137  159.3400 N   0  0  0  0  0  0  0  0  0  0  0  0
  148.5624  136.1742  160.2606 C   0  0  0  0  0  0  0  0  0  0  0  0
  148.1066  134.9973  160.8326 N   0  0  0  0  0  0  0  0  0  0  0  0
  147.1639  135.3181  161.7701 C   0  0  0  0  0  0  0  0  0  0  0  0
  147.0315  136.6414  161.7889 C   0  0  0  0  0  0  0  0  0  0  0  0
  147.8759  137.1966  160.8753 O   0  0  0  0  0  0  0  0  0  0  0  0
  151.9683  139.8974  159.1183 C   0  0  0  0  0  0  0  0  0  0  0  0
  151.9526  145.8550  158.5043 H   0  0  0  0  0  0  0  0  0  0  0  0
  153.1971  144.9985  159.4052 H   0  0  0  0  0  0  0  0  0  0  0  0
  151.5408  145.0554  160.0155 H   0  0  0  0  0  0  0  0  0  0  0  0
  150.7656  143.7147  158.0333 H   0  0  0  0  0  0  0  0  0  0  0  0
  152.4043  143.6758  157.4115 H   0  0  0  0  0  0  0  0  0  0  0  0
  150.3276  141.7796  157.0711 H   0  0  0  0  0  0  0  0  0  0  0  0
  151.9365  141.3866  156.4569 H   0  0  0  0  0  0  0  0  0  0  0  0
  149.7308  139.5375  157.3249 H   0  0  0  0  0  0  0  0  0  0  0  0
  150.8709  139.3009  156.0040 H   0  0  0  0  0  0  0  0  0  0  0  0
  152.6079  138.6372  157.4856 H   0  0  0  0  0  0  0  0  0  0  0  0
  151.5988  136.8451  158.5534 H   0  0  0  0  0  0  0  0  0  0  0  0
  148.3928  134.0507  160.6285 H   0  0  0  0  0  0  0  0  0  0  0  0
  146.6752  134.5424  162.3407 H   0  0  0  0  0  0  0  0  0  0  0  0
  146.4101  137.3088  162.3675 H   0  0  0  0  0  0  0  0  0  0  0  0
  152.9795  139.7655  159.5055 H   0  0  0  0  0  0  0  0  0  0  0  0
  151.2694  139.7773  159.9481 H   0  0  0  0  0  0  0  0  0  0  0  0
  1  2  1  0  0  0  0
  1 19  1  0  0  0  0
  1 20  1  0  0  0  0
  1 21  1  0  0  0  0
  2  3  1  0  0  0  0
  2 22  1  0  0  0  0
  2 23  1  0  0  0  0
  3  4  2  0  0  0  0
  3  5  1  0  0  0  0
  5 18  1  0  0  0  0
  5  6  1  0  0  0  0
  6  7  1  0  0  0  0
  6 24  1  0  0  0  0
  6 25  1  0  0  0  0
  7  8  1  0  0  0  0
  7 26  1  0  0  0  0
  7 27  1  0  0  0  0
  8  9  1  0  0  0  0
  8 18  1  0  0  0  0
  8 28  1  0  0  0  0
  9 29  1  0  0  0  0
  9 10  1  0  0  0  0
 10 12  1  0  0  0  0
 10 11  2  0  0  0  0
 12 13  2  0  0  0  0
 13 17  1  0  0  0  0
 13 14  1  0  0  0  0
 14 30  1  0  0  0  0
 14 15  1  0  0  0  0
 15 31  1  0  0  0  0
 15 16  2  0  0  0  0
 16 32  1  0  0  0  0
 16 17  1  0  0  0  0
 18 33  1  0  0  0  0
 18 34  1  0  0  0  0
M  END
> <s_m_source_file>
AV-unprocessed.smi

> <i_m_source_file_index>
3282

> <i_lp_mmshare_version>
43012

> <i_f3d_flags>
0

> <s_epik_input>
W0NIM11bQ0gyXUMoPU8pTjFbQ0gyXVtDSDJdW0NASF0oW0NIMl0xKVtOSF1DKD1PKVtOSF1jMm5bY0hdW2NIXW8y

> <s_epik_cmdline>
J2VwaWtfcHl0aG9uJywgJy1waCcsICc3LjAnLCAnLXRuJywgJzgnLCAnLW1hJywgJzIwMCcsICctbWV0YWxfYmluZGluZycsICctaW1hZScsICc8aW5maWxlLm1hZT4nLCAnLW9tYWUnLCAnPG91dGZpbGUubWFlPic=

> <r_lp_tautomer_probability>
0.107061

> <r_epik_Ionization_Penalty>
0.434703

> <r_epik_Ionization_Penalty_Charging>
0.434345

> <r_epik_Ionization_Penalty_Neutral>
0.000358141

> <r_epik_State_Penalty>
2.49584

> <r_epik_Charging_Adjusted_Penalty>
2.93019

> <i_epik_Tot_Q>
0

> <i_epik_Tot_abs_Q>
0

> <r_epik_Metal_State_Penalty>
4.06361

> <b_epik_Metal_Only>
0

> <s_lp_Force_Field>
OPLS_2005

> <r_lp_Energy>
49.1525

> <b_lp_Chiralities_Consistent>
1

> <s_lp_Variant>
AV-unprocessed.smi:3282-6

> <Gold.Version>
5.8.1

> <Gold.Id.Protein>
6NUR|6NUR_protein|mol2

> <Gold.PLP.Fitness>
40.5927

> <Gold.PLP.PLP>
-33.3817

> <Gold.PLP.part.hbond>
-4.4967

> <Gold.PLP.part.metal>
0.0000

> <Gold.PLP.part.buried>
-4.0747

> <Gold.PLP.part.nonpolar>
-25.6988

> <Gold.PLP.part.repulsive>
0.2087

> <Gold.PLP.ligand.clash>
0.0000

> <Gold.PLP.ligand.torsion>
0.3816

> <Gold.PLP.Chemscore.Hbond>
2.6552

> <Gold.PLP.Chemscore.CHOScore>
0.0000

> <Gold.PLP.Chemscore.Metal>
0.0000

> <Gold.Chemscore.Hbonds>
donor molecule, donor type, donor heavy atom, donor atom, acceptor molecule, acceptor atom, score
      P1  H  6896  6909       L1    12  0.99
      P1  H  6931  6943       L1    17  0.88
      P1  H  6934  6947       L1    17  0.78

> <Gold.PLP.Chemscore.Internal.Correction>
0.0087

> <Gold.Rescore>
     Score         DG    S(hbond)    S(metal)    S(lipo)     H(rot)  DE(clash)    DE(int)     intcor
     11.70     -15.04       1.75        0.00      60.52       1.32       0.02       3.32       ----

> <Gold.Chemscore.Fitness>
11.7050

> <Gold.Chemscore.DG>
-15.0401

> <Gold.Chemscore.ZeroCoef>
-5.4800

> <Gold.Chemscore.Hbond>
1.7540

> <Gold.Chemscore.Metal>
0.0000

> <Gold.Chemscore.Lipo>
60.5192

> <Gold.Chemscore.Internal_Hbond>
0.0000

> <Gold.Chemscore.DEClash>
0.0174

> <Gold.Chemscore.DEInternal>
3.3178

> <Gold.Chemscore.Rot>
1.3199

> <Gold.Chemscore.Internal.Correction>
   9.000000E+99

> <Gold.Chemscore.Hbonds>
donor molecule, donor type, donor heavy atom, donor atom, acceptor molecule, acceptor atom, score
      P1  H  6896  6909       L1    12  0.46
      P1  H  6931  6943       L1    17  0.34
      P1  H  6934  6947       L1    17  0.17

> <Gold.Chemscore.Hbond.Weighted>
-5.8583

> <Gold.Chemscore.Metal.Weighted>
-0.0000

> <Gold.Chemscore.Lipo.Weighted>
-7.0807

> <Gold.Chemscore.Internal_Hbond.Weighted>
0.0000

> <Gold.Chemscore.DEClash.Weighted>
0.0174

> <Gold.Chemscore.DEInternal.Weighted>
3.3178

> <Gold.Chemscore.Rot.Weighted>
3.3789

> <Gold.Chemscore.Internal.Correction.Weighted>
   9.000000E+99

> <Gold.Protein.RotatedTorsions>
[ 6907 6896 6895 6894 ] final   63.67 input  -60.11 | X-H torsion
[ 7974 7965 7964 7962 ] final  105.77 input  175.53 | X-H torsion
[ 8008 7997 7996 7995 ] final   65.64 input   59.86 | X-H torsion
[ 10167 10162 10161 10158 ] final  -90.48 input  -65.29 | X-H torsion
[ 10718 10713 10712 10709 ] final   69.36 input   66.30 | X-H torsion
[ 10763 10752 10751 10750 ] final  -32.78 input  -60.55 | X-H torsion
[ 11005 11000 10999 10996 ] final  126.75 input  -57.11 | X-H torsion

> <Gold.Protein.ActiveResidues>
 VAL166  LYS551  ARG553  GLY616  TRP617  ASP618  TYR619  PRO620  LYS621  CYS622 
 ASP623  PHE694  ASN695  SER759  ASP760  ASP761  ALA762  ILE779  LEU786  VAL792 
 PHE793  MET794  SER795  GLU796  ALA797  LYS798  CYS799  TRP800  GLU811  SER814 

> <Gold.Protein.RotatedAtoms>
  152.4271  134.5848  159.9957 H   0  0  0  0  0  0  0  0  0  0  0  0  # atno 6907 bound_to 6896
  151.5981  133.3353  159.3049 H   0  0  0  0  0  0  0  0  0  0  0  0  # atno 6908 bound_to 6896
  150.8161  134.7381  159.6796 H   0  0  0  0  0  0  0  0  0  0  0  0  # atno 6909 bound_to 6896
  145.3153  139.2528  143.3741 H   0  0  0  0  0  0  0  0  0  0  0  0  # atno 7974 bound_to 7965
  155.6648  140.3497  155.4796 H   0  0  0  0  0  0  0  0  0  0  0  0  # atno 8008 bound_to 7997
  155.9738  140.1161  157.0812 H   0  0  0  0  0  0  0  0  0  0  0  0  # atno 8009 bound_to 7997
  154.4173  140.1152  156.5328 H   0  0  0  0  0  0  0  0  0  0  0  0  # atno 8010 bound_to 7997
  140.3544  143.2874  151.9688 H   0  0  0  0  0  0  0  0  0  0  0  0  # atno 10167 bound_to 10162
  157.6341  130.9421  150.0503 H   0  0  0  0  0  0  0  0  0  0  0  0  # atno 10718 bound_to 10713
  153.8195  135.6875  153.4829 H   0  0  0  0  0  0  0  0  0  0  0  0  # atno 10763 bound_to 10752
  153.1578  135.4592  154.9727 H   0  0  0  0  0  0  0  0  0  0  0  0  # atno 10764 bound_to 10752
  154.7934  135.3310  154.7668 H   0  0  0  0  0  0  0  0  0  0  0  0  # atno 10765 bound_to 10752
  139.9472  134.9628  156.8754 H   0  0  0  0  0  0  0  0  0  0  0  0  # atno 11005 bound_to 11000
  146.3103  140.3698  142.8673 LP  0  0  0  0  0  0  0  0  0  0  0  0  # atno 17320 bound_to 7965
  144.8983  140.7610  143.5883 LP  0  0  0  0  0  0  0  0  0  0  0  0  # atno 17321 bound_to 7965
  139.4822  144.6047  151.7542 LP  0  0  0  0  0  0  0  0  0  0  0  0  # atno 17342 bound_to 10162
  140.5187  144.0912  150.6016 LP  0  0  0  0  0  0  0  0  0  0  0  0  # atno 17343 bound_to 10162
  156.1567  130.3643  149.9359 LP  0  0  0  0  0  0  0  0  0  0  0  0  # atno 17370 bound_to 10713
  156.7366  130.9064  151.3629 LP  0  0  0  0  0  0  0  0  0  0  0  0  # atno 17371 bound_to 10713
  140.5805  134.0356  155.7462 LP  0  0  0  0  0  0  0  0  0  0  0  0  # atno 17394 bound_to 11000
  141.1126  133.9592  157.2882 LP  0  0  0  0  0  0  0  0  0  0  0  0  # atno 17395 bound_to 11000

$$$$
