AV-unprocessed.smi:3295|AV-procd|sdf|12636|dock1
  -GOLD-   2272018573D 1   1.00000     0.00000
 Structure written by MMmdl.
 38 39  0  0  0  0  0  0  0  0  2 V2000
  149.1074  138.5677  155.2693 C   0  0  0  0  0  0  0  0  0  0  0  0
  148.3847  139.8019  154.7580 C   0  0  0  0  0  0  0  0  0  0  0  0
  148.8509  141.0822  155.1276 C   0  0  0  0  0  0  0  0  0  0  0  0
  148.2227  142.1888  154.6780 N   0  3  0  0  0  0  0  0  0  0  0  0
  147.1461  142.1374  153.8669 C   0  0  0  0  0  0  0  0  0  0  0  0
  146.6306  140.8906  153.4613 C   0  0  0  0  0  0  0  0  0  0  0  0
  147.2444  139.6966  153.9200 C   0  0  0  0  0  0  0  0  0  0  0  0
  146.7949  138.3990  153.5435 N   0  0  0  0  0  0  0  0  0  0  0  0
  145.5354  137.9650  153.3646 C   0  0  0  0  0  0  0  0  0  0  0  0
  144.5214  138.6474  153.5073 O   0  0  0  0  0  0  0  0  0  0  0  0
  145.5159  136.6702  153.0202 N   0  0  0  0  0  0  0  0  0  0  0  0
  144.3134  135.8975  152.7202 C   0  0  0  0  0  0  0  0  0  0  0  0
  144.2788  135.3730  151.2618 C   0  0  0  0  0  0  0  0  0  0  0  0
  144.9505  136.3053  150.4371 O   0  0  0  0  0  0  0  0  0  0  0  0
  144.8406  133.9542  151.0743 C   0  0  0  0  0  0  0  0  0  0  0  0
  143.6874  133.0230  151.4612 C   0  0  0  0  0  0  0  0  0  0  0  0
  142.3971  133.8116  151.1874 C   0  0  0  0  0  0  0  0  0  0  0  0
  142.8342  135.2213  150.7636 C   0  0  0  0  0  0  0  0  0  0  0  0
  149.9494  138.8381  155.9075 H   0  0  0  0  0  0  0  0  0  0  0  0
  149.4923  137.9782  154.4366 H   0  0  0  0  0  0  0  0  0  0  0  0
  148.4301  137.9430  155.8523 H   0  0  0  0  0  0  0  0  0  0  0  0
  149.7055  141.2551  155.7656 H   0  0  0  0  0  0  0  0  0  0  0  0
  146.7349  143.0888  153.5626 H   0  0  0  0  0  0  0  0  0  0  0  0
  145.7813  140.8765  152.7956 H   0  0  0  0  0  0  0  0  0  0  0  0
  147.5165  137.6973  153.4684 H   0  0  0  0  0  0  0  0  0  0  0  0
  146.3972  136.1857  152.9339 H   0  0  0  0  0  0  0  0  0  0  0  0
  144.3135  135.0552  153.4124 H   0  0  0  0  0  0  0  0  0  0  0  0
  143.4099  136.4656  152.9501 H   0  0  0  0  0  0  0  0  0  0  0  0
  144.3254  136.9476  150.1380 H   0  0  0  0  0  0  0  0  0  0  0  0
  145.0788  133.7916  150.0219 H   0  0  0  0  0  0  0  0  0  0  0  0
  145.7518  133.7536  151.6374 H   0  0  0  0  0  0  0  0  0  0  0  0
  143.7226  132.0842  150.9076 H   0  0  0  0  0  0  0  0  0  0  0  0
  143.7493  132.7787  152.5223 H   0  0  0  0  0  0  0  0  0  0  0  0
  141.7933  133.3408  150.4107 H   0  0  0  0  0  0  0  0  0  0  0  0
  141.7881  133.8545  152.0911 H   0  0  0  0  0  0  0  0  0  0  0  0
  142.1686  135.9987  151.1411 H   0  0  0  0  0  0  0  0  0  0  0  0
  142.8071  135.2778  149.6739 H   0  0  0  0  0  0  0  0  0  0  0  0
  148.5802  143.1023  154.9587 H   0  0  0  0  0  0  0  0  0  0  0  0
  1  2  1  0  0  0  0
  1 19  1  0  0  0  0
  1 20  1  0  0  0  0
  1 21  1  0  0  0  0
  2  7  1  0  0  0  0
  2  3  2  0  0  0  0
  3  4  1  0  0  0  0
  3 22  1  0  0  0  0
  4  5  2  0  0  0  0
  4 38  1  0  0  0  0
  5  6  1  0  0  0  0
  5 23  1  0  0  0  0
  6  7  2  0  0  0  0
  6 24  1  0  0  0  0
  7  8  1  0  0  0  0
  8  9  1  0  0  0  0
  8 25  1  0  0  0  0
  9 10  2  0  0  0  0
  9 11  1  0  0  0  0
 11 12  1  0  0  0  0
 11 26  1  0  0  0  0
 12 13  1  0  0  0  0
 12 27  1  0  0  0  0
 12 28  1  0  0  0  0
 13 18  1  0  0  0  0
 13 14  1  0  0  0  0
 13 15  1  0  0  0  0
 14 29  1  0  0  0  0
 15 16  1  0  0  0  0
 15 30  1  0  0  0  0
 15 31  1  0  0  0  0
 16 17  1  0  0  0  0
 16 32  1  0  0  0  0
 16 33  1  0  0  0  0
 17 18  1  0  0  0  0
 17 34  1  0  0  0  0
 17 35  1  0  0  0  0
 18 36  1  0  0  0  0
 18 37  1  0  0  0  0
M  CHG  1   4   1
M  END
> <s_m_source_file>
AV-unprocessed.smi

> <i_m_source_file_index>
3295

> <i_lp_mmshare_version>
43012

> <i_f3d_flags>
0

> <s_epik_input>
W0NIM11jMVtjSF1uW2NIXVtjSF1jMVtOSF1DKD1PKVtOSF1bQ0gyXUMyKFtPSF0pW0NIMl1bQ0gyXVtDSDJdW0NIMl0y

> <s_epik_cmdline>
J2VwaWtfcHl0aG9uJywgJy1waCcsICc3LjAnLCAnLXRuJywgJzgnLCAnLW1hJywgJzIwMCcsICctbWV0YWxfYmluZGluZycsICctaW1hZScsICc8aW5maWxlLm1hZT4nLCAnLW9tYWUnLCAnPG91dGZpbGUubWFlPic=

> <r_epik_Ionization_Penalty>
0.684362

> <r_epik_Ionization_Penalty_Charging>
0.684339

> <r_epik_Ionization_Penalty_Neutral>
2.25036e-05

> <r_epik_State_Penalty>
0.705654

> <r_epik_Charging_Adjusted_Penalty>
1.38999

> <i_epik_Tot_Q>
1

> <i_epik_Tot_abs_Q>
1

> <r_epik_Metal_State_Penalty>
0.870015

> <b_epik_Metal_Only>
0

> <s_lp_Force_Field>
OPLS_2005

> <r_lp_Energy>
34.1555

> <b_lp_Chiralities_Consistent>
1

> <s_lp_Variant>
AV-unprocessed.smi:3295-2

> <Gold.Version>
5.8.1

> <Gold.Id.Protein>
6NUR|6NUR_protein|mol2

> <Gold.PLP.Fitness>
46.7167

> <Gold.PLP.PLP>
-34.0474

> <Gold.PLP.part.hbond>
-4.5910

> <Gold.PLP.part.metal>
0.0000

> <Gold.PLP.part.buried>
-3.5687

> <Gold.PLP.part.nonpolar>
-27.0370

> <Gold.PLP.part.repulsive>
0.4386

> <Gold.PLP.ligand.clash>
0.0000

> <Gold.PLP.ligand.torsion>
0.8357

> <Gold.PLP.Chemscore.Hbond>
4.7754

> <Gold.PLP.Chemscore.CHOScore>
0.0000

> <Gold.PLP.Chemscore.Metal>
0.0000

> <Gold.Chemscore.Hbonds>
donor molecule, donor type, donor heavy atom, donor atom, acceptor molecule, acceptor atom, score
      L1  H     4    38       P1  8028  2.00
      L1  H    14    29       P1 10171  1.00

> <Gold.PLP.Chemscore.Internal.Correction>
0.0144

> <Gold.Rescore>
     Score         DG    S(hbond)    S(metal)    S(lipo)     H(rot)  DE(clash)    DE(int)     intcor
     20.39     -22.48       3.79        0.00      75.19       1.74       0.32       1.76       ----

> <Gold.Chemscore.Fitness>
20.3925

> <Gold.Chemscore.DG>
-22.4775

> <Gold.Chemscore.ZeroCoef>
-5.4800

> <Gold.Chemscore.Hbond>
3.7875

> <Gold.Chemscore.Metal>
0.0000

> <Gold.Chemscore.Lipo>
75.1889

> <Gold.Chemscore.Internal_Hbond>
0.0000

> <Gold.Chemscore.DEClash>
0.3220

> <Gold.Chemscore.DEInternal>
1.7630

> <Gold.Chemscore.Rot>
1.7382

> <Gold.Chemscore.Internal.Correction>
   9.000000E+99

> <Gold.Chemscore.Hbonds>
donor molecule, donor type, donor heavy atom, donor atom, acceptor molecule, acceptor atom, score
      L1  H     4    38       P1  8028  1.00
      L1  H    14    29       P1 10171  0.96

> <Gold.Chemscore.Hbond.Weighted>
-12.6501

> <Gold.Chemscore.Metal.Weighted>
-0.0000

> <Gold.Chemscore.Lipo.Weighted>
-8.7971

> <Gold.Chemscore.Internal_Hbond.Weighted>
0.0000

> <Gold.Chemscore.DEClash.Weighted>
0.3220

> <Gold.Chemscore.DEInternal.Weighted>
1.7630

> <Gold.Chemscore.Rot.Weighted>
4.4497

> <Gold.Chemscore.Internal.Correction.Weighted>
   9.000000E+99

> <Gold.Protein.RotatedTorsions>
[ 6907 6896 6895 6894 ] final -149.56 input  -60.11 | X-H torsion
[ 7974 7965 7964 7962 ] final  132.57 input  175.53 | X-H torsion
[ 8008 7997 7996 7995 ] final  -52.09 input   59.86 | X-H torsion
[ 10167 10162 10161 10158 ] final -111.50 input  -65.29 | X-H torsion
[ 10718 10713 10712 10709 ] final   -6.96 input   66.30 | X-H torsion
[ 10763 10752 10751 10750 ] final   30.29 input  -60.55 | X-H torsion
[ 11005 11000 10999 10996 ] final  101.20 input  -57.11 | X-H torsion

> <Gold.Protein.ActiveResidues>
 VAL166  LYS551  ARG553  GLY616  TRP617  ASP618  TYR619  PRO620  LYS621  CYS622 
 ASP623  PHE694  ASN695  SER759  ASP760  ASP761  ALA762  ILE779  LEU786  VAL792 
 PHE793  MET794  SER795  GLU796  ALA797  LYS798  CYS799  TRP800  GLU811  SER814 

> <Gold.Protein.RotatedAtoms>
  151.1859  133.4696  159.2594 H   0  0  0  0  0  0  0  0  0  0  0  0  # atno 6907 bound_to 6896
  151.1212  135.0080  159.8549 H   0  0  0  0  0  0  0  0  0  0  0  0  # atno 6908 bound_to 6896
  152.5456  134.1770  159.8673 H   0  0  0  0  0  0  0  0  0  0  0  0  # atno 6909 bound_to 6896
  144.9954  139.4364  143.5318 H   0  0  0  0  0  0  0  0  0  0  0  0  # atno 7974 bound_to 7965
  154.4098  140.1232  156.4936 H   0  0  0  0  0  0  0  0  0  0  0  0  # atno 8008 bound_to 7997
  155.6966  140.3495  155.4896 H   0  0  0  0  0  0  0  0  0  0  0  0  # atno 8009 bound_to 7997
  155.9422  140.1089  157.1036 H   0  0  0  0  0  0  0  0  0  0  0  0  # atno 8010 bound_to 7997
  140.1329  143.4345  152.1615 H   0  0  0  0  0  0  0  0  0  0  0  0  # atno 10167 bound_to 10162
  156.7242  130.5160  149.5861 H   0  0  0  0  0  0  0  0  0  0  0  0  # atno 10718 bound_to 10713
  153.0380  135.6468  154.1021 H   0  0  0  0  0  0  0  0  0  0  0  0  # atno 10763 bound_to 10752
  154.0733  135.2879  155.3306 H   0  0  0  0  0  0  0  0  0  0  0  0  # atno 10764 bound_to 10752
  154.6580  135.5402  153.8047 H   0  0  0  0  0  0  0  0  0  0  0  0  # atno 10765 bound_to 10752
  139.8772  134.9173  156.4870 H   0  0  0  0  0  0  0  0  0  0  0  0  # atno 11005 bound_to 11000
  146.3441  139.9311  142.8753 LP  0  0  0  0  0  0  0  0  0  0  0  0  # atno 17320 bound_to 7965
  145.2227  140.9941  143.4036 LP  0  0  0  0  0  0  0  0  0  0  0  0  # atno 17321 bound_to 7965
  139.5510  144.7338  151.4434 LP  0  0  0  0  0  0  0  0  0  0  0  0  # atno 17342 bound_to 10162
  140.6806  143.8090  150.7116 LP  0  0  0  0  0  0  0  0  0  0  0  0  # atno 17343 bound_to 10162
  156.1573  130.6350  151.0673 LP  0  0  0  0  0  0  0  0  0  0  0  0  # atno 17370 bound_to 10713
  157.6885  131.0817  150.7174 LP  0  0  0  0  0  0  0  0  0  0  0  0  # atno 17371 bound_to 10713
  140.8686  133.8006  155.9340 LP  0  0  0  0  0  0  0  0  0  0  0  0  # atno 17394 bound_to 11000
  140.8976  134.2418  157.5060 LP  0  0  0  0  0  0  0  0  0  0  0  0  # atno 17395 bound_to 11000

$$$$
