#       Name:                AV-unprocessed.smi:670
#       Creating user name   scv26
#       Creation time:       Fri Mar 27 00:22:08 2020


#       File generated by GOLD software.
#

@<TRIPOS>MOLECULE
AV-unprocessed.smi:670
    53    54     1
SMALL
NO_CHARGES


@<TRIPOS>ATOM
      1 ****        -2.6459  -0.2087  -1.1605 C.3            1 S1                 0.0000
      2 ****        -3.1120   0.5409   0.0968 C.3            1 S1                 0.0000
      3 ****        -2.5764   1.9864   0.1269 C.3            1 S1                 0.0000
      4 ****        -3.0850   2.7518   1.3588 C.3            1 S1                 0.0000
      5 ****        -2.7383   2.0114   2.6592 C.3            1 S1                 0.0000
      6 ****        -3.2638   0.5660   2.6374 C.3            1 S1                 0.0000
      7 ****        -2.7638  -0.2094   1.4043 C.3            1 S1                 0.0000
      8 ****        -1.3528  -0.3504   1.5241 O.3            1 S1                 0.0000
      9 ****        -0.8803  -1.6812   1.3803 C.3            1 S1                 0.0000
     10 ****         0.6548  -1.6680   1.3866 C.3            1 S1                 0.0000
     11 ****         1.1910  -0.9188   0.2563 N.am           1 S1                 0.0000
     12 ****         1.2852  -1.3735  -1.0023 C.2            1 S1                 0.0000
     13 ****         0.9225  -2.4986  -1.3468 O.2            1 S1                 0.0000
     14 ****         1.8620  -0.3981  -2.0341 C.3            1 S1                 0.0000
     15 ****         3.3304  -0.4185  -2.0522 N.am           1 S1                 0.0000
     16 ****         3.9409   0.6646  -1.2853 N.pl3          1 S1                -1.0000
     17 ****         5.2959   0.7374  -1.2039 C.2            1 S1                 0.0000
     18 ****         5.8792   1.6113  -0.5667 O.2            1 S1                 0.0000
     19 ****         6.0782  -0.2657  -1.9068 C.2            1 S1                 0.0000
     20 ****         5.4884  -1.2454  -2.6197 C.2            1 S1                 0.0000
     21 ****         4.0395  -1.3663  -2.7296 C.2            1 S1                 0.0000
     22 ****         3.4962  -2.2572  -3.3823 O.2            1 S1                 0.0000
     23 ****        -1.5585  -0.2647  -1.2104 H              1 S1                 0.0000
     24 ****        -2.9903   0.2934  -2.0649 H              1 S1                 0.0000
     25 ****        -3.0353  -1.2268  -1.1801 H              1 S1                 0.0000
     26 ****        -4.2001   0.5992   0.0405 H              1 S1                 0.0000
     27 ****        -1.4855   1.9770   0.1274 H              1 S1                 0.0000
     28 ****        -2.8778   2.5143  -0.7785 H              1 S1                 0.0000
     29 ****        -2.6548   3.7535   1.3764 H              1 S1                 0.0000
     30 ****        -4.1656   2.8808   1.2884 H              1 S1                 0.0000
     31 ****        -1.6564   2.0060   2.7980 H              1 S1                 0.0000
     32 ****        -3.1550   2.5454   3.5133 H              1 S1                 0.0000
     33 ****        -2.9651   0.0479   3.5493 H              1 S1                 0.0000
     34 ****        -4.3545   0.5802   2.6372 H              1 S1                 0.0000
     35 ****        -3.2531  -1.1857   1.4007 H              1 S1                 0.0000
     36 ****        -1.2504  -2.2877   2.2080 H              1 S1                 0.0000
     37 ****        -1.2530  -2.1299   0.4588 H              1 S1                 0.0000
     38 ****         1.0197  -1.2128   2.3075 H              1 S1                 0.0000
     39 ****         1.0401  -2.6886   1.3701 H              1 S1                 0.0000
     40 ****         1.5230   0.0169   0.4423 H              1 S1                 0.0000
     41 ****         1.4682  -0.6450  -3.0215 H              1 S1                 0.0000
     42 ****         1.4932   0.6073  -1.8210 H              1 S1                 0.0000
     43 ****         7.1564  -0.2232  -1.8574 H              1 S1                 0.0000
     44 ****         6.1094  -1.9689  -3.1266 H              1 S1                 0.0000
     45 ****        -1.0812  -0.0183   2.4275 LP             1 S1                 0.0000
     46 ****        -0.9216   0.2122   0.8187 LP             1 S1                 0.0000
     47 ****         0.5336  -3.1268  -0.6728 LP             1 S1                 0.0000
     48 ****         1.0168  -2.7841  -2.3005 LP             1 S1                 0.0000
     49 ****         3.3690   1.3442  -0.8258 LP             1 S1                 0.0000
     50 ****         5.3545   2.3092  -0.0792 LP             1 S1                 0.0000
     51 ****         6.8786   1.6246  -0.5355 LP             1 S1                 0.0000
     52 ****         2.4984  -2.3046  -3.4298 LP             1 S1                 0.0000
     53 ****         4.0525  -2.9335  -3.8650 LP             1 S1                 0.0000
@<TRIPOS>BOND
    1    1    2 1     
    2    1   23 1     
    3    1   24 1     
    4    1   25 1     
    5    2    7 1     
    6    2    3 1     
    7    2   26 1     
    8    3    4 1     
    9    3   27 1     
   10    3   28 1     
   11    4    5 1     
   12    4   29 1     
   13    4   30 1     
   14    5    6 1     
   15    5   31 1     
   16    5   32 1     
   17    6    7 1     
   18    6   33 1     
   19    6   34 1     
   20    7    8 1     
   21    7   35 1     
   22    8    9 1     
   23    9   10 1     
   24    9   36 1     
   25    9   37 1     
   26   10   11 1     
   27   10   38 1     
   28   10   39 1     
   29   11   12 am    
   30   11   40 1     
   31   12   13 2     
   32   12   14 1     
   33   14   41 1     
   34   14   42 1     
   35   14   15 1     
   36   15   16 1     
   37   15   21 am    
   38   16   17 1     
   39   17   18 2     
   40   17   19 1     
   41   19   43 1     
   42   19   20 2     
   43   20   44 1     
   44   20   21 1     
   45   21   22 2     
   46    8   45 1     
   47    8   46 1     
   48   13   47 1     
   49   13   48 1     
   50   16   49 1     
   51   18   50 1     
   52   18   51 1     
   53   22   52 1     
   54   22   53 1     
@<TRIPOS>SUBSTRUCTURE
      1 S1             1
@<TRIPOS>SET
LONE_PAIRS      STATIC     ATOMS    <user>   **** ""
9 45 46 47 48 49 50 51 52 53
DONOR_HYDROGENS      STATIC     ATOMS    <user>   **** ""
1 40
ATOM$BLUE        STATIC     ATOMS    COLORGROUP SYSTEM
9 45 46 47 48 49 50 51 52 53
ATOM$RED        STATIC     ATOMS    COLORGROUP SYSTEM
1 40
