AV-unprocessed.smi:218|AV-procd|sdf|1670|dock9
  -GOLD-   2262020 83D 1   1.00000     0.00000
 Structure written by MMmdl.
 54 57  0  0  0  0  0  0  0  0  1 V2000
  152.5538  142.3220  161.3623 C   0  0  0  0  0  0  0  0  0  0  0  0
  153.1545  143.0508  160.1543 C   0  0  0  0  0  0  0  0  0  0  0  0
  152.2644  144.2258  159.7140 C   0  0  0  0  0  0  0  0  0  0  0  0
  153.2650  142.0886  159.1036 O   0  0  0  0  0  0  0  0  0  0  0  0
  152.1582  141.7558  158.3467 C   0  0  0  0  0  0  0  0  0  0  0  0
  151.6489  140.4454  158.4499 C   0  0  0  0  0  0  0  0  0  0  0  0
  150.5241  140.0874  157.6783 C   0  0  0  0  0  0  0  0  0  0  0  0
  149.9492  138.6879  157.7546 C   0  0  0  0  0  0  0  0  0  0  0  0
  148.5585  138.6645  158.1873 N   0  0  0  0  0  0  0  0  0  0  0  0
  147.5722  138.9440  157.3093 C   0  0  0  0  0  0  0  0  0  0  0  0
  146.6853  139.9454  157.5483 N   0  0  0  0  0  0  0  0  0  0  0  0
  145.7196  140.2078  156.6624 C   0  0  0  0  0  0  0  0  0  0  0  0
  145.4652  139.6004  155.5013 N   0  0  0  0  0  0  0  0  0  0  0  0
  146.3532  138.5928  155.2582 C   0  0  0  0  0  0  0  0  0  0  0  0
  147.4269  138.2052  156.1068 C   0  0  0  0  0  0  0  0  0  0  0  0
  148.1167  137.1426  155.5374 N   0  0  0  0  0  0  0  0  0  0  0  0
  147.4812  136.9166  154.4185 C   0  0  0  0  0  0  0  0  0  0  0  0
  146.4038  137.7393  154.1748 N   0  0  0  0  0  0  0  0  0  0  0  0
  145.4911  137.7309  152.9874 C   0  0  2  0  0  0  0  0  0  0  0  0
  144.9491  136.4526  152.8879 O   0  0  0  0  0  0  0  0  0  0  0  0
  144.8348  136.0920  151.5194 C   0  0  2  0  0  0  0  0  0  0  0  0
  144.7987  134.5619  151.3883 C   0  0  0  0  0  0  0  0  0  0  0  0
  145.0729  134.1826  150.0563 O   0  0  0  0  0  0  0  0  0  0  0  0
  146.0776  136.7301  150.8913 C   0  0  1  0  0  0  0  0  0  0  0  0
  145.8673  136.9746  149.5149 O   0  0  0  0  0  0  0  0  0  0  0  0
  146.2138  138.0413  151.6562 C   0  0  2  0  0  0  0  0  0  0  0  0
  147.5742  138.4122  151.7923 O   0  0  0  0  0  0  0  0  0  0  0  0
  149.9520  141.0561  156.8298 C   0  0  0  0  0  0  0  0  0  0  0  0
  150.5306  142.3397  156.7940 C   0  0  0  0  0  0  0  0  0  0  0  0
  151.6073  142.6882  157.5299 N   0  0  0  0  0  0  0  0  0  0  0  0
  144.7142  138.4584  153.2260 H   0  0  0  0  0  0  0  0  0  0  0  0
  143.9332  136.5491  151.1053 H   0  0  0  0  0  0  0  0  0  0  0  0
  146.9508  136.0931  151.0415 H   0  0  0  0  0  0  0  0  0  0  0  0
  145.6630  138.8430  151.1615 H   0  0  0  0  0  0  0  0  0  0  0  0
  152.4489  142.9936  162.2148 H   0  0  0  0  0  0  0  0  0  0  0  0
  153.1890  141.4915  161.6715 H   0  0  0  0  0  0  0  0  0  0  0  0
  151.5677  141.9178  161.1312 H   0  0  0  0  0  0  0  0  0  0  0  0
  154.1363  143.4190  160.4560 H   0  0  0  0  0  0  0  0  0  0  0  0
  152.1360  144.9429  160.5252 H   0  0  0  0  0  0  0  0  0  0  0  0
  151.2746  143.8786  159.4168 H   0  0  0  0  0  0  0  0  0  0  0  0
  152.6925  144.7641  158.8688 H   0  0  0  0  0  0  0  0  0  0  0  0
  152.1180  139.7280  159.1073 H   0  0  0  0  0  0  0  0  0  0  0  0
  150.0294  138.2075  156.7785 H   0  0  0  0  0  0  0  0  0  0  0  0
  150.5577  138.1090  158.4504 H   0  0  0  0  0  0  0  0  0  0  0  0
  148.3969  138.4439  159.1596 H   0  0  0  0  0  0  0  0  0  0  0  0
  145.0557  141.0195  156.9209 H   0  0  0  0  0  0  0  0  0  0  0  0
  147.7822  136.1349  153.7364 H   0  0  0  0  0  0  0  0  0  0  0  0
  145.5660  134.1126  152.0193 H   0  0  0  0  0  0  0  0  0  0  0  0
  143.8378  134.1592  151.7103 H   0  0  0  0  0  0  0  0  0  0  0  0
  145.1230  134.9632  149.5259 H   0  0  0  0  0  0  0  0  0  0  0  0
  145.7917  136.1423  149.0734 H   0  0  0  0  0  0  0  0  0  0  0  0
  148.0205  137.7312  152.2732 H   0  0  0  0  0  0  0  0  0  0  0  0
  149.0907  140.8259  156.2201 H   0  0  0  0  0  0  0  0  0  0  0  0
  150.1178  143.1070  156.1562 H   0  0  0  0  0  0  0  0  0  0  0  0
  1  2  1  0  0  0  0
  1 35  1  0  0  0  0
  1 36  1  0  0  0  0
  1 37  1  0  0  0  0
  2  3  1  0  0  0  0
  2  4  1  0  0  0  0
  2 38  1  0  0  0  0
  3 39  1  0  0  0  0
  3 40  1  0  0  0  0
  3 41  1  0  0  0  0
  4  5  1  0  0  0  0
  5 30  1  0  0  0  0
  5  6  2  0  0  0  0
  6  7  1  0  0  0  0
  6 42  1  0  0  0  0
  7  8  1  0  0  0  0
  7 28  2  0  0  0  0
  8  9  1  0  0  0  0
  8 43  1  0  0  0  0
  8 44  1  0  0  0  0
  9 10  1  0  0  0  0
  9 45  1  0  0  0  0
 10 15  1  0  0  0  0
 10 11  2  0  0  0  0
 11 12  1  0  0  0  0
 12 13  2  0  0  0  0
 12 46  1  0  0  0  0
 13 14  1  0  0  0  0
 14 18  1  0  0  0  0
 14 15  2  0  0  0  0
 15 16  1  0  0  0  0
 16 17  2  0  0  0  0
 17 18  1  0  0  0  0
 17 47  1  0  0  0  0
 18 19  1  0  0  0  0
 19 31  1  0  0  0  0
 19 26  1  0  0  0  0
 19 20  1  0  0  0  0
 20 21  1  0  0  0  0
 21 32  1  0  0  0  0
 21 22  1  0  0  0  0
 21 24  1  0  0  0  0
 22 23  1  0  0  0  0
 22 48  1  0  0  0  0
 22 49  1  0  0  0  0
 23 50  1  0  0  0  0
 24 33  1  0  0  0  0
 24 25  1  0  0  0  0
 24 26  1  0  0  0  0
 25 51  1  0  0  0  0
 26 34  1  0  0  0  0
 26 27  1  0  0  0  0
 27 52  1  0  0  0  0
 28 29  1  0  0  0  0
 28 53  1  0  0  0  0
 29 30  2  0  0  0  0
 29 54  1  0  0  0  0
M  END
> <s_m_source_file>
AV-unprocessed.smi

> <i_m_source_file_index>
218

> <i_lp_mmshare_version>
43012

> <i_f3d_flags>
0

> <s_epik_input>
W0NIM11bQ0hdKFtDSDNdKU9jMVtjSF1jKFtjSF1bY0hdbjEpW0NIMl1bTkhdYyhuW2NIXW4yKWMoYzIzKW5bY0hdbjNbQ0BASF00T1tDQEhdKFtDSDJdW09IXSlbQ0BASF0oW09IXSlbQ0BIXTRbT0hd

> <s_epik_cmdline>
J2VwaWtfcHl0aG9uJywgJy1waCcsICc3LjAnLCAnLXRuJywgJzgnLCAnLW1hJywgJzIwMCcsICctbWV0YWxfYmluZGluZycsICctaW1hZScsICc8aW5maWxlLm1hZT4nLCAnLW9tYWUnLCAnPG91dGZpbGUubWFlPic=

> <r_lp_tautomer_probability>
1

> <r_epik_Ionization_Penalty>
0.00457014

> <r_epik_Ionization_Penalty_Charging>
0

> <r_epik_Ionization_Penalty_Neutral>
0.00457014

> <r_epik_State_Penalty>
-0

> <r_epik_Charging_Adjusted_Penalty>
0

> <i_epik_Tot_Q>
0

> <i_epik_Tot_abs_Q>
0

> <r_epik_Metal_State_Penalty>
-0

> <b_epik_Metal_Only>
0

> <s_epik_Chemistry_Notes>
This compound contains an acetal/aminal-like group ( X-CH(R)-Y where X, Y are N, S, or O) that may be acid/base labile, releasing an aldehyde.

> <s_lp_Force_Field>
OPLS_2005

> <r_lp_Energy>
38.9245

> <b_lp_Chiralities_Consistent>
1

> <s_lp_Variant>
AV-unprocessed.smi:218-9

> <Gold.Version>
5.8.1

> <Gold.Id.Protein>
6NUR|6NUR_protein|mol2

> <Gold.PLP.Fitness>
49.1984

> <Gold.PLP.PLP>
-36.8617

> <Gold.PLP.part.hbond>
-6.9962

> <Gold.PLP.part.metal>
0.0000

> <Gold.PLP.part.buried>
3.0062

> <Gold.PLP.part.nonpolar>
-32.7482

> <Gold.PLP.part.repulsive>
0.5036

> <Gold.PLP.ligand.clash>
0.0000

> <Gold.PLP.ligand.torsion>
1.0136

> <Gold.PLP.Chemscore.Hbond>
2.7048

> <Gold.PLP.Chemscore.CHOScore>
2.0000

> <Gold.PLP.Chemscore.Metal>
0.0000

> <Gold.Chemscore.Hbonds>
donor molecule, donor type, donor heavy atom, donor atom, acceptor molecule, acceptor atom, score
      L1  H    23    50       P1  7921  0.25
      L1  H    25    51       P1  7921  1.00
      L1  H    27    52       P1  7948  0.70
      P1  H  7954  7966       L1    27  0.76
      L1  C    17    47       P1  7948  1.00
      L1  C    29    54       P1  8028  1.00

> <Gold.PLP.Chemscore.Internal.Correction>
0.2495

> <Gold.Rescore>
     Score         DG    S(hbond)    S(metal)    S(lipo)     H(rot)  DE(clash)    DE(int)     intcor
      5.28      -9.63       2.02        0.00      85.07       4.90       1.03       3.32       ----

> <Gold.Chemscore.Fitness>
5.2817

> <Gold.Chemscore.DG>
-9.6315

> <Gold.Chemscore.ZeroCoef>
-5.4800

> <Gold.Chemscore.Hbond>
2.0210

> <Gold.Chemscore.Metal>
0.0000

> <Gold.Chemscore.Lipo>
85.0676

> <Gold.Chemscore.Internal_Hbond>
0.0000

> <Gold.Chemscore.DEClash>
1.0283

> <Gold.Chemscore.DEInternal>
3.3215

> <Gold.Chemscore.Rot>
4.9029

> <Gold.Chemscore.Internal.Correction>
   9.000000E+99

> <Gold.Chemscore.Hbonds>
donor molecule, donor type, donor heavy atom, donor atom, acceptor molecule, acceptor atom, score
      L1  H    23    50       P1  7921  0.25
      L1  H    25    51       P1  7921  0.96
      L1  H    27    52       P1  7948  0.70
      P1  H  7954  7966       L1    27  0.03

> <Gold.Chemscore.Hbond.Weighted>
-6.7501

> <Gold.Chemscore.Metal.Weighted>
-0.0000

> <Gold.Chemscore.Lipo.Weighted>
-9.9529

> <Gold.Chemscore.Internal_Hbond.Weighted>
0.0000

> <Gold.Chemscore.DEClash.Weighted>
1.0283

> <Gold.Chemscore.DEInternal.Weighted>
3.3215

> <Gold.Chemscore.Rot.Weighted>
12.5515

> <Gold.Chemscore.Internal.Correction.Weighted>
   9.000000E+99

> <Gold.Protein.RotatedTorsions>
[ 6907 6896 6895 6894 ] final  -54.04 input  -60.11 | X-H torsion
[ 7974 7965 7964 7962 ] final  -60.75 input  175.53 | X-H torsion
[ 8008 7997 7996 7995 ] final  -30.56 input   59.86 | X-H torsion
[ 10167 10162 10161 10158 ] final  -28.58 input  -65.29 | X-H torsion
[ 10718 10713 10712 10709 ] final   31.75 input   66.30 | X-H torsion
[ 10763 10752 10751 10750 ] final  -42.72 input  -60.55 | X-H torsion
[ 11005 11000 10999 10996 ] final -179.97 input  -57.11 | X-H torsion

> <Gold.Protein.ActiveResidues>
 VAL166  LYS551  ARG553  GLY616  TRP617  ASP618  TYR619  PRO620  LYS621  CYS622 
 ASP623  PHE694  ASN695  SER759  ASP760  ASP761  ALA762  ILE779  LEU786  VAL792 
 PHE793  MET794  SER795  GLU796  ALA797  LYS798  CYS799  TRP800  GLU811  SER814 

> <Gold.Protein.RotatedAtoms>
  150.8373  134.7651  159.6903 H   0  0  0  0  0  0  0  0  0  0  0  0  # atno 6907 bound_to 6896
  152.4467  134.5476  159.9867 H   0  0  0  0  0  0  0  0  0  0  0  0  # atno 6908 bound_to 6896
  151.5623  133.3363  159.3009 H   0  0  0  0  0  0  0  0  0  0  0  0  # atno 6909 bound_to 6896
  145.8118  140.8594  143.0178 H   0  0  0  0  0  0  0  0  0  0  0  0  # atno 7974 bound_to 7965
  154.4246  140.1788  156.1426 H   0  0  0  0  0  0  0  0  0  0  0  0  # atno 8008 bound_to 7997
  155.9979  140.3363  155.6792 H   0  0  0  0  0  0  0  0  0  0  0  0  # atno 8009 bound_to 7997
  155.6282  140.0667  157.2648 H   0  0  0  0  0  0  0  0  0  0  0  0  # atno 8010 bound_to 7997
  140.7268  143.3998  151.1284 H   0  0  0  0  0  0  0  0  0  0  0  0  # atno 10167 bound_to 10162
  157.2765  130.7234  149.6533 H   0  0  0  0  0  0  0  0  0  0  0  0  # atno 10718 bound_to 10713
  153.9837  135.6714  153.4751 H   0  0  0  0  0  0  0  0  0  0  0  0  # atno 10763 bound_to 10752
  153.0737  135.4960  154.8355 H   0  0  0  0  0  0  0  0  0  0  0  0  # atno 10764 bound_to 10752
  154.7150  135.3105  154.9100 H   0  0  0  0  0  0  0  0  0  0  0  0  # atno 10765 bound_to 10752
  140.4127  134.6677  157.4622 H   0  0  0  0  0  0  0  0  0  0  0  0  # atno 11005 bound_to 11000
  144.6756  140.0406  143.7481 LP  0  0  0  0  0  0  0  0  0  0  0  0  # atno 17320 bound_to 7965
  145.9769  139.2912  143.1065 LP  0  0  0  0  0  0  0  0  0  0  0  0  # atno 17321 bound_to 7965
  139.7616  143.8627  152.3101 LP  0  0  0  0  0  0  0  0  0  0  0  0  # atno 17342 bound_to 10162
  139.8515  144.7162  150.9209 LP  0  0  0  0  0  0  0  0  0  0  0  0  # atno 17343 bound_to 10162
  155.9664  130.4351  150.5078 LP  0  0  0  0  0  0  0  0  0  0  0  0  # atno 17370 bound_to 10713
  157.3013  131.0646  151.2066 LP  0  0  0  0  0  0  0  0  0  0  0  0  # atno 17371 bound_to 10713
  140.0256  134.6482  155.9178 LP  0  0  0  0  0  0  0  0  0  0  0  0  # atno 17394 bound_to 11000
  141.1815  133.6547  156.5039 LP  0  0  0  0  0  0  0  0  0  0  0  0  # atno 17395 bound_to 11000

$$$$
