AV-unprocessed.smi:3267|AV-procd|sdf|12507|dock9
  -GOLD-   2272018413D 1   1.00000     0.00000
 Structure written by MMmdl.
 38 39  0  0  0  0  0  0  0  0  1 V2000
  144.1438  136.2066  152.1193 C   0  0  0  0  0  0  0  0  0  0  0  0
  145.6289  135.8280  151.9998 C   0  0  1  0  0  0  0  0  0  0  0  0
  145.9388  134.9339  150.7756 C   0  0  0  0  0  0  0  0  0  0  0  0
  145.2648  133.6458  150.8049 N   0  0  0  0  0  0  0  0  0  0  0  0
  145.8249  132.3860  150.8450 C   0  0  0  0  0  0  0  0  0  0  0  0
  144.7994  131.4847  150.8609 C   0  0  0  0  0  0  0  0  0  0  0  0
  143.6334  132.2993  150.8215 C   0  0  0  0  0  0  0  0  0  0  0  0
  143.9149  133.5915  150.7863 N   0  0  0  0  0  0  0  0  0  0  0  0
  146.4367  137.0452  151.9823 N   0  0  0  0  0  0  0  0  0  0  0  0
  146.3807  138.0283  152.8912 C   0  0  0  0  0  0  0  0  0  0  0  0
  145.6169  138.0353  153.8570 O   0  0  0  0  0  0  0  0  0  0  0  0
  147.2582  139.0033  152.6199 N   0  0  0  0  0  0  0  0  0  0  0  0
  147.4257  140.2198  153.4056 C   0  0  0  0  0  0  0  0  0  0  0  0
  148.8942  140.4301  153.8097 C   0  0  1  0  0  0  0  0  0  0  0  0
  149.1052  141.5561  154.8213 C   0  0  0  0  0  0  0  0  0  0  0  0
  150.3600  141.1381  155.5755 C   0  0  0  0  0  0  0  0  0  0  0  0
  150.6060  139.6954  155.1265 C   0  0  0  0  0  0  0  0  0  0  0  0
  149.3938  139.2980  154.5041 O   0  0  0  0  0  0  0  0  0  0  0  0
  143.5131  135.3173  152.1276 H   0  0  0  0  0  0  0  0  0  0  0  0
  143.8189  136.8394  151.2929 H   0  0  0  0  0  0  0  0  0  0  0  0
  143.9537  136.7523  153.0440 H   0  0  0  0  0  0  0  0  0  0  0  0
  145.8888  135.2615  152.8959 H   0  0  0  0  0  0  0  0  0  0  0  0
  145.6814  135.4448  149.8462 H   0  0  0  0  0  0  0  0  0  0  0  0
  147.0121  134.7470  150.7278 H   0  0  0  0  0  0  0  0  0  0  0  0
  146.8948  132.2380  150.8626 H   0  0  0  0  0  0  0  0  0  0  0  0
  144.8710  130.4078  150.8947 H   0  0  0  0  0  0  0  0  0  0  0  0
  142.5980  131.9923  150.8169 H   0  0  0  0  0  0  0  0  0  0  0  0
  147.1039  137.1348  151.2299 H   0  0  0  0  0  0  0  0  0  0  0  0
  147.8423  138.9058  151.8023 H   0  0  0  0  0  0  0  0  0  0  0  0
  147.0621  141.0791  152.8396 H   0  0  0  0  0  0  0  0  0  0  0  0
  146.7972  140.1445  154.2934 H   0  0  0  0  0  0  0  0  0  0  0  0
  149.5151  140.6099  152.9298 H   0  0  0  0  0  0  0  0  0  0  0  0
  149.2036  142.5307  154.3426 H   0  0  0  0  0  0  0  0  0  0  0  0
  148.2647  141.6071  155.5147 H   0  0  0  0  0  0  0  0  0  0  0  0
  151.2125  141.7728  155.3312 H   0  0  0  0  0  0  0  0  0  0  0  0
  150.1957  141.1960  156.6521 H   0  0  0  0  0  0  0  0  0  0  0  0
  151.4135  139.6541  154.3940 H   0  0  0  0  0  0  0  0  0  0  0  0
  150.8630  139.0341  155.9544 H   0  0  0  0  0  0  0  0  0  0  0  0
  1  2  1  0  0  0  0
  1 19  1  0  0  0  0
  1 20  1  0  0  0  0
  1 21  1  0  0  0  0
  2  3  1  0  0  0  0
  2  9  1  0  0  0  0
  2 22  1  0  0  0  0
  3  4  1  0  0  0  0
  3 23  1  0  0  0  0
  3 24  1  0  0  0  0
  4  8  1  0  0  0  0
  4  5  1  0  0  0  0
  5  6  2  0  0  0  0
  5 25  1  0  0  0  0
  6  7  1  0  0  0  0
  6 26  1  0  0  0  0
  7  8  2  0  0  0  0
  7 27  1  0  0  0  0
  9 10  1  0  0  0  0
  9 28  1  0  0  0  0
 10 11  2  0  0  0  0
 10 12  1  0  0  0  0
 12 13  1  0  0  0  0
 12 29  1  0  0  0  0
 13 14  1  0  0  0  0
 13 30  1  0  0  0  0
 13 31  1  0  0  0  0
 14 18  1  0  0  0  0
 14 15  1  0  0  0  0
 14 32  1  0  0  0  0
 15 16  1  0  0  0  0
 15 33  1  0  0  0  0
 15 34  1  0  0  0  0
 16 17  1  0  0  0  0
 16 35  1  0  0  0  0
 16 36  1  0  0  0  0
 17 18  1  0  0  0  0
 17 37  1  0  0  0  0
 17 38  1  0  0  0  0
M  END
> <s_m_source_file>
AV-unprocessed.smi

> <i_m_source_file_index>
3267

> <i_lp_mmshare_version>
43012

> <i_f3d_flags>
0

> <s_epik_input>
bjFbY0hdW2NIXVtjSF1uMVtDSDJdW0NAQEhdKFtDSDNdKVtOSF1DKD1PKVtOSF1bQ0gyXVtDQEBIXTJbQ0gyXVtDSDJdW0NIMl1PMg==

> <s_epik_cmdline>
J2VwaWtfcHl0aG9uJywgJy1waCcsICc3LjAnLCAnLXRuJywgJzgnLCAnLW1hJywgJzIwMCcsICctbWV0YWxfYmluZGluZycsICctaW1hZScsICc8aW5maWxlLm1hZT4nLCAnLW9tYWUnLCAnPG91dGZpbGUubWFlPic=

> <r_lp_tautomer_probability>
1

> <r_epik_Ionization_Penalty>
6.24796e-05

> <r_epik_Ionization_Penalty_Charging>
0

> <r_epik_Ionization_Penalty_Neutral>
6.24796e-05

> <r_epik_State_Penalty>
-0

> <r_epik_Charging_Adjusted_Penalty>
0

> <i_epik_Tot_Q>
0

> <i_epik_Tot_abs_Q>
0

> <r_epik_Metal_State_Penalty>
-0

> <b_epik_Metal_Only>
0

> <s_lp_Force_Field>
OPLS_2005

> <r_lp_Energy>
14.3103

> <b_lp_Chiralities_Consistent>
1

> <s_lp_Variant>
AV-unprocessed.smi:3267-4

> <Gold.Version>
5.8.1

> <Gold.Id.Protein>
6NUR|6NUR_protein|mol2

> <Gold.PLP.Fitness>
39.2051

> <Gold.PLP.PLP>
-33.3242

> <Gold.PLP.part.hbond>
-2.1006

> <Gold.PLP.part.metal>
0.0000

> <Gold.PLP.part.buried>
-1.3472

> <Gold.PLP.part.nonpolar>
-29.6354

> <Gold.PLP.part.repulsive>
0.5916

> <Gold.PLP.ligand.clash>
0.0000

> <Gold.PLP.ligand.torsion>
0.0942

> <Gold.PLP.Chemscore.Hbond>
0.5886

> <Gold.PLP.Chemscore.CHOScore>
1.4209

> <Gold.PLP.Chemscore.Metal>
0.0000

> <Gold.Chemscore.Hbonds>
donor molecule, donor type, donor heavy atom, donor atom, acceptor molecule, acceptor atom, score
      L1  H     9    28       P1  7948  0.15
      L1  H    12    29       P1  7957  0.44
      L1  C     5    25       P1 10747  0.92
      L1  C     7    27       P1 10952  0.54

> <Gold.PLP.Chemscore.Internal.Correction>
0.0406

> <Gold.Rescore>
     Score         DG    S(hbond)    S(metal)    S(lipo)     H(rot)  DE(clash)    DE(int)     intcor
     10.79     -13.38       1.18        0.00      74.64       1.87       0.12       2.46       ----

> <Gold.Chemscore.Fitness>
10.7934

> <Gold.Chemscore.DG>
-13.3757

> <Gold.Chemscore.ZeroCoef>
-5.4800

> <Gold.Chemscore.Hbond>
1.1844

> <Gold.Chemscore.Metal>
0.0000

> <Gold.Chemscore.Lipo>
74.6412

> <Gold.Chemscore.Internal_Hbond>
0.0000

> <Gold.Chemscore.DEClash>
0.1236

> <Gold.Chemscore.DEInternal>
2.4587

> <Gold.Chemscore.Rot>
1.8724

> <Gold.Chemscore.Internal.Correction>
   9.000000E+99

> <Gold.Chemscore.Hbonds>
donor molecule, donor type, donor heavy atom, donor atom, acceptor molecule, acceptor atom, score
      L1  H     9    28       P1  7948  0.16
      L1  H    12    29       P1  7957  0.41

> <Gold.Chemscore.Hbond.Weighted>
-3.9560

> <Gold.Chemscore.Metal.Weighted>
-0.0000

> <Gold.Chemscore.Lipo.Weighted>
-8.7330

> <Gold.Chemscore.Internal_Hbond.Weighted>
0.0000

> <Gold.Chemscore.DEClash.Weighted>
0.1236

> <Gold.Chemscore.DEInternal.Weighted>
2.4587

> <Gold.Chemscore.Rot.Weighted>
4.7933

> <Gold.Chemscore.Internal.Correction.Weighted>
   9.000000E+99

> <Gold.Protein.RotatedTorsions>
[ 6907 6896 6895 6894 ] final   63.41 input  -60.11 | X-H torsion
[ 7974 7965 7964 7962 ] final  159.04 input  175.53 | X-H torsion
[ 8008 7997 7996 7995 ] final  127.02 input   59.86 | X-H torsion
[ 10167 10162 10161 10158 ] final   14.82 input  -65.29 | X-H torsion
[ 10718 10713 10712 10709 ] final -122.33 input   66.30 | X-H torsion
[ 10763 10752 10751 10750 ] final   14.19 input  -60.55 | X-H torsion
[ 11005 11000 10999 10996 ] final   38.61 input  -57.11 | X-H torsion

> <Gold.Protein.ActiveResidues>
 VAL166  LYS551  ARG553  GLY616  TRP617  ASP618  TYR619  PRO620  LYS621  CYS622 
 ASP623  PHE694  ASN695  SER759  ASP760  ASP761  ALA762  ILE779  LEU786  VAL792 
 PHE793  MET794  SER795  GLU796  ALA797  LYS798  CYS799  TRP800  GLU811  SER814 

> <Gold.Protein.RotatedAtoms>
  152.4251  134.5884  159.9967 H   0  0  0  0  0  0  0  0  0  0  0  0  # atno 6907 bound_to 6896
  151.6023  133.3349  159.3058 H   0  0  0  0  0  0  0  0  0  0  0  0  # atno 6908 bound_to 6896
  150.8140  134.7348  159.6778 H   0  0  0  0  0  0  0  0  0  0  0  0  # atno 6909 bound_to 6896
  144.7812  139.7562  143.6259 H   0  0  0  0  0  0  0  0  0  0  0  0  # atno 7974 bound_to 7965
  156.2880  140.2679  156.2205 H   0  0  0  0  0  0  0  0  0  0  0  0  # atno 8008 bound_to 7997
  155.0173  140.0387  157.2441 H   0  0  0  0  0  0  0  0  0  0  0  0  # atno 8009 bound_to 7997
  154.7466  140.2735  155.6333 H   0  0  0  0  0  0  0  0  0  0  0  0  # atno 8010 bound_to 7997
  140.5910  143.8796  150.6873 H   0  0  0  0  0  0  0  0  0  0  0  0  # atno 10167 bound_to 10162
  156.1410  130.6465  150.9770 H   0  0  0  0  0  0  0  0  0  0  0  0  # atno 10718 bound_to 10713
  153.1647  135.6802  153.8693 H   0  0  0  0  0  0  0  0  0  0  0  0  # atno 10763 bound_to 10752
  153.8077  135.3147  155.3398 H   0  0  0  0  0  0  0  0  0  0  0  0  # atno 10764 bound_to 10752
  154.7957  135.4808  154.0245 H   0  0  0  0  0  0  0  0  0  0  0  0  # atno 10765 bound_to 10752
  140.2109  134.3756  155.8049 H   0  0  0  0  0  0  0  0  0  0  0  0  # atno 11005 bound_to 11000
  146.2021  139.5321  142.9737 LP  0  0  0  0  0  0  0  0  0  0  0  0  # atno 17320 bound_to 7965
  145.6046  141.0350  143.2000 LP  0  0  0  0  0  0  0  0  0  0  0  0  # atno 17321 bound_to 7965
  140.2319  143.3729  152.1559 LP  0  0  0  0  0  0  0  0  0  0  0  0  # atno 17342 bound_to 10162
  139.5227  144.7062  151.5346 LP  0  0  0  0  0  0  0  0  0  0  0  0  # atno 17343 bound_to 10162
  157.6575  131.0887  150.7914 LP  0  0  0  0  0  0  0  0  0  0  0  0  # atno 17370 bound_to 10713
  156.7989  130.4914  149.5373 LP  0  0  0  0  0  0  0  0  0  0  0  0  # atno 17371 bound_to 10713
  141.2226  133.7142  156.8416 LP  0  0  0  0  0  0  0  0  0  0  0  0  # atno 17394 bound_to 11000
  140.1952  134.8937  157.3106 LP  0  0  0  0  0  0  0  0  0  0  0  0  # atno 17395 bound_to 11000

$$$$
