AV-unprocessed.smi:252|AV-procd|sdf|1943|dock7
  -GOLD-   2262021 73D 1   1.00000     0.00000
 Structure written by MMmdl.
 56 59  0  0  0  0  0  0  0  0  1 V2000
  147.6318  127.4017  150.8151 C   0  0  0  0  0  0  0  0  0  0  0  0
  148.8818  127.4044  151.7094 C   0  0  0  0  0  0  0  0  0  0  0  0
  148.7814  128.3594  152.9032 C   0  0  0  0  0  0  0  0  0  0  0  0
  147.6946  128.8153  153.2609 O   0  0  0  0  0  0  0  0  0  0  0  0
  149.9392  128.6557  153.5135 N   0  0  0  0  0  0  0  0  0  0  0  0
  150.0837  129.5496  154.6579 C   0  0  1  0  0  0  0  0  0  0  0  0
  151.5643  129.6319  155.0704 C   0  0  0  0  0  0  0  0  0  0  0  0
  151.7465  130.6376  156.2173 C   0  0  0  0  0  0  0  0  0  0  0  0
  151.1685  132.0113  155.8423 C   0  0  0  0  0  0  0  0  0  0  0  0
  149.7742  131.8907  155.4180 N   0  0  0  0  0  0  0  0  0  0  0  0
  149.0831  133.0589  155.4053 C   0  0  0  0  0  0  0  0  0  0  0  0
  147.7250  133.0437  155.3301 N   0  0  0  0  0  0  0  0  0  0  0  0
  147.0368  134.1886  155.3075 C   0  0  0  0  0  0  0  0  0  0  0  0
  147.4975  135.4398  155.3490 N   0  0  0  0  0  0  0  0  0  0  0  0
  148.8587  135.4635  155.4289 C   0  0  0  0  0  0  0  0  0  0  0  0
  149.7203  134.3306  155.4671 C   0  0  0  0  0  0  0  0  0  0  0  0
  151.0424  134.7464  155.5743 N   0  0  0  0  0  0  0  0  0  0  0  0
  150.9670  136.0489  155.5903 C   0  0  0  0  0  0  0  0  0  0  0  0
  149.6945  136.5650  155.4919 N   0  0  0  0  0  0  0  0  0  0  0  0
  149.3234  137.9715  155.4834 C   0  0  0  0  0  0  0  0  0  0  0  0
  150.0370  138.8083  154.3852 C   0  0  2  0  0  0  0  0  0  0  0  0
  149.6462  138.3467  153.1058 O   0  0  0  0  0  0  0  0  0  0  0  0
  151.5582  138.7810  154.4759 C   0  0  0  0  0  0  0  0  0  0  0  0
  151.8457  139.8483  155.5274 C   0  0  0  0  0  0  0  0  0  0  0  0
  150.7970  140.8043  155.4007 O   0  0  0  0  0  0  0  0  0  0  0  0
  149.8000  140.3269  154.5003 C   0  0  2  0  0  0  0  0  0  0  0  0
  148.4016  140.7773  154.9480 C   0  0  0  0  0  0  0  0  0  0  0  0
  149.5376  130.9519  154.3197 C   0  0  0  0  0  0  0  0  0  0  0  0
  147.7644  126.7259  149.9701 H   0  0  0  0  0  0  0  0  0  0  0  0
  147.4277  128.3951  150.4137 H   0  0  0  0  0  0  0  0  0  0  0  0
  146.7496  127.0709  151.3644 H   0  0  0  0  0  0  0  0  0  0  0  0
  149.0663  126.3972  152.0846 H   0  0  0  0  0  0  0  0  0  0  0  0
  149.7514  127.6819  151.1122 H   0  0  0  0  0  0  0  0  0  0  0  0
  150.7844  128.2361  153.1547 H   0  0  0  0  0  0  0  0  0  0  0  0
  149.5195  129.1441  155.5002 H   0  0  0  0  0  0  0  0  0  0  0  0
  151.9279  128.6499  155.3755 H   0  0  0  0  0  0  0  0  0  0  0  0
  152.1720  129.9398  154.2181 H   0  0  0  0  0  0  0  0  0  0  0  0
  151.2474  130.2652  157.1128 H   0  0  0  0  0  0  0  0  0  0  0  0
  152.8032  130.7340  156.4676 H   0  0  0  0  0  0  0  0  0  0  0  0
  151.2720  132.6881  156.6897 H   0  0  0  0  0  0  0  0  0  0  0  0
  151.7455  132.4457  155.0251 H   0  0  0  0  0  0  0  0  0  0  0  0
  145.9632  134.0879  155.2462 H   0  0  0  0  0  0  0  0  0  0  0  0
  151.8445  136.6742  155.6679 H   0  0  0  0  0  0  0  0  0  0  0  0
  148.2412  138.0294  155.3612 H   0  0  0  0  0  0  0  0  0  0  0  0
  149.5376  138.3801  156.4716 H   0  0  0  0  0  0  0  0  0  0  0  0
  149.9683  138.9525  152.4562 H   0  0  0  0  0  0  0  0  0  0  0  0
  151.9868  137.8099  154.7198 H   0  0  0  0  0  0  0  0  0  0  0  0
  151.9983  139.0957  153.5278 H   0  0  0  0  0  0  0  0  0  0  0  0
  151.8092  139.4197  156.5293 H   0  0  0  0  0  0  0  0  0  0  0  0
  152.8243  140.3097  155.3924 H   0  0  0  0  0  0  0  0  0  0  0  0
  150.0192  140.7900  153.5362 H   0  0  0  0  0  0  0  0  0  0  0  0
  147.6317  140.3849  154.2831 H   0  0  0  0  0  0  0  0  0  0  0  0
  148.3264  141.8648  154.9371 H   0  0  0  0  0  0  0  0  0  0  0  0
  148.1754  140.4463  155.9615 H   0  0  0  0  0  0  0  0  0  0  0  0
  150.0171  131.3320  153.4162 H   0  0  0  0  0  0  0  0  0  0  0  0
  148.4680  130.8872  154.1141 H   0  0  0  0  0  0  0  0  0  0  0  0
  1  2  1  0  0  0  0
  1 29  1  0  0  0  0
  1 30  1  0  0  0  0
  1 31  1  0  0  0  0
  2  3  1  0  0  0  0
  2 32  1  0  0  0  0
  2 33  1  0  0  0  0
  3  4  2  0  0  0  0
  3  5  1  0  0  0  0
  5  6  1  0  0  0  0
  5 34  1  0  0  0  0
  6 28  1  0  0  0  0
  6  7  1  0  0  0  0
  6 35  1  0  0  0  0
  7  8  1  0  0  0  0
  7 36  1  0  0  0  0
  7 37  1  0  0  0  0
  8  9  1  0  0  0  0
  8 38  1  0  0  0  0
  8 39  1  0  0  0  0
  9 10  1  0  0  0  0
  9 40  1  0  0  0  0
  9 41  1  0  0  0  0
 10 11  1  0  0  0  0
 10 28  1  0  0  0  0
 11 16  1  0  0  0  0
 11 12  2  0  0  0  0
 12 13  1  0  0  0  0
 13 14  2  0  0  0  0
 13 42  1  0  0  0  0
 14 15  1  0  0  0  0
 15 19  1  0  0  0  0
 15 16  2  0  0  0  0
 16 17  1  0  0  0  0
 17 18  2  0  0  0  0
 18 19  1  0  0  0  0
 18 43  1  0  0  0  0
 19 20  1  0  0  0  0
 20 21  1  0  0  0  0
 20 44  1  0  0  0  0
 20 45  1  0  0  0  0
 21 26  1  0  0  0  0
 21 22  1  0  0  0  0
 21 23  1  0  0  0  0
 22 46  1  0  0  0  0
 23 24  1  0  0  0  0
 23 47  1  0  0  0  0
 23 48  1  0  0  0  0
 24 25  1  0  0  0  0
 24 49  1  0  0  0  0
 24 50  1  0  0  0  0
 25 26  1  0  0  0  0
 26 27  1  0  0  0  0
 26 51  1  0  0  0  0
 27 52  1  0  0  0  0
 27 53  1  0  0  0  0
 27 54  1  0  0  0  0
 28 55  1  0  0  0  0
 28 56  1  0  0  0  0
M  END
> <s_m_source_file>
AV-unprocessed.smi

> <i_m_source_file_index>
252

> <i_lp_mmshare_version>
43012

> <i_f3d_flags>
0

> <s_epik_input>
W0NIM11bQ0gyXUMoPU8pW05IXVtDQEBIXTFbQ0gyXVtDSDJdW0NIMl1OKFtDSDJdMSljKG5bY0hdbjIpYyhjMjMpbltjSF1uM1tDSDJdW0NAQF00KFtPSF0pW0NIMl1bQ0gyXU9bQ0BIXTRbQ0gzXQ==

> <s_epik_cmdline>
J2VwaWtfcHl0aG9uJywgJy1waCcsICc3LjAnLCAnLXRuJywgJzgnLCAnLW1hJywgJzIwMCcsICctbWV0YWxfYmluZGluZycsICctaW1hZScsICc8aW5maWxlLm1hZT4nLCAnLW9tYWUnLCAnPG91dGZpbGUubWFlPic=

> <r_lp_tautomer_probability>
1

> <r_epik_Ionization_Penalty>
0.00182575

> <r_epik_Ionization_Penalty_Charging>
0

> <r_epik_Ionization_Penalty_Neutral>
0.00182575

> <r_epik_State_Penalty>
0.00104524

> <r_epik_Charging_Adjusted_Penalty>
0.00104524

> <i_epik_Tot_Q>
0

> <i_epik_Tot_abs_Q>
0

> <r_epik_Metal_State_Penalty>
-0

> <b_epik_Metal_Only>
0

> <s_lp_Force_Field>
OPLS_2005

> <r_lp_Energy>
35.9235

> <b_lp_Chiralities_Consistent>
1

> <s_lp_Variant>
AV-unprocessed.smi:252-8

> <Gold.Version>
5.8.1

> <Gold.Id.Protein>
6NUR|6NUR_protein|mol2

> <Gold.PLP.Fitness>
48.5096

> <Gold.PLP.PLP>
-43.0753

> <Gold.PLP.part.hbond>
-4.9272

> <Gold.PLP.part.metal>
0.0000

> <Gold.PLP.part.buried>
-1.8713

> <Gold.PLP.part.nonpolar>
-35.8937

> <Gold.PLP.part.repulsive>
0.3271

> <Gold.PLP.ligand.clash>
0.0000

> <Gold.PLP.ligand.torsion>
0.4772

> <Gold.PLP.Chemscore.Hbond>
1.9920

> <Gold.PLP.Chemscore.CHOScore>
0.0000

> <Gold.PLP.Chemscore.Metal>
0.0000

> <Gold.Chemscore.Hbonds>
donor molecule, donor type, donor heavy atom, donor atom, acceptor molecule, acceptor atom, score
      L1  H     5    34       P1 10737  1.00
      L1  H    22    46       P1  7957  0.98

> <Gold.PLP.Chemscore.Internal.Correction>
0.4127

> <Gold.Rescore>
     Score         DG    S(hbond)    S(metal)    S(lipo)     H(rot)  DE(clash)    DE(int)     intcor
     12.73     -14.68       1.97        0.00      81.69       2.70       0.09       1.87       ----

> <Gold.Chemscore.Fitness>
12.7272

> <Gold.Chemscore.DG>
-14.6793

> <Gold.Chemscore.ZeroCoef>
-5.4800

> <Gold.Chemscore.Hbond>
1.9652

> <Gold.Chemscore.Metal>
0.0000

> <Gold.Chemscore.Lipo>
81.6921

> <Gold.Chemscore.Internal_Hbond>
0.0000

> <Gold.Chemscore.DEClash>
0.0871

> <Gold.Chemscore.DEInternal>
1.8651

> <Gold.Chemscore.Rot>
2.7041

> <Gold.Chemscore.Internal.Correction>
   9.000000E+99

> <Gold.Chemscore.Hbonds>
donor molecule, donor type, donor heavy atom, donor atom, acceptor molecule, acceptor atom, score
      L1  H     5    34       P1 10737  0.95
      L1  H    22    46       P1  7957  0.47

> <Gold.Chemscore.Hbond.Weighted>
-6.5638

> <Gold.Chemscore.Metal.Weighted>
-0.0000

> <Gold.Chemscore.Lipo.Weighted>
-9.5580

> <Gold.Chemscore.Internal_Hbond.Weighted>
0.0000

> <Gold.Chemscore.DEClash.Weighted>
0.0871

> <Gold.Chemscore.DEInternal.Weighted>
1.8651

> <Gold.Chemscore.Rot.Weighted>
6.9225

> <Gold.Chemscore.Internal.Correction.Weighted>
   9.000000E+99

> <Gold.Protein.RotatedTorsions>
[ 6907 6896 6895 6894 ] final   86.24 input  -60.11 | X-H torsion
[ 7974 7965 7964 7962 ] final  -52.33 input  175.53 | X-H torsion
[ 8008 7997 7996 7995 ] final  119.03 input   59.86 | X-H torsion
[ 10167 10162 10161 10158 ] final -127.02 input  -65.29 | X-H torsion
[ 10718 10713 10712 10709 ] final   67.72 input   66.30 | X-H torsion
[ 10763 10752 10751 10750 ] final  160.47 input  -60.55 | X-H torsion
[ 11005 11000 10999 10996 ] final  -36.30 input  -57.11 | X-H torsion

> <Gold.Protein.ActiveResidues>
 VAL166  LYS551  ARG553  GLY616  TRP617  ASP618  TYR619  PRO620  LYS621  CYS622 
 ASP623  PHE694  ASN695  SER759  ASP760  ASP761  ALA762  ILE779  LEU786  VAL792 
 PHE793  MET794  SER795  GLU796  ALA797  LYS798  CYS799  TRP800  GLU811  SER814 

> <Gold.Protein.RotatedAtoms>
  152.5390  134.2463  159.8881 H   0  0  0  0  0  0  0  0  0  0  0  0  # atno 6907 bound_to 6896
  151.2428  133.4384  159.2615 H   0  0  0  0  0  0  0  0  0  0  0  0  # atno 6908 bound_to 6896
  151.0611  134.9751  159.8317 H   0  0  0  0  0  0  0  0  0  0  0  0  # atno 6909 bound_to 6896
  145.9091  140.7930  142.9704 H   0  0  0  0  0  0  0  0  0  0  0  0  # atno 7974 bound_to 7965
  156.2576  140.2862  156.0928 H   0  0  0  0  0  0  0  0  0  0  0  0  # atno 8008 bound_to 7997
  155.1445  140.0396  157.2824 H   0  0  0  0  0  0  0  0  0  0  0  0  # atno 8009 bound_to 7997
  154.6506  140.2543  155.7225 H   0  0  0  0  0  0  0  0  0  0  0  0  # atno 8010 bound_to 7997
  139.9653  143.5905  152.2431 H   0  0  0  0  0  0  0  0  0  0  0  0  # atno 10167 bound_to 10162
  157.6247  130.9335  150.0280 H   0  0  0  0  0  0  0  0  0  0  0  0  # atno 10718 bound_to 10713
  154.2479  135.2772  155.2828 H   0  0  0  0  0  0  0  0  0  0  0  0  # atno 10763 bound_to 10752
  154.5490  135.5680  153.6909 H   0  0  0  0  0  0  0  0  0  0  0  0  # atno 10764 bound_to 10752
  152.9986  135.6270  154.2625 H   0  0  0  0  0  0  0  0  0  0  0  0  # atno 10765 bound_to 10752
  140.9864  133.7028  156.1773 H   0  0  0  0  0  0  0  0  0  0  0  0  # atno 11005 bound_to 11000
  144.6742  140.1797  143.7407 LP  0  0  0  0  0  0  0  0  0  0  0  0  # atno 17320 bound_to 7965
  145.8694  139.2264  143.1670 LP  0  0  0  0  0  0  0  0  0  0  0  0  # atno 17321 bound_to 7965
  139.6523  144.7661  151.2124 LP  0  0  0  0  0  0  0  0  0  0  0  0  # atno 17342 bound_to 10162
  140.7540  143.6142  150.8576 LP  0  0  0  0  0  0  0  0  0  0  0  0  # atno 17343 bound_to 10162
  156.1412  130.3642  149.9580 LP  0  0  0  0  0  0  0  0  0  0  0  0  # atno 17370 bound_to 10713
  156.7620  130.9154  151.3641 LP  0  0  0  0  0  0  0  0  0  0  0  0  # atno 17371 bound_to 10713
  140.7108  134.4464  157.5581 LP  0  0  0  0  0  0  0  0  0  0  0  0  # atno 17394 bound_to 11000
  139.8972  134.8641  156.2053 LP  0  0  0  0  0  0  0  0  0  0  0  0  # atno 17395 bound_to 11000

$$$$
