AV-unprocessed.smi:856|AV-procd|sdf|3959|dock6
  -GOLD-   22720 1433D 1   1.00000     0.00000
 Structure written by MMmdl.
 42 44  0  0  0  0  0  0  0  0  1 V2000
  150.5516  144.0940  158.4886 C   0  0  0  0  0  0  0  0  0  0  0  0
  151.3249  142.8387  158.4479 N   0  0  0  0  0  0  0  0  0  0  0  0
  150.9972  141.9040  157.5012 C   0  0  0  0  0  0  0  0  0  0  0  0
  150.0947  142.0301  156.6730 O   0  0  0  0  0  0  0  0  0  0  0  0
  151.8304  140.6963  157.5444 C   0  0  0  0  0  0  0  0  0  0  0  0
  152.8319  140.5227  158.4420 C   0  0  0  0  0  0  0  0  0  0  0  0
  153.4640  139.2971  158.2619 N   0  0  0  0  0  0  0  0  0  0  0  0
  152.7905  138.7839  157.2325 C   0  0  0  0  0  0  0  0  0  0  0  0
  151.7991  139.5550  156.7426 N   0  0  0  0  0  0  0  0  0  0  0  0
  150.9297  139.2186  155.6243 C   0  0  0  0  0  0  0  0  0  0  0  0
  151.3247  137.8935  154.9414 C   0  0  2  0  0  0  0  0  0  0  0  0
  151.1276  138.0038  153.5454 O   0  0  0  0  0  0  0  0  0  0  0  0
  150.4824  136.7158  155.4535 C   0  0  0  0  0  0  0  0  0  0  0  0
  151.3389  135.6057  155.6890 O   0  0  0  0  0  0  0  0  0  0  0  0
  150.6998  134.4971  156.3080 C   0  0  0  0  0  0  0  0  0  0  0  0
  149.9488  133.7426  155.2580 C   0  0  0  0  0  0  0  0  0  0  0  0
  149.8610  132.4167  154.9346 C   0  0  0  0  0  0  0  0  0  0  0  0
  148.9810  132.3332  153.8204 C   0  0  0  0  0  0  0  0  0  0  0  0
  148.5967  133.6152  153.5475 C   0  0  0  0  0  0  0  0  0  0  0  0
  149.1771  134.4872  154.4163 O   0  0  0  0  0  0  0  0  0  0  0  0
  153.0842  141.5553  159.3819 N   0  0  0  0  0  0  0  0  0  0  0  0
  154.1610  141.3822  160.3608 C   0  0  0  0  0  0  0  0  0  0  0  0
  152.3388  142.7075  159.3810 C   0  0  0  0  0  0  0  0  0  0  0  0
  152.5743  143.6024  160.1982 O   0  0  0  0  0  0  0  0  0  0  0  0
  149.7305  144.1510  157.7733 H   0  0  0  0  0  0  0  0  0  0  0  0
  151.2028  144.9458  158.2852 H   0  0  0  0  0  0  0  0  0  0  0  0
  150.1083  144.2392  159.4752 H   0  0  0  0  0  0  0  0  0  0  0  0
  153.0280  137.8149  156.8182 H   0  0  0  0  0  0  0  0  0  0  0  0
  149.9106  139.1433  156.0060 H   0  0  0  0  0  0  0  0  0  0  0  0
  150.9167  140.0401  154.9096 H   0  0  0  0  0  0  0  0  0  0  0  0
  152.3810  137.6991  155.1327 H   0  0  0  0  0  0  0  0  0  0  0  0
  151.1377  137.1350  153.1733 H   0  0  0  0  0  0  0  0  0  0  0  0
  150.0101  136.9866  156.3988 H   0  0  0  0  0  0  0  0  0  0  0  0
  149.6817  136.4787  154.7509 H   0  0  0  0  0  0  0  0  0  0  0  0
  151.4643  133.8534  156.7433 H   0  0  0  0  0  0  0  0  0  0  0  0
  150.0462  134.8155  157.1217 H   0  0  0  0  0  0  0  0  0  0  0  0
  150.3703  131.6077  155.4371 H   0  0  0  0  0  0  0  0  0  0  0  0
  148.6690  131.4481  153.2857 H   0  0  0  0  0  0  0  0  0  0  0  0
  147.9485  134.0630  152.8088 H   0  0  0  0  0  0  0  0  0  0  0  0
  153.7656  141.4315  161.3764 H   0  0  0  0  0  0  0  0  0  0  0  0
  154.9108  142.1668  160.2481 H   0  0  0  0  0  0  0  0  0  0  0  0
  154.6744  140.4258  160.2608 H   0  0  0  0  0  0  0  0  0  0  0  0
  1  2  1  0  0  0  0
  1 25  1  0  0  0  0
  1 26  1  0  0  0  0
  1 27  1  0  0  0  0
  2 23  1  0  0  0  0
  2  3  1  0  0  0  0
  3  4  2  0  0  0  0
  3  5  1  0  0  0  0
  5  9  1  0  0  0  0
  5  6  2  0  0  0  0
  6  7  1  0  0  0  0
  6 21  1  0  0  0  0
  7  8  2  0  0  0  0
  8  9  1  0  0  0  0
  8 28  1  0  0  0  0
  9 10  1  0  0  0  0
 10 11  1  0  0  0  0
 10 29  1  0  0  0  0
 10 30  1  0  0  0  0
 11 12  1  0  0  0  0
 11 13  1  0  0  0  0
 11 31  1  0  0  0  0
 12 32  1  0  0  0  0
 13 14  1  0  0  0  0
 13 33  1  0  0  0  0
 13 34  1  0  0  0  0
 14 15  1  0  0  0  0
 15 16  1  0  0  0  0
 15 35  1  0  0  0  0
 15 36  1  0  0  0  0
 16 20  1  0  0  0  0
 16 17  2  0  0  0  0
 17 18  1  0  0  0  0
 17 37  1  0  0  0  0
 18 19  2  0  0  0  0
 18 38  1  0  0  0  0
 19 20  1  0  0  0  0
 19 39  1  0  0  0  0
 21 22  1  0  0  0  0
 21 23  1  0  0  0  0
 22 40  1  0  0  0  0
 22 41  1  0  0  0  0
 22 42  1  0  0  0  0
 23 24  2  0  0  0  0
M  END
> <s_m_source_file>
AV-unprocessed.smi

> <i_m_source_file_index>
856

> <i_lp_mmshare_version>
43012

> <i_f3d_flags>
0

> <s_epik_input>
Tz1jMW4oW0NIM10pYyg9TyluKFtDSDNdKWMoYzEyKW5bY0hdbjJbQ0gyXVtDQEhdKFtPSF0pW0NIMl1PW0NIMl1jM1tjSF1bY0hdW2NIXW8z

> <s_epik_cmdline>
J2VwaWtfcHl0aG9uJywgJy1waCcsICc3LjAnLCAnLXRuJywgJzgnLCAnLW1hJywgJzIwMCcsICctbWV0YWxfYmluZGluZycsICctaW1hZScsICc8aW5maWxlLm1hZT4nLCAnLW9tYWUnLCAnPG91dGZpbGUubWFlPic=

> <r_lp_tautomer_probability>
1

> <r_epik_Ionization_Penalty>
1.33189e-06

> <r_epik_Ionization_Penalty_Charging>
3.64616e-09

> <r_epik_Ionization_Penalty_Neutral>
1.32824e-06

> <r_epik_State_Penalty>
-0

> <r_epik_Charging_Adjusted_Penalty>
3.64616e-09

> <i_epik_Tot_Q>
0

> <i_epik_Tot_abs_Q>
0

> <r_epik_Metal_State_Penalty>
-0

> <b_epik_Metal_Only>
0

> <s_lp_Force_Field>
OPLS_2005

> <r_lp_Energy>
33.5677

> <b_lp_Chiralities_Consistent>
1

> <s_lp_Variant>
AV-unprocessed.smi:856-1

> <Gold.Version>
5.8.1

> <Gold.Id.Protein>
6NUR|6NUR_protein|mol2

> <Gold.PLP.Fitness>
48.9666

> <Gold.PLP.PLP>
-41.6319

> <Gold.PLP.part.hbond>
-3.4093

> <Gold.PLP.part.metal>
0.0000

> <Gold.PLP.part.buried>
-1.8856

> <Gold.PLP.part.nonpolar>
-35.1553

> <Gold.PLP.part.repulsive>
0.7436

> <Gold.PLP.ligand.clash>
0.0000

> <Gold.PLP.ligand.torsion>
1.3988

> <Gold.PLP.Chemscore.Hbond>
2.7314

> <Gold.PLP.Chemscore.CHOScore>
0.6254

> <Gold.PLP.Chemscore.Metal>
0.0000

> <Gold.Chemscore.Hbonds>
donor molecule, donor type, donor heavy atom, donor atom, acceptor molecule, acceptor atom, score
      L1  H    12    32       P1  7949  0.94
      P1  H  7997  8010       L1     7  0.66
      P1  H 10752 10765       L1    14  1.00
      L1  C    19    39       P1  7948  0.63

> <Gold.PLP.Chemscore.Internal.Correction>
0.0621

> <Gold.Rescore>
     Score         DG    S(hbond)    S(metal)    S(lipo)     H(rot)  DE(clash)    DE(int)     intcor
      7.58     -10.64       1.46        0.00      71.42       3.16       0.21       2.85       ----

> <Gold.Chemscore.Fitness>
7.5776

> <Gold.Chemscore.DG>
-10.6382

> <Gold.Chemscore.ZeroCoef>
-5.4800

> <Gold.Chemscore.Hbond>
1.4645

> <Gold.Chemscore.Metal>
0.0000

> <Gold.Chemscore.Lipo>
71.4207

> <Gold.Chemscore.Internal_Hbond>
0.0000

> <Gold.Chemscore.DEClash>
0.2065

> <Gold.Chemscore.DEInternal>
2.8541

> <Gold.Chemscore.Rot>
3.1599

> <Gold.Chemscore.Internal.Correction>
   9.000000E+99

> <Gold.Chemscore.Hbonds>
donor molecule, donor type, donor heavy atom, donor atom, acceptor molecule, acceptor atom, score
      L1  H    12    32       P1  7949  0.42
      P1  H  7997  8010       L1     7  0.02
      P1  H 10752 10765       L1    14  0.97

> <Gold.Chemscore.Hbond.Weighted>
-4.8913

> <Gold.Chemscore.Metal.Weighted>
-0.0000

> <Gold.Chemscore.Lipo.Weighted>
-8.3562

> <Gold.Chemscore.Internal_Hbond.Weighted>
0.0000

> <Gold.Chemscore.DEClash.Weighted>
0.2065

> <Gold.Chemscore.DEInternal.Weighted>
2.8541

> <Gold.Chemscore.Rot.Weighted>
8.0893

> <Gold.Chemscore.Internal.Correction.Weighted>
   9.000000E+99

> <Gold.Protein.RotatedTorsions>
[ 6907 6896 6895 6894 ] final -179.62 input  -60.11 | X-H torsion
[ 7974 7965 7964 7962 ] final  -44.86 input  175.53 | X-H torsion
[ 8008 7997 7996 7995 ] final    5.73 input   59.86 | X-H torsion
[ 10167 10162 10161 10158 ] final  112.65 input  -65.29 | X-H torsion
[ 10718 10713 10712 10709 ] final   33.44 input   66.30 | X-H torsion
[ 10763 10752 10751 10750 ] final -154.56 input  -60.55 | X-H torsion
[ 11005 11000 10999 10996 ] final   -8.22 input  -57.11 | X-H torsion

> <Gold.Protein.ActiveResidues>
 VAL166  LYS551  ARG553  GLY616  TRP617  ASP618  TYR619  PRO620  LYS621  CYS622 
 ASP623  PHE694  ASN695  SER759  ASP760  ASP761  ALA762  ILE779  LEU786  VAL792 
 PHE793  MET794  SER795  GLU796  ALA797  LYS798  CYS799  TRP800  GLU811  SER814 

> <Gold.Protein.RotatedAtoms>
  151.6564  133.3318  159.3163 H   0  0  0  0  0  0  0  0  0  0  0  0  # atno 6907 bound_to 6896
  150.7935  134.6980  159.6543 H   0  0  0  0  0  0  0  0  0  0  0  0  # atno 6908 bound_to 6896
  152.4018  134.6277  160.0119 H   0  0  0  0  0  0  0  0  0  0  0  0  # atno 6909 bound_to 6896
  145.9879  140.7213  142.9331 H   0  0  0  0  0  0  0  0  0  0  0  0  # atno 7974 bound_to 7965
  154.7321  140.2732  155.6447 H   0  0  0  0  0  0  0  0  0  0  0  0  # atno 8008 bound_to 7997
  156.2852  140.2714  156.1949 H   0  0  0  0  0  0  0  0  0  0  0  0  # atno 8009 bound_to 7997
  155.0368  140.0371  157.2485 H   0  0  0  0  0  0  0  0  0  0  0  0  # atno 8010 bound_to 7997
  139.6520  144.7128  151.2030 H   0  0  0  0  0  0  0  0  0  0  0  0  # atno 10167 bound_to 10162
  157.2979  130.7335  149.6649 H   0  0  0  0  0  0  0  0  0  0  0  0  # atno 10718 bound_to 10713
  154.7850  135.3187  154.7907 H   0  0  0  0  0  0  0  0  0  0  0  0  # atno 10763 bound_to 10752
  153.8609  135.6853  153.4787 H   0  0  0  0  0  0  0  0  0  0  0  0  # atno 10764 bound_to 10752
  153.1498  135.4704  154.9559 H   0  0  0  0  0  0  0  0  0  0  0  0  # atno 10765 bound_to 10752
  140.7212  133.8827  155.8822 H   0  0  0  0  0  0  0  0  0  0  0  0  # atno 11005 bound_to 11000
  144.6880  140.3019  143.7262 LP  0  0  0  0  0  0  0  0  0  0  0  0  # atno 17320 bound_to 7965
  145.7674  139.1845  143.2232 LP  0  0  0  0  0  0  0  0  0  0  0  0  # atno 17321 bound_to 7965
  140.7542  143.6135  150.8583 LP  0  0  0  0  0  0  0  0  0  0  0  0  # atno 17342 bound_to 10162
  139.9784  143.5979  152.2951 LP  0  0  0  0  0  0  0  0  0  0  0  0  # atno 17343 bound_to 10162
  155.9670  130.4289  150.4808 LP  0  0  0  0  0  0  0  0  0  0  0  0  # atno 17370 bound_to 10713
  157.2783  131.0601  151.2214 LP  0  0  0  0  0  0  0  0  0  0  0  0  # atno 17371 bound_to 10713
  141.0002  134.1161  157.4325 LP  0  0  0  0  0  0  0  0  0  0  0  0  # atno 17394 bound_to 11000
  139.8848  135.0066  156.6391 LP  0  0  0  0  0  0  0  0  0  0  0  0  # atno 17395 bound_to 11000

$$$$
