#       Name:                AV-unprocessed.smi:2079
#       Creating user name   scv26
#       Creation time:       Fri Mar 27 11:19:20 2020


#       File generated by GOLD software.
#

@<TRIPOS>MOLECULE
AV-unprocessed.smi:2079
    47    48     1
SMALL
NO_CHARGES


@<TRIPOS>ATOM
      1 ****        -7.2115   3.9217   0.1039 C.3            1 S1                 0.0000
      2 ****        -5.8192   3.3957   0.0315 C.2            1 S1                 0.0000
      3 ****        -5.2392   2.3979  -0.6998 C.2            1 S1                 0.0000
      4 ****        -3.8835   2.4366  -0.2783 C.2            1 S1                 0.0000
      5 ****        -2.9315   1.5314  -0.8175 N.am           1 S1                 0.0000
      6 ****        -1.6163   1.4343  -0.5509 C.2            1 S1                 0.0000
      7 ****        -1.0839   2.2041   0.2579 O.2            1 S1                 0.0000
      8 ****        -1.0195   0.4314  -1.2533 N.pl3          1 S1                -1.0000
      9 ****         0.4052   0.1078  -1.1972 C.3            1 S1                 0.0000
     10 ****         0.7097  -0.7648   0.0375 C.3            1 S1                 0.0000
     11 ****         2.1640  -1.0796   0.1310 N.4            1 S1                 1.0000
     12 ****         2.7783  -0.4244   1.3210 C.3            1 S1                 0.0000
     13 ****         4.3001  -0.6096   1.3615 C.3            1 S1                 0.0000
     14 ****         4.6518  -2.0973   1.3532 C.3            1 S1                 0.0000
     15 ****         4.0302  -2.7568   0.1194 C.3            1 S1                 0.0000
     16 ****         2.5020  -2.5382   0.0408 C.3            1 S1                 0.0000
     17 ****         1.9848  -3.1929  -1.2581 C.3            1 S1                 0.0000
     18 ****        -3.6578   3.3742   0.6301 N.2            1 S1                 0.0000
     19 ****        -4.8966   3.9938   0.8324 O.3            1 S1                 0.0000
     20 ****        -7.9230   3.1936  -0.2860 H              1 S1                 0.0000
     21 ****        -7.3081   4.8365  -0.4806 H              1 S1                 0.0000
     22 ****        -7.4891   4.1461   1.1339 H              1 S1                 0.0000
     23 ****        -5.7099   1.7464  -1.4205 H              1 S1                 0.0000
     24 ****        -3.2904   0.8726  -1.4923 H              1 S1                 0.0000
     25 ****         0.7188  -0.4313  -2.0915 H              1 S1                 0.0000
     26 ****         1.0296   1.0019  -1.1663 H              1 S1                 0.0000
     27 ****         0.3829  -0.2392   0.9366 H              1 S1                 0.0000
     28 ****         0.1059  -1.6715   0.0201 H              1 S1                 0.0000
     29 ****         2.5512   0.6428   1.3065 H              1 S1                 0.0000
     30 ****         2.3309  -0.8308   2.2297 H              1 S1                 0.0000
     31 ****         4.7573  -0.1125   0.5048 H              1 S1                 0.0000
     32 ****         4.7100  -0.1346   2.2533 H              1 S1                 0.0000
     33 ****         5.7342  -2.2297   1.3475 H              1 S1                 0.0000
     34 ****         4.2800  -2.5757   2.2603 H              1 S1                 0.0000
     35 ****         4.5051  -2.3549  -0.7771 H              1 S1                 0.0000
     36 ****         4.2544  -3.8242   0.1305 H              1 S1                 0.0000
     37 ****         2.0375  -3.0415   0.8905 H              1 S1                 0.0000
     38 ****         2.3088  -4.2319  -1.3240 H              1 S1                 0.0000
     39 ****         2.3646  -2.6757  -2.1398 H              1 S1                 0.0000
     40 ****         0.8977  -3.2053  -1.3234 H              1 S1                 0.0000
     41 ****         2.5855  -0.6446  -0.6772 H              1 S1                 0.0000
     42 ****        -1.6315   2.9033   0.7176 LP             1 S1                 0.0000
     43 ****        -0.1060   2.1272   0.4521 LP             1 S1                 0.0000
     44 ****        -1.5979  -0.1240  -1.8508 LP             1 S1                 0.0000
     45 ****        -2.7894   3.5923   1.0754 LP             1 S1                 0.0000
     46 ****        -5.1689   3.8971   1.7898 LP             1 S1                 0.0000
     47 ****        -4.8291   4.9644   0.6014 LP             1 S1                 0.0000
@<TRIPOS>BOND
    1    1    2 1     
    2    1   20 1     
    3    1   21 1     
    4    1   22 1     
    5    2   19 1     
    6    2    3 2     
    7    3    4 1     
    8    3   23 1     
    9    4    5 1     
   10    4   18 2     
   11    5    6 am    
   12    5   24 1     
   13    6    7 2     
   14    6    8 1     
   15    8    9 1     
   16    9   10 1     
   17    9   25 1     
   18    9   26 1     
   19   10   11 1     
   20   10   27 1     
   21   10   28 1     
   22   11   16 1     
   23   11   12 1     
   24   11   41 1     
   25   12   13 1     
   26   12   29 1     
   27   12   30 1     
   28   13   14 1     
   29   13   31 1     
   30   13   32 1     
   31   14   15 1     
   32   14   33 1     
   33   14   34 1     
   34   15   16 1     
   35   15   35 1     
   36   15   36 1     
   37   16   17 1     
   38   16   37 1     
   39   17   38 1     
   40   17   39 1     
   41   17   40 1     
   42   18   19 1     
   43    7   42 1     
   44    7   43 1     
   45    8   44 1     
   46   18   45 1     
   47   19   46 1     
   48   19   47 1     
@<TRIPOS>SUBSTRUCTURE
      1 S1             1
@<TRIPOS>SET
LONE_PAIRS      STATIC     ATOMS    <user>   **** ""
6 42 43 44 45 46 47
DONOR_HYDROGENS      STATIC     ATOMS    <user>   **** ""
2 24 41
ATOM$BLUE        STATIC     ATOMS    COLORGROUP SYSTEM
6 42 43 44 45 46 47
ATOM$RED        STATIC     ATOMS    COLORGROUP SYSTEM
2 24 41
