AV-unprocessed.smi:877|AV-procd|sdf|4029|dock6
  -GOLD-   22720 1523D 1   1.00000     0.00000
 Structure written by MMmdl.
 44 46  0  0  0  0  0  0  0  0  2 V2000
  148.1168  145.4112  161.1307 C   0  0  0  0  0  0  0  0  0  0  0  0
  149.3852  145.6444  160.5360 O   0  0  0  0  0  0  0  0  0  0  0  0
  149.8379  144.7413  159.5984 C   0  0  0  0  0  0  0  0  0  0  0  0
  151.0998  144.9946  159.0224 C   0  0  0  0  0  0  0  0  0  0  0  0
  151.6372  144.1286  158.0512 C   0  0  0  0  0  0  0  0  0  0  0  0
  150.9149  142.9899  157.6425 C   0  0  0  0  0  0  0  0  0  0  0  0
  151.4811  142.0599  156.5851 C   0  0  0  0  0  0  0  0  0  0  0  0
  150.4229  141.4650  155.7077 C   0  0  0  0  0  0  0  0  0  0  0  0
  149.4842  142.1596  155.0018 N   0  3  0  0  0  0  0  0  0  0  0  0
  148.6586  141.2739  154.3098 C   0  0  0  0  0  0  0  0  0  0  0  0
  147.5698  141.5055  153.4751 C   0  0  0  0  0  0  0  0  0  0  0  0
  146.9412  140.3690  152.9253 C   0  0  0  0  0  0  0  0  0  0  0  0
  147.3997  139.0664  153.2105 C   0  0  0  0  0  0  0  0  0  0  0  0
  148.5052  138.8446  154.0585 C   0  0  0  0  0  0  0  0  0  0  0  0
  149.1199  139.9738  154.5987 C   0  0  0  0  0  0  0  0  0  0  0  0
  150.2099  140.1393  155.4606 N   0  0  0  0  0  0  0  0  0  0  0  0
  150.9183  138.9462  155.9516 C   0  0  0  0  0  0  0  0  0  0  0  0
  152.1703  138.6072  155.1176 C   0  0  2  0  0  0  0  0  0  0  0  0
  151.8186  137.6716  154.1159 O   0  0  0  0  0  0  0  0  0  0  0  0
  153.2904  138.0101  155.9868 C   0  0  0  0  0  0  0  0  0  0  0  0
  152.8802  136.7763  156.5370 O   0  0  0  0  0  0  0  0  0  0  0  0
  149.6554  142.7233  158.2163 C   0  0  0  0  0  0  0  0  0  0  0  0
  149.1177  143.5917  159.1861 C   0  0  0  0  0  0  0  0  0  0  0  0
  147.8967  146.2138  161.8343 H   0  0  0  0  0  0  0  0  0  0  0  0
  148.1028  144.4725  161.6860 H   0  0  0  0  0  0  0  0  0  0  0  0
  147.3221  145.4014  160.3834 H   0  0  0  0  0  0  0  0  0  0  0  0
  151.6613  145.8655  159.3273 H   0  0  0  0  0  0  0  0  0  0  0  0
  152.6039  144.3450  157.6205 H   0  0  0  0  0  0  0  0  0  0  0  0
  152.1981  142.5926  155.9597 H   0  0  0  0  0  0  0  0  0  0  0  0
  152.0345  141.2661  157.0868 H   0  0  0  0  0  0  0  0  0  0  0  0
  147.2164  142.5026  153.2562 H   0  0  0  0  0  0  0  0  0  0  0  0
  146.0902  140.4987  152.2723 H   0  0  0  0  0  0  0  0  0  0  0  0
  146.8927  138.2195  152.7712 H   0  0  0  0  0  0  0  0  0  0  0  0
  148.8461  137.8427  154.2734 H   0  0  0  0  0  0  0  0  0  0  0  0
  151.1811  139.1099  156.9972 H   0  0  0  0  0  0  0  0  0  0  0  0
  150.2163  138.1119  155.9451 H   0  0  0  0  0  0  0  0  0  0  0  0
  152.5287  139.5157  154.6315 H   0  0  0  0  0  0  0  0  0  0  0  0
  152.6114  137.3022  153.7580 H   0  0  0  0  0  0  0  0  0  0  0  0
  154.1748  137.8157  155.3790 H   0  0  0  0  0  0  0  0  0  0  0  0
  153.5904  138.6957  156.7802 H   0  0  0  0  0  0  0  0  0  0  0  0
  152.5458  136.9308  157.4074 H   0  0  0  0  0  0  0  0  0  0  0  0
  149.0936  141.8532  157.9085 H   0  0  0  0  0  0  0  0  0  0  0  0
  148.1489  143.3539  159.5984 H   0  0  0  0  0  0  0  0  0  0  0  0
  149.4116  143.1690  155.0056 H   0  0  0  0  0  0  0  0  0  0  0  0
  1  2  1  0  0  0  0
  1 24  1  0  0  0  0
  1 25  1  0  0  0  0
  1 26  1  0  0  0  0
  2  3  1  0  0  0  0
  3 23  1  0  0  0  0
  3  4  2  0  0  0  0
  4  5  1  0  0  0  0
  4 27  1  0  0  0  0
  5  6  2  0  0  0  0
  5 28  1  0  0  0  0
  6  7  1  0  0  0  0
  6 22  1  0  0  0  0
  7  8  1  0  0  0  0
  7 29  1  0  0  0  0
  7 30  1  0  0  0  0
  8 16  1  0  0  0  0
  8  9  2  0  0  0  0
  9 10  1  0  0  0  0
  9 44  1  0  0  0  0
 10 15  2  0  0  0  0
 10 11  1  0  0  0  0
 11 12  2  0  0  0  0
 11 31  1  0  0  0  0
 12 13  1  0  0  0  0
 12 32  1  0  0  0  0
 13 14  2  0  0  0  0
 13 33  1  0  0  0  0
 14 15  1  0  0  0  0
 14 34  1  0  0  0  0
 15 16  1  0  0  0  0
 16 17  1  0  0  0  0
 17 18  1  0  0  0  0
 17 35  1  0  0  0  0
 17 36  1  0  0  0  0
 18 19  1  0  0  0  0
 18 20  1  0  0  0  0
 18 37  1  0  0  0  0
 19 38  1  0  0  0  0
 20 21  1  0  0  0  0
 20 39  1  0  0  0  0
 20 40  1  0  0  0  0
 21 41  1  0  0  0  0
 22 23  2  0  0  0  0
 22 42  1  0  0  0  0
 23 43  1  0  0  0  0
M  CHG  1   9   1
M  END
> <s_m_source_file>
AV-unprocessed.smi

> <i_m_source_file_index>
877

> <i_lp_mmshare_version>
43012

> <i_f3d_flags>
0

> <s_epik_input>
W0NIM11PYzFbY0hdW2NIXWMoW2NIXVtjSF0xKVtDSDJdYyhuMiluKFtDSDJdW0NASF0oW09IXSlbQ0gyXVtPSF0pYyhjMjMpW2NIXVtjSF1bY0hdW2NIXTM=

> <s_epik_cmdline>
J2VwaWtfcHl0aG9uJywgJy1waCcsICc3LjAnLCAnLXRuJywgJzgnLCAnLW1hJywgJzIwMCcsICctbWV0YWxfYmluZGluZycsICctaW1hZScsICc8aW5maWxlLm1hZT4nLCAnLW9tYWUnLCAnPG91dGZpbGUubWFlPic=

> <r_lp_tautomer_probability>
1

> <r_epik_Ionization_Penalty>
1.37112

> <r_epik_Ionization_Penalty_Charging>
1.37111

> <r_epik_Ionization_Penalty_Neutral>
4.48252e-07

> <r_epik_State_Penalty>
1.45083

> <r_epik_Charging_Adjusted_Penalty>
2.82194

> <i_epik_Tot_Q>
1

> <i_epik_Tot_abs_Q>
1

> <r_epik_Metal_State_Penalty>
5.49009

> <b_epik_Metal_Only>
0

> <s_lp_Force_Field>
OPLS_2005

> <r_lp_Energy>
22.2712

> <b_lp_Chiralities_Consistent>
1

> <s_lp_Variant>
AV-unprocessed.smi:877-3

> <Gold.Version>
5.8.1

> <Gold.Id.Protein>
6NUR|6NUR_protein|mol2

> <Gold.PLP.Fitness>
52.0148

> <Gold.PLP.PLP>
-45.4661

> <Gold.PLP.part.hbond>
-4.0253

> <Gold.PLP.part.metal>
0.0000

> <Gold.PLP.part.buried>
-4.2760

> <Gold.PLP.part.nonpolar>
-38.8764

> <Gold.PLP.part.repulsive>
0.6901

> <Gold.PLP.ligand.clash>
0.0000

> <Gold.PLP.ligand.torsion>
1.1866

> <Gold.PLP.Chemscore.Hbond>
2.9440

> <Gold.PLP.Chemscore.CHOScore>
0.0000

> <Gold.PLP.Chemscore.Metal>
0.0000

> <Gold.Chemscore.Hbonds>
donor molecule, donor type, donor heavy atom, donor atom, acceptor molecule, acceptor atom, score
      L1  H     9    44       P1  8028  2.00
      P1  H 10752 10764       L1    21  0.96

> <Gold.PLP.Chemscore.Internal.Correction>
0.0900

> <Gold.Rescore>
     Score         DG    S(hbond)    S(metal)    S(lipo)     H(rot)  DE(clash)    DE(int)     intcor
     14.82     -17.93       1.87        0.00     123.68       3.23       2.06       1.06       ----

> <Gold.Chemscore.Fitness>
14.8163

> <Gold.Chemscore.DG>
-17.9335

> <Gold.Chemscore.ZeroCoef>
-5.4800

> <Gold.Chemscore.Hbond>
1.8730

> <Gold.Chemscore.Metal>
0.0000

> <Gold.Chemscore.Lipo>
123.6790

> <Gold.Chemscore.Internal_Hbond>
0.0000

> <Gold.Chemscore.DEClash>
2.0581

> <Gold.Chemscore.DEInternal>
1.0591

> <Gold.Chemscore.Rot>
3.2315

> <Gold.Chemscore.Internal.Correction>
   9.000000E+99

> <Gold.Chemscore.Hbonds>
donor molecule, donor type, donor heavy atom, donor atom, acceptor molecule, acceptor atom, score
      L1  H     9    44       P1  8028  0.98
      P1  H 10752 10764       L1    21  0.51

> <Gold.Chemscore.Hbond.Weighted>
-6.2558

> <Gold.Chemscore.Metal.Weighted>
-0.0000

> <Gold.Chemscore.Lipo.Weighted>
-14.4704

> <Gold.Chemscore.Internal_Hbond.Weighted>
0.0000

> <Gold.Chemscore.DEClash.Weighted>
2.0581

> <Gold.Chemscore.DEInternal.Weighted>
1.0591

> <Gold.Chemscore.Rot.Weighted>
8.2727

> <Gold.Chemscore.Internal.Correction.Weighted>
   9.000000E+99

> <Gold.Protein.RotatedTorsions>
[ 6907 6896 6895 6894 ] final  -49.97 input  -60.11 | X-H torsion
[ 7974 7965 7964 7962 ] final   -9.62 input  175.53 | X-H torsion
[ 8008 7997 7996 7995 ] final   87.92 input   59.86 | X-H torsion
[ 10167 10162 10161 10158 ] final  -12.40 input  -65.29 | X-H torsion
[ 10718 10713 10712 10709 ] final    6.62 input   66.30 | X-H torsion
[ 10763 10752 10751 10750 ] final  -13.96 input  -60.55 | X-H torsion
[ 11005 11000 10999 10996 ] final  179.81 input  -57.11 | X-H torsion

> <Gold.Protein.ActiveResidues>
 VAL166  LYS551  ARG553  GLY616  TRP617  ASP618  TYR619  PRO620  LYS621  CYS622 
 ASP623  PHE694  ASN695  SER759  ASP760  ASP761  ALA762  ILE779  LEU786  VAL792 
 PHE793  MET794  SER795  GLU796  ALA797  LYS798  CYS799  TRP800  GLU811  SER814 

> <Gold.Protein.RotatedAtoms>
  150.8752  134.8134  159.7184 H   0  0  0  0  0  0  0  0  0  0  0  0  # atno 6907 bound_to 6896
  152.4742  134.4882  159.9697 H   0  0  0  0  0  0  0  0  0  0  0  0  # atno 6908 bound_to 6896
  151.4965  133.3475  159.2897 H   0  0  0  0  0  0  0  0  0  0  0  0  # atno 6909 bound_to 6896
  146.2246  140.2643  142.8353 H   0  0  0  0  0  0  0  0  0  0  0  0  # atno 7974 bound_to 7965
  155.9814  140.3377  155.6666 H   0  0  0  0  0  0  0  0  0  0  0  0  # atno 8008 bound_to 7997
  155.6544  140.0709  157.2594 H   0  0  0  0  0  0  0  0  0  0  0  0  # atno 8009 bound_to 7997
  154.4193  140.1720  156.1696 H   0  0  0  0  0  0  0  0  0  0  0  0  # atno 8010 bound_to 7997
  140.7160  143.5537  150.9273 H   0  0  0  0  0  0  0  0  0  0  0  0  # atno 10167 bound_to 10162
  156.9248  130.5804  149.5648 H   0  0  0  0  0  0  0  0  0  0  0  0  # atno 10718 bound_to 10713
  153.5211  135.7015  153.5731 H   0  0  0  0  0  0  0  0  0  0  0  0  # atno 10763 bound_to 10752
  153.3779  135.3928  155.1836 H   0  0  0  0  0  0  0  0  0  0  0  0  # atno 10764 bound_to 10752
  154.8694  135.3828  154.4700 H   0  0  0  0  0  0  0  0  0  0  0  0  # atno 10765 bound_to 10752
  140.4103  134.6698  157.4610 H   0  0  0  0  0  0  0  0  0  0  0  0  # atno 11005 bound_to 11000
  144.9316  140.7981  143.5686 LP  0  0  0  0  0  0  0  0  0  0  0  0  # atno 17320 bound_to 7965
  145.2587  139.2001  143.4904 LP  0  0  0  0  0  0  0  0  0  0  0  0  # atno 17321 bound_to 7965
  139.9261  143.6548  152.3086 LP  0  0  0  0  0  0  0  0  0  0  0  0  # atno 17342 bound_to 10162
  139.6982  144.7638  151.1319 LP  0  0  0  0  0  0  0  0  0  0  0  0  # atno 17343 bound_to 10162
  156.0474  130.5549  150.8912 LP  0  0  0  0  0  0  0  0  0  0  0  0  # atno 17370 bound_to 10713
  157.5885  131.0945  150.9158 LP  0  0  0  0  0  0  0  0  0  0  0  0  # atno 17371 bound_to 10713
  140.0272  134.6459  155.9156 LP  0  0  0  0  0  0  0  0  0  0  0  0  # atno 17394 bound_to 11000
  141.1824  133.6549  156.5073 LP  0  0  0  0  0  0  0  0  0  0  0  0  # atno 17395 bound_to 11000

$$$$
