AV-unprocessed.smi:1106|AV-procd|sdf|4778|dock5
  -GOLD-   22720 3313D 1   1.00000     0.00000
 Structure written by MMmdl.
 48 49  0  0  0  0  0  0  0  0  2 V2000
  154.4389  141.0064  160.6098 C   0  0  0  0  0  0  0  0  0  0  0  0
  153.0650  141.4868  160.1194 C   0  0  0  0  0  0  0  0  0  0  0  0
  152.4725  140.5998  159.1526 N   0  0  0  0  0  0  0  0  0  0  0  0
  153.0937  139.4277  158.7671 C   0  0  0  0  0  0  0  0  0  0  0  0
  152.5615  138.5806  157.8598 C   0  0  0  0  0  0  0  0  0  0  0  0
  153.2194  137.3728  157.4852 C   0  0  0  0  0  0  0  0  0  0  0  0
  153.7523  136.3991  157.1583 N   0  0  0  0  0  0  0  0  0  0  0  0
  151.2785  138.8660  157.2214 C   0  0  0  0  0  0  0  0  0  0  0  0
  150.7351  138.1135  156.4096 O   0  0  0  0  0  0  0  0  0  0  0  0
  150.6807  140.0877  157.6223 N   0  0  0  0  0  0  0  0  0  0  0  0
  149.3943  140.4318  157.0379 C   0  0  0  0  0  0  0  0  0  0  0  0
  149.5099  141.4035  155.8429 C   0  0  1  0  0  0  0  0  0  0  0  0
  150.7105  141.1229  155.1503 O   0  0  0  0  0  0  0  0  0  0  0  0
  148.3543  141.2074  154.8418 C   0  0  0  0  0  0  0  0  0  0  0  0
  147.3507  142.2984  154.9279 N   0  3  2  0  0  0  0  0  0  0  0  0
  146.5103  142.2239  156.1521 C   0  0  0  0  0  0  0  0  0  0  0  0
  145.5930  143.4523  156.2690 C   0  0  0  0  0  0  0  0  0  0  0  0
  144.7110  143.6126  155.0188 C   0  0  1  0  0  0  0  0  0  0  0  0
  143.8146  144.8554  155.1121 C   0  0  0  0  0  0  0  0  0  0  0  0
  145.6053  143.6454  153.7676 C   0  0  0  0  0  0  0  0  0  0  0  0
  146.5203  142.4109  153.7021 C   0  0  0  0  0  0  0  0  0  0  0  0
  151.2306  140.9683  158.5846 C   0  0  0  0  0  0  0  0  0  0  0  0
  150.6536  142.0059  158.9213 O   0  0  0  0  0  0  0  0  0  0  0  0
  154.8344  141.6828  161.3672 H   0  0  0  0  0  0  0  0  0  0  0  0
  155.1640  140.9626  159.7969 H   0  0  0  0  0  0  0  0  0  0  0  0
  154.3726  140.0127  161.0537 H   0  0  0  0  0  0  0  0  0  0  0  0
  152.3586  141.5411  160.9489 H   0  0  0  0  0  0  0  0  0  0  0  0
  153.1015  142.4831  159.6750 H   0  0  0  0  0  0  0  0  0  0  0  0
  154.0457  139.1752  159.2123 H   0  0  0  0  0  0  0  0  0  0  0  0
  148.8584  139.5151  156.7855 H   0  0  0  0  0  0  0  0  0  0  0  0
  148.8029  140.8681  157.8449 H   0  0  0  0  0  0  0  0  0  0  0  0
  149.5328  142.4335  156.1978 H   0  0  0  0  0  0  0  0  0  0  0  0
  151.3909  140.9469  155.7831 H   0  0  0  0  0  0  0  0  0  0  0  0
  148.7719  141.1557  153.8347 H   0  0  0  0  0  0  0  0  0  0  0  0
  147.8561  140.2512  155.0096 H   0  0  0  0  0  0  0  0  0  0  0  0
  145.9114  141.3122  156.1285 H   0  0  0  0  0  0  0  0  0  0  0  0
  147.1384  142.1631  157.0403 H   0  0  0  0  0  0  0  0  0  0  0  0
  144.9676  143.3583  157.1574 H   0  0  0  0  0  0  0  0  0  0  0  0
  146.2008  144.3470  156.4127 H   0  0  0  0  0  0  0  0  0  0  0  0
  144.0602  142.7400  154.9473 H   0  0  0  0  0  0  0  0  0  0  0  0
  144.4065  145.7677  155.1910 H   0  0  0  0  0  0  0  0  0  0  0  0
  143.1639  144.8046  155.9854 H   0  0  0  0  0  0  0  0  0  0  0  0
  143.1770  144.9475  154.2323 H   0  0  0  0  0  0  0  0  0  0  0  0
  144.9903  143.6932  152.8682 H   0  0  0  0  0  0  0  0  0  0  0  0
  146.2156  144.5498  153.7719 H   0  0  0  0  0  0  0  0  0  0  0  0
  147.1648  142.4928  152.8259 H   0  0  0  0  0  0  0  0  0  0  0  0
  145.9264  141.5040  153.5773 H   0  0  0  0  0  0  0  0  0  0  0  0
  147.8805  143.1569  154.9828 H   0  0  0  0  0  0  0  0  0  0  0  0
  1  2  1  0  0  0  0
  1 24  1  0  0  0  0
  1 25  1  0  0  0  0
  1 26  1  0  0  0  0
  2  3  1  0  0  0  0
  2 27  1  0  0  0  0
  2 28  1  0  0  0  0
  3 22  1  0  0  0  0
  3  4  1  0  0  0  0
  4  5  2  0  0  0  0
  4 29  1  0  0  0  0
  5  6  1  0  0  0  0
  5  8  1  0  0  0  0
  6  7  3  0  0  0  0
  8  9  2  0  0  0  0
  8 10  1  0  0  0  0
 10 11  1  0  0  0  0
 10 22  1  0  0  0  0
 11 12  1  0  0  0  0
 11 30  1  0  0  0  0
 11 31  1  0  0  0  0
 12 13  1  0  0  0  0
 12 14  1  0  0  0  0
 12 32  1  0  0  0  0
 13 33  1  0  0  0  0
 14 15  1  0  0  0  0
 14 34  1  0  0  0  0
 14 35  1  0  0  0  0
 15 21  1  0  0  0  0
 15 16  1  0  0  0  0
 15 48  1  0  0  0  0
 16 17  1  0  0  0  0
 16 36  1  0  0  0  0
 16 37  1  0  0  0  0
 17 18  1  0  0  0  0
 17 38  1  0  0  0  0
 17 39  1  0  0  0  0
 18 19  1  0  0  0  0
 18 20  1  0  0  0  0
 18 40  1  0  0  0  0
 19 41  1  0  0  0  0
 19 42  1  0  0  0  0
 19 43  1  0  0  0  0
 20 21  1  0  0  0  0
 20 44  1  0  0  0  0
 20 45  1  0  0  0  0
 21 46  1  0  0  0  0
 21 47  1  0  0  0  0
 22 23  2  0  0  0  0
M  CHG  1  15   1
M  END
> <s_m_source_file>
AV-unprocessed.smi

> <i_m_source_file_index>
1106

> <i_lp_mmshare_version>
43012

> <i_f3d_flags>
0

> <s_epik_input>
W0NIM11bQ0gyXW4xW2NIXWMoQyNOKWMoPU8pbihjMT1PKVtDSDJdW0NASF0oW09IXSlbQ0gyXU4yW0NIMl1bQ0gyXVtDSF0oW0NIM10pW0NIMl1bQ0gyXTI=

> <s_epik_cmdline>
J2VwaWtfcHl0aG9uJywgJy1waCcsICc3LjAnLCAnLXRuJywgJzgnLCAnLW1hJywgJzIwMCcsICctbWV0YWxfYmluZGluZycsICctaW1hZScsICc8aW5maWxlLm1hZT4nLCAnLW9tYWUnLCAnPG91dGZpbGUubWFlPic=

> <r_epik_Ionization_Penalty>
0.00136816

> <r_epik_Ionization_Penalty_Charging>
0.00136813

> <r_epik_Ionization_Penalty_Neutral>
3.19882e-08

> <r_epik_State_Penalty>
0.000910892

> <r_epik_Charging_Adjusted_Penalty>
0.00227902

> <i_epik_Tot_Q>
1

> <i_epik_Tot_abs_Q>
1

> <r_epik_Metal_State_Penalty>
-0

> <b_epik_Metal_Only>
0

> <s_lp_Force_Field>
OPLS_2005

> <r_lp_Energy>
28.6797

> <b_lp_Chiralities_Consistent>
1

> <s_lp_Variant>
AV-unprocessed.smi:1106-2

> <Gold.Version>
5.8.1

> <Gold.Id.Protein>
6NUR|6NUR_protein|mol2

> <Gold.PLP.Fitness>
45.0688

> <Gold.PLP.PLP>
-36.8943

> <Gold.PLP.part.hbond>
-3.3495

> <Gold.PLP.part.metal>
0.0000

> <Gold.PLP.part.buried>
-5.8215

> <Gold.PLP.part.nonpolar>
-27.0581

> <Gold.PLP.part.repulsive>
0.1218

> <Gold.PLP.ligand.clash>
0.0000

> <Gold.PLP.ligand.torsion>
1.4359

> <Gold.PLP.Chemscore.Hbond>
3.6560

> <Gold.PLP.Chemscore.CHOScore>
0.0000

> <Gold.PLP.Chemscore.Metal>
0.0000

> <Gold.Chemscore.Hbonds>
donor molecule, donor type, donor heavy atom, donor atom, acceptor molecule, acceptor atom, score
      L1  H    15    48       P1  8028  2.00
      P1  H  7989  7998       L1    13  0.64
      P1  H 10752 10763       L1     7  0.89

> <Gold.PLP.Chemscore.Internal.Correction>
0.0785

> <Gold.Rescore>
     Score         DG    S(hbond)    S(metal)    S(lipo)     H(rot)  DE(clash)    DE(int)     intcor
     14.05     -16.21       2.56        0.00      72.97       2.48       0.54       1.62       ----

> <Gold.Chemscore.Fitness>
14.0539

> <Gold.Chemscore.DG>
-16.2133

> <Gold.Chemscore.ZeroCoef>
-5.4800

> <Gold.Chemscore.Hbond>
2.5611

> <Gold.Chemscore.Metal>
0.0000

> <Gold.Chemscore.Lipo>
72.9722

> <Gold.Chemscore.Internal_Hbond>
0.0000

> <Gold.Chemscore.DEClash>
0.5370

> <Gold.Chemscore.DEInternal>
1.6225

> <Gold.Chemscore.Rot>
2.4838

> <Gold.Chemscore.Internal.Correction>
   9.000000E+99

> <Gold.Chemscore.Hbonds>
donor molecule, donor type, donor heavy atom, donor atom, acceptor molecule, acceptor atom, score
      L1  H    15    48       P1  8028  0.78
      P1  H  7989  7998       L1    13  0.22
      P1  H 10752 10763       L1     7  0.82

> <Gold.Chemscore.Hbond.Weighted>
-8.5541

> <Gold.Chemscore.Metal.Weighted>
-0.0000

> <Gold.Chemscore.Lipo.Weighted>
-8.5377

> <Gold.Chemscore.Internal_Hbond.Weighted>
0.0000

> <Gold.Chemscore.DEClash.Weighted>
0.5370

> <Gold.Chemscore.DEInternal.Weighted>
1.6225

> <Gold.Chemscore.Rot.Weighted>
6.3585

> <Gold.Chemscore.Internal.Correction.Weighted>
   9.000000E+99

> <Gold.Protein.RotatedTorsions>
[ 6907 6896 6895 6894 ] final  155.05 input  -60.11 | X-H torsion
[ 7974 7965 7964 7962 ] final   47.64 input  175.53 | X-H torsion
[ 8008 7997 7996 7995 ] final  -68.36 input   59.86 | X-H torsion
[ 10167 10162 10161 10158 ] final -101.28 input  -65.29 | X-H torsion
[ 10718 10713 10712 10709 ] final   67.51 input   66.30 | X-H torsion
[ 10763 10752 10751 10750 ] final  145.75 input  -60.55 | X-H torsion
[ 11005 11000 10999 10996 ] final   86.22 input  -57.11 | X-H torsion

> <Gold.Protein.ActiveResidues>
 VAL166  LYS551  ARG553  GLY616  TRP617  ASP618  TYR619  PRO620  LYS621  CYS622 
 ASP623  PHE694  ASN695  SER759  ASP760  ASP761  ALA762  ILE779  LEU786  VAL792 
 PHE793  MET794  SER795  GLU796  ALA797  LYS798  CYS799  TRP800  GLU811  SER814 

> <Gold.Protein.RotatedAtoms>
  152.0497  133.4013  159.4371 H   0  0  0  0  0  0  0  0  0  0  0  0  # atno 6907 bound_to 6896
  150.6871  134.3322  159.4841 H   0  0  0  0  0  0  0  0  0  0  0  0  # atno 6908 bound_to 6896
  152.1131  134.9260  160.0616 H   0  0  0  0  0  0  0  0  0  0  0  0  # atno 6909 bound_to 6896
  146.0279  139.4728  142.9856 H   0  0  0  0  0  0  0  0  0  0  0  0  # atno 7974 bound_to 7965
  154.4862  140.0874  156.7492 H   0  0  0  0  0  0  0  0  0  0  0  0  # atno 8008 bound_to 7997
  155.4344  140.3451  155.4265 H   0  0  0  0  0  0  0  0  0  0  0  0  # atno 8009 bound_to 7997
  156.1265  140.1489  156.9117 H   0  0  0  0  0  0  0  0  0  0  0  0  # atno 8010 bound_to 7997
  140.2430  143.3525  152.0784 H   0  0  0  0  0  0  0  0  0  0  0  0  # atno 10167 bound_to 10162
  157.6235  130.9325  150.0252 H   0  0  0  0  0  0  0  0  0  0  0  0  # atno 10718 bound_to 10713
  154.0105  135.2915  155.3393 H   0  0  0  0  0  0  0  0  0  0  0  0  # atno 10763 bound_to 10752
  154.7106  135.5151  153.8664 H   0  0  0  0  0  0  0  0  0  0  0  0  # atno 10764 bound_to 10752
  153.0725  135.6652  154.0337 H   0  0  0  0  0  0  0  0  0  0  0  0  # atno 10765 bound_to 10752
  139.8950  134.8340  156.2691 H   0  0  0  0  0  0  0  0  0  0  0  0  # atno 11005 bound_to 11000
  145.7089  141.0112  143.1464 LP  0  0  0  0  0  0  0  0  0  0  0  0  # atno 17320 bound_to 7965
  144.7017  139.8733  143.7442 LP  0  0  0  0  0  0  0  0  0  0  0  0  # atno 17321 bound_to 7965
  139.5071  144.6826  151.5971 LP  0  0  0  0  0  0  0  0  0  0  0  0  # atno 17342 bound_to 10162
  140.6099  143.9456  150.6445 LP  0  0  0  0  0  0  0  0  0  0  0  0  # atno 17343 bound_to 10162
  156.1393  130.3642  149.9607 LP  0  0  0  0  0  0  0  0  0  0  0  0  # atno 17370 bound_to 10713
  156.7652  130.9165  151.3642 LP  0  0  0  0  0  0  0  0  0  0  0  0  # atno 17371 bound_to 10713
  141.0113  133.7094  156.1116 LP  0  0  0  0  0  0  0  0  0  0  0  0  # atno 17394 bound_to 11000
  140.7364  134.4198  157.5560 LP  0  0  0  0  0  0  0  0  0  0  0  0  # atno 17395 bound_to 11000

$$$$
