AV-unprocessed.smi:1381|AV-procd|sdf|5608|dock2
  -GOLD-   22720 5213D 1   1.00000     0.00000
 Structure written by MMmdl.
 43 44  0  0  0  0  0  0  0  0  2 V2000
  151.9357  139.7384  158.3203 C   0  0  0  0  0  0  0  0  0  0  0  0
  151.4733  139.6688  156.9054 C   0  0  0  0  0  0  0  0  0  0  0  0
  150.2533  139.4353  156.3362 C   0  0  0  0  0  0  0  0  0  0  0  0
  150.5326  139.5115  154.9404 C   0  0  0  0  0  0  0  0  0  0  0  0
  149.5996  139.3412  153.8849 N   0  0  0  0  0  0  0  0  0  0  0  0
  148.3274  138.9147  153.9546 C   0  0  0  0  0  0  0  0  0  0  0  0
  147.7381  138.5885  154.9847 O   0  0  0  0  0  0  0  0  0  0  0  0
  147.7557  138.8890  152.7417 N   0  0  0  0  0  0  0  0  0  0  0  0
  146.3849  138.4694  152.4727 C   0  0  0  0  0  0  0  0  0  0  0  0
  146.3411  137.2113  151.5842 C   0  0  0  0  0  0  0  0  0  0  0  0
  144.9499  136.7909  151.2685 N   0  3  1  0  0  0  0  0  0  0  0  0
  144.8743  135.5670  150.4337 C   0  0  0  0  0  0  0  0  0  0  0  0
  145.1347  134.2991  151.2729 C   0  0  2  0  0  0  0  0  0  0  0  0
  144.9762  133.0187  150.4459 C   0  0  0  0  0  0  0  0  0  0  0  0
  144.1961  134.2542  152.3427 O   0  0  0  0  0  0  0  0  0  0  0  0
  144.3115  135.3631  153.2282 C   0  0  2  0  0  0  0  0  0  0  0  0
  143.3077  135.1679  154.3698 C   0  0  0  0  0  0  0  0  0  0  0  0
  144.0514  136.6686  152.4454 C   0  0  0  0  0  0  0  0  0  0  0  0
  151.8034  139.7656  154.6890 N   0  0  0  0  0  0  0  0  0  0  0  0
  152.4146  139.8685  155.9441 O   0  0  0  0  0  0  0  0  0  0  0  0
  151.0890  139.8004  159.0041 H   0  0  0  0  0  0  0  0  0  0  0  0
  152.5637  140.6151  158.4805 H   0  0  0  0  0  0  0  0  0  0  0  0
  152.5166  138.8533  158.5798 H   0  0  0  0  0  0  0  0  0  0  0  0
  149.3245  139.2421  156.8511 H   0  0  0  0  0  0  0  0  0  0  0  0
  149.9446  139.5778  152.9664 H   0  0  0  0  0  0  0  0  0  0  0  0
  148.3109  139.1720  151.9472 H   0  0  0  0  0  0  0  0  0  0  0  0
  145.9118  138.2818  153.4357 H   0  0  0  0  0  0  0  0  0  0  0  0
  145.8298  139.2859  152.0077 H   0  0  0  0  0  0  0  0  0  0  0  0
  146.8570  137.4359  150.6499 H   0  0  0  0  0  0  0  0  0  0  0  0
  146.8968  136.3963  152.0476 H   0  0  0  0  0  0  0  0  0  0  0  0
  143.8763  135.5151  149.9961 H   0  0  0  0  0  0  0  0  0  0  0  0
  145.5699  135.6315  149.5958 H   0  0  0  0  0  0  0  0  0  0  0  0
  146.1464  134.3204  151.6812 H   0  0  0  0  0  0  0  0  0  0  0  0
  145.6815  132.9984  149.6147 H   0  0  0  0  0  0  0  0  0  0  0  0
  143.9701  132.9356  150.0339 H   0  0  0  0  0  0  0  0  0  0  0  0
  145.1592  132.1352  151.0576 H   0  0  0  0  0  0  0  0  0  0  0  0
  145.3138  135.3737  153.6584 H   0  0  0  0  0  0  0  0  0  0  0  0
  143.3602  135.9902  155.0838 H   0  0  0  0  0  0  0  0  0  0  0  0
  143.5100  134.2444  154.9129 H   0  0  0  0  0  0  0  0  0  0  0  0
  142.2854  135.1157  153.9937 H   0  0  0  0  0  0  0  0  0  0  0  0
  144.1403  137.5348  153.0999 H   0  0  0  0  0  0  0  0  0  0  0  0
  143.0227  136.6708  152.0819 H   0  0  0  0  0  0  0  0  0  0  0  0
  144.5765  137.5348  150.6959 H   0  0  0  0  0  0  0  0  0  0  0  0
  1  2  1  0  0  0  0
  1 21  1  0  0  0  0
  1 22  1  0  0  0  0
  1 23  1  0  0  0  0
  2 20  1  0  0  0  0
  2  3  2  0  0  0  0
  3  4  1  0  0  0  0
  3 24  1  0  0  0  0
  4  5  1  0  0  0  0
  4 19  2  0  0  0  0
  5  6  1  0  0  0  0
  5 25  1  0  0  0  0
  6  7  2  0  0  0  0
  6  8  1  0  0  0  0
  8  9  1  0  0  0  0
  8 26  1  0  0  0  0
  9 10  1  0  0  0  0
  9 27  1  0  0  0  0
  9 28  1  0  0  0  0
 10 11  1  0  0  0  0
 10 29  1  0  0  0  0
 10 30  1  0  0  0  0
 11 18  1  0  0  0  0
 11 12  1  0  0  0  0
 11 43  1  0  0  0  0
 12 13  1  0  0  0  0
 12 31  1  0  0  0  0
 12 32  1  0  0  0  0
 13 14  1  0  0  0  0
 13 15  1  0  0  0  0
 13 33  1  0  0  0  0
 14 34  1  0  0  0  0
 14 35  1  0  0  0  0
 14 36  1  0  0  0  0
 15 16  1  0  0  0  0
 16 17  1  0  0  0  0
 16 18  1  0  0  0  0
 16 37  1  0  0  0  0
 17 38  1  0  0  0  0
 17 39  1  0  0  0  0
 17 40  1  0  0  0  0
 18 41  1  0  0  0  0
 18 42  1  0  0  0  0
 19 20  1  0  0  0  0
M  CHG  1  11   1
M  END
> <s_m_source_file>
AV-unprocessed.smi

> <i_m_source_file_index>
1381

> <i_lp_mmshare_version>
43012

> <i_f3d_flags>
0

> <s_epik_input>
W0NIM11jMVtjSF1jKG5vMSlbTkhdQyg9TylbTkhdW0NIMl1bQ0gyXU4yW0NIMl1bQ0BASF0oW0NIM10pT1tDQEBIXShbQ0gzXSlbQ0gyXTI=

> <s_epik_cmdline>
J2VwaWtfcHl0aG9uJywgJy1waCcsICc3LjAnLCAnLXRuJywgJzgnLCAnLW1hJywgJzIwMCcsICctbWV0YWxfYmluZGluZycsICctaW1hZScsICc8aW5maWxlLm1hZT4nLCAnLW9tYWUnLCAnPG91dGZpbGUubWFlPic=

> <r_epik_Ionization_Penalty>
0.707076

> <r_epik_Ionization_Penalty_Charging>
0.707039

> <r_epik_Ionization_Penalty_Neutral>
3.6548e-05

> <r_epik_State_Penalty>
0.730276

> <r_epik_Charging_Adjusted_Penalty>
1.43732

> <i_epik_Tot_Q>
1

> <i_epik_Tot_abs_Q>
1

> <r_epik_Metal_State_Penalty>
0.743132

> <b_epik_Metal_Only>
0

> <s_lp_Force_Field>
OPLS_2005

> <r_lp_Energy>
17.699

> <b_lp_Chiralities_Consistent>
1

> <s_lp_Variant>
AV-unprocessed.smi:1381-7

> <Gold.Version>
5.8.1

> <Gold.Id.Protein>
6NUR|6NUR_protein|mol2

> <Gold.PLP.Fitness>
45.2454

> <Gold.PLP.PLP>
-30.3967

> <Gold.PLP.part.hbond>
-6.0000

> <Gold.PLP.part.metal>
0.0000

> <Gold.PLP.part.buried>
-1.8531

> <Gold.PLP.part.nonpolar>
-23.3127

> <Gold.PLP.part.repulsive>
0.4605

> <Gold.PLP.ligand.clash>
0.0000

> <Gold.PLP.ligand.torsion>
0.0490

> <Gold.PLP.Chemscore.Hbond>
4.9760

> <Gold.PLP.Chemscore.CHOScore>
0.0000

> <Gold.PLP.Chemscore.Metal>
0.0000

> <Gold.Chemscore.Hbonds>
donor molecule, donor type, donor heavy atom, donor atom, acceptor molecule, acceptor atom, score
      L1  H     5    25       P1  7957  1.00
      L1  H     8    26       P1  7957  1.00
      L1  H    11    43       P1 10171  1.00
      P1  H  7989  7998       L1    19  1.00
      P1  H  7997  8008       L1    20  1.00

> <Gold.PLP.Chemscore.Internal.Correction>
0.0186

> <Gold.Rescore>
     Score         DG    S(hbond)    S(metal)    S(lipo)     H(rot)  DE(clash)    DE(int)     intcor
     21.39     -23.81       4.68        0.00      58.30       1.61       1.18       1.23       ----

> <Gold.Chemscore.Fitness>
21.3928

> <Gold.Chemscore.DG>
-23.8064

> <Gold.Chemscore.ZeroCoef>
-5.4800

> <Gold.Chemscore.Hbond>
4.6773

> <Gold.Chemscore.Metal>
0.0000

> <Gold.Chemscore.Lipo>
58.2984

> <Gold.Chemscore.Internal_Hbond>
0.0000

> <Gold.Chemscore.DEClash>
1.1831

> <Gold.Chemscore.DEInternal>
1.2306

> <Gold.Chemscore.Rot>
1.6081

> <Gold.Chemscore.Internal.Correction>
   9.000000E+99

> <Gold.Chemscore.Hbonds>
donor molecule, donor type, donor heavy atom, donor atom, acceptor molecule, acceptor atom, score
      L1  H     5    25       P1  7957  0.95
      L1  H     8    26       P1  7957  0.98
      L1  H    11    43       P1 10171  0.94
      P1  H  7989  7998       L1    19  0.28
      P1  H  7997  8008       L1    20  0.98

> <Gold.Chemscore.Hbond.Weighted>
-15.6222

> <Gold.Chemscore.Metal.Weighted>
-0.0000

> <Gold.Chemscore.Lipo.Weighted>
-6.8209

> <Gold.Chemscore.Internal_Hbond.Weighted>
0.0000

> <Gold.Chemscore.DEClash.Weighted>
1.1831

> <Gold.Chemscore.DEInternal.Weighted>
1.2306

> <Gold.Chemscore.Rot.Weighted>
4.1167

> <Gold.Chemscore.Internal.Correction.Weighted>
   9.000000E+99

> <Gold.Protein.RotatedTorsions>
[ 6907 6896 6895 6894 ] final  -36.83 input  -60.11 | X-H torsion
[ 7974 7965 7964 7962 ] final   58.99 input  175.53 | X-H torsion
[ 8008 7997 7996 7995 ] final  -34.37 input   59.86 | X-H torsion
[ 10167 10162 10161 10158 ] final -156.88 input  -65.29 | X-H torsion
[ 10718 10713 10712 10709 ] final  177.05 input   66.30 | X-H torsion
[ 10763 10752 10751 10750 ] final  163.90 input  -60.55 | X-H torsion
[ 11005 11000 10999 10996 ] final -133.72 input  -57.11 | X-H torsion

> <Gold.Protein.ActiveResidues>
 VAL166  LYS551  ARG553  GLY616  TRP617  ASP618  TYR619  PRO620  LYS621  CYS622 
 ASP623  PHE694  ASN695  SER759  ASP760  ASP761  ALA762  ILE779  LEU786  VAL792 
 PHE793  MET794  SER795  GLU796  ALA797  LYS798  CYS799  TRP800  GLU811  SER814 

> <Gold.Protein.RotatedAtoms>
  151.0222  134.9478  159.8065 H   0  0  0  0  0  0  0  0  0  0  0  0  # atno 6907 bound_to 6896
  152.5327  134.2888  159.9045 H   0  0  0  0  0  0  0  0  0  0  0  0  # atno 6908 bound_to 6896
  151.2896  133.4129  159.2666 H   0  0  0  0  0  0  0  0  0  0  0  0  # atno 6909 bound_to 6896
  145.9121  139.3662  143.0529 H   0  0  0  0  0  0  0  0  0  0  0  0  # atno 7974 bound_to 7965
  154.4122  140.1685  156.2039 H   0  0  0  0  0  0  0  0  0  0  0  0  # atno 8008 bound_to 7997
  155.9500  140.3401  155.6377 H   0  0  0  0  0  0  0  0  0  0  0  0  # atno 8009 bound_to 7997
  155.6881  140.0730  157.2449 H   0  0  0  0  0  0  0  0  0  0  0  0  # atno 8010 bound_to 7997
  139.6815  143.9573  152.2339 H   0  0  0  0  0  0  0  0  0  0  0  0  # atno 10167 bound_to 10162
  156.9111  130.9910  151.3020 H   0  0  0  0  0  0  0  0  0  0  0  0  # atno 10718 bound_to 10713
  154.3007  135.2759  155.2612 H   0  0  0  0  0  0  0  0  0  0  0  0  # atno 10763 bound_to 10752
  154.5050  135.5798  153.6564 H   0  0  0  0  0  0  0  0  0  0  0  0  # atno 10764 bound_to 10752
  152.9901  135.6167  154.3178 H   0  0  0  0  0  0  0  0  0  0  0  0  # atno 10765 bound_to 10752
  140.9055  134.1635  157.4429 H   0  0  0  0  0  0  0  0  0  0  0  0  # atno 11005 bound_to 11000
  145.8658  140.9449  143.0676 LP  0  0  0  0  0  0  0  0  0  0  0  0  # atno 17320 bound_to 7965
  144.6744  140.0590  143.7476 LP  0  0  0  0  0  0  0  0  0  0  0  0  # atno 17321 bound_to 7965
  139.9365  144.6709  150.8310 LP  0  0  0  0  0  0  0  0  0  0  0  0  # atno 17342 bound_to 10162
  140.7654  143.3273  151.2487 LP  0  0  0  0  0  0  0  0  0  0  0  0  # atno 17343 bound_to 10162
  157.5966  130.8482  149.8739 LP  0  0  0  0  0  0  0  0  0  0  0  0  # atno 17370 bound_to 10713
  156.0535  130.3713  150.1145 LP  0  0  0  0  0  0  0  0  0  0  0  0  # atno 17371 bound_to 10713
  139.8749  134.9915  156.5552 LP  0  0  0  0  0  0  0  0  0  0  0  0  # atno 17394 bound_to 11000
  140.8176  133.8379  155.8866 LP  0  0  0  0  0  0  0  0  0  0  0  0  # atno 17395 bound_to 11000

$$$$
