#       Name:                AV-unprocessed.smi:160
#       Creating user name   scv26
#       Creation time:       Thu Mar 26 19:08:33 2020


#       File generated by GOLD software.
#

@<TRIPOS>MOLECULE
AV-unprocessed.smi:160
    41    42     1
SMALL
NO_CHARGES


@<TRIPOS>ATOM
      1 ****        -4.4447   2.3025  -0.9804 N.pl3          1 S1                -1.0000
      2 ****        -4.4805   1.1930  -0.2102 C.2            1 S1                 0.0000
      3 ****        -5.4889   0.5726   0.1254 O.2            1 S1                 0.0000
      4 ****        -3.1272   0.7105   0.2561 C.2            1 S1                 0.0000
      5 ****        -3.0167  -0.4049   1.0396 N.2            1 S1                 0.0000
      6 ****        -1.6993  -0.4283   1.1917 C.2            1 S1                 0.0000
      7 ****        -1.0558   0.5563   0.5542 N.pl3          1 S1                 0.0000
      8 ****         0.3969   0.9209   0.5019 C.3            1 S1                 0.0000
      9 ****         1.1242  -0.0410   1.2000 O.3            1 S1                 0.0000
     10 ****         1.4771  -1.0937   0.3127 C.3            1 S1                 0.0000
     11 ****         2.6545  -1.8929   0.8923 C.3            1 S1                 0.0000
     12 ****         2.1875  -2.8403   1.8290 O.3            1 S1                 0.0000
     13 ****         1.8286  -0.3342  -0.9724 C.3            1 S1                 0.0000
     14 ****         1.5550  -1.1386  -2.1019 O.3            1 S1                 0.0000
     15 ****         0.9118   0.8904  -0.9495 C.3            1 S1                 0.0000
     16 ****         1.6387   2.0610  -1.2632 O.3            1 S1                 0.0000
     17 ****        -1.9854   1.3329  -0.0536 N.2            1 S1                 0.0000
     18 ****         0.4447   1.8970   0.9867 H              1 S1                 0.0000
     19 ****         0.6120  -1.7380   0.1422 H              1 S1                 0.0000
     20 ****         2.8790  -0.0374  -0.9642 H              1 S1                 0.0000
     21 ****         0.0789   0.7921  -1.6477 H              1 S1                 0.0000
     22 ****        -3.5315   2.7243  -1.1866 H              1 S1                 0.0000
     23 ****        -1.1956  -1.1788   1.7829 H              1 S1                 0.0000
     24 ****         3.1604  -2.4424   0.0977 H              1 S1                 0.0000
     25 ****         3.3924  -1.2348   1.3520 H              1 S1                 0.0000
     26 ****         2.9285  -3.3223   2.1632 H              1 S1                 0.0000
     27 ****         1.7067  -0.6224  -2.8789 H              1 S1                 0.0000
     28 ****         1.0480   2.7978  -1.2201 H              1 S1                 0.0000
     29 ****        -5.2870   2.7031  -1.3408 LP             1 S1                 0.0000
     30 ****        -6.3903   0.8822  -0.1772 LP             1 S1                 0.0000
     31 ****        -5.4069  -0.2412   0.7008 LP             1 S1                 0.0000
     32 ****        -3.7208  -1.0207   1.3933 LP             1 S1                 0.0000
     33 ****         0.5673  -0.4052   1.9465 LP             1 S1                 0.0000
     34 ****         1.9538   0.3732   1.5745 LP             1 S1                 0.0000
     35 ****         1.5495  -3.4686   1.3838 LP             1 S1                 0.0000
     36 ****         1.7236  -2.3712   2.5805 LP             1 S1                 0.0000
     37 ****         0.6023  -1.4416  -2.0781 LP             1 S1                 0.0000
     38 ****         2.1584  -1.9361  -2.1029 LP             1 S1                 0.0000
     39 ****         2.0190   1.9860  -2.1850 LP             1 S1                 0.0000
     40 ****         2.3816   2.1842  -0.6051 LP             1 S1                 0.0000
     41 ****        -1.8511   2.1619  -0.5964 LP             1 S1                 0.0000
@<TRIPOS>BOND
    1    1    2 1     
    2    1   22 1     
    3    2    3 2     
    4    2    4 1     
    5    4   17 2     
    6    4    5 1     
    7    5    6 2     
    8    6    7 1     
    9    6   23 1     
   10    7    8 1     
   11    7   17 1     
   12    8   18 1     
   13    8   15 1     
   14    8    9 1     
   15    9   10 1     
   16   10   19 1     
   17   10   11 1     
   18   10   13 1     
   19   11   12 1     
   20   11   24 1     
   21   11   25 1     
   22   12   26 1     
   23   13   20 1     
   24   13   14 1     
   25   13   15 1     
   26   14   27 1     
   27   15   21 1     
   28   15   16 1     
   29   16   28 1     
   30    1   29 1     
   31    3   30 1     
   32    3   31 1     
   33    5   32 1     
   34    9   33 1     
   35    9   34 1     
   36   12   35 1     
   37   12   36 1     
   38   14   37 1     
   39   14   38 1     
   40   16   39 1     
   41   16   40 1     
   42   17   41 1     
@<TRIPOS>SUBSTRUCTURE
      1 S1             1
@<TRIPOS>SET
LONE_PAIRS      STATIC     ATOMS    <user>   **** ""
13 29 30 31 32 33 34 35 36 37 38 39 40 41
DONOR_HYDROGENS      STATIC     ATOMS    <user>   **** ""
4 22 26 27 28
ATOM$BLUE        STATIC     ATOMS    COLORGROUP SYSTEM
13 29 30 31 32 33 34 35 36 37 38 39 40 41
ATOM$RED        STATIC     ATOMS    COLORGROUP SYSTEM
4 22 26 27 28
