AV-unprocessed.smi:2764|AV-procd|sdf|10640|dock10
  -GOLD-   2272015 93D 1   1.00000     0.00000
 Structure written by MMmdl.
 47 49  0  0  0  0  0  0  0  0  2 V2000
  143.9977  143.3923  156.7103 O   0  0  0  0  0  0  0  0  0  0  0  0
  144.0054  143.3245  155.4811 C   0  0  0  0  0  0  0  0  0  0  0  0
  143.0491  143.8137  154.6719 N   0  0  0  0  0  0  0  0  0  0  0  0
  141.8788  144.5345  155.0310 C   0  0  0  0  0  0  0  0  0  0  0  0
  141.3742  145.3933  154.0280 C   0  0  0  0  0  0  0  0  0  0  0  0
  140.2195  146.1575  154.2865 C   0  0  0  0  0  0  0  0  0  0  0  0
  139.6004  146.0420  155.5436 C   0  0  0  0  0  0  0  0  0  0  0  0
  138.4893  146.7574  155.8385 F   0  0  0  0  0  0  0  0  0  0  0  0
  140.1656  145.1643  156.4870 C   0  0  0  0  0  0  0  0  0  0  0  0
  141.2721  144.4308  156.2403 N   0  0  0  0  0  0  0  0  0  0  0  0
  144.9871  142.7425  154.7721 N   0  0  0  0  0  0  0  0  0  0  0  0
  146.2053  142.1111  155.2856 C   0  0  2  0  0  0  0  0  0  0  0  0
  146.6565  142.6931  156.6390 C   0  0  0  0  0  0  0  0  0  0  0  0
  147.9176  141.9755  157.1497 C   0  0  0  0  0  0  0  0  0  0  0  0
  149.0153  142.0397  156.1487 N   0  3  1  0  0  0  0  0  0  0  0  0
  150.2989  141.4950  156.6629 C   0  0  0  0  0  0  0  0  0  0  0  0
  150.8302  142.3018  157.8633 C   0  0  2  0  0  0  0  0  0  0  0  0
  151.4551  143.6427  157.5275 C   0  0  0  0  0  0  0  0  0  0  0  0
  152.2956  143.9274  158.7691 C   0  0  0  0  0  0  0  0  0  0  0  0
  152.6754  142.6551  159.2848 O   0  0  0  0  0  0  0  0  0  0  0  0
  151.9970  141.6214  158.5798 C   0  0  0  0  0  0  0  0  0  0  0  0
  148.6073  141.4385  154.8510 C   0  0  0  0  0  0  0  0  0  0  0  0
  147.3703  142.1479  154.2771 C   0  0  0  0  0  0  0  0  0  0  0  0
  143.1814  143.6697  153.6818 H   0  0  0  0  0  0  0  0  0  0  0  0
  141.8641  145.4703  153.0682 H   0  0  0  0  0  0  0  0  0  0  0  0
  139.8182  146.8201  153.5339 H   0  0  0  0  0  0  0  0  0  0  0  0
  139.7208  145.0481  157.4642 H   0  0  0  0  0  0  0  0  0  0  0  0
  144.8851  142.7423  153.7675 H   0  0  0  0  0  0  0  0  0  0  0  0
  145.9415  141.0651  155.4474 H   0  0  0  0  0  0  0  0  0  0  0  0
  146.8696  143.7586  156.5486 H   0  0  0  0  0  0  0  0  0  0  0  0
  145.8562  142.5990  157.3738 H   0  0  0  0  0  0  0  0  0  0  0  0
  148.2392  142.4461  158.0797 H   0  0  0  0  0  0  0  0  0  0  0  0
  147.6933  140.9326  157.3805 H   0  0  0  0  0  0  0  0  0  0  0  0
  150.1483  140.4686  157.0013 H   0  0  0  0  0  0  0  0  0  0  0  0
  151.0423  141.4331  155.8661 H   0  0  0  0  0  0  0  0  0  0  0  0
  150.0271  142.4550  158.5865 H   0  0  0  0  0  0  0  0  0  0  0  0
  152.1020  143.5552  156.6533 H   0  0  0  0  0  0  0  0  0  0  0  0
  150.7205  144.4249  157.3349 H   0  0  0  0  0  0  0  0  0  0  0  0
  153.1668  144.5439  158.5473 H   0  0  0  0  0  0  0  0  0  0  0  0
  151.6992  144.4421  159.5233 H   0  0  0  0  0  0  0  0  0  0  0  0
  151.6694  140.8297  159.2540 H   0  0  0  0  0  0  0  0  0  0  0  0
  152.6908  141.1848  157.8599 H   0  0  0  0  0  0  0  0  0  0  0  0
  149.4226  141.5040  154.1318 H   0  0  0  0  0  0  0  0  0  0  0  0
  148.3982  140.3766  154.9905 H   0  0  0  0  0  0  0  0  0  0  0  0
  147.0724  141.6720  153.3421 H   0  0  0  0  0  0  0  0  0  0  0  0
  147.6374  143.1757  154.0301 H   0  0  0  0  0  0  0  0  0  0  0  0
  149.1757  143.0225  155.9788 H   0  0  0  0  0  0  0  0  0  0  0  0
  1  2  2  0  0  0  0
  2  3  1  0  0  0  0
  2 11  1  0  0  0  0
  3  4  1  0  0  0  0
  3 24  1  0  0  0  0
  4 10  1  0  0  0  0
  4  5  2  0  0  0  0
  5  6  1  0  0  0  0
  5 25  1  0  0  0  0
  6  7  2  0  0  0  0
  6 26  1  0  0  0  0
  7  8  1  0  0  0  0
  7  9  1  0  0  0  0
  9 10  2  0  0  0  0
  9 27  1  0  0  0  0
 11 12  1  0  0  0  0
 11 28  1  0  0  0  0
 12 23  1  0  0  0  0
 12 13  1  0  0  0  0
 12 29  1  0  0  0  0
 13 14  1  0  0  0  0
 13 30  1  0  0  0  0
 13 31  1  0  0  0  0
 14 15  1  0  0  0  0
 14 32  1  0  0  0  0
 14 33  1  0  0  0  0
 15 16  1  0  0  0  0
 15 22  1  0  0  0  0
 15 47  1  0  0  0  0
 16 17  1  0  0  0  0
 16 34  1  0  0  0  0
 16 35  1  0  0  0  0
 17 21  1  0  0  0  0
 17 18  1  0  0  0  0
 17 36  1  0  0  0  0
 18 19  1  0  0  0  0
 18 37  1  0  0  0  0
 18 38  1  0  0  0  0
 19 20  1  0  0  0  0
 19 39  1  0  0  0  0
 19 40  1  0  0  0  0
 20 21  1  0  0  0  0
 21 41  1  0  0  0  0
 21 42  1  0  0  0  0
 22 23  1  0  0  0  0
 22 43  1  0  0  0  0
 22 44  1  0  0  0  0
 23 45  1  0  0  0  0
 23 46  1  0  0  0  0
M  CHG  1  15   1
M  END
> <s_m_source_file>
AV-unprocessed.smi

> <i_m_source_file_index>
2764

> <i_lp_mmshare_version>
43012

> <i_f3d_flags>
0

> <s_epik_input>
bjFbY0hdYyhGKVtjSF1bY0hdYzFbTkhdQyg9TylbTkhdW0NIXTJbQ0gyXVtDSDJdTihbQ0gyXVtDSDJdMilbQ0gyXVtDQEBIXTNbQ0gyXVtDSDJdT1tDSDJdMw==

> <s_epik_cmdline>
J2VwaWtfcHl0aG9uJywgJy1waCcsICc3LjAnLCAnLXRuJywgJzgnLCAnLW1hJywgJzIwMCcsICctbWV0YWxfYmluZGluZycsICctaW1hZScsICc8aW5maWxlLm1hZT4nLCAnLW9tYWUnLCAnPG91dGZpbGUubWFlPic=

> <r_epik_Ionization_Penalty>
0.0075076

> <r_epik_Ionization_Penalty_Charging>
0.00747775

> <r_epik_Ionization_Penalty_Neutral>
2.98483e-05

> <r_epik_State_Penalty>
0.00558817

> <r_epik_Charging_Adjusted_Penalty>
0.0130659

> <i_epik_Tot_Q>
1

> <i_epik_Tot_abs_Q>
1

> <r_epik_Metal_State_Penalty>
-0

> <b_epik_Metal_Only>
0

> <s_lp_Force_Field>
OPLS_2005

> <r_lp_Energy>
38.4399

> <b_lp_Chiralities_Consistent>
1

> <s_lp_Variant>
AV-unprocessed.smi:2764-1

> <Gold.Version>
5.8.1

> <Gold.Id.Protein>
6NUR|6NUR_protein|mol2

> <Gold.PLP.Fitness>
44.3178

> <Gold.PLP.PLP>
-36.5497

> <Gold.PLP.part.hbond>
-2.0000

> <Gold.PLP.part.metal>
0.0000

> <Gold.PLP.part.buried>
-4.7917

> <Gold.PLP.part.nonpolar>
-30.3285

> <Gold.PLP.part.repulsive>
0.1358

> <Gold.PLP.ligand.clash>
0.0000

> <Gold.PLP.ligand.torsion>
0.6280

> <Gold.PLP.Chemscore.Hbond>
2.9920

> <Gold.PLP.Chemscore.CHOScore>
0.0000

> <Gold.PLP.Chemscore.Metal>
0.0000

> <Gold.Chemscore.Hbonds>
donor molecule, donor type, donor heavy atom, donor atom, acceptor molecule, acceptor atom, score
      L1  H     3    24       P1 10174  0.88
      L1  H    15    47       P1  8028  2.00

> <Gold.PLP.Chemscore.Internal.Correction>
0.0481

> <Gold.Rescore>
     Score         DG    S(hbond)    S(metal)    S(lipo)     H(rot)  DE(clash)    DE(int)     intcor
     15.97     -19.18       1.93        0.00      94.56       1.49       0.06       3.16       ----

> <Gold.Chemscore.Fitness>
15.9674

> <Gold.Chemscore.DG>
-19.1831

> <Gold.Chemscore.ZeroCoef>
-5.4800

> <Gold.Chemscore.Hbond>
1.9317

> <Gold.Chemscore.Metal>
0.0000

> <Gold.Chemscore.Lipo>
94.5595

> <Gold.Chemscore.Internal_Hbond>
0.0000

> <Gold.Chemscore.DEClash>
0.0567

> <Gold.Chemscore.DEInternal>
3.1590

> <Gold.Chemscore.Rot>
1.4891

> <Gold.Chemscore.Internal.Correction>
   9.000000E+99

> <Gold.Chemscore.Hbonds>
donor molecule, donor type, donor heavy atom, donor atom, acceptor molecule, acceptor atom, score
      L1  H     3    24       P1 10174  0.82
      L1  H    15    47       P1  8028  1.00

> <Gold.Chemscore.Hbond.Weighted>
-6.4518

> <Gold.Chemscore.Metal.Weighted>
-0.0000

> <Gold.Chemscore.Lipo.Weighted>
-11.0635

> <Gold.Chemscore.Internal_Hbond.Weighted>
0.0000

> <Gold.Chemscore.DEClash.Weighted>
0.0567

> <Gold.Chemscore.DEInternal.Weighted>
3.1590

> <Gold.Chemscore.Rot.Weighted>
3.8121

> <Gold.Chemscore.Internal.Correction.Weighted>
   9.000000E+99

> <Gold.Protein.RotatedTorsions>
[ 6907 6896 6895 6894 ] final  172.65 input  -60.11 | X-H torsion
[ 7974 7965 7964 7962 ] final   20.75 input  175.53 | X-H torsion
[ 8008 7997 7996 7995 ] final  171.32 input   59.86 | X-H torsion
[ 10167 10162 10161 10158 ] final -154.44 input  -65.29 | X-H torsion
[ 10718 10713 10712 10709 ] final  -59.68 input   66.30 | X-H torsion
[ 10763 10752 10751 10750 ] final   27.21 input  -60.55 | X-H torsion
[ 11005 11000 10999 10996 ] final -153.64 input  -57.11 | X-H torsion

> <Gold.Protein.ActiveResidues>
 VAL166  LYS551  ARG553  GLY616  TRP617  ASP618  TYR619  PRO620  LYS621  CYS622 
 ASP623  PHE694  ASN695  SER759  ASP760  ASP761  ALA762  ILE779  LEU786  VAL792 
 PHE793  MET794  SER795  GLU796  ALA797  LYS798  CYS799  TRP800  GLU811  SER814 

> <Gold.Protein.RotatedAtoms>
  151.7808  133.3349  159.3470 H   0  0  0  0  0  0  0  0  0  0  0  0  # atno 6907 bound_to 6896
  150.7427  134.5932  159.6008 H   0  0  0  0  0  0  0  0  0  0  0  0  # atno 6908 bound_to 6896
  152.3277  134.7301  160.0349 H   0  0  0  0  0  0  0  0  0  0  0  0  # atno 6909 bound_to 6896
  146.2099  139.8125  142.8697 H   0  0  0  0  0  0  0  0  0  0  0  0  # atno 7974 bound_to 7965
  156.1282  140.1515  156.9104 H   0  0  0  0  0  0  0  0  0  0  0  0  # atno 8008 bound_to 7997
  154.4888  140.0857  156.7588 H   0  0  0  0  0  0  0  0  0  0  0  0  # atno 8009 bound_to 7997
  155.4304  140.3427  155.4282 H   0  0  0  0  0  0  0  0  0  0  0  0  # atno 8010 bound_to 7997
  139.7013  143.9259  152.2430 H   0  0  0  0  0  0  0  0  0  0  0  0  # atno 10167 bound_to 10162
  156.1044  130.4182  150.0749 H   0  0  0  0  0  0  0  0  0  0  0  0  # atno 10718 bound_to 10713
  153.0571  135.6542  154.0551 H   0  0  0  0  0  0  0  0  0  0  0  0  # atno 10763 bound_to 10752
  154.0227  135.2918  155.3380 H   0  0  0  0  0  0  0  0  0  0  0  0  # atno 10764 bound_to 10752
  154.6891  135.5290  153.8435 H   0  0  0  0  0  0  0  0  0  0  0  0  # atno 10765 bound_to 10752
  140.7059  134.3886  157.5204 H   0  0  0  0  0  0  0  0  0  0  0  0  # atno 11005 bound_to 11000
  145.3180  141.0237  143.3516 LP  0  0  0  0  0  0  0  0  0  0  0  0  # atno 17320 bound_to 7965
  144.8887  139.4804  143.6688 LP  0  0  0  0  0  0  0  0  0  0  0  0  # atno 17321 bound_to 7965
  139.9102  144.6861  150.8571 LP  0  0  0  0  0  0  0  0  0  0  0  0  # atno 17342 bound_to 10162
  140.7710  143.3449  151.2132 LP  0  0  0  0  0  0  0  0  0  0  0  0  # atno 17343 bound_to 10162
  156.8728  130.9530  151.3607 LP  0  0  0  0  0  0  0  0  0  0  0  0  # atno 17370 bound_to 10713
  157.6219  130.8662  149.9123 LP  0  0  0  0  0  0  0  0  0  0  0  0  # atno 17371 bound_to 10713
  139.8884  134.8857  156.2475 LP  0  0  0  0  0  0  0  0  0  0  0  0  # atno 17394 bound_to 11000
  141.0125  133.7087  156.1134 LP  0  0  0  0  0  0  0  0  0  0  0  0  # atno 17395 bound_to 11000

$$$$
