AV-unprocessed.smi:2762|AV-procd|sdf|10636|dock5
  -GOLD-   2272015 83D 1   1.00000     0.00000
 Structure written by MMmdl.
 39 40  0  0  0  0  0  0  0  0  1 V2000
  148.8466  133.0320  155.2585 O   0  0  0  0  0  0  0  0  0  0  0  0
  148.8699  133.9288  154.4148 C   0  0  0  0  0  0  0  0  0  0  0  0
  149.6156  135.0373  154.5315 N   0  0  0  0  0  0  0  0  0  0  0  0
  150.5349  135.3249  155.6283 C   0  0  0  0  0  0  0  0  0  0  0  0
  151.6021  136.3584  155.2166 C   0  0  0  0  0  0  0  0  0  0  0  0
  151.4842  137.6734  155.8467 N   0  0  0  0  0  0  0  0  0  0  0  0
  152.0624  138.7418  155.0341 C   0  0  0  0  0  0  0  0  0  0  0  0
  151.9329  140.1129  155.7193 C   0  0  0  0  0  0  0  0  0  0  0  0
  152.5452  140.0653  157.0042 O   0  0  0  0  0  0  0  0  0  0  0  0
  151.9820  139.0619  157.8430 C   0  0  0  0  0  0  0  0  0  0  0  0
  152.1125  137.6884  157.1625 C   0  0  0  0  0  0  0  0  0  0  0  0
  148.1672  133.9347  153.2685 N   0  0  0  0  0  0  0  0  0  0  0  0
  147.3195  132.9177  152.7538 C   0  0  0  0  0  0  0  0  0  0  0  0
  146.3305  133.3650  151.8492 C   0  0  0  0  0  0  0  0  0  0  0  0
  145.4394  132.4342  151.2711 C   0  0  0  0  0  0  0  0  0  0  0  0
  144.3559  132.8721  150.2982 C   0  0  0  0  0  0  0  0  0  0  0  0
  144.5483  132.2989  149.1098 F   0  0  0  0  0  0  0  0  0  0  0  0
  143.1665  132.4980  150.7681 F   0  0  0  0  0  0  0  0  0  0  0  0
  144.3529  134.1950  150.1300 F   0  0  0  0  0  0  0  0  0  0  0  0
  145.5665  131.0773  151.6292 C   0  0  0  0  0  0  0  0  0  0  0  0
  146.5781  130.7168  152.5372 C   0  0  0  0  0  0  0  0  0  0  0  0
  147.4310  131.6073  153.0837 N   0  0  0  0  0  0  0  0  0  0  0  0
  149.5679  135.7214  153.7910 H   0  0  0  0  0  0  0  0  0  0  0  0
  149.9419  135.7390  156.4439 H   0  0  0  0  0  0  0  0  0  0  0  0
  150.9816  134.4127  156.0249 H   0  0  0  0  0  0  0  0  0  0  0  0
  152.5797  135.9361  155.4531 H   0  0  0  0  0  0  0  0  0  0  0  0
  151.5864  136.4754  154.1320 H   0  0  0  0  0  0  0  0  0  0  0  0
  153.1155  138.5323  154.8416 H   0  0  0  0  0  0  0  0  0  0  0  0
  151.5725  138.7909  154.0629 H   0  0  0  0  0  0  0  0  0  0  0  0
  152.4182  140.8838  155.1207 H   0  0  0  0  0  0  0  0  0  0  0  0
  150.8839  140.3964  155.8181 H   0  0  0  0  0  0  0  0  0  0  0  0
  152.5037  139.0627  158.8000 H   0  0  0  0  0  0  0  0  0  0  0  0
  150.9356  139.2940  158.0472 H   0  0  0  0  0  0  0  0  0  0  0  0
  151.6580  136.9281  157.7985 H   0  0  0  0  0  0  0  0  0  0  0  0
  153.1685  137.4290  157.0719 H   0  0  0  0  0  0  0  0  0  0  0  0
  148.2714  134.7503  152.6835 H   0  0  0  0  0  0  0  0  0  0  0  0
  146.2573  134.4143  151.6029 H   0  0  0  0  0  0  0  0  0  0  0  0
  144.9045  130.3292  151.2188 H   0  0  0  0  0  0  0  0  0  0  0  0
  146.7062  129.6861  152.8334 H   0  0  0  0  0  0  0  0  0  0  0  0
  1  2  2  0  0  0  0
  2  3  1  0  0  0  0
  2 12  1  0  0  0  0
  3  4  1  0  0  0  0
  3 23  1  0  0  0  0
  4  5  1  0  0  0  0
  4 24  1  0  0  0  0
  4 25  1  0  0  0  0
  5  6  1  0  0  0  0
  5 26  1  0  0  0  0
  5 27  1  0  0  0  0
  6 11  1  0  0  0  0
  6  7  1  0  0  0  0
  7  8  1  0  0  0  0
  7 28  1  0  0  0  0
  7 29  1  0  0  0  0
  8  9  1  0  0  0  0
  8 30  1  0  0  0  0
  8 31  1  0  0  0  0
  9 10  1  0  0  0  0
 10 11  1  0  0  0  0
 10 32  1  0  0  0  0
 10 33  1  0  0  0  0
 11 34  1  0  0  0  0
 11 35  1  0  0  0  0
 12 13  1  0  0  0  0
 12 36  1  0  0  0  0
 13 22  1  0  0  0  0
 13 14  2  0  0  0  0
 14 15  1  0  0  0  0
 14 37  1  0  0  0  0
 15 16  1  0  0  0  0
 15 20  2  0  0  0  0
 16 17  1  0  0  0  0
 16 18  1  0  0  0  0
 16 19  1  0  0  0  0
 20 21  1  0  0  0  0
 20 38  1  0  0  0  0
 21 22  2  0  0  0  0
 21 39  1  0  0  0  0
M  END
> <s_m_source_file>
AV-unprocessed.smi

> <i_m_source_file_index>
2762

> <i_lp_mmshare_version>
43012

> <i_f3d_flags>
0

> <s_epik_input>
bjFbY0hdW2NIXWMoQyhGKShGKUYpW2NIXWMxW05IXUMoPU8pW05IXVtDSDJdW0NIMl1OMltDSDJdW0NIMl1PW0NIMl1bQ0gyXTI=

> <s_epik_cmdline>
J2VwaWtfcHl0aG9uJywgJy1waCcsICc3LjAnLCAnLXRuJywgJzgnLCAnLW1hJywgJzIwMCcsICctbWV0YWxfYmluZGluZycsICctaW1hZScsICc8aW5maWxlLm1hZT4nLCAnLW9tYWUnLCAnPG91dGZpbGUubWFlPic=

> <r_epik_Ionization_Penalty>
0.266026

> <r_epik_Ionization_Penalty_Charging>
0

> <r_epik_Ionization_Penalty_Neutral>
0.266026

> <r_epik_State_Penalty>
0.257924

> <r_epik_Charging_Adjusted_Penalty>
0.257924

> <i_epik_Tot_Q>
0

> <i_epik_Tot_abs_Q>
0

> <r_epik_Metal_State_Penalty>
0.257924

> <b_epik_Metal_Only>
0

> <s_lp_Force_Field>
OPLS_2005

> <r_lp_Energy>
26.9092

> <b_lp_Chiralities_Consistent>
1

> <s_lp_Variant>
AV-unprocessed.smi:2762-1

> <Gold.Version>
5.8.1

> <Gold.Id.Protein>
6NUR|6NUR_protein|mol2

> <Gold.PLP.Fitness>
42.9885

> <Gold.PLP.PLP>
-35.8858

> <Gold.PLP.part.hbond>
-3.0000

> <Gold.PLP.part.metal>
0.0000

> <Gold.PLP.part.buried>
1.2494

> <Gold.PLP.part.nonpolar>
-33.3516

> <Gold.PLP.part.repulsive>
0.1746

> <Gold.PLP.ligand.clash>
0.0462

> <Gold.PLP.ligand.torsion>
0.9306

> <Gold.PLP.Chemscore.Hbond>
2.9760

> <Gold.PLP.Chemscore.CHOScore>
0.0000

> <Gold.PLP.Chemscore.Metal>
0.0000

> <Gold.Chemscore.Hbonds>
donor molecule, donor type, donor heavy atom, donor atom, acceptor molecule, acceptor atom, score
      L1  H     3    23       P1  7948  0.92
      L1  H    12    36       P1  7948  1.00
      P1  H  7997  8010       L1     9  0.90

> <Gold.PLP.Chemscore.Internal.Correction>
0.0822

> <Gold.Rescore>
     Score         DG    S(hbond)    S(metal)    S(lipo)     H(rot)  DE(clash)    DE(int)     intcor
     14.39     -16.91       2.13        0.00      72.49       1.63       0.21       2.31       ----

> <Gold.Chemscore.Fitness>
14.3931

> <Gold.Chemscore.DG>
-16.9099

> <Gold.Chemscore.ZeroCoef>
-5.4800

> <Gold.Chemscore.Hbond>
2.1294

> <Gold.Chemscore.Metal>
0.0000

> <Gold.Chemscore.Lipo>
72.4911

> <Gold.Chemscore.Internal_Hbond>
0.0000

> <Gold.Chemscore.DEClash>
0.2088

> <Gold.Chemscore.DEInternal>
2.3079

> <Gold.Chemscore.Rot>
1.6265

> <Gold.Chemscore.Internal.Correction>
   9.000000E+99

> <Gold.Chemscore.Hbonds>
donor molecule, donor type, donor heavy atom, donor atom, acceptor molecule, acceptor atom, score
      L1  H     3    23       P1  7948  0.25
      L1  H    12    36       P1  7948  0.50
      P1  H  7997  8010       L1     9  0.17

> <Gold.Chemscore.Hbond.Weighted>
-7.1122

> <Gold.Chemscore.Metal.Weighted>
-0.0000

> <Gold.Chemscore.Lipo.Weighted>
-8.4815

> <Gold.Chemscore.Internal_Hbond.Weighted>
0.0000

> <Gold.Chemscore.DEClash.Weighted>
0.2088

> <Gold.Chemscore.DEInternal.Weighted>
2.3079

> <Gold.Chemscore.Rot.Weighted>
4.1638

> <Gold.Chemscore.Internal.Correction.Weighted>
   9.000000E+99

> <Gold.Protein.RotatedTorsions>
[ 6907 6896 6895 6894 ] final  -35.31 input  -60.11 | X-H torsion
[ 7974 7965 7964 7962 ] final   79.18 input  175.53 | X-H torsion
[ 8008 7997 7996 7995 ] final   71.99 input   59.86 | X-H torsion
[ 10167 10162 10161 10158 ] final -150.30 input  -65.29 | X-H torsion
[ 10718 10713 10712 10709 ] final  -45.91 input   66.30 | X-H torsion
[ 10763 10752 10751 10750 ] final   69.28 input  -60.55 | X-H torsion
[ 11005 11000 10999 10996 ] final -153.88 input  -57.11 | X-H torsion

> <Gold.Protein.ActiveResidues>
 VAL166  LYS551  ARG553  GLY616  TRP617  ASP618  TYR619  PRO620  LYS621  CYS622 
 ASP623  PHE694  ASN695  SER759  ASP760  ASP761  ALA762  ILE779  LEU786  VAL792 
 PHE793  MET794  SER795  GLU796  ALA797  LYS798  CYS799  TRP800  GLU811  SER814 

> <Gold.Protein.RotatedAtoms>
  151.0414  134.9610  159.8163 H   0  0  0  0  0  0  0  0  0  0  0  0  # atno 6907 bound_to 6896
  152.5365  134.2653  159.8961 H   0  0  0  0  0  0  0  0  0  0  0  0  # atno 6908 bound_to 6896
  151.2665  133.4233  159.2653 H   0  0  0  0  0  0  0  0  0  0  0  0  # atno 6909 bound_to 6896
  145.6676  139.2488  143.1887 H   0  0  0  0  0  0  0  0  0  0  0  0  # atno 7974 bound_to 7965
  155.7621  140.3486  155.5203 H   0  0  0  0  0  0  0  0  0  0  0  0  # atno 8008 bound_to 7997
  155.8903  140.1017  157.1444 H   0  0  0  0  0  0  0  0  0  0  0  0  # atno 8009 bound_to 7997
  154.4033  140.1305  156.4295 H   0  0  0  0  0  0  0  0  0  0  0  0  # atno 8010 bound_to 7997
  139.7366  143.8725  152.2550 H   0  0  0  0  0  0  0  0  0  0  0  0  # atno 10167 bound_to 10162
  156.2235  130.4168  149.8962 H   0  0  0  0  0  0  0  0  0  0  0  0  # atno 10718 bound_to 10713
  153.0279  135.5216  154.7264 H   0  0  0  0  0  0  0  0  0  0  0  0  # atno 10763 bound_to 10752
  154.6305  135.2899  155.0224 H   0  0  0  0  0  0  0  0  0  0  0  0  # atno 10764 bound_to 10752
  154.1178  135.6612  153.4949 H   0  0  0  0  0  0  0  0  0  0  0  0  # atno 10765 bound_to 10752
  140.7034  134.3912  157.5207 H   0  0  0  0  0  0  0  0  0  0  0  0  # atno 11005 bound_to 11000
  146.1073  140.7471  142.9520 LP  0  0  0  0  0  0  0  0  0  0  0  0  # atno 17320 bound_to 7965
  144.7068  140.3882  143.7112 LP  0  0  0  0  0  0  0  0  0  0  0  0  # atno 17321 bound_to 7965
  139.8664  144.7091  150.9039 LP  0  0  0  0  0  0  0  0  0  0  0  0  # atno 17342 bound_to 10162
  140.7780  143.3774  151.1538 LP  0  0  0  0  0  0  0  0  0  0  0  0  # atno 17343 bound_to 10162
  156.6601  130.8778  151.3546 LP  0  0  0  0  0  0  0  0  0  0  0  0  # atno 17370 bound_to 10713
  157.7099  130.9428  150.1055 LP  0  0  0  0  0  0  0  0  0  0  0  0  # atno 17371 bound_to 10713
  139.8891  134.8840  156.2441 LP  0  0  0  0  0  0  0  0  0  0  0  0  # atno 17394 bound_to 11000
  141.0145  133.7076  156.1166 LP  0  0  0  0  0  0  0  0  0  0  0  0  # atno 17395 bound_to 11000

$$$$
