AV-unprocessed.smi:2516|AV-procd|sdf|9899|dock10
  -GOLD-   2272013533D 1   1.00000     0.00000
 Structure written by MMmdl.
 47 48  0  0  0  0  0  0  0  0  1 V2000
  150.8282  141.6950  157.1830 C   0  0  0  0  0  0  0  0  0  0  0  0
  151.2730  140.9000  155.9501 C   0  0  0  0  0  0  0  0  0  0  0  0
  150.1360  140.4112  155.1898 N   0  0  0  0  0  0  0  0  0  0  0  0
  149.1835  141.2916  154.7992 N   0  0  0  0  0  0  0  0  0  0  0  0
  148.2887  140.5783  154.1315 C   0  0  0  0  0  0  0  0  0  0  0  0
  147.1258  141.2877  153.4948 C   0  0  0  0  0  0  0  0  0  0  0  0
  148.6556  139.1993  154.1287 C   0  0  0  0  0  0  0  0  0  0  0  0
  148.0054  138.1017  153.5107 N   0  0  0  0  0  0  0  0  0  0  0  0
  146.7119  137.7642  153.6268 C   0  0  0  0  0  0  0  0  0  0  0  0
  145.8829  138.3746  154.3008 O   0  0  0  0  0  0  0  0  0  0  0  0
  146.4335  136.6533  152.9295 N   0  0  0  0  0  0  0  0  0  0  0  0
  145.1299  135.9928  152.8651 C   0  0  1  0  0  0  0  0  0  0  0  0
  144.0432  137.0633  152.6521 C   0  0  0  0  0  0  0  0  0  0  0  0
  145.1392  134.8994  151.7644 C   0  0  0  0  0  0  0  0  0  0  0  0
  143.7871  134.1672  151.6408 C   0  0  0  0  0  0  0  0  0  0  0  0
  143.8545  133.0371  150.6005 C   0  0  0  0  0  0  0  0  0  0  0  0
  144.8915  132.1240  150.9363 O   0  0  0  0  0  0  0  0  0  0  0  0
  146.1774  132.7312  150.9319 C   0  0  0  0  0  0  0  0  0  0  0  0
  146.2378  133.8392  151.9955 C   0  0  0  0  0  0  0  0  0  0  0  0
  149.8520  139.1197  154.7809 C   0  0  0  0  0  0  0  0  0  0  0  0
  150.7474  137.9573  155.0671 C   0  0  0  0  0  0  0  0  0  0  0  0
  151.6905  142.0527  157.7458 H   0  0  0  0  0  0  0  0  0  0  0  0
  150.2253  141.0809  157.8524 H   0  0  0  0  0  0  0  0  0  0  0  0
  150.2332  142.5631  156.8981 H   0  0  0  0  0  0  0  0  0  0  0  0
  151.8889  141.5250  155.3019 H   0  0  0  0  0  0  0  0  0  0  0  0
  151.8935  140.0544  156.2471 H   0  0  0  0  0  0  0  0  0  0  0  0
  146.8315  140.8054  152.5629 H   0  0  0  0  0  0  0  0  0  0  0  0
  147.3709  142.3238  153.2592 H   0  0  0  0  0  0  0  0  0  0  0  0
  146.2611  141.2962  154.1579 H   0  0  0  0  0  0  0  0  0  0  0  0
  148.6029  137.4490  153.0256 H   0  0  0  0  0  0  0  0  0  0  0  0
  147.1832  136.2223  152.4089 H   0  0  0  0  0  0  0  0  0  0  0  0
  144.9372  135.5001  153.8201 H   0  0  0  0  0  0  0  0  0  0  0  0
  143.0409  136.6422  152.7214 H   0  0  0  0  0  0  0  0  0  0  0  0
  144.1411  137.5403  151.6762 H   0  0  0  0  0  0  0  0  0  0  0  0
  144.1073  137.8447  153.4102 H   0  0  0  0  0  0  0  0  0  0  0  0
  145.3438  135.3848  150.8086 H   0  0  0  0  0  0  0  0  0  0  0  0
  143.5016  133.7511  152.6079 H   0  0  0  0  0  0  0  0  0  0  0  0
  142.9966  134.8595  151.3527 H   0  0  0  0  0  0  0  0  0  0  0  0
  142.9077  132.4973  150.5734 H   0  0  0  0  0  0  0  0  0  0  0  0
  144.0189  133.4391  149.5996 H   0  0  0  0  0  0  0  0  0  0  0  0
  146.9265  131.9680  151.1437 H   0  0  0  0  0  0  0  0  0  0  0  0
  146.4011  133.1300  149.9412 H   0  0  0  0  0  0  0  0  0  0  0  0
  147.2287  134.2933  151.9756 H   0  0  0  0  0  0  0  0  0  0  0  0
  146.1199  133.3961  152.9854 H   0  0  0  0  0  0  0  0  0  0  0  0
  150.2751  137.0163  154.7857 H   0  0  0  0  0  0  0  0  0  0  0  0
  150.9884  137.9034  156.1288 H   0  0  0  0  0  0  0  0  0  0  0  0
  151.6808  138.0433  154.5108 H   0  0  0  0  0  0  0  0  0  0  0  0
  1  2  1  0  0  0  0
  1 22  1  0  0  0  0
  1 23  1  0  0  0  0
  1 24  1  0  0  0  0
  2  3  1  0  0  0  0
  2 25  1  0  0  0  0
  2 26  1  0  0  0  0
  3 20  1  0  0  0  0
  3  4  1  0  0  0  0
  4  5  2  0  0  0  0
  5  6  1  0  0  0  0
  5  7  1  0  0  0  0
  6 27  1  0  0  0  0
  6 28  1  0  0  0  0
  6 29  1  0  0  0  0
  7  8  1  0  0  0  0
  7 20  2  0  0  0  0
  8  9  1  0  0  0  0
  8 30  1  0  0  0  0
  9 10  2  0  0  0  0
  9 11  1  0  0  0  0
 11 12  1  0  0  0  0
 11 31  1  0  0  0  0
 12 13  1  0  0  0  0
 12 14  1  0  0  0  0
 12 32  1  0  0  0  0
 13 33  1  0  0  0  0
 13 34  1  0  0  0  0
 13 35  1  0  0  0  0
 14 19  1  0  0  0  0
 14 15  1  0  0  0  0
 14 36  1  0  0  0  0
 15 16  1  0  0  0  0
 15 37  1  0  0  0  0
 15 38  1  0  0  0  0
 16 17  1  0  0  0  0
 16 39  1  0  0  0  0
 16 40  1  0  0  0  0
 17 18  1  0  0  0  0
 18 19  1  0  0  0  0
 18 41  1  0  0  0  0
 18 42  1  0  0  0  0
 19 43  1  0  0  0  0
 19 44  1  0  0  0  0
 20 21  1  0  0  0  0
 21 45  1  0  0  0  0
 21 46  1  0  0  0  0
 21 47  1  0  0  0  0
M  END
> <s_m_source_file>
AV-unprocessed.smi

> <i_m_source_file_index>
2516

> <i_lp_mmshare_version>
43012

> <i_f3d_flags>
0

> <s_epik_input>
W0NIM11bQ0gyXW4xbmMoW0NIM10pYyhjMVtDSDNdKVtOSF1DKD1PKVtOSF1bQ0BIXShbQ0gzXSlbQ0hdMltDSDJdW0NIMl1PW0NIMl1bQ0gyXTI=

> <s_epik_cmdline>
J2VwaWtfcHl0aG9uJywgJy1waCcsICc3LjAnLCAnLXRuJywgJzgnLCAnLW1hJywgJzIwMCcsICctbWV0YWxfYmluZGluZycsICctaW1hZScsICc8aW5maWxlLm1hZT4nLCAnLW9tYWUnLCAnPG91dGZpbGUubWFlPic=

> <r_lp_tautomer_probability>
1

> <r_epik_Ionization_Penalty>
0.00383358

> <r_epik_Ionization_Penalty_Charging>
0

> <r_epik_Ionization_Penalty_Neutral>
0.00383358

> <r_epik_State_Penalty>
0.00270714

> <r_epik_Charging_Adjusted_Penalty>
0.00270714

> <i_epik_Tot_Q>
0

> <i_epik_Tot_abs_Q>
0

> <r_epik_Metal_State_Penalty>
-0

> <b_epik_Metal_Only>
0

> <s_lp_Force_Field>
OPLS_2005

> <r_lp_Energy>
15.2282

> <b_lp_Chiralities_Consistent>
1

> <s_lp_Variant>
AV-unprocessed.smi:2516-2

> <Gold.Version>
5.8.1

> <Gold.Id.Protein>
6NUR|6NUR_protein|mol2

> <Gold.PLP.Fitness>
41.4073

> <Gold.PLP.PLP>
-36.3315

> <Gold.PLP.part.hbond>
-2.0000

> <Gold.PLP.part.metal>
0.0000

> <Gold.PLP.part.buried>
-5.0065

> <Gold.PLP.part.nonpolar>
-29.1332

> <Gold.PLP.part.repulsive>
0.3955

> <Gold.PLP.ligand.clash>
0.0000

> <Gold.PLP.ligand.torsion>
0.6209

> <Gold.PLP.Chemscore.Hbond>
2.0000

> <Gold.PLP.Chemscore.CHOScore>
0.0000

> <Gold.PLP.Chemscore.Metal>
0.0000

> <Gold.Chemscore.Hbonds>
donor molecule, donor type, donor heavy atom, donor atom, acceptor molecule, acceptor atom, score
      L1  H     8    30       P1  7948  1.00
      L1  H    11    31       P1  7948  1.00

> <Gold.PLP.Chemscore.Internal.Correction>
0.3175

> <Gold.Rescore>
     Score         DG    S(hbond)    S(metal)    S(lipo)     H(rot)  DE(clash)    DE(int)     intcor
     16.50     -18.62       1.95        0.00      84.90       1.30       0.12       1.99       ----

> <Gold.Chemscore.Fitness>
16.4958

> <Gold.Chemscore.DG>
-18.6154

> <Gold.Chemscore.ZeroCoef>
-5.4800

> <Gold.Chemscore.Hbond>
1.9543

> <Gold.Chemscore.Metal>
0.0000

> <Gold.Chemscore.Lipo>
84.9011

> <Gold.Chemscore.Internal_Hbond>
0.0000

> <Gold.Chemscore.DEClash>
0.1247

> <Gold.Chemscore.DEInternal>
1.9948

> <Gold.Chemscore.Rot>
1.2990

> <Gold.Chemscore.Internal.Correction>
   9.000000E+99

> <Gold.Chemscore.Hbonds>
donor molecule, donor type, donor heavy atom, donor atom, acceptor molecule, acceptor atom, score
      L1  H     8    30       P1  7948  0.98
      L1  H    11    31       P1  7948  0.94

> <Gold.Chemscore.Hbond.Weighted>
-6.5274

> <Gold.Chemscore.Metal.Weighted>
-0.0000

> <Gold.Chemscore.Lipo.Weighted>
-9.9334

> <Gold.Chemscore.Internal_Hbond.Weighted>
0.0000

> <Gold.Chemscore.DEClash.Weighted>
0.1247

> <Gold.Chemscore.DEInternal.Weighted>
1.9948

> <Gold.Chemscore.Rot.Weighted>
3.3254

> <Gold.Chemscore.Internal.Correction.Weighted>
   9.000000E+99

> <Gold.Protein.RotatedTorsions>
[ 6907 6896 6895 6894 ] final -170.43 input  -60.11 | X-H torsion
[ 7974 7965 7964 7962 ] final -140.57 input  175.53 | X-H torsion
[ 8008 7997 7996 7995 ] final  101.97 input   59.86 | X-H torsion
[ 10167 10162 10161 10158 ] final    9.91 input  -65.29 | X-H torsion
[ 10718 10713 10712 10709 ] final -166.82 input   66.30 | X-H torsion
[ 10763 10752 10751 10750 ] final -165.33 input  -60.55 | X-H torsion
[ 11005 11000 10999 10996 ] final  163.68 input  -57.11 | X-H torsion

> <Gold.Protein.ActiveResidues>
 VAL166  LYS551  ARG553  GLY616  TRP617  ASP618  TYR619  PRO620  LYS621  CYS622 
 ASP623  PHE694  ASN695  SER759  ASP760  ASP761  ALA762  ILE779  LEU786  VAL792 
 PHE793  MET794  SER795  GLU796  ALA797  LYS798  CYS799  TRP800  GLU811  SER814 

> <Gold.Protein.RotatedAtoms>
  151.5075  133.3491  159.2879 H   0  0  0  0  0  0  0  0  0  0  0  0  # atno 6907 bound_to 6896
  150.8733  134.8113  159.7182 H   0  0  0  0  0  0  0  0  0  0  0  0  # atno 6908 bound_to 6896
  152.4713  134.4963  159.9762 H   0  0  0  0  0  0  0  0  0  0  0  0  # atno 6909 bound_to 6896
  144.8587  140.6185  143.5342 H   0  0  0  0  0  0  0  0  0  0  0  0  # atno 7974 bound_to 7965
  156.1349  140.3189  155.8406 H   0  0  0  0  0  0  0  0  0  0  0  0  # atno 8008 bound_to 7997
  155.4263  140.0515  157.3039 H   0  0  0  0  0  0  0  0  0  0  0  0  # atno 8009 bound_to 7997
  154.4929  140.2099  155.9522 H   0  0  0  0  0  0  0  0  0  0  0  0  # atno 8010 bound_to 7997
  140.6226  143.8170  150.7194 H   0  0  0  0  0  0  0  0  0  0  0  0  # atno 10167 bound_to 10162
  156.6734  130.9093  151.3047 H   0  0  0  0  0  0  0  0  0  0  0  0  # atno 10718 bound_to 10713
  154.6942  135.2976  154.9435 H   0  0  0  0  0  0  0  0  0  0  0  0  # atno 10763 bound_to 10752
  154.0388  135.6660  153.4792 H   0  0  0  0  0  0  0  0  0  0  0  0  # atno 10764 bound_to 10752
  153.0634  135.5102  154.8051 H   0  0  0  0  0  0  0  0  0  0  0  0  # atno 10765 bound_to 10752
  140.2382  134.8071  157.3385 H   0  0  0  0  0  0  0  0  0  0  0  0  # atno 11005 bound_to 11000
  145.4355  139.1543  143.3999 LP  0  0  0  0  0  0  0  0  0  0  0  0  # atno 17320 bound_to 7965
  146.2843  140.4473  142.8764 LP  0  0  0  0  0  0  0  0  0  0  0  0  # atno 17321 bound_to 7965
  140.1764  143.4151  152.1964 LP  0  0  0  0  0  0  0  0  0  0  0  0  # atno 17342 bound_to 10162
  139.5452  144.7292  151.4606 LP  0  0  0  0  0  0  0  0  0  0  0  0  # atno 17343 bound_to 10162
  157.7069  130.9395  150.0960 LP  0  0  0  0  0  0  0  0  0  0  0  0  # atno 17370 bound_to 10713
  156.1921  130.3655  149.8896 LP  0  0  0  0  0  0  0  0  0  0  0  0  # atno 17371 bound_to 10713
  140.1680  134.4645  155.7850 LP  0  0  0  0  0  0  0  0  0  0  0  0  # atno 17394 bound_to 11000
  141.2212  133.6929  156.7658 LP  0  0  0  0  0  0  0  0  0  0  0  0  # atno 17395 bound_to 11000

$$$$
