AV-unprocessed.smi:3336|AV-procd|sdf|12853|dock4
  -GOLD-   2272019243D 1   1.00000     0.00000
 Structure written by MMmdl.
 42 43  0  0  0  0  0  0  0  0  2 V2000
  149.6204  142.8063  158.5813 C   0  0  0  0  0  0  0  0  0  0  0  0
  150.7463  142.2562  157.6898 C   0  0  2  0  0  0  0  0  0  0  0  0
  151.9974  143.1648  157.6945 C   0  0  0  0  0  0  0  0  0  0  0  0
  152.6342  143.2452  158.9963 N   0  0  0  0  0  0  0  0  0  0  0  0
  152.7944  144.3484  159.8085 C   0  0  0  0  0  0  0  0  0  0  0  0
  153.4596  143.9349  160.9269 C   0  0  0  0  0  0  0  0  0  0  0  0
  153.6727  142.5464  160.7004 C   0  0  0  0  0  0  0  0  0  0  0  0
  153.1803  142.1372  159.5421 N   0  0  0  0  0  0  0  0  0  0  0  0
  150.2315  142.0750  156.3116 N   0  3  0  0  0  0  0  0  0  0  0  0
  149.1635  141.0591  156.1351 C   0  0  2  0  0  0  0  0  0  0  0  0
  149.7859  139.7750  155.5615 C   0  0  0  0  0  0  0  0  0  0  0  0
  148.0378  141.5668  155.2070 C   0  0  0  0  0  0  0  0  0  0  0  0
  148.2625  141.6058  153.9957 O   0  0  0  0  0  0  0  0  0  0  0  0
  146.8429  141.9477  155.7253 N   0  0  0  0  0  0  0  0  0  0  0  0
  146.5473  141.8943  157.1615 C   0  0  0  0  0  0  0  0  0  0  0  0
  146.2859  143.3243  157.6660 C   0  0  0  0  0  0  0  0  0  0  0  0
  145.2062  143.8965  156.9342 O   0  0  0  0  0  0  0  0  0  0  0  0
  145.4506  143.9465  155.5318 C   0  0  0  0  0  0  0  0  0  0  0  0
  145.7087  142.5265  154.9948 C   0  0  0  0  0  0  0  0  0  0  0  0
  149.9245  142.8579  159.6271 H   0  0  0  0  0  0  0  0  0  0  0  0
  148.7381  142.1667  158.5360 H   0  0  0  0  0  0  0  0  0  0  0  0
  149.3214  143.8084  158.2715 H   0  0  0  0  0  0  0  0  0  0  0  0
  151.0191  141.2781  158.0884 H   0  0  0  0  0  0  0  0  0  0  0  0
  152.7437  142.8111  156.9831 H   0  0  0  0  0  0  0  0  0  0  0  0
  151.7276  144.1747  157.3829 H   0  0  0  0  0  0  0  0  0  0  0  0
  152.4242  145.3240  159.5288 H   0  0  0  0  0  0  0  0  0  0  0  0
  153.7518  144.5339  161.7767 H   0  0  0  0  0  0  0  0  0  0  0  0
  154.1682  141.8291  161.3380 H   0  0  0  0  0  0  0  0  0  0  0  0
  149.8522  142.9576  155.9982 H   0  0  0  0  0  0  0  0  0  0  0  0
  148.7638  140.8447  157.1238 H   0  0  0  0  0  0  0  0  0  0  0  0
  149.0464  138.9836  155.4404 H   0  0  0  0  0  0  0  0  0  0  0  0
  150.5637  139.3906  156.2218 H   0  0  0  0  0  0  0  0  0  0  0  0
  150.2400  139.9530  154.5856 H   0  0  0  0  0  0  0  0  0  0  0  0
  145.6658  141.2722  157.3251 H   0  0  0  0  0  0  0  0  0  0  0  0
  147.3467  141.4409  157.7485 H   0  0  0  0  0  0  0  0  0  0  0  0
  146.0258  143.3099  158.7243 H   0  0  0  0  0  0  0  0  0  0  0  0
  147.1785  143.9437  157.5633 H   0  0  0  0  0  0  0  0  0  0  0  0
  144.5824  144.3839  155.0388 H   0  0  0  0  0  0  0  0  0  0  0  0
  146.2986  144.6014  155.3255 H   0  0  0  0  0  0  0  0  0  0  0  0
  145.8484  142.5811  153.9181 H   0  0  0  0  0  0  0  0  0  0  0  0
  144.8277  141.9020  155.1505 H   0  0  0  0  0  0  0  0  0  0  0  0
  151.0125  141.8351  155.7183 H   0  0  0  0  0  0  0  0  0  0  0  0
  1  2  1  0  0  0  0
  1 20  1  0  0  0  0
  1 21  1  0  0  0  0
  1 22  1  0  0  0  0
  2  3  1  0  0  0  0
  2  9  1  0  0  0  0
  2 23  1  0  0  0  0
  3  4  1  0  0  0  0
  3 24  1  0  0  0  0
  3 25  1  0  0  0  0
  4  8  1  0  0  0  0
  4  5  1  0  0  0  0
  5  6  2  0  0  0  0
  5 26  1  0  0  0  0
  6  7  1  0  0  0  0
  6 27  1  0  0  0  0
  7  8  2  0  0  0  0
  7 28  1  0  0  0  0
  9 10  1  0  0  0  0
  9 29  1  0  0  0  0
  9 42  1  0  0  0  0
 10 11  1  0  0  0  0
 10 12  1  0  0  0  0
 10 30  1  0  0  0  0
 11 31  1  0  0  0  0
 11 32  1  0  0  0  0
 11 33  1  0  0  0  0
 12 13  2  0  0  0  0
 12 14  1  0  0  0  0
 14 19  1  0  0  0  0
 14 15  1  0  0  0  0
 15 16  1  0  0  0  0
 15 34  1  0  0  0  0
 15 35  1  0  0  0  0
 16 17  1  0  0  0  0
 16 36  1  0  0  0  0
 16 37  1  0  0  0  0
 17 18  1  0  0  0  0
 18 19  1  0  0  0  0
 18 38  1  0  0  0  0
 18 39  1  0  0  0  0
 19 40  1  0  0  0  0
 19 41  1  0  0  0  0
M  CHG  1   9   1
M  END
> <s_m_source_file>
AV-unprocessed.smi

> <i_m_source_file_index>
3336

> <i_lp_mmshare_version>
43012

> <i_f3d_flags>
0

> <s_epik_input>
bjFbY0hdW2NIXVtjSF1uMVtDSDJdW0NAQEhdKFtDSDNdKVtOSF1bQ0BIXShbQ0gzXSlDKD1PKU4yW0NIMl1bQ0gyXU9bQ0gyXVtDSDJdMg==

> <s_epik_cmdline>
J2VwaWtfcHl0aG9uJywgJy1waCcsICc3LjAnLCAnLXRuJywgJzgnLCAnLW1hJywgJzIwMCcsICctbWV0YWxfYmluZGluZycsICctaW1hZScsICc8aW5maWxlLm1hZT4nLCAnLW9tYWUnLCAnPG91dGZpbGUubWFlPic=

> <r_lp_tautomer_probability>
1

> <r_epik_Ionization_Penalty>
0.200288

> <r_epik_Ionization_Penalty_Charging>
0.200285

> <r_epik_Ionization_Penalty_Neutral>
3.37705e-06

> <r_epik_State_Penalty>
0.190126

> <r_epik_Charging_Adjusted_Penalty>
0.39041

> <i_epik_Tot_Q>
1

> <i_epik_Tot_abs_Q>
1

> <r_epik_Metal_State_Penalty>
0.190133

> <b_epik_Metal_Only>
0

> <s_lp_Force_Field>
OPLS_2005

> <r_lp_Energy>
27.4401

> <b_lp_Chiralities_Consistent>
1

> <s_lp_Variant>
AV-unprocessed.smi:3336-1

> <Gold.Version>
5.8.1

> <Gold.Id.Protein>
6NUR|6NUR_protein|mol2

> <Gold.PLP.Fitness>
47.5626

> <Gold.PLP.PLP>
-41.2130

> <Gold.PLP.part.hbond>
-2.5027

> <Gold.PLP.part.metal>
0.0000

> <Gold.PLP.part.buried>
-5.4337

> <Gold.PLP.part.nonpolar>
-35.0910

> <Gold.PLP.part.repulsive>
2.1671

> <Gold.PLP.ligand.clash>
0.0000

> <Gold.PLP.ligand.torsion>
1.0088

> <Gold.PLP.Chemscore.Hbond>
2.7680

> <Gold.PLP.Chemscore.CHOScore>
0.0000

> <Gold.PLP.Chemscore.Metal>
0.0000

> <Gold.Chemscore.Hbonds>
donor molecule, donor type, donor heavy atom, donor atom, acceptor molecule, acceptor atom, score
      L1  H     9    29       P1  8028  1.95
      P1  H  8011  8017       L1    13  0.06

> <Gold.PLP.Chemscore.Internal.Correction>
0.0632

> <Gold.Rescore>
     Score         DG    S(hbond)    S(metal)    S(lipo)     H(rot)  DE(clash)    DE(int)     intcor
     15.07     -16.32       1.69        0.00      84.83       1.85       0.40       0.85       ----

> <Gold.Chemscore.Fitness>
15.0651

> <Gold.Chemscore.DG>
-16.3153

> <Gold.Chemscore.ZeroCoef>
-5.4800

> <Gold.Chemscore.Hbond>
1.6937

> <Gold.Chemscore.Metal>
0.0000

> <Gold.Chemscore.Lipo>
84.8281

> <Gold.Chemscore.Internal_Hbond>
0.0000

> <Gold.Chemscore.DEClash>
0.3984

> <Gold.Chemscore.DEInternal>
0.8517

> <Gold.Chemscore.Rot>
1.8541

> <Gold.Chemscore.Internal.Correction>
   9.000000E+99

> <Gold.Chemscore.Hbonds>
donor molecule, donor type, donor heavy atom, donor atom, acceptor molecule, acceptor atom, score
      L1  H     9    29       P1  8028  0.92
      P1  H  8011  8017       L1    13  0.07

> <Gold.Chemscore.Hbond.Weighted>
-5.6569

> <Gold.Chemscore.Metal.Weighted>
-0.0000

> <Gold.Chemscore.Lipo.Weighted>
-9.9249

> <Gold.Chemscore.Internal_Hbond.Weighted>
0.0000

> <Gold.Chemscore.DEClash.Weighted>
0.3984

> <Gold.Chemscore.DEInternal.Weighted>
0.8517

> <Gold.Chemscore.Rot.Weighted>
4.7465

> <Gold.Chemscore.Internal.Correction.Weighted>
   9.000000E+99

> <Gold.Protein.RotatedTorsions>
[ 6907 6896 6895 6894 ] final -146.30 input  -60.11 | X-H torsion
[ 7974 7965 7964 7962 ] final  -22.27 input  175.53 | X-H torsion
[ 8008 7997 7996 7995 ] final  119.21 input   59.86 | X-H torsion
[ 10167 10162 10161 10158 ] final   57.95 input  -65.29 | X-H torsion
[ 10718 10713 10712 10709 ] final -177.20 input   66.30 | X-H torsion
[ 10763 10752 10751 10750 ] final   86.33 input  -60.55 | X-H torsion
[ 11005 11000 10999 10996 ] final  137.93 input  -57.11 | X-H torsion

> <Gold.Protein.ActiveResidues>
 VAL166  LYS551  ARG553  GLY616  TRP617  ASP618  TYR619  PRO620  LYS621  CYS622 
 ASP623  PHE694  ASN695  SER759  ASP760  ASP761  ALA762  ILE779  LEU786  VAL792 
 PHE793  MET794  SER795  GLU796  ALA797  LYS798  CYS799  TRP800  GLU811  SER814 

> <Gold.Protein.RotatedAtoms>
  151.1397  133.4980  159.2596 H   0  0  0  0  0  0  0  0  0  0  0  0  # atno 6907 bound_to 6896
  151.1669  135.0299  159.8744 H   0  0  0  0  0  0  0  0  0  0  0  0  # atno 6908 bound_to 6896
  152.5462  134.1264  159.8474 H   0  0  0  0  0  0  0  0  0  0  0  0  # atno 6909 bound_to 6896
  146.1685  140.4455  142.8542 H   0  0  0  0  0  0  0  0  0  0  0  0  # atno 7974 bound_to 7965
  156.2585  140.2858  156.0956 H   0  0  0  0  0  0  0  0  0  0  0  0  # atno 8008 bound_to 7997
  155.1416  140.0395  157.2817 H   0  0  0  0  0  0  0  0  0  0  0  0  # atno 8009 bound_to 7997
  154.6526  140.2548  155.7204 H   0  0  0  0  0  0  0  0  0  0  0  0  # atno 8010 bound_to 7997
  140.1924  144.4071  150.6565 H   0  0  0  0  0  0  0  0  0  0  0  0  # atno 10167 bound_to 10162
  156.8259  130.9636  151.3109 H   0  0  0  0  0  0  0  0  0  0  0  0  # atno 10718 bound_to 10713
  153.1560  135.4584  154.9704 H   0  0  0  0  0  0  0  0  0  0  0  0  # atno 10763 bound_to 10752
  154.7861  135.3204  154.7885 H   0  0  0  0  0  0  0  0  0  0  0  0  # atno 10764 bound_to 10752
  153.8382  135.6932  153.4860 H   0  0  0  0  0  0  0  0  0  0  0  0  # atno 10765 bound_to 10752
  140.0148  134.9423  157.0354 H   0  0  0  0  0  0  0  0  0  0  0  0  # atno 11005 bound_to 11000
  144.8128  140.6416  143.6404 LP  0  0  0  0  0  0  0  0  0  0  0  0  # atno 17320 bound_to 7965
  145.4402  139.1536  143.3974 LP  0  0  0  0  0  0  0  0  0  0  0  0  # atno 17321 bound_to 7965
  140.6446  143.2211  151.6214 LP  0  0  0  0  0  0  0  0  0  0  0  0  # atno 17342 bound_to 10162
  139.5250  144.3087  152.1012 LP  0  0  0  0  0  0  0  0  0  0  0  0  # atno 17343 bound_to 10162
  157.6432  130.8823  149.9488 LP  0  0  0  0  0  0  0  0  0  0  0  0  # atno 17370 bound_to 10713
  156.0962  130.3659  150.0303 LP  0  0  0  0  0  0  0  0  0  0  0  0  # atno 17371 bound_to 10713
  140.4490  134.1602  155.7180 LP  0  0  0  0  0  0  0  0  0  0  0  0  # atno 17394 bound_to 11000
  141.1735  133.8560  157.1494 LP  0  0  0  0  0  0  0  0  0  0  0  0  # atno 17395 bound_to 11000

$$$$
