#       Name:                AV-unprocessed.smi:3189
#       Creating user name   scv26
#       Creation time:       Fri Mar 27 18:03:07 2020


#       File generated by GOLD software.
#

@<TRIPOS>MOLECULE
AV-unprocessed.smi:3189
    33    34     1
SMALL
NO_CHARGES


@<TRIPOS>ATOM
      1 ****        -4.5515   1.6853  -0.5276 C.3            1 S1                 0.0000
      2 ****        -3.7143   0.4416  -0.2941 C.ar           1 S1                 0.0000
      3 ****        -4.4073  -0.6983  -0.0804 N.ar           1 S1                 0.0000
      4 ****        -3.7113  -1.8350   0.1261 C.ar           1 S1                 0.0000
      5 ****        -2.3045  -1.8911   0.1363 C.ar           1 S1                 0.0000
      6 ****        -1.5756  -0.6959  -0.0713 C.ar           1 S1                 0.0000
      7 ****        -0.1550  -0.6418  -0.1026 N.am           1 S1                 0.0000
      8 ****         0.7370  -1.4741   0.4694 C.2            1 S1                 0.0000
      9 ****         0.4445  -2.4359   1.1770 O.2            1 S1                 0.0000
     10 ****         2.0194  -1.1246   0.2668 N.am           1 S1                 0.0000
     11 ****         3.1908  -1.7994   0.7407 C.3            1 S1                 0.0000
     12 ****         4.5133  -1.0847   0.5698 C.3            1 S1                 0.0000
     13 ****         4.2135  -2.3076  -0.2577 C.3            1 S1                 0.0000
     14 ****         3.9974  -2.1988  -1.7544 C.3            1 S1                 0.0000
     15 ****        -2.3007   0.4960  -0.3051 C.ar           1 S1                 0.0000
     16 ****        -1.4755   1.9921  -0.5910 Cl             1 S1                 0.0000
     17 ****        -4.3358   2.4352   0.2339 H              1 S1                 0.0000
     18 ****        -5.6190   1.4638  -0.4899 H              1 S1                 0.0000
     19 ****        -4.3306   2.1132  -1.5060 H              1 S1                 0.0000
     20 ****        -4.2941  -2.7308   0.2812 H              1 S1                 0.0000
     21 ****        -1.8178  -2.8419   0.2887 H              1 S1                 0.0000
     22 ****         0.2333   0.1699  -0.5605 H              1 S1                 0.0000
     23 ****         2.1783  -0.2376  -0.1891 H              1 S1                 0.0000
     24 ****         3.0949  -2.3613   1.6688 H              1 S1                 0.0000
     25 ****         4.5087  -0.1191   0.0668 H              1 S1                 0.0000
     26 ****         5.2465  -1.1873   1.3673 H              1 S1                 0.0000
     27 ****         4.7308  -3.2195   0.0340 H              1 S1                 0.0000
     28 ****         3.5593  -1.2363  -2.0205 H              1 S1                 0.0000
     29 ****         3.3299  -2.9912  -2.0934 H              1 S1                 0.0000
     30 ****         4.9490  -2.2986  -2.2766 H              1 S1                 0.0000
     31 ****        -5.4073  -0.6993  -0.0755 LP             1 S1                 0.0000
     32 ****        -0.5152  -2.6462   1.3632 LP             1 S1                 0.0000
     33 ****         1.1663  -3.0081   1.5663 LP             1 S1                 0.0000
@<TRIPOS>BOND
    1    1    2 1     
    2    1   17 1     
    3    1   18 1     
    4    1   19 1     
    5    2   15 ar    
    6    2    3 ar    
    7    3    4 ar    
    8    4    5 ar    
    9    4   20 1     
   10    5    6 ar    
   11    5   21 1     
   12    6    7 1     
   13    6   15 ar    
   14    7    8 am    
   15    7   22 1     
   16    8    9 2     
   17    8   10 am    
   18   10   11 1     
   19   10   23 1     
   20   11   13 1     
   21   11   12 1     
   22   11   24 1     
   23   12   13 1     
   24   12   25 1     
   25   12   26 1     
   26   13   14 1     
   27   13   27 1     
   28   14   28 1     
   29   14   29 1     
   30   14   30 1     
   31   15   16 1     
   32    3   31 1     
   33    9   32 1     
   34    9   33 1     
@<TRIPOS>SUBSTRUCTURE
      1 S1             1
@<TRIPOS>SET
LONE_PAIRS      STATIC     ATOMS    <user>   **** ""
3 31 32 33
DONOR_HYDROGENS      STATIC     ATOMS    <user>   **** ""
2 22 23
ATOM$BLUE        STATIC     ATOMS    COLORGROUP SYSTEM
3 31 32 33
ATOM$RED        STATIC     ATOMS    COLORGROUP SYSTEM
2 22 23
