AV-unprocessed.smi:2124|AV-procd|sdf|8651|dock8
  -GOLD-   2272011403D 1   1.00000     0.00000
 Structure written by MMmdl.
 47 49  0  0  0  0  0  0  0  0  1 V2000
  145.6423  138.0370  152.2897 C   0  0  0  0  0  0  0  0  0  0  0  0
  146.6275  138.9426  152.9982 C   0  0  0  0  0  0  0  0  0  0  0  0
  147.8225  138.5842  153.3355 N   0  0  0  0  0  0  0  0  0  0  0  0
  148.6475  139.5125  153.9859 C   0  0  0  0  0  0  0  0  0  0  0  0
  150.0381  139.0137  154.3400 C   0  0  0  0  0  0  0  0  0  0  0  0
  148.2165  140.7776  154.2678 C   0  0  0  0  0  0  0  0  0  0  0  0
  149.0784  141.8202  154.9806 C   0  0  0  0  0  0  0  0  0  0  0  0
  149.6044  141.4364  156.3671 C   0  0  0  0  0  0  0  0  0  0  0  0
  149.1796  140.4224  156.9195 O   0  0  0  0  0  0  0  0  0  0  0  0
  150.5124  142.2554  156.9213 N   0  0  0  0  0  0  0  0  0  0  0  0
  151.1346  142.0916  158.2323 C   0  0  1  0  0  0  0  0  0  0  0  0
  151.9877  140.8134  158.2204 C   0  0  0  0  0  0  0  0  0  0  0  0
  151.9684  143.3485  158.5755 C   0  0  2  0  0  0  0  0  0  0  0  0
  152.6499  143.3194  159.9623 C   0  0  0  0  0  0  0  0  0  0  0  0
  152.2564  144.6784  160.5717 C   0  0  2  0  0  0  0  0  0  0  0  0
  150.7743  144.6335  160.9857 C   0  0  0  0  0  0  0  0  0  0  0  0
  150.0447  144.6697  159.6309 C   0  0  0  0  0  0  0  0  0  0  0  0
  151.2066  144.6982  158.6161 C   0  0  1  0  0  0  0  0  0  0  0  0
  152.2131  145.5826  159.3452 C   0  0  0  0  0  0  0  0  0  0  0  0
  146.8483  141.1741  153.8827 C   0  0  0  0  0  0  0  0  0  0  0  0
  146.3583  142.2815  154.0976 O   0  0  0  0  0  0  0  0  0  0  0  0
  146.1262  140.2165  153.2592 N   0  0  0  0  0  0  0  0  0  0  0  0
  145.1837  140.4401  152.9746 H   0  0  0  0  0  0  0  0  0  0  0  0
  144.6902  138.5383  152.1104 H   0  0  0  0  0  0  0  0  0  0  0  0
  145.4513  137.1472  152.8900 H   0  0  0  0  0  0  0  0  0  0  0  0
  146.0477  137.7219  151.3280 H   0  0  0  0  0  0  0  0  0  0  0  0
  150.7938  139.5602  153.7755 H   0  0  0  0  0  0  0  0  0  0  0  0
  150.1497  137.9541  154.1070 H   0  0  0  0  0  0  0  0  0  0  0  0
  150.2401  139.1409  155.4028 H   0  0  0  0  0  0  0  0  0  0  0  0
  149.9416  142.0671  154.3634 H   0  0  0  0  0  0  0  0  0  0  0  0
  148.5220  142.7554  155.0603 H   0  0  0  0  0  0  0  0  0  0  0  0
  150.7944  143.0660  156.3892 H   0  0  0  0  0  0  0  0  0  0  0  0
  150.3677  141.9631  158.9972 H   0  0  0  0  0  0  0  0  0  0  0  0
  152.4484  140.6331  159.1916 H   0  0  0  0  0  0  0  0  0  0  0  0
  152.7860  140.8751  157.4801 H   0  0  0  0  0  0  0  0  0  0  0  0
  151.3797  139.9401  157.9816 H   0  0  0  0  0  0  0  0  0  0  0  0
  152.7492  143.4436  157.8182 H   0  0  0  0  0  0  0  0  0  0  0  0
  152.3175  142.4883  160.5856 H   0  0  0  0  0  0  0  0  0  0  0  0
  153.7320  143.2375  159.8534 H   0  0  0  0  0  0  0  0  0  0  0  0
  152.9223  145.0103  161.3685 H   0  0  0  0  0  0  0  0  0  0  0  0
  150.5324  143.7416  161.5649 H   0  0  0  0  0  0  0  0  0  0  0  0
  150.5104  145.5046  161.5864 H   0  0  0  0  0  0  0  0  0  0  0  0
  149.3680  143.8271  159.4932 H   0  0  0  0  0  0  0  0  0  0  0  0
  149.4474  145.5786  159.5491 H   0  0  0  0  0  0  0  0  0  0  0  0
  150.9151  145.0660  157.6319 H   0  0  0  0  0  0  0  0  0  0  0  0
  151.8356  146.5844  159.5585 H   0  0  0  0  0  0  0  0  0  0  0  0
  153.1733  145.6641  158.8324 H   0  0  0  0  0  0  0  0  0  0  0  0
  1  2  1  0  0  0  0
  1 24  1  0  0  0  0
  1 25  1  0  0  0  0
  1 26  1  0  0  0  0
  2 22  1  0  0  0  0
  2  3  2  0  0  0  0
  3  4  1  0  0  0  0
  4  5  1  0  0  0  0
  4  6  2  0  0  0  0
  5 27  1  0  0  0  0
  5 28  1  0  0  0  0
  5 29  1  0  0  0  0
  6  7  1  0  0  0  0
  6 20  1  0  0  0  0
  7  8  1  0  0  0  0
  7 30  1  0  0  0  0
  7 31  1  0  0  0  0
  8  9  2  0  0  0  0
  8 10  1  0  0  0  0
 10 11  1  0  0  0  0
 10 32  1  0  0  0  0
 11 12  1  0  0  0  0
 11 13  1  0  0  0  0
 11 33  1  0  0  0  0
 12 34  1  0  0  0  0
 12 35  1  0  0  0  0
 12 36  1  0  0  0  0
 13 18  1  0  0  0  0
 13 14  1  0  0  0  0
 13 37  1  0  0  0  0
 14 15  1  0  0  0  0
 14 38  1  0  0  0  0
 14 39  1  0  0  0  0
 15 19  1  0  0  0  0
 15 16  1  0  0  0  0
 15 40  1  0  0  0  0
 16 17  1  0  0  0  0
 16 41  1  0  0  0  0
 16 42  1  0  0  0  0
 17 18  1  0  0  0  0
 17 43  1  0  0  0  0
 17 44  1  0  0  0  0
 18 19  1  0  0  0  0
 18 45  1  0  0  0  0
 19 46  1  0  0  0  0
 19 47  1  0  0  0  0
 20 21  2  0  0  0  0
 20 22  1  0  0  0  0
 22 23  1  0  0  0  0
M  END
> <s_m_source_file>
AV-unprocessed.smi

> <i_m_source_file_index>
2124

> <i_lp_mmshare_version>
43012

> <i_f3d_flags>
0

> <s_epik_input>
W0NIM11jMW5jKFtDSDNdKWMoYyg9TylbbkhdMSlbQ0gyXUMoPU8pW05IXVtDQEhdKFtDSDNdKVtDQEhdKFtDSDJdW0NASF0yMylbQ0BIXShbQ0gyXTMpW0NIMl1bQ0gyXTI=

> <s_epik_cmdline>
J2VwaWtfcHl0aG9uJywgJy1waCcsICc3LjAnLCAnLXRuJywgJzgnLCAnLW1hJywgJzIwMCcsICctbWV0YWxfYmluZGluZycsICctaW1hZScsICc8aW5maWxlLm1hZT4nLCAnLW9tYWUnLCAnPG91dGZpbGUubWFlPic=

> <r_lp_tautomer_probability>
0.839158

> <r_epik_Ionization_Penalty>
0.000383628

> <r_epik_Ionization_Penalty_Charging>
0.00035045

> <r_epik_Ionization_Penalty_Neutral>
3.31781e-05

> <r_epik_State_Penalty>
0.09125

> <r_epik_Charging_Adjusted_Penalty>
0.0916005

> <i_epik_Tot_Q>
0

> <i_epik_Tot_abs_Q>
0

> <r_epik_Metal_State_Penalty>
0.255229

> <b_epik_Metal_Only>
0

> <s_lp_Force_Field>
OPLS_2005

> <r_lp_Energy>
53.2281

> <b_lp_Chiralities_Consistent>
1

> <s_lp_Variant>
AV-unprocessed.smi:2124-2

> <Gold.Version>
5.8.1

> <Gold.Id.Protein>
6NUR|6NUR_protein|mol2

> <Gold.PLP.Fitness>
46.0661

> <Gold.PLP.PLP>
-43.3027

> <Gold.PLP.part.hbond>
-1.1222

> <Gold.PLP.part.metal>
0.0000

> <Gold.PLP.part.buried>
-2.0540

> <Gold.PLP.part.nonpolar>
-43.0134

> <Gold.PLP.part.repulsive>
3.5748

> <Gold.PLP.ligand.clash>
0.0000

> <Gold.PLP.ligand.torsion>
0.1311

> <Gold.PLP.Chemscore.Hbond>
1.0000

> <Gold.PLP.Chemscore.CHOScore>
0.0000

> <Gold.PLP.Chemscore.Metal>
0.0000

> <Gold.Chemscore.Hbonds>
donor molecule, donor type, donor heavy atom, donor atom, acceptor molecule, acceptor atom, score
      L1  H    22    23       P1 10175  1.00

> <Gold.PLP.Chemscore.Internal.Correction>
0.0257

> <Gold.Rescore>
     Score         DG    S(hbond)    S(metal)    S(lipo)     H(rot)  DE(clash)    DE(int)     intcor
     18.32     -18.92       0.98        0.00     123.11       1.65       0.47       0.12       ----

> <Gold.Chemscore.Fitness>
18.3236

> <Gold.Chemscore.DG>
-18.9172

> <Gold.Chemscore.ZeroCoef>
-5.4800

> <Gold.Chemscore.Hbond>
0.9779

> <Gold.Chemscore.Metal>
0.0000

> <Gold.Chemscore.Lipo>
123.1075

> <Gold.Chemscore.Internal_Hbond>
0.0000

> <Gold.Chemscore.DEClash>
0.4741

> <Gold.Chemscore.DEInternal>
0.1195

> <Gold.Chemscore.Rot>
1.6534

> <Gold.Chemscore.Internal.Correction>
   9.000000E+99

> <Gold.Chemscore.Hbonds>
donor molecule, donor type, donor heavy atom, donor atom, acceptor molecule, acceptor atom, score
      L1  H    22    23       P1 10175  0.90

> <Gold.Chemscore.Hbond.Weighted>
-3.2662

> <Gold.Chemscore.Metal.Weighted>
-0.0000

> <Gold.Chemscore.Lipo.Weighted>
-14.4036

> <Gold.Chemscore.Internal_Hbond.Weighted>
0.0000

> <Gold.Chemscore.DEClash.Weighted>
0.4741

> <Gold.Chemscore.DEInternal.Weighted>
0.1195

> <Gold.Chemscore.Rot.Weighted>
4.2326

> <Gold.Chemscore.Internal.Correction.Weighted>
   9.000000E+99

> <Gold.Protein.RotatedTorsions>
[ 6907 6896 6895 6894 ] final   20.15 input  -60.11 | X-H torsion
[ 7974 7965 7964 7962 ] final   -6.90 input  175.53 | X-H torsion
[ 8008 7997 7996 7995 ] final -145.19 input   59.86 | X-H torsion
[ 10167 10162 10161 10158 ] final -118.88 input  -65.29 | X-H torsion
[ 10718 10713 10712 10709 ] final  -51.00 input   66.30 | X-H torsion
[ 10763 10752 10751 10750 ] final    8.79 input  -60.55 | X-H torsion
[ 11005 11000 10999 10996 ] final  161.46 input  -57.11 | X-H torsion

> <Gold.Protein.ActiveResidues>
 VAL166  LYS551  ARG553  GLY616  TRP617  ASP618  TYR619  PRO620  LYS621  CYS622 
 ASP623  PHE694  ASN695  SER759  ASP760  ASP761  ALA762  ILE779  LEU786  VAL792 
 PHE793  MET794  SER795  GLU796  ALA797  LYS798  CYS799  TRP800  GLU811  SER814 

> <Gold.Protein.RotatedAtoms>
  151.8919  135.0413  160.0498 H   0  0  0  0  0  0  0  0  0  0  0  0  # atno 6907 bound_to 6896
  152.2429  133.5146  159.5289 H   0  0  0  0  0  0  0  0  0  0  0  0  # atno 6908 bound_to 6896
  150.7059  134.0981  159.3998 H   0  0  0  0  0  0  0  0  0  0  0  0  # atno 6909 bound_to 6896
  146.2320  140.2240  142.8338 H   0  0  0  0  0  0  0  0  0  0  0  0  # atno 7974 bound_to 7965
  155.5392  140.0606  157.2873 H   0  0  0  0  0  0  0  0  0  0  0  0  # atno 8008 bound_to 7997
  154.4458  140.1922  156.0617 H   0  0  0  0  0  0  0  0  0  0  0  0  # atno 8009 bound_to 7997
  156.0597  140.3274  155.7451 H   0  0  0  0  0  0  0  0  0  0  0  0  # atno 8010 bound_to 7997
  140.0527  143.5044  152.2073 H   0  0  0  0  0  0  0  0  0  0  0  0  # atno 10167 bound_to 10162
  156.1749  130.4150  149.9591 H   0  0  0  0  0  0  0  0  0  0  0  0  # atno 10718 bound_to 10713
  153.2211  135.6881  153.7999 H   0  0  0  0  0  0  0  0  0  0  0  0  # atno 10763 bound_to 10752
  153.7197  135.3269  155.3265 H   0  0  0  0  0  0  0  0  0  0  0  0  # atno 10764 bound_to 10752
  154.8270  135.4610  154.1059 H   0  0  0  0  0  0  0  0  0  0  0  0  # atno 10765 bound_to 10752
  140.2161  134.8231  157.3171 H   0  0  0  0  0  0  0  0  0  0  0  0  # atno 11005 bound_to 11000
  144.9610  140.8275  143.5514 LP  0  0  0  0  0  0  0  0  0  0  0  0  # atno 17320 bound_to 7965
  145.2211  139.2159  143.5093 LP  0  0  0  0  0  0  0  0  0  0  0  0  # atno 17321 bound_to 7965
  139.5943  144.7561  151.3325 LP  0  0  0  0  0  0  0  0  0  0  0  0  # atno 17342 bound_to 10162
  140.7209  143.7138  150.7748 LP  0  0  0  0  0  0  0  0  0  0  0  0  # atno 17343 bound_to 10162
  156.7380  130.9068  151.3630 LP  0  0  0  0  0  0  0  0  0  0  0  0  # atno 17370 bound_to 10713
  157.6829  130.9157  150.0312 LP  0  0  0  0  0  0  0  0  0  0  0  0  # atno 17371 bound_to 10713
  140.1899  134.4384  155.7722 LP  0  0  0  0  0  0  0  0  0  0  0  0  # atno 17394 bound_to 11000
  141.2225  133.7022  156.8010 LP  0  0  0  0  0  0  0  0  0  0  0  0  # atno 17395 bound_to 11000

$$$$
