AV-unprocessed.smi:2021|AV-procd|sdf|8183|dock1
  -GOLD-   2272010433D 1   1.00000     0.00000
 Structure written by MMmdl.
 41 42  0  0  0  0  0  0  0  0  3 V2000
  152.1984  144.3831  157.9875 C   0  0  0  0  0  0  0  0  0  0  0  0
  151.5642  143.5635  159.1239 C   0  0  0  0  0  0  0  0  0  0  0  0
  152.4291  143.6455  160.3904 C   0  0  0  0  0  0  0  0  0  0  0  0
  151.3403  142.0917  158.7153 C   0  0  0  0  0  0  0  0  0  0  0  0
  150.2493  141.9270  157.7166 N   0  3  1  0  0  0  0  0  0  0  0  0
  150.6998  142.0843  156.3125 C   0  0  0  0  0  0  0  0  0  0  0  0
  151.4147  140.8163  155.8141 C   0  0  0  0  0  0  0  0  0  0  0  0
  150.5422  139.7027  155.9524 O   0  0  0  0  0  0  0  0  0  0  0  0
  150.1872  139.4505  157.3090 C   0  0  2  0  0  0  0  0  0  0  0  0
  149.3098  138.1925  157.3526 C   0  0  0  0  0  0  0  0  0  0  0  0
  148.6228  138.0923  158.6328 N   0  0  0  0  0  0  0  0  0  0  0  0
  148.5140  136.9764  159.3638 C   0  0  0  0  0  0  0  0  0  0  0  0
  149.0168  135.9259  158.9588 O   0  0  0  0  0  0  0  0  0  0  0  0
  147.8291  137.1483  160.5166 N   0  5  0  0  0  0  0  0  0  0  0  0
  147.2101  136.1045  161.0928 C   0  0  0  0  0  0  0  0  0  0  0  0
  146.6956  135.0912  160.3776 N   0  0  0  0  0  0  0  0  0  0  0  0
  146.1047  134.1120  161.1649 N   0  0  0  0  0  0  0  0  0  0  0  0
  146.1954  134.4102  162.4606 C   0  0  0  0  0  0  0  0  0  0  0  0
  147.0149  135.9111  162.8373 S   0  0  0  0  0  0  0  0  0  0  0  0
  149.4463  140.6858  157.8683 C   0  0  0  0  0  0  0  0  0  0  0  0
  153.1691  143.9778  157.7000 H   0  0  0  0  0  0  0  0  0  0  0  0
  152.3489  145.4201  158.2893 H   0  0  0  0  0  0  0  0  0  0  0  0
  151.5657  144.3938  157.0998 H   0  0  0  0  0  0  0  0  0  0  0  0
  150.6052  144.0184  159.3693 H   0  0  0  0  0  0  0  0  0  0  0  0
  153.4152  143.2088  160.2273 H   0  0  0  0  0  0  0  0  0  0  0  0
  151.9629  143.1138  161.2204 H   0  0  0  0  0  0  0  0  0  0  0  0
  152.5716  144.6802  160.7037 H   0  0  0  0  0  0  0  0  0  0  0  0
  152.2743  141.7120  158.2984 H   0  0  0  0  0  0  0  0  0  0  0  0
  151.1379  141.4794  159.5940 H   0  0  0  0  0  0  0  0  0  0  0  0
  149.8234  142.2702  155.6901 H   0  0  0  0  0  0  0  0  0  0  0  0
  151.3402  142.9605  156.2065 H   0  0  0  0  0  0  0  0  0  0  0  0
  151.6799  140.9253  154.7624 H   0  0  0  0  0  0  0  0  0  0  0  0
  152.3436  140.6422  156.3591 H   0  0  0  0  0  0  0  0  0  0  0  0
  151.0906  139.2602  157.8905 H   0  0  0  0  0  0  0  0  0  0  0  0
  148.5657  138.2301  156.5554 H   0  0  0  0  0  0  0  0  0  0  0  0
  149.9154  137.2998  157.1883 H   0  0  0  0  0  0  0  0  0  0  0  0
  148.2029  138.9336  158.9998 H   0  0  0  0  0  0  0  0  0  0  0  0
  145.7806  133.7404  163.1990 H   0  0  0  0  0  0  0  0  0  0  0  0
  149.1653  140.5258  158.9084 H   0  0  0  0  0  0  0  0  0  0  0  0
  148.5124  140.8230  157.3216 H   0  0  0  0  0  0  0  0  0  0  0  0
  149.6213  142.6989  157.8896 H   0  0  0  0  0  0  0  0  0  0  0  0
  1  2  1  0  0  0  0
  1 21  1  0  0  0  0
  1 22  1  0  0  0  0
  1 23  1  0  0  0  0
  2  3  1  0  0  0  0
  2  4  1  0  0  0  0
  2 24  1  0  0  0  0
  3 25  1  0  0  0  0
  3 26  1  0  0  0  0
  3 27  1  0  0  0  0
  4  5  1  0  0  0  0
  4 28  1  0  0  0  0
  4 29  1  0  0  0  0
  5 20  1  0  0  0  0
  5  6  1  0  0  0  0
  5 41  1  0  0  0  0
  6  7  1  0  0  0  0
  6 30  1  0  0  0  0
  6 31  1  0  0  0  0
  7  8  1  0  0  0  0
  7 32  1  0  0  0  0
  7 33  1  0  0  0  0
  8  9  1  0  0  0  0
  9 10  1  0  0  0  0
  9 20  1  0  0  0  0
  9 34  1  0  0  0  0
 10 11  1  0  0  0  0
 10 35  1  0  0  0  0
 10 36  1  0  0  0  0
 11 12  1  0  0  0  0
 11 37  1  0  0  0  0
 12 13  2  0  0  0  0
 12 14  1  0  0  0  0
 14 15  1  0  0  0  0
 15 19  1  0  0  0  0
 15 16  2  0  0  0  0
 16 17  1  0  0  0  0
 17 18  2  0  0  0  0
 18 19  1  0  0  0  0
 18 38  1  0  0  0  0
 20 39  1  0  0  0  0
 20 40  1  0  0  0  0
M  CHG  1   5   1
M  CHG  1  14  -1
M  END
> <s_m_source_file>
AV-unprocessed.smi

> <i_m_source_file_index>
2021

> <i_lp_mmshare_version>
43012

> <i_f3d_flags>
0

> <s_epik_input>
W0NIM11bQ0hdKFtDSDNdKVtDSDJdTjFbQ0gyXVtDSDJdT1tDQEhdKFtDSDJdMSlbQ0gyXVtOSF1DKD1PKVtOSF1jMm5uW2NIXXMy

> <s_epik_cmdline>
J2VwaWtfcHl0aG9uJywgJy1waCcsICc3LjAnLCAnLXRuJywgJzgnLCAnLW1hJywgJzIwMCcsICctbWV0YWxfYmluZGluZycsICctaW1hZScsICc8aW5maWxlLm1hZT4nLCAnLW9tYWUnLCAnPG91dGZpbGUubWFlPic=

> <r_lp_tautomer_probability>
1

> <r_epik_Ionization_Penalty>
3.15762

> <r_epik_Ionization_Penalty_Charging>
3.12229

> <r_epik_Ionization_Penalty_Neutral>
0.0353298

> <r_epik_State_Penalty>
3.11266

> <r_epik_Charging_Adjusted_Penalty>
6.23495

> <i_epik_Tot_Q>
0

> <i_epik_Tot_abs_Q>
2

> <r_epik_Metal_State_Penalty>
0.541462

> <b_epik_Metal_Only>
1

> <s_lp_Force_Field>
OPLS_2005

> <r_lp_Energy>
12.7344

> <b_lp_Chiralities_Consistent>
1

> <s_lp_Variant>
AV-unprocessed.smi:2021-9

> <Gold.Version>
5.8.1

> <Gold.Id.Protein>
6NUR|6NUR_protein|mol2

> <Gold.PLP.Fitness>
47.7289

> <Gold.PLP.PLP>
-37.6082

> <Gold.PLP.part.hbond>
-3.0000

> <Gold.PLP.part.metal>
0.0000

> <Gold.PLP.part.buried>
-4.8450

> <Gold.PLP.part.nonpolar>
-30.0903

> <Gold.PLP.part.repulsive>
0.2636

> <Gold.PLP.ligand.clash>
0.0000

> <Gold.PLP.ligand.torsion>
1.0307

> <Gold.PLP.Chemscore.Hbond>
3.9178

> <Gold.PLP.Chemscore.CHOScore>
0.0000

> <Gold.PLP.Chemscore.Metal>
0.0000

> <Gold.Chemscore.Hbonds>
donor molecule, donor type, donor heavy atom, donor atom, acceptor molecule, acceptor atom, score
      P1  H  6896  6909       L1    13  0.55
      P1  H  6931  6943       L1    14  1.15
      P1  H  6934  6947       L1    14  1.73

> <Gold.PLP.Chemscore.Internal.Correction>
0.4288

> <Gold.Rescore>
     Score         DG    S(hbond)    S(metal)    S(lipo)     H(rot)  DE(clash)    DE(int)     intcor
     15.96     -18.46       2.12        0.00      90.80       1.85       0.18       2.32       ----

> <Gold.Chemscore.Fitness>
15.9650

> <Gold.Chemscore.DG>
-18.4650

> <Gold.Chemscore.ZeroCoef>
-5.4800

> <Gold.Chemscore.Hbond>
2.1222

> <Gold.Chemscore.Metal>
0.0000

> <Gold.Chemscore.Lipo>
90.8032

> <Gold.Chemscore.Internal_Hbond>
0.0000

> <Gold.Chemscore.DEClash>
0.1835

> <Gold.Chemscore.DEInternal>
2.3165

> <Gold.Chemscore.Rot>
1.8466

> <Gold.Chemscore.Internal.Correction>
   9.000000E+99

> <Gold.Chemscore.Hbonds>
donor molecule, donor type, donor heavy atom, donor atom, acceptor molecule, acceptor atom, score
      P1  H  6896  6909       L1    13  0.56
      P1  H  6931  6943       L1    14  0.34
      P1  H  6934  6947       L1    14  0.73

> <Gold.Chemscore.Hbond.Weighted>
-7.0882

> <Gold.Chemscore.Metal.Weighted>
-0.0000

> <Gold.Chemscore.Lipo.Weighted>
-10.6240

> <Gold.Chemscore.Internal_Hbond.Weighted>
0.0000

> <Gold.Chemscore.DEClash.Weighted>
0.1835

> <Gold.Chemscore.DEInternal.Weighted>
2.3165

> <Gold.Chemscore.Rot.Weighted>
4.7272

> <Gold.Chemscore.Internal.Correction.Weighted>
   9.000000E+99

> <Gold.Protein.RotatedTorsions>
[ 6907 6896 6895 6894 ] final   64.89 input  -60.11 | X-H torsion
[ 7974 7965 7964 7962 ] final  -85.92 input  175.53 | X-H torsion
[ 8008 7997 7996 7995 ] final -139.05 input   59.86 | X-H torsion
[ 10167 10162 10161 10158 ] final    2.86 input  -65.29 | X-H torsion
[ 10718 10713 10712 10709 ] final   73.50 input   66.30 | X-H torsion
[ 10763 10752 10751 10750 ] final  116.27 input  -60.55 | X-H torsion
[ 11005 11000 10999 10996 ] final -141.85 input  -57.11 | X-H torsion

> <Gold.Protein.ActiveResidues>
 VAL166  LYS551  ARG553  GLY616  TRP617  ASP618  TYR619  PRO620  LYS621  CYS622 
 ASP623  PHE694  ASN695  SER759  ASP760  ASP761  ALA762  ILE779  LEU786  VAL792 
 PHE793  MET794  SER795  GLU796  ALA797  LYS798  CYS799  TRP800  GLU811  SER814 

> <Gold.Protein.RotatedAtoms>
  152.4366  134.5675  159.9911 H   0  0  0  0  0  0  0  0  0  0  0  0  # atno 6907 bound_to 6896
  151.5783  133.3375  159.3011 H   0  0  0  0  0  0  0  0  0  0  0  0  # atno 6908 bound_to 6896
  150.8265  134.7533  159.6881 H   0  0  0  0  0  0  0  0  0  0  0  0  # atno 6909 bound_to 6896
  145.4868  140.9554  143.1834 H   0  0  0  0  0  0  0  0  0  0  0  0  # atno 7974 bound_to 7965
  155.4384  140.0530  157.3012 H   0  0  0  0  0  0  0  0  0  0  0  0  # atno 8008 bound_to 7997
  154.4829  140.2088  155.9680 H   0  0  0  0  0  0  0  0  0  0  0  0  # atno 8009 bound_to 7997
  156.1232  140.3185  155.8243 H   0  0  0  0  0  0  0  0  0  0  0  0  # atno 8010 bound_to 7997
  140.6614  143.7293  150.7746 H   0  0  0  0  0  0  0  0  0  0  0  0  # atno 10167 bound_to 10162
  157.6550  130.9631  150.1077 H   0  0  0  0  0  0  0  0  0  0  0  0  # atno 10718 bound_to 10713
  153.5347  135.3571  155.2692 H   0  0  0  0  0  0  0  0  0  0  0  0  # atno 10763 bound_to 10752
  154.8723  135.4077  154.3111 H   0  0  0  0  0  0  0  0  0  0  0  0  # atno 10764 bound_to 10752
  153.3807  135.7068  153.6636 H   0  0  0  0  0  0  0  0  0  0  0  0  # atno 10765 bound_to 10752
  140.8284  134.2547  157.4868 H   0  0  0  0  0  0  0  0  0  0  0  0  # atno 11005 bound_to 11000
  144.7856  139.6433  143.7135 LP  0  0  0  0  0  0  0  0  0  0  0  0  # atno 17320 bound_to 7965
  146.2308  139.5809  142.9556 LP  0  0  0  0  0  0  0  0  0  0  0  0  # atno 17321 bound_to 7965
  140.0962  143.4831  152.2451 LP  0  0  0  0  0  0  0  0  0  0  0  0  # atno 17342 bound_to 10162
  139.5850  144.7527  151.3544 LP  0  0  0  0  0  0  0  0  0  0  0  0  # atno 17343 bound_to 10162
  156.1982  130.3658  149.8821 LP  0  0  0  0  0  0  0  0  0  0  0  0  # atno 17370 bound_to 10713
  156.6732  130.8828  151.3565 LP  0  0  0  0  0  0  0  0  0  0  0  0  # atno 17371 bound_to 10713
  139.8706  134.9573  156.4263 LP  0  0  0  0  0  0  0  0  0  0  0  0  # atno 17394 bound_to 11000
  140.9025  133.7769  155.9696 LP  0  0  0  0  0  0  0  0  0  0  0  0  # atno 17395 bound_to 11000

$$$$
