AV-unprocessed.smi:13|AV-procd|sdf|74|dock3
  -GOLD-   2262015193D 1   1.00000     0.00000
 Structure written by MMmdl.
 54 58  0  0  0  0  0  0  0  0  1 V2000
  143.3784  133.4241  151.7280 C   0  0  0  0  0  0  0  0  0  0  0  0
  144.2750  134.6671  151.6426 C   0  0  0  0  0  0  0  0  0  0  0  0
  144.5569  134.9022  150.1587 C   0  0  0  0  0  0  0  0  0  0  0  0
  143.7627  135.8859  152.4254 C   0  0  0  0  0  0  0  0  0  0  0  0
  144.6542  135.4841  153.4989 N   0  0  0  0  0  0  0  0  0  0  0  0
  145.2215  136.5788  154.2142 C   0  0  0  0  0  0  0  0  0  0  0  0
  145.0581  136.6947  155.5595 N   0  0  0  0  0  0  0  0  0  0  0  0
  145.5780  137.7246  156.2327 C   0  0  0  0  0  0  0  0  0  0  0  0
  146.2924  138.7488  155.7661 N   0  0  0  0  0  0  0  0  0  0  0  0
  146.4620  138.6513  154.4175 C   0  0  0  0  0  0  0  0  0  0  0  0
  145.9612  137.6160  153.5778 C   0  0  0  0  0  0  0  0  0  0  0  0
  146.3214  137.8642  152.2586 N   0  0  0  0  0  0  0  0  0  0  0  0
  146.9990  138.9777  152.3158 C   0  0  0  0  0  0  0  0  0  0  0  0
  147.1437  139.5135  153.5757 N   0  0  0  0  0  0  0  0  0  0  0  0
  147.8502  140.7350  153.9315 C   0  0  0  0  0  0  0  0  0  0  0  0
  149.1411  140.4909  154.7512 C   0  0  2  0  0  0  0  0  0  0  0  0
  150.0951  139.8459  153.9273 O   0  0  0  0  0  0  0  0  0  0  0  0
  148.8908  139.6302  155.9917 C   0  0  0  0  0  0  0  0  0  0  0  0
  149.0443  140.6105  157.1483 C   0  0  0  0  0  0  0  0  0  0  0  0
  150.0589  141.4823  156.6833 O   0  0  0  0  0  0  0  0  0  0  0  0
  149.7615  141.7799  155.3269 C   0  0  0  0  0  0  0  0  0  0  0  0
  145.5059  134.7388  152.5780 C   0  0  1  0  0  0  0  0  0  0  0  0
  146.1085  133.4812  153.2152 C   0  0  1  0  0  0  0  0  0  0  0  0
  146.8846  132.6066  152.2290 C   0  0  0  0  0  0  0  0  0  0  0  0
  147.8516  131.8888  153.1416 C   0  0  0  0  0  0  0  0  0  0  0  0
  148.2126  132.9898  154.1315 C   0  0  0  0  0  0  0  0  0  0  0  0
  147.0637  133.8273  154.2163 O   0  0  0  0  0  0  0  0  0  0  0  0
  142.4198  133.5931  151.2364 H   0  0  0  0  0  0  0  0  0  0  0  0
  143.1609  133.1524  152.7613 H   0  0  0  0  0  0  0  0  0  0  0  0
  143.8370  132.5572  151.2532 H   0  0  0  0  0  0  0  0  0  0  0  0
  145.1670  135.7926  150.0047 H   0  0  0  0  0  0  0  0  0  0  0  0
  143.6356  135.0418  149.5925 H   0  0  0  0  0  0  0  0  0  0  0  0
  145.0946  134.0630  149.7163 H   0  0  0  0  0  0  0  0  0  0  0  0
  144.0404  136.8411  151.9755 H   0  0  0  0  0  0  0  0  0  0  0  0
  142.7063  135.8461  152.6927 H   0  0  0  0  0  0  0  0  0  0  0  0
  145.3943  137.7279  157.2970 H   0  0  0  0  0  0  0  0  0  0  0  0
  147.4165  139.4389  151.4328 H   0  0  0  0  0  0  0  0  0  0  0  0
  148.0861  141.2713  153.0116 H   0  0  0  0  0  0  0  0  0  0  0  0
  147.1651  141.3753  154.4889 H   0  0  0  0  0  0  0  0  0  0  0  0
  149.7262  139.7459  153.0631 H   0  0  0  0  0  0  0  0  0  0  0  0
  147.9168  139.1393  155.9919 H   0  0  0  0  0  0  0  0  0  0  0  0
  149.6476  138.8497  156.0867 H   0  0  0  0  0  0  0  0  0  0  0  0
  148.1227  141.1711  157.3139 H   0  0  0  0  0  0  0  0  0  0  0  0
  149.3262  140.1221  158.0811 H   0  0  0  0  0  0  0  0  0  0  0  0
  150.6466  142.1192  154.7871 H   0  0  0  0  0  0  0  0  0  0  0  0
  149.0412  142.5984  155.3241 H   0  0  0  0  0  0  0  0  0  0  0  0
  146.2639  135.3854  152.1313 H   0  0  0  0  0  0  0  0  0  0  0  0
  145.3390  132.8737  153.6943 H   0  0  0  0  0  0  0  0  0  0  0  0
  146.2494  131.9224  151.6671 H   0  0  0  0  0  0  0  0  0  0  0  0
  147.4332  133.2257  151.5175 H   0  0  0  0  0  0  0  0  0  0  0  0
  147.3454  131.0703  153.6552 H   0  0  0  0  0  0  0  0  0  0  0  0
  148.7182  131.4837  152.6186 H   0  0  0  0  0  0  0  0  0  0  0  0
  148.4917  132.5963  155.1091 H   0  0  0  0  0  0  0  0  0  0  0  0
  149.0454  133.5846  153.7542 H   0  0  0  0  0  0  0  0  0  0  0  0
  1  2  1  0  0  0  0
  1 28  1  0  0  0  0
  1 29  1  0  0  0  0
  1 30  1  0  0  0  0
  2 22  1  0  0  0  0
  2  3  1  0  0  0  0
  2  4  1  0  0  0  0
  3 31  1  0  0  0  0
  3 32  1  0  0  0  0
  3 33  1  0  0  0  0
  4  5  1  0  0  0  0
  4 34  1  0  0  0  0
  4 35  1  0  0  0  0
  5  6  1  0  0  0  0
  5 22  1  0  0  0  0
  6 11  1  0  0  0  0
  6  7  2  0  0  0  0
  7  8  1  0  0  0  0
  8  9  2  0  0  0  0
  8 36  1  0  0  0  0
  9 10  1  0  0  0  0
 10 14  1  0  0  0  0
 10 11  2  0  0  0  0
 11 12  1  0  0  0  0
 12 13  2  0  0  0  0
 13 14  1  0  0  0  0
 13 37  1  0  0  0  0
 14 15  1  0  0  0  0
 15 16  1  0  0  0  0
 15 38  1  0  0  0  0
 15 39  1  0  0  0  0
 16 21  1  0  0  0  0
 16 17  1  0  0  0  0
 16 18  1  0  0  0  0
 17 40  1  0  0  0  0
 18 19  1  0  0  0  0
 18 41  1  0  0  0  0
 18 42  1  0  0  0  0
 19 20  1  0  0  0  0
 19 43  1  0  0  0  0
 19 44  1  0  0  0  0
 20 21  1  0  0  0  0
 21 45  1  0  0  0  0
 21 46  1  0  0  0  0
 22 23  1  0  0  0  0
 22 47  1  0  0  0  0
 23 27  1  0  0  0  0
 23 24  1  0  0  0  0
 23 48  1  0  0  0  0
 24 25  1  0  0  0  0
 24 49  1  0  0  0  0
 24 50  1  0  0  0  0
 25 26  1  0  0  0  0
 25 51  1  0  0  0  0
 25 52  1  0  0  0  0
 26 27  1  0  0  0  0
 26 53  1  0  0  0  0
 26 54  1  0  0  0  0
M  END
> <s_m_source_file>
AV-unprocessed.smi

> <i_m_source_file_index>
13

> <i_lp_mmshare_version>
43012

> <i_f3d_flags>
0

> <s_epik_input>
TzFbQ0gyXVtDSDJdW0NIMl1bQ0BIXTFbQ0BASF0yTihbQ0gyXUMyKFtDSDNdKVtDSDNdKWMobltjSF1uMyljKGMzNCluW2NIXW40W0NIMl1bQ0BAXTUoW09IXSlbQ0gyXVtDSDJdT1tDSDJdNQ==

> <s_epik_cmdline>
J2VwaWtfcHl0aG9uJywgJy1waCcsICc3LjAnLCAnLXRuJywgJzgnLCAnLW1hJywgJzIwMCcsICctbWV0YWxfYmluZGluZycsICctaW1hZScsICc8aW5maWxlLm1hZT4nLCAnLW9tYWUnLCAnPG91dGZpbGUubWFlPic=

> <r_lp_tautomer_probability>
1

> <r_epik_Ionization_Penalty>
0.00202764

> <r_epik_Ionization_Penalty_Charging>
0

> <r_epik_Ionization_Penalty_Neutral>
0.00202764

> <r_epik_State_Penalty>
0.00134017

> <r_epik_Charging_Adjusted_Penalty>
0.00134017

> <i_epik_Tot_Q>
0

> <i_epik_Tot_abs_Q>
0

> <r_epik_Metal_State_Penalty>
-0

> <b_epik_Metal_Only>
0

> <s_lp_Force_Field>
OPLS_2005

> <r_lp_Energy>
62.8076

> <b_lp_Chiralities_Consistent>
1

> <s_lp_Variant>
AV-unprocessed.smi:13-6

> <Gold.Version>
5.8.1

> <Gold.Id.Protein>
6NUR|6NUR_protein|mol2

> <Gold.PLP.Fitness>
41.3874

> <Gold.PLP.PLP>
-33.3164

> <Gold.PLP.part.hbond>
-2.0000

> <Gold.PLP.part.metal>
0.0000

> <Gold.PLP.part.buried>
-1.7183

> <Gold.PLP.part.nonpolar>
-29.8976

> <Gold.PLP.part.repulsive>
0.5007

> <Gold.PLP.ligand.clash>
0.0000

> <Gold.PLP.ligand.torsion>
0.3349

> <Gold.PLP.Chemscore.Hbond>
1.8960

> <Gold.PLP.Chemscore.CHOScore>
0.8782

> <Gold.PLP.Chemscore.Metal>
0.0000

> <Gold.Chemscore.Hbonds>
donor molecule, donor type, donor heavy atom, donor atom, acceptor molecule, acceptor atom, score
      L1  H    17    40       P1  7957  1.00
      P1  H  7989  7998       L1    17  0.85
      L1  C    13    37       P1  7957  0.94

> <Gold.PLP.Chemscore.Internal.Correction>
0.4183

> <Gold.Rescore>
     Score         DG    S(hbond)    S(metal)    S(lipo)     H(rot)  DE(clash)    DE(int)     intcor
     11.31     -13.06       1.48        0.00      72.82       2.30       0.00       1.75       ----

> <Gold.Chemscore.Fitness>
11.3064

> <Gold.Chemscore.DG>
-13.0624

> <Gold.Chemscore.ZeroCoef>
-5.4800

> <Gold.Chemscore.Hbond>
1.4819

> <Gold.Chemscore.Metal>
0.0000

> <Gold.Chemscore.Lipo>
72.8174

> <Gold.Chemscore.Internal_Hbond>
0.0000

> <Gold.Chemscore.DEClash>
0.0029

> <Gold.Chemscore.DEInternal>
1.7531

> <Gold.Chemscore.Rot>
2.2996

> <Gold.Chemscore.Internal.Correction>
   9.000000E+99

> <Gold.Chemscore.Hbonds>
donor molecule, donor type, donor heavy atom, donor atom, acceptor molecule, acceptor atom, score
      L1  H    17    40       P1  7957  0.98
      P1  H  7989  7998       L1    17  0.15

> <Gold.Chemscore.Hbond.Weighted>
-4.9497

> <Gold.Chemscore.Metal.Weighted>
-0.0000

> <Gold.Chemscore.Lipo.Weighted>
-8.5196

> <Gold.Chemscore.Internal_Hbond.Weighted>
0.0000

> <Gold.Chemscore.DEClash.Weighted>
0.0029

> <Gold.Chemscore.DEInternal.Weighted>
1.7531

> <Gold.Chemscore.Rot.Weighted>
5.8869

> <Gold.Chemscore.Internal.Correction.Weighted>
   9.000000E+99

> <Gold.Protein.RotatedTorsions>
[ 6907 6896 6895 6894 ] final  162.31 input  -60.11 | X-H torsion
[ 7974 7965 7964 7962 ] final -171.91 input  175.53 | X-H torsion
[ 8008 7997 7996 7995 ] final   88.22 input   59.86 | X-H torsion
[ 10167 10162 10161 10158 ] final  139.62 input  -65.29 | X-H torsion
[ 10718 10713 10712 10709 ] final  163.98 input   66.30 | X-H torsion
[ 10763 10752 10751 10750 ] final   42.06 input  -60.55 | X-H torsion
[ 11005 11000 10999 10996 ] final   31.28 input  -57.11 | X-H torsion

> <Gold.Protein.ActiveResidues>
 VAL166  LYS551  ARG553  GLY616  TRP617  ASP618  TYR619  PRO620  LYS621  CYS622 
 ASP623  PHE694  ASN695  SER759  ASP760  ASP761  ALA762  ILE779  LEU786  VAL792 
 PHE793  MET794  SER795  GLU796  ALA797  LYS798  CYS799  TRP800  GLU811  SER814 

> <Gold.Protein.RotatedAtoms>
  151.9424  133.3642  159.3969 H   0  0  0  0  0  0  0  0  0  0  0  0  # atno 6907 bound_to 6896
  150.6996  134.4425  159.5308 H   0  0  0  0  0  0  0  0  0  0  0  0  # atno 6908 bound_to 6896
  152.2084  134.8524  160.0551 H   0  0  0  0  0  0  0  0  0  0  0  0  # atno 6909 bound_to 6896
  144.7152  140.1852  143.6354 H   0  0  0  0  0  0  0  0  0  0  0  0  # atno 7974 bound_to 7965
  155.9850  140.3374  155.6699 H   0  0  0  0  0  0  0  0  0  0  0  0  # atno 8008 bound_to 7997
  155.6497  140.0704  157.2609 H   0  0  0  0  0  0  0  0  0  0  0  0  # atno 8009 bound_to 7997
  154.4203  140.1728  156.1649 H   0  0  0  0  0  0  0  0  0  0  0  0  # atno 8010 bound_to 7997
  139.5073  144.6284  151.5880 H   0  0  0  0  0  0  0  0  0  0  0  0  # atno 10167 bound_to 10162
  157.1008  131.0442  151.2498 H   0  0  0  0  0  0  0  0  0  0  0  0  # atno 10718 bound_to 10713
  152.9892  135.6143  154.2888 H   0  0  0  0  0  0  0  0  0  0  0  0  # atno 10763 bound_to 10752
  154.2614  135.2782  155.2778 H   0  0  0  0  0  0  0  0  0  0  0  0  # atno 10764 bound_to 10752
  154.5202  135.5817  153.6732 H   0  0  0  0  0  0  0  0  0  0  0  0  # atno 10765 bound_to 10752
  140.2856  134.2923  155.7789 H   0  0  0  0  0  0  0  0  0  0  0  0  # atno 11005 bound_to 11000
  145.8820  139.2328  143.1600 LP  0  0  0  0  0  0  0  0  0  0  0  0  # atno 17320 bound_to 7965
  145.9986  140.8540  143.0030 LP  0  0  0  0  0  0  0  0  0  0  0  0  # atno 17321 bound_to 7965
  140.6008  143.9613  150.6385 LP  0  0  0  0  0  0  0  0  0  0  0  0  # atno 17342 bound_to 10162
  140.2824  143.3380  152.1139 LP  0  0  0  0  0  0  0  0  0  0  0  0  # atno 17343 bound_to 10162
  157.4642  130.7671  149.7264 LP  0  0  0  0  0  0  0  0  0  0  0  0  # atno 17370 bound_to 10713
  155.9874  130.3967  150.3166 LP  0  0  0  0  0  0  0  0  0  0  0  0  # atno 17371 bound_to 10713
  141.2155  133.7552  156.9546 LP  0  0  0  0  0  0  0  0  0  0  0  0  # atno 17394 bound_to 11000
  140.1243  134.9397  157.2248 LP  0  0  0  0  0  0  0  0  0  0  0  0  # atno 17395 bound_to 11000

$$$$
