AV-unprocessed.smi:1163|AV-procd|sdf|4921|dock9
  -GOLD-   22720 3503D 1   1.00000     0.00000
 Structure written by MMmdl.
 39 40  0  0  0  0  0  0  0  0  1 V2000
  154.4400  140.4930  161.0342 C   0  0  0  0  0  0  0  0  0  0  0  0
  154.1426  141.8195  160.6118 O   0  0  0  0  0  0  0  0  0  0  0  0
  153.0407  142.0183  159.8051 C   0  0  0  0  0  0  0  0  0  0  0  0
  152.7145  143.3340  159.4211 C   0  0  0  0  0  0  0  0  0  0  0  0
  151.5936  143.5409  158.5952 C   0  0  0  0  0  0  0  0  0  0  0  0
  150.8369  142.4304  158.1704 C   0  0  0  0  0  0  0  0  0  0  0  0
  149.7024  142.6733  157.3499 N   0  0  0  0  0  0  0  0  0  0  0  0
  148.6143  141.9043  157.1737 C   0  0  0  0  0  0  0  0  0  0  0  0
  148.4249  140.8077  157.6993 O   0  0  0  0  0  0  0  0  0  0  0  0
  147.7530  142.4791  156.3228 N   0  0  0  0  0  0  0  0  0  0  0  0
  146.4783  141.9160  155.8869 C   0  0  1  0  0  0  0  0  0  0  0  0
  145.5460  141.6164  157.0580 C   0  0  0  0  0  0  0  0  0  0  0  0
  144.1840  142.0660  156.5422 C   0  0  0  0  0  0  0  0  0  0  0  0
  144.5115  143.2630  155.7835 N   0  0  0  0  0  0  0  0  0  0  0  0
  143.3877  143.7021  154.9588 C   0  0  0  0  0  0  0  0  0  0  0  0
  143.5185  145.1642  154.4888 C   0  0  0  0  0  0  0  0  0  0  0  0
  144.4233  145.2177  153.5123 F   0  0  0  0  0  0  0  0  0  0  0  0
  142.3544  145.6070  154.0123 F   0  0  0  0  0  0  0  0  0  0  0  0
  143.9246  145.9633  155.4756 F   0  0  0  0  0  0  0  0  0  0  0  0
  145.7050  142.9173  155.0152 C   0  0  0  0  0  0  0  0  0  0  0  0
  151.2380  141.1490  158.6213 C   0  0  0  0  0  0  0  0  0  0  0  0
  152.3110  140.9443  159.4146 N   0  0  0  0  0  0  0  0  0  0  0  0
  155.3390  140.5032  161.6502 H   0  0  0  0  0  0  0  0  0  0  0  0
  154.6298  139.8355  160.1843 H   0  0  0  0  0  0  0  0  0  0  0  0
  153.6310  140.0766  161.6363 H   0  0  0  0  0  0  0  0  0  0  0  0
  153.3132  144.1687  159.7545 H   0  0  0  0  0  0  0  0  0  0  0  0
  151.3232  144.5413  158.2897 H   0  0  0  0  0  0  0  0  0  0  0  0
  149.7479  143.5105  156.7878 H   0  0  0  0  0  0  0  0  0  0  0  0
  147.9994  143.3796  155.9388 H   0  0  0  0  0  0  0  0  0  0  0  0
  146.6268  141.0038  155.3063 H   0  0  0  0  0  0  0  0  0  0  0  0
  145.5577  140.5647  157.3455 H   0  0  0  0  0  0  0  0  0  0  0  0
  145.8165  142.2059  157.9357 H   0  0  0  0  0  0  0  0  0  0  0  0
  143.7577  141.3056  155.8853 H   0  0  0  0  0  0  0  0  0  0  0  0
  143.4752  142.2698  157.3454 H   0  0  0  0  0  0  0  0  0  0  0  0
  143.2603  143.0352  154.1046 H   0  0  0  0  0  0  0  0  0  0  0  0
  142.4800  143.6164  155.5578 H   0  0  0  0  0  0  0  0  0  0  0  0
  146.2864  143.8072  154.7713 H   0  0  0  0  0  0  0  0  0  0  0  0
  145.4220  142.4347  154.0781 H   0  0  0  0  0  0  0  0  0  0  0  0
  150.6899  140.2547  158.3701 H   0  0  0  0  0  0  0  0  0  0  0  0
  1  2  1  0  0  0  0
  1 23  1  0  0  0  0
  1 24  1  0  0  0  0
  1 25  1  0  0  0  0
  2  3  1  0  0  0  0
  3 22  1  0  0  0  0
  3  4  2  0  0  0  0
  4  5  1  0  0  0  0
  4 26  1  0  0  0  0
  5  6  2  0  0  0  0
  5 27  1  0  0  0  0
  6  7  1  0  0  0  0
  6 21  1  0  0  0  0
  7  8  1  0  0  0  0
  7 28  1  0  0  0  0
  8  9  2  0  0  0  0
  8 10  1  0  0  0  0
 10 11  1  0  0  0  0
 10 29  1  0  0  0  0
 11 20  1  0  0  0  0
 11 12  1  0  0  0  0
 11 30  1  0  0  0  0
 12 13  1  0  0  0  0
 12 31  1  0  0  0  0
 12 32  1  0  0  0  0
 13 14  1  0  0  0  0
 13 33  1  0  0  0  0
 13 34  1  0  0  0  0
 14 15  1  0  0  0  0
 14 20  1  0  0  0  0
 15 16  1  0  0  0  0
 15 35  1  0  0  0  0
 15 36  1  0  0  0  0
 16 17  1  0  0  0  0
 16 18  1  0  0  0  0
 16 19  1  0  0  0  0
 20 37  1  0  0  0  0
 20 38  1  0  0  0  0
 21 22  2  0  0  0  0
 21 39  1  0  0  0  0
M  END
> <s_m_source_file>
AV-unprocessed.smi

> <i_m_source_file_index>
1163

> <i_lp_mmshare_version>
43012

> <i_f3d_flags>
0

> <s_epik_input>
W0NIM11PYzFbY0hdW2NIXWMoW2NIXW4xKVtOSF1DKD1PKVtOSF1bQ0BASF0yW0NIMl1bQ0gyXU4oW0NIMl0yKVtDSDJdQyhGKShGKUY=

> <s_epik_cmdline>
J2VwaWtfcHl0aG9uJywgJy1waCcsICc3LjAnLCAnLXRuJywgJzgnLCAnLW1hJywgJzIwMCcsICctbWV0YWxfYmluZGluZycsICctaW1hZScsICc8aW5maWxlLm1hZT4nLCAnLW9tYWUnLCAnPG91dGZpbGUubWFlPic=

> <r_lp_tautomer_probability>
1

> <r_epik_Ionization_Penalty>
0.0970123

> <r_epik_Ionization_Penalty_Charging>
0

> <r_epik_Ionization_Penalty_Neutral>
0.0970123

> <r_epik_State_Penalty>
0.0870533

> <r_epik_Charging_Adjusted_Penalty>
0.0870533

> <i_epik_Tot_Q>
0

> <i_epik_Tot_abs_Q>
0

> <r_epik_Metal_State_Penalty>
0.0870519

> <b_epik_Metal_Only>
0

> <s_lp_Force_Field>
OPLS_2005

> <r_lp_Energy>
29.6524

> <b_lp_Chiralities_Consistent>
1

> <s_lp_Variant>
AV-unprocessed.smi:1163-2

> <Gold.Version>
5.8.1

> <Gold.Id.Protein>
6NUR|6NUR_protein|mol2

> <Gold.PLP.Fitness>
40.3807

> <Gold.PLP.PLP>
-34.8309

> <Gold.PLP.part.hbond>
-2.1400

> <Gold.PLP.part.metal>
0.0000

> <Gold.PLP.part.buried>
-3.6209

> <Gold.PLP.part.nonpolar>
-28.7058

> <Gold.PLP.part.repulsive>
0.1790

> <Gold.PLP.ligand.clash>
0.0000

> <Gold.PLP.ligand.torsion>
0.4617

> <Gold.PLP.Chemscore.Hbond>
1.9920

> <Gold.PLP.Chemscore.CHOScore>
0.0000

> <Gold.PLP.Chemscore.Metal>
0.0000

> <Gold.Chemscore.Hbonds>
donor molecule, donor type, donor heavy atom, donor atom, acceptor molecule, acceptor atom, score
      L1  H     7    28       P1  8028  0.98
      L1  H    10    29       P1  8028  1.00

> <Gold.PLP.Chemscore.Internal.Correction>
0.4973

> <Gold.Rescore>
     Score         DG    S(hbond)    S(metal)    S(lipo)     H(rot)  DE(clash)    DE(int)     intcor
     11.48     -13.53       1.41        0.00      64.72       1.65       0.02       2.03       ----

> <Gold.Chemscore.Fitness>
11.4834

> <Gold.Chemscore.DG>
-13.5290

> <Gold.Chemscore.ZeroCoef>
-5.4800

> <Gold.Chemscore.Hbond>
1.4087

> <Gold.Chemscore.Metal>
0.0000

> <Gold.Chemscore.Lipo>
64.7159

> <Gold.Chemscore.Internal_Hbond>
0.0000

> <Gold.Chemscore.DEClash>
0.0202

> <Gold.Chemscore.DEInternal>
2.0254

> <Gold.Chemscore.Rot>
1.6515

> <Gold.Chemscore.Internal.Correction>
   9.000000E+99

> <Gold.Chemscore.Hbonds>
donor molecule, donor type, donor heavy atom, donor atom, acceptor molecule, acceptor atom, score
      L1  H     7    28       P1  8028  0.93
      L1  H    10    29       P1  8028  0.34

> <Gold.Chemscore.Hbond.Weighted>
-4.7051

> <Gold.Chemscore.Metal.Weighted>
-0.0000

> <Gold.Chemscore.Lipo.Weighted>
-7.5718

> <Gold.Chemscore.Internal_Hbond.Weighted>
0.0000

> <Gold.Chemscore.DEClash.Weighted>
0.0202

> <Gold.Chemscore.DEInternal.Weighted>
2.0254

> <Gold.Chemscore.Rot.Weighted>
4.2279

> <Gold.Chemscore.Internal.Correction.Weighted>
   9.000000E+99

> <Gold.Protein.RotatedTorsions>
[ 6907 6896 6895 6894 ] final  -29.81 input  -60.11 | X-H torsion
[ 7974 7965 7964 7962 ] final  -39.38 input  175.53 | X-H torsion
[ 8008 7997 7996 7995 ] final   99.52 input   59.86 | X-H torsion
[ 10167 10162 10161 10158 ] final -160.20 input  -65.29 | X-H torsion
[ 10718 10713 10712 10709 ] final  -50.33 input   66.30 | X-H torsion
[ 10763 10752 10751 10750 ] final  140.63 input  -60.55 | X-H torsion
[ 11005 11000 10999 10996 ] final  111.68 input  -57.11 | X-H torsion

> <Gold.Protein.ActiveResidues>
 VAL166  LYS551  ARG553  GLY616  TRP617  ASP618  TYR619  PRO620  LYS621  CYS622 
 ASP623  PHE694  ASN695  SER759  ASP760  ASP761  ALA762  ILE779  LEU786  VAL792 
 PHE793  MET794  SER795  GLU796  ALA797  LYS798  CYS799  TRP800  GLU811  SER814 

> <Gold.Protein.RotatedAtoms>
  151.1141  135.0043  159.8507 H   0  0  0  0  0  0  0  0  0  0  0  0  # atno 6907 bound_to 6896
  152.5445  134.1800  159.8642 H   0  0  0  0  0  0  0  0  0  0  0  0  # atno 6908 bound_to 6896
  151.1853  133.4655  159.2627 H   0  0  0  0  0  0  0  0  0  0  0  0  # atno 6909 bound_to 6896
  146.0401  140.6620  142.9091 H   0  0  0  0  0  0  0  0  0  0  0  0  # atno 7974 bound_to 7965
  156.1113  140.3227  155.8077 H   0  0  0  0  0  0  0  0  0  0  0  0  # atno 8008 bound_to 7997
  155.4667  140.0543  157.3001 H   0  0  0  0  0  0  0  0  0  0  0  0  # atno 8009 bound_to 7997
  154.4762  140.2033  155.9887 H   0  0  0  0  0  0  0  0  0  0  0  0  # atno 8010 bound_to 7997
  139.6557  144.0003  152.2192 H   0  0  0  0  0  0  0  0  0  0  0  0  # atno 10167 bound_to 10162
  156.1810  130.4150  149.9507 H   0  0  0  0  0  0  0  0  0  0  0  0  # atno 10718 bound_to 10713
  153.9258  135.2995  155.3447 H   0  0  0  0  0  0  0  0  0  0  0  0  # atno 10763 bound_to 10752
  154.7552  135.4961  153.9364 H   0  0  0  0  0  0  0  0  0  0  0  0  # atno 10764 bound_to 10752
  153.1117  135.6761  153.9592 H   0  0  0  0  0  0  0  0  0  0  0  0  # atno 10765 bound_to 10752
  139.8909  134.9513  156.6469 H   0  0  0  0  0  0  0  0  0  0  0  0  # atno 11005 bound_to 11000
  144.7070  140.3892  143.7110 LP  0  0  0  0  0  0  0  0  0  0  0  0  # atno 17320 bound_to 7965
  145.6898  139.1636  143.2653 LP  0  0  0  0  0  0  0  0  0  0  0  0  # atno 17321 bound_to 7965
  139.9728  144.6482  150.7973 LP  0  0  0  0  0  0  0  0  0  0  0  0  # atno 17342 bound_to 10162
  140.7558  143.3053  151.2977 LP  0  0  0  0  0  0  0  0  0  0  0  0  # atno 17343 bound_to 10162
  156.7277  130.9031  151.3623 LP  0  0  0  0  0  0  0  0  0  0  0  0  # atno 17370 bound_to 10713
  157.6868  130.9193  150.0408 LP  0  0  0  0  0  0  0  0  0  0  0  0  # atno 17371 bound_to 10713
  140.7551  133.8865  155.8376 LP  0  0  0  0  0  0  0  0  0  0  0  0  # atno 17394 bound_to 11000
  140.9969  134.1203  157.4355 LP  0  0  0  0  0  0  0  0  0  0  0  0  # atno 17395 bound_to 11000

$$$$
