#       Name:                AV-unprocessed.smi:2056
#       Creating user name   scv26
#       Creation time:       Fri Mar 27 11:00:35 2020


#       File generated by GOLD software.
#

@<TRIPOS>MOLECULE
AV-unprocessed.smi:2056
    39    39     1
SMALL
NO_CHARGES


@<TRIPOS>ATOM
      1 ****        -2.5881  -1.2158   1.9678 C.3            1 S1                 0.0000
      2 ****        -3.2422  -0.1598   1.0513 C.3            1 S1                 0.0000
      3 ****        -4.7230  -0.5382   0.8529 C.3            1 S1                 0.0000
      4 ****        -3.1833   1.2192   1.7423 C.3            1 S1                 0.0000
      5 ****        -2.5610  -0.1338  -0.3471 C.3            1 S1                 0.0000
      6 ****        -1.0639   0.2081  -0.3545 C.2            1 S1                 0.0000
      7 ****        -0.7057   1.3796  -0.2328 O.2            1 S1                 0.0000
      8 ****        -0.2282  -0.8335  -0.5253 N.am           1 S1                 0.0000
      9 ****         1.1902  -0.8283  -0.5662 C.2            1 S1                 0.0000
     10 ****         1.9443   0.2739  -0.4900 N.2            1 S1                 0.0000
     11 ****         3.3117  -0.0132  -0.5631 C.2            1 S1                 0.0000
     12 ****         4.3163   1.1005  -0.4986 C.3            1 S1                 0.0000
     13 ****         4.7058   1.5456  -1.9096 C.2            1 S1                 0.0000
     14 ****         5.7107   0.8931  -2.5005 N.am           1 S1                 0.0000
     15 ****         4.1094   2.4687  -2.4600 O.2            1 S1                 0.0000
     16 ****         3.5764  -1.3567  -0.6835 C.2            1 S1                 0.0000
     17 ****         2.1183  -2.3105  -0.7282 S.3            1 S1                 0.0000
     18 ****        -3.1145  -1.2932   2.9198 H              1 S1                 0.0000
     19 ****        -1.5502  -0.9709   2.1960 H              1 S1                 0.0000
     20 ****        -2.5998  -2.2038   1.5064 H              1 S1                 0.0000
     21 ****        -4.8246  -1.5170   0.3826 H              1 S1                 0.0000
     22 ****        -5.2365   0.1852   0.2183 H              1 S1                 0.0000
     23 ****        -5.2572  -0.5765   1.8030 H              1 S1                 0.0000
     24 ****        -3.7527   1.2190   2.6724 H              1 S1                 0.0000
     25 ****        -3.5980   2.0007   1.1047 H              1 S1                 0.0000
     26 ****        -2.1631   1.5069   1.9968 H              1 S1                 0.0000
     27 ****        -2.7020  -1.0971  -0.8404 H              1 S1                 0.0000
     28 ****        -3.0655   0.5943  -0.9840 H              1 S1                 0.0000
     29 ****        -0.6607  -1.7407  -0.6189 H              1 S1                 0.0000
     30 ****         3.9136   1.9555   0.0466 H              1 S1                 0.0000
     31 ****         5.2075   0.7840   0.0448 H              1 S1                 0.0000
     32 ****         6.0049   1.1531  -3.4305 H              1 S1                 0.0000
     33 ****         6.1748   0.1416  -2.0111 H              1 S1                 0.0000
     34 ****         4.5390  -1.8409  -0.7540 H              1 S1                 0.0000
     35 ****        -1.3883   2.1030  -0.1298 LP             1 S1                 0.0000
     36 ****         0.2680   1.6078  -0.2369 LP             1 S1                 0.0000
     37 ****         1.5733   1.1973  -0.3920 LP             1 S1                 0.0000
     38 ****         3.3631   2.9352  -1.9853 LP             1 S1                 0.0000
     39 ****         4.3706   2.7532  -3.3824 LP             1 S1                 0.0000
@<TRIPOS>BOND
    1    1    2 1     
    2    1   18 1     
    3    1   19 1     
    4    1   20 1     
    5    2    3 1     
    6    2    4 1     
    7    2    5 1     
    8    3   21 1     
    9    3   22 1     
   10    3   23 1     
   11    4   24 1     
   12    4   25 1     
   13    4   26 1     
   14    5    6 1     
   15    5   27 1     
   16    5   28 1     
   17    6    7 2     
   18    6    8 am    
   19    8    9 1     
   20    8   29 1     
   21    9   17 1     
   22    9   10 2     
   23   10   11 1     
   24   11   12 1     
   25   11   16 2     
   26   12   13 1     
   27   12   30 1     
   28   12   31 1     
   29   13   14 am    
   30   13   15 2     
   31   14   32 1     
   32   14   33 1     
   33   16   17 1     
   34   16   34 1     
   35    7   35 1     
   36    7   36 1     
   37   10   37 1     
   38   15   38 1     
   39   15   39 1     
@<TRIPOS>SUBSTRUCTURE
      1 S1             1
@<TRIPOS>SET
LONE_PAIRS      STATIC     ATOMS    <user>   **** ""
5 35 36 37 38 39
DONOR_HYDROGENS      STATIC     ATOMS    <user>   **** ""
3 29 32 33
ATOM$BLUE        STATIC     ATOMS    COLORGROUP SYSTEM
5 35 36 37 38 39
ATOM$RED        STATIC     ATOMS    COLORGROUP SYSTEM
3 29 32 33
