#       Name:                AV-unprocessed.smi:1428
#       Creating user name   scv26
#       Creation time:       Fri Mar 27 05:47:18 2020


#       File generated by GOLD software.
#

@<TRIPOS>MOLECULE
AV-unprocessed.smi:1428
    51    52     1
SMALL
NO_CHARGES


@<TRIPOS>ATOM
      1 ****        -3.9635  -3.2530   0.8174 C.3            1 S1                 0.0000
      2 ****        -3.2864  -2.0011   0.8411 O.3            1 S1                 0.0000
      3 ****        -4.0411  -0.8433   0.8418 C.ar           1 S1                 0.0000
      4 ****        -5.3932  -0.9543   0.8293 N.ar           1 S1                 0.0000
      5 ****        -6.1309   0.1747   0.8324 C.ar           1 S1                 0.0000
      6 ****        -5.5666   1.4632   0.8540 C.ar           1 S1                 0.0000
      7 ****        -4.1646   1.5814   0.8674 C.ar           1 S1                 0.0000
      8 ****        -3.3760   0.4051   0.8496 C.ar           1 S1                 0.0000
      9 ****        -1.9539   0.4076   0.8782 N.am           1 S1                 0.0000
     10 ****        -1.1094   1.3785   0.4917 C.2            1 S1                 0.0000
     11 ****        -1.4407   2.4750   0.0419 O.2            1 S1                 0.0000
     12 ****         0.1670   0.9946   0.6369 N.am           1 S1                 0.0000
     13 ****         1.3378   1.8045   0.3017 C.3            1 S1                 0.0000
     14 ****         1.5881   1.8524  -1.2189 C.3            1 S1                 0.0000
     15 ****         2.0785   0.5000  -1.7649 C.3            1 S1                 0.0000
     16 ****         3.2985   0.0455  -1.0514 N.4            1 S1                 1.0000
     17 ****         3.8792  -1.1806  -1.6539 C.3            1 S1                 0.0000
     18 ****         5.3737  -1.2789  -1.3273 C.2            1 S1                 0.0000
     19 ****         5.6988  -2.4522  -0.7520 N.pl3          1 S1                -1.0000
     20 ****         6.1165  -0.3340  -1.5869 O.2            1 S1                 0.0000
     21 ****         3.0639  -0.0747   0.4129 C.3            1 S1                 0.0000
     22 ****         2.5893   1.2615   1.0136 C.3            1 S1                 0.0000
     23 ****        -3.2308  -4.0599   0.8153 H              1 S1                 0.0000
     24 ****        -4.5738  -3.3591  -0.0806 H              1 S1                 0.0000
     25 ****        -4.5951  -3.3821   1.6975 H              1 S1                 0.0000
     26 ****        -7.2033   0.0470   0.8238 H              1 S1                 0.0000
     27 ****        -6.1953   2.3413   0.8652 H              1 S1                 0.0000
     28 ****        -3.7263   2.5664   0.9057 H              1 S1                 0.0000
     29 ****        -1.5299  -0.4661   1.1544 H              1 S1                 0.0000
     30 ****         0.3430   0.0755   1.0161 H              1 S1                 0.0000
     31 ****         1.1566   2.8190   0.6615 H              1 S1                 0.0000
     32 ****         0.6886   2.1660  -1.7497 H              1 S1                 0.0000
     33 ****         2.3402   2.6131  -1.4314 H              1 S1                 0.0000
     34 ****         1.2968  -0.2556  -1.6717 H              1 S1                 0.0000
     35 ****         2.2919   0.6036  -2.8294 H              1 S1                 0.0000
     36 ****         3.3162  -2.0609  -1.3358 H              1 S1                 0.0000
     37 ****         3.7986  -1.1352  -2.7409 H              1 S1                 0.0000
     38 ****         4.9635  -3.1532  -0.6015 H              1 S1                 0.0000
     39 ****         2.3279  -0.8578   0.6010 H              1 S1                 0.0000
     40 ****         3.9805  -0.3818   0.9176 H              1 S1                 0.0000
     41 ****         3.3942   1.9929   0.9283 H              1 S1                 0.0000
     42 ****         2.3980   1.1462   2.0813 H              1 S1                 0.0000
     43 ****         3.9918   0.7690  -1.1806 H              1 S1                 0.0000
     44 ****        -2.6970  -1.9689   0.0338 LP             1 S1                 0.0000
     45 ****        -2.7221  -1.9862   1.6665 LP             1 S1                 0.0000
     46 ****        -5.8326  -1.8525   0.8180 LP             1 S1                 0.0000
     47 ****        -2.4093   2.7015  -0.0604 LP             1 S1                 0.0000
     48 ****        -0.7413   3.1395  -0.2214 LP             1 S1                 0.0000
     49 ****         6.6417  -2.6381  -0.4756 LP             1 S1                 0.0000
     50 ****         5.7449   0.4929  -2.0089 LP             1 S1                 0.0000
     51 ****         7.0923  -0.3925  -1.3761 LP             1 S1                 0.0000
@<TRIPOS>BOND
    1    1    2 1     
    2    1   23 1     
    3    1   24 1     
    4    1   25 1     
    5    2    3 1     
    6    3    8 ar    
    7    3    4 ar    
    8    4    5 ar    
    9    5    6 ar    
   10    5   26 1     
   11    6    7 ar    
   12    6   27 1     
   13    7    8 ar    
   14    7   28 1     
   15    8    9 1     
   16    9   10 am    
   17    9   29 1     
   18   10   11 2     
   19   10   12 am    
   20   12   13 1     
   21   12   30 1     
   22   13   22 1     
   23   13   14 1     
   24   13   31 1     
   25   14   15 1     
   26   14   32 1     
   27   14   33 1     
   28   15   16 1     
   29   15   34 1     
   30   15   35 1     
   31   16   17 1     
   32   16   21 1     
   33   16   43 1     
   34   17   18 1     
   35   17   36 1     
   36   17   37 1     
   37   18   19 1     
   38   18   20 2     
   39   19   38 1     
   40   21   22 1     
   41   21   39 1     
   42   21   40 1     
   43   22   41 1     
   44   22   42 1     
   45    2   44 1     
   46    2   45 1     
   47    4   46 1     
   48   11   47 1     
   49   11   48 1     
   50   19   49 1     
   51   20   50 1     
   52   20   51 1     
@<TRIPOS>SUBSTRUCTURE
      1 S1             1
@<TRIPOS>SET
LONE_PAIRS      STATIC     ATOMS    <user>   **** ""
8 44 45 46 47 48 49 50 51
DONOR_HYDROGENS      STATIC     ATOMS    <user>   **** ""
4 29 30 43 38
ATOM$BLUE        STATIC     ATOMS    COLORGROUP SYSTEM
8 44 45 46 47 48 49 50 51
ATOM$RED        STATIC     ATOMS    COLORGROUP SYSTEM
4 29 30 43 38
