AV-unprocessed.smi:316|AV-procd|sdf|2324|dock5
  -GOLD-   2262022223D 1   1.00000     0.00000
 Structure written by MMmdl.
 42 43  0  0  0  0  0  0  0  0  1 V2000
  151.3286  140.7032  157.2190 C   0  0  0  0  0  0  0  0  0  0  0  0
  151.5563  139.5167  156.4086 N   0  0  0  0  0  0  0  0  0  0  0  0
  151.0564  139.3361  155.1776 C   0  0  0  0  0  0  0  0  0  0  0  0
  150.3549  140.1705  154.6055 O   0  0  0  0  0  0  0  0  0  0  0  0
  151.4052  138.0163  154.4857 C   0  0  0  0  0  0  0  0  0  0  0  0
  150.9012  136.7925  155.2748 C   0  0  0  0  0  0  0  0  0  0  0  0
  149.9951  135.9724  154.4787 N   0  0  0  0  0  0  0  0  0  0  0  0
  149.7478  134.6724  154.6922 C   0  0  0  0  0  0  0  0  0  0  0  0
  150.2750  134.0195  155.5931 O   0  0  0  0  0  0  0  0  0  0  0  0
  148.8772  134.1892  153.7905 N   0  0  0  0  0  0  0  0  0  0  0  0
  148.4265  132.8477  153.6339 C   0  0  0  0  0  0  0  0  0  0  0  0
  148.9979  131.7810  154.3703 C   0  0  0  0  0  0  0  0  0  0  0  0
  148.4743  130.4849  154.2263 C   0  0  0  0  0  0  0  0  0  0  0  0
  147.3825  130.3015  153.3618 C   0  0  0  0  0  0  0  0  0  0  0  0
  146.8169  131.3080  152.6662 N   0  0  0  0  0  0  0  0  0  0  0  0
  147.3205  132.5616  152.7829 C   0  0  0  0  0  0  0  0  0  0  0  0
  146.6981  133.5739  152.0169 N   0  0  0  0  0  0  0  0  0  0  0  0
  146.0517  134.7070  152.6710 C   0  0  0  0  0  0  0  0  0  0  0  0
  145.1752  135.3380  151.5930 C   0  0  0  0  0  0  0  0  0  0  0  0
  144.7054  134.1209  150.8022 C   0  0  0  0  0  0  0  0  0  0  0  0
  145.9030  133.1666  150.8619 C   0  0  0  0  0  0  0  0  0  0  0  0
  151.8209  140.5934  158.1853 H   0  0  0  0  0  0  0  0  0  0  0  0
  150.2628  140.8550  157.3949 H   0  0  0  0  0  0  0  0  0  0  0  0
  151.7313  141.5905  156.7292 H   0  0  0  0  0  0  0  0  0  0  0  0
  152.1230  138.7835  156.8100 H   0  0  0  0  0  0  0  0  0  0  0  0
  150.9667  138.0239  153.4872 H   0  0  0  0  0  0  0  0  0  0  0  0
  152.4863  137.9555  154.3501 H   0  0  0  0  0  0  0  0  0  0  0  0
  151.7393  136.1846  155.6212 H   0  0  0  0  0  0  0  0  0  0  0  0
  150.3618  137.1143  156.1663 H   0  0  0  0  0  0  0  0  0  0  0  0
  149.5203  136.4293  153.7137 H   0  0  0  0  0  0  0  0  0  0  0  0
  148.5937  134.8266  153.0607 H   0  0  0  0  0  0  0  0  0  0  0  0
  149.8132  131.9375  155.0597 H   0  0  0  0  0  0  0  0  0  0  0  0
  148.8915  129.6541  154.7759 H   0  0  0  0  0  0  0  0  0  0  0  0
  146.9468  129.3223  153.2295 H   0  0  0  0  0  0  0  0  0  0  0  0
  145.4235  134.3728  153.4979 H   0  0  0  0  0  0  0  0  0  0  0  0
  146.7861  135.4121  153.0611 H   0  0  0  0  0  0  0  0  0  0  0  0
  144.3540  135.9264  152.0031 H   0  0  0  0  0  0  0  0  0  0  0  0
  145.7759  135.9880  150.9550 H   0  0  0  0  0  0  0  0  0  0  0  0
  143.8492  133.6679  151.3038 H   0  0  0  0  0  0  0  0  0  0  0  0
  144.4071  134.3638  149.7819 H   0  0  0  0  0  0  0  0  0  0  0  0
  146.5093  133.2765  149.9627 H   0  0  0  0  0  0  0  0  0  0  0  0
  145.5810  132.1264  150.9282 H   0  0  0  0  0  0  0  0  0  0  0  0
  1  2  1  0  0  0  0
  1 22  1  0  0  0  0
  1 23  1  0  0  0  0
  1 24  1  0  0  0  0
  2  3  1  0  0  0  0
  2 25  1  0  0  0  0
  3  4  2  0  0  0  0
  3  5  1  0  0  0  0
  5  6  1  0  0  0  0
  5 26  1  0  0  0  0
  5 27  1  0  0  0  0
  6  7  1  0  0  0  0
  6 28  1  0  0  0  0
  6 29  1  0  0  0  0
  7  8  1  0  0  0  0
  7 30  1  0  0  0  0
  8  9  2  0  0  0  0
  8 10  1  0  0  0  0
 10 11  1  0  0  0  0
 10 31  1  0  0  0  0
 11 16  1  0  0  0  0
 11 12  2  0  0  0  0
 12 13  1  0  0  0  0
 12 32  1  0  0  0  0
 13 14  2  0  0  0  0
 13 33  1  0  0  0  0
 14 15  1  0  0  0  0
 14 34  1  0  0  0  0
 15 16  2  0  0  0  0
 16 17  1  0  0  0  0
 17 21  1  0  0  0  0
 17 18  1  0  0  0  0
 18 19  1  0  0  0  0
 18 35  1  0  0  0  0
 18 36  1  0  0  0  0
 19 20  1  0  0  0  0
 19 37  1  0  0  0  0
 19 38  1  0  0  0  0
 20 21  1  0  0  0  0
 20 39  1  0  0  0  0
 20 40  1  0  0  0  0
 21 41  1  0  0  0  0
 21 42  1  0  0  0  0
M  END
> <s_m_source_file>
AV-unprocessed.smi

> <i_m_source_file_index>
316

> <i_lp_mmshare_version>
43012

> <i_f3d_flags>
0

> <s_epik_input>
W0NIM11bTkhdQyg9TylbQ0gyXVtDSDJdW05IXUMoPU8pW05IXWMxW2NIXVtjSF1bY0hdbmMxTjJbQ0gyXVtDSDJdW0NIMl1bQ0gyXTI=

> <s_epik_cmdline>
J2VwaWtfcHl0aG9uJywgJy1waCcsICc3LjAnLCAnLXRuJywgJzgnLCAnLW1hJywgJzIwMCcsICctbWV0YWxfYmluZGluZycsICctaW1hZScsICc8aW5maWxlLm1hZT4nLCAnLW9tYWUnLCAnPG91dGZpbGUubWFlPic=

> <r_lp_tautomer_probability>
1

> <r_epik_Ionization_Penalty>
0.0916714

> <r_epik_Ionization_Penalty_Charging>
0

> <r_epik_Ionization_Penalty_Neutral>
0.0916714

> <r_epik_State_Penalty>
0.0814442

> <r_epik_Charging_Adjusted_Penalty>
0.0814442

> <i_epik_Tot_Q>
0

> <i_epik_Tot_abs_Q>
0

> <r_epik_Metal_State_Penalty>
0.0705089

> <b_epik_Metal_Only>
0

> <s_lp_Force_Field>
OPLS_2005

> <r_lp_Energy>
29.6087

> <b_lp_Chiralities_Consistent>
1

> <s_lp_Variant>
AV-unprocessed.smi:316-1

> <Gold.Version>
5.8.1

> <Gold.Id.Protein>
6NUR|6NUR_protein|mol2

> <Gold.PLP.Fitness>
43.9811

> <Gold.PLP.PLP>
-36.4474

> <Gold.PLP.part.hbond>
-3.7452

> <Gold.PLP.part.metal>
0.0000

> <Gold.PLP.part.buried>
-3.4138

> <Gold.PLP.part.nonpolar>
-29.4801

> <Gold.PLP.part.repulsive>
0.6345

> <Gold.PLP.ligand.clash>
0.0000

> <Gold.PLP.ligand.torsion>
0.8506

> <Gold.PLP.Chemscore.Hbond>
2.9600

> <Gold.PLP.Chemscore.CHOScore>
0.0000

> <Gold.PLP.Chemscore.Metal>
0.0000

> <Gold.Chemscore.Hbonds>
donor molecule, donor type, donor heavy atom, donor atom, acceptor molecule, acceptor atom, score
      L1  H     7    30       P1  7948  0.86
      L1  H    10    31       P1  7948  1.00
      P1  H  7989  7998       L1     4  0.95

> <Gold.PLP.Chemscore.Internal.Correction>
0.3548

> <Gold.Rescore>
     Score         DG    S(hbond)    S(metal)    S(lipo)     H(rot)  DE(clash)    DE(int)     intcor
     13.15     -15.96       2.61        0.00      57.62       1.94       0.00       2.81       ----

> <Gold.Chemscore.Fitness>
13.1512

> <Gold.Chemscore.DG>
-15.9624

> <Gold.Chemscore.ZeroCoef>
-5.4800

> <Gold.Chemscore.Hbond>
2.6097

> <Gold.Chemscore.Metal>
0.0000

> <Gold.Chemscore.Lipo>
57.6215

> <Gold.Chemscore.Internal_Hbond>
0.0000

> <Gold.Chemscore.DEClash>
0.0000

> <Gold.Chemscore.DEInternal>
2.8112

> <Gold.Chemscore.Rot>
1.9437

> <Gold.Chemscore.Internal.Correction>
   9.000000E+99

> <Gold.Chemscore.Hbonds>
donor molecule, donor type, donor heavy atom, donor atom, acceptor molecule, acceptor atom, score
      L1  H     7    30       P1  7948  0.59
      L1  H    10    31       P1  7948  0.43
      P1  H  7989  7998       L1     4  0.21

> <Gold.Chemscore.Hbond.Weighted>
-8.7165

> <Gold.Chemscore.Metal.Weighted>
-0.0000

> <Gold.Chemscore.Lipo.Weighted>
-6.7417

> <Gold.Chemscore.Internal_Hbond.Weighted>
0.0000

> <Gold.Chemscore.DEClash.Weighted>
0.0000

> <Gold.Chemscore.DEInternal.Weighted>
2.8112

> <Gold.Chemscore.Rot.Weighted>
4.9759

> <Gold.Chemscore.Internal.Correction.Weighted>
   9.000000E+99

> <Gold.Protein.RotatedTorsions>
[ 6907 6896 6895 6894 ] final   43.68 input  -60.11 | X-H torsion
[ 7974 7965 7964 7962 ] final  -43.38 input  175.53 | X-H torsion
[ 8008 7997 7996 7995 ] final  -43.40 input   59.86 | X-H torsion
[ 10167 10162 10161 10158 ] final   72.66 input  -65.29 | X-H torsion
[ 10718 10713 10712 10709 ] final   11.70 input   66.30 | X-H torsion
[ 10763 10752 10751 10750 ] final  -80.41 input  -60.55 | X-H torsion
[ 11005 11000 10999 10996 ] final  168.65 input  -57.11 | X-H torsion

> <Gold.Protein.ActiveResidues>
 VAL166  LYS551  ARG553  GLY616  TRP617  ASP618  TYR619  PRO620  LYS621  CYS622 
 ASP623  PHE694  ASN695  SER759  ASP760  ASP761  ALA762  ILE779  LEU786  VAL792 
 PHE793  MET794  SER795  GLU796  ALA797  LYS798  CYS799  TRP800  GLU811  SER814 

> <Gold.Protein.RotatedAtoms>
  152.2233  134.8392  160.0482 H   0  0  0  0  0  0  0  0  0  0  0  0  # atno 6907 bound_to 6896
  151.9168  133.3570  159.3891 H   0  0  0  0  0  0  0  0  0  0  0  0  # atno 6908 bound_to 6896
  150.7006  134.4601  159.5421 H   0  0  0  0  0  0  0  0  0  0  0  0  # atno 6909 bound_to 6896
  146.0025  140.7058  142.9264 H   0  0  0  0  0  0  0  0  0  0  0  0  # atno 7974 bound_to 7965
  154.3997  140.1448  156.3513 H   0  0  0  0  0  0  0  0  0  0  0  0  # atno 8008 bound_to 7997
  155.8266  140.3467  155.5525 H   0  0  0  0  0  0  0  0  0  0  0  0  # atno 8009 bound_to 7997
  155.8232  140.0901  157.1827 H   0  0  0  0  0  0  0  0  0  0  0  0  # atno 8010 bound_to 7997
  140.0329  144.5451  150.7493 H   0  0  0  0  0  0  0  0  0  0  0  0  # atno 10167 bound_to 10162
  156.9994  130.6073  149.5694 H   0  0  0  0  0  0  0  0  0  0  0  0  # atno 10718 bound_to 10713
  154.5508  135.5662  153.6920 H   0  0  0  0  0  0  0  0  0  0  0  0  # atno 10763 bound_to 10752
  152.9989  135.6250  154.2376 H   0  0  0  0  0  0  0  0  0  0  0  0  # atno 10764 bound_to 10752
  154.2311  135.2866  155.2869 H   0  0  0  0  0  0  0  0  0  0  0  0  # atno 10765 bound_to 10752
  140.2895  134.7685  157.3826 H   0  0  0  0  0  0  0  0  0  0  0  0  # atno 11005 bound_to 11000
  144.6924  140.3257  143.7224 LP  0  0  0  0  0  0  0  0  0  0  0  0  # atno 17320 bound_to 7965
  145.7466  139.1780  143.2345 LP  0  0  0  0  0  0  0  0  0  0  0  0  # atno 17321 bound_to 7965
  140.7294  143.2672  151.4006 LP  0  0  0  0  0  0  0  0  0  0  0  0  # atno 17342 bound_to 10162
  139.6064  144.1188  152.2253 LP  0  0  0  0  0  0  0  0  0  0  0  0  # atno 17343 bound_to 10162
  156.0177  130.5271  150.8183 LP  0  0  0  0  0  0  0  0  0  0  0  0  # atno 17370 bound_to 10713
  157.5401  131.0940  150.9838 LP  0  0  0  0  0  0  0  0  0  0  0  0  # atno 17371 bound_to 10713
  140.1209  134.5221  155.8185 LP  0  0  0  0  0  0  0  0  0  0  0  0  # atno 17394 bound_to 11000
  141.2149  133.6756  156.6863 LP  0  0  0  0  0  0  0  0  0  0  0  0  # atno 17395 bound_to 11000

$$$$
