#       Name:                AV-unprocessed.smi:1647
#       Creating user name   scv26
#       Creation time:       Fri Mar 27 07:32:33 2020


#       File generated by GOLD software.
#

@<TRIPOS>MOLECULE
AV-unprocessed.smi:1647
    43    44     1
SMALL
NO_CHARGES


@<TRIPOS>ATOM
      1 ****        -6.7272   1.6564   2.1954 C.2            1 S1                 0.0000
      2 ****        -5.7828   1.2520   3.0576 C.2            1 S1                 0.0000
      3 ****        -5.2482  -0.1638   3.1396 C.3            1 S1                 0.0000
      4 ****        -3.7965  -0.1953   3.0088 N.am           1 S1                 0.0000
      5 ****        -3.1289  -0.1359   1.8474 C.2            1 S1                 0.0000
      6 ****        -3.6826  -0.0509   0.7517 O.2            1 S1                 0.0000
      7 ****        -1.8004  -0.1952   2.0470 N.am           1 S1                 0.0000
      8 ****        -0.7513  -0.1740   1.0870 C.ar           1 S1                 0.0000
      9 ****         0.5381  -0.5519   1.5208 C.ar           1 S1                 0.0000
     10 ****         1.6152  -0.5439   0.6112 C.ar           1 S1                 0.0000
     11 ****         1.3877  -0.1493  -0.7267 C.ar           1 S1                 0.0000
     12 ****         2.3924  -0.1171  -1.7029 N.3            1 S1                 0.0000
     13 ****         3.4197   0.8857  -1.4329 C.3            1 S1                 0.0000
     14 ****         4.3883   1.0109  -2.6218 C.3            1 S1                 0.0000
     15 ****         4.9874  -0.3562  -2.9893 C.3            1 S1                 0.0000
     16 ****         3.8665  -1.3797  -3.2323 C.3            1 S1                 0.0000
     17 ****         2.9097  -1.4439  -2.0289 C.3            1 S1                 0.0000
     18 ****         0.1438   0.2185  -1.1023 N.pl3          1 S1                 1.0000
     19 ****        -0.9148   0.2244  -0.2632 C.ar           1 S1                 0.0000
     20 ****        -7.1692   0.9718   1.4863 H              1 S1                 0.0000
     21 ****        -7.0701   2.6806   2.1876 H              1 S1                 0.0000
     22 ****        -5.3644   1.9649   3.7532 H              1 S1                 0.0000
     23 ****        -5.5161  -0.5804   4.1106 H              1 S1                 0.0000
     24 ****        -5.7165  -0.7973   2.3839 H              1 S1                 0.0000
     25 ****        -3.2651  -0.2693   3.8640 H              1 S1                 0.0000
     26 ****        -1.5060  -0.3164   3.0050 H              1 S1                 0.0000
     27 ****         0.7044  -0.8528   2.5450 H              1 S1                 0.0000
     28 ****         2.6008  -0.8395   0.9404 H              1 S1                 0.0000
     29 ****         2.9496   1.8502  -1.2363 H              1 S1                 0.0000
     30 ****         3.9731   0.6098  -0.5341 H              1 S1                 0.0000
     31 ****         3.8579   1.4200  -3.4828 H              1 S1                 0.0000
     32 ****         5.1840   1.7170  -2.3835 H              1 S1                 0.0000
     33 ****         5.6157  -0.2669  -3.8760 H              1 S1                 0.0000
     34 ****         5.6336  -0.7036  -2.1822 H              1 S1                 0.0000
     35 ****         3.3086  -1.1043  -4.1283 H              1 S1                 0.0000
     36 ****         4.2932  -2.3644  -3.4238 H              1 S1                 0.0000
     37 ****         3.4326  -1.8549  -1.1643 H              1 S1                 0.0000
     38 ****         2.0809  -2.1173  -2.2512 H              1 S1                 0.0000
     39 ****        -1.8396   0.5548  -0.7109 H              1 S1                 0.0000
     40 ****        -0.0049   0.5069  -2.0696 H              1 S1                 0.0000
     41 ****        -4.6807  -0.0229   0.6967 LP             1 S1                 0.0000
     42 ****        -3.1344  -0.0098  -0.0837 LP             1 S1                 0.0000
     43 ****         1.9564   0.1964  -2.5464 LP             1 S1                 0.0000
@<TRIPOS>BOND
    1    1    2 2     
    2    1   20 1     
    3    1   21 1     
    4    2    3 1     
    5    2   22 1     
    6    3    4 1     
    7    3   23 1     
    8    3   24 1     
    9    4    5 am    
   10    4   25 1     
   11    5    6 2     
   12    5    7 am    
   13    7    8 1     
   14    7   26 1     
   15    8   19 ar    
   16    8    9 ar    
   17    9   10 ar    
   18    9   27 1     
   19   10   11 ar    
   20   10   28 1     
   21   11   12 1     
   22   11   18 ar    
   23   12   17 1     
   24   12   13 1     
   25   13   14 1     
   26   13   29 1     
   27   13   30 1     
   28   14   15 1     
   29   14   31 1     
   30   14   32 1     
   31   15   16 1     
   32   15   33 1     
   33   15   34 1     
   34   16   17 1     
   35   16   35 1     
   36   16   36 1     
   37   17   37 1     
   38   17   38 1     
   39   18   19 ar    
   40   18   40 1     
   41   19   39 1     
   42    6   41 1     
   43    6   42 1     
   44   12   43 1     
@<TRIPOS>SUBSTRUCTURE
      1 S1             1
@<TRIPOS>SET
LONE_PAIRS      STATIC     ATOMS    <user>   **** ""
3 41 42 43
DONOR_HYDROGENS      STATIC     ATOMS    <user>   **** ""
3 25 26 40
ATOM$BLUE        STATIC     ATOMS    COLORGROUP SYSTEM
3 41 42 43
ATOM$RED        STATIC     ATOMS    COLORGROUP SYSTEM
3 25 26 40
