AV-unprocessed.smi:2084|AV-procd|sdf|8514|dock5
  -GOLD-   2272011233D 1   1.00000     0.00000
 Structure written by MMmdl.
 39 40  0  0  0  0  0  0  0  0  2 V2000
  147.1509  139.1983  152.8499 C   0  0  0  0  0  0  0  0  0  0  0  0
  148.4426  139.6506  153.4376 N   0  3  0  0  0  0  0  0  0  0  0  0
  149.1875  138.4887  153.9879 C   0  0  0  0  0  0  0  0  0  0  0  0
  148.3771  140.8554  154.3439 C   0  0  0  0  0  0  0  0  0  0  0  0
  149.8227  141.3493  154.6712 C   0  0  0  0  0  0  0  0  0  0  0  0
  149.8838  142.3085  155.7754 N   0  0  0  0  0  0  0  0  0  0  0  0
  150.7397  142.2628  156.8065 C   0  0  0  0  0  0  0  0  0  0  0  0
  151.5945  141.3878  156.9419 O   0  0  0  0  0  0  0  0  0  0  0  0
  150.5407  143.2908  157.6466 N   0  0  0  0  0  0  0  0  0  0  0  0
  151.2407  143.5804  158.8440 C   0  0  0  0  0  0  0  0  0  0  0  0
  151.9340  142.6066  159.4365 N   0  0  0  0  0  0  0  0  0  0  0  0
  152.5673  143.0481  160.6021 C   0  0  0  0  0  0  0  0  0  0  0  0
  152.3450  144.3733  160.8829 C   0  0  0  0  0  0  0  0  0  0  0  0
  151.3231  145.1280  159.6897 S   0  0  0  0  0  0  0  0  0  0  0  0
  147.5752  142.0089  153.6661 C   0  0  0  0  0  0  0  0  0  0  0  0
  146.2676  142.1562  154.4477 C   0  0  0  0  0  0  0  0  0  0  0  0
  146.6271  141.7208  155.8631 C   0  0  0  0  0  0  0  0  0  0  0  0
  147.5991  140.5573  155.6591 C   0  0  0  0  0  0  0  0  0  0  0  0
  146.5088  138.7189  153.5879 H   0  0  0  0  0  0  0  0  0  0  0  0
  147.3416  138.4620  152.0684 H   0  0  0  0  0  0  0  0  0  0  0  0
  146.5835  139.9976  152.3783 H   0  0  0  0  0  0  0  0  0  0  0  0
  148.7930  138.1844  154.9577 H   0  0  0  0  0  0  0  0  0  0  0  0
  150.2506  138.7003  154.0924 H   0  0  0  0  0  0  0  0  0  0  0  0
  149.1175  137.6306  153.3183 H   0  0  0  0  0  0  0  0  0  0  0  0
  150.4531  140.5220  154.9942 H   0  0  0  0  0  0  0  0  0  0  0  0
  150.2876  141.7514  153.7694 H   0  0  0  0  0  0  0  0  0  0  0  0
  149.2190  143.0681  155.7506 H   0  0  0  0  0  0  0  0  0  0  0  0
  149.8071  143.9405  157.4050 H   0  0  0  0  0  0  0  0  0  0  0  0
  153.1597  142.3491  161.1737 H   0  0  0  0  0  0  0  0  0  0  0  0
  152.7188  144.9489  161.7168 H   0  0  0  0  0  0  0  0  0  0  0  0
  148.1067  142.9572  153.7281 H   0  0  0  0  0  0  0  0  0  0  0  0
  147.4072  141.8660  152.5990 H   0  0  0  0  0  0  0  0  0  0  0  0
  145.8692  143.1705  154.4097 H   0  0  0  0  0  0  0  0  0  0  0  0
  145.5092  141.4875  154.0394 H   0  0  0  0  0  0  0  0  0  0  0  0
  147.1261  142.5387  156.3845 H   0  0  0  0  0  0  0  0  0  0  0  0
  145.7527  141.4382  156.4499 H   0  0  0  0  0  0  0  0  0  0  0  0
  147.0195  139.6385  155.5942 H   0  0  0  0  0  0  0  0  0  0  0  0
  148.2564  140.4297  156.5200 H   0  0  0  0  0  0  0  0  0  0  0  0
  148.9870  139.9589  152.6443 H   0  0  0  0  0  0  0  0  0  0  0  0
  1  2  1  0  0  0  0
  1 19  1  0  0  0  0
  1 20  1  0  0  0  0
  1 21  1  0  0  0  0
  2  3  1  0  0  0  0
  2  4  1  0  0  0  0
  2 39  1  0  0  0  0
  3 22  1  0  0  0  0
  3 23  1  0  0  0  0
  3 24  1  0  0  0  0
  4 18  1  0  0  0  0
  4  5  1  0  0  0  0
  4 15  1  0  0  0  0
  5  6  1  0  0  0  0
  5 25  1  0  0  0  0
  5 26  1  0  0  0  0
  6  7  1  0  0  0  0
  6 27  1  0  0  0  0
  7  8  2  0  0  0  0
  7  9  1  0  0  0  0
  9 10  1  0  0  0  0
  9 28  1  0  0  0  0
 10 14  1  0  0  0  0
 10 11  2  0  0  0  0
 11 12  1  0  0  0  0
 12 13  2  0  0  0  0
 12 29  1  0  0  0  0
 13 14  1  0  0  0  0
 13 30  1  0  0  0  0
 15 16  1  0  0  0  0
 15 31  1  0  0  0  0
 15 32  1  0  0  0  0
 16 17  1  0  0  0  0
 16 33  1  0  0  0  0
 16 34  1  0  0  0  0
 17 18  1  0  0  0  0
 17 35  1  0  0  0  0
 17 36  1  0  0  0  0
 18 37  1  0  0  0  0
 18 38  1  0  0  0  0
M  CHG  1   2   1
M  END
> <s_m_source_file>
AV-unprocessed.smi

> <i_m_source_file_index>
2084

> <i_lp_mmshare_version>
43012

> <i_f3d_flags>
0

> <s_epik_input>
W0NIMl0xW0NIMl1bQ0gyXVtDSDJdQzEoTihbQ0gzXSlbQ0gzXSlbQ0gyXVtOSF1DKD1PKVtOSF1jMm5bY0hdW2NIXXMy

> <s_epik_cmdline>
J2VwaWtfcHl0aG9uJywgJy1waCcsICc3LjAnLCAnLXRuJywgJzgnLCAnLW1hJywgJzIwMCcsICctbWV0YWxfYmluZGluZycsICctaW1hZScsICc8aW5maWxlLm1hZT4nLCAnLW9tYWUnLCAnPG91dGZpbGUubWFlPic=

> <r_lp_tautomer_probability>
1

> <r_epik_Ionization_Penalty>
0.0027968

> <r_epik_Ionization_Penalty_Charging>
0.00256589

> <r_epik_Ionization_Penalty_Neutral>
0.000230907

> <r_epik_State_Penalty>
-0

> <r_epik_Charging_Adjusted_Penalty>
0.00256589

> <i_epik_Tot_Q>
1

> <i_epik_Tot_abs_Q>
1

> <r_epik_Metal_State_Penalty>
0.0129581

> <b_epik_Metal_Only>
0

> <s_lp_Force_Field>
OPLS_2005

> <r_lp_Energy>
35.9551

> <b_lp_Chiralities_Consistent>
1

> <s_lp_Variant>
AV-unprocessed.smi:2084-1

> <Gold.Version>
5.8.1

> <Gold.Id.Protein>
6NUR|6NUR_protein|mol2

> <Gold.PLP.Fitness>
44.1735

> <Gold.PLP.PLP>
-35.8022

> <Gold.PLP.part.hbond>
-3.0000

> <Gold.PLP.part.metal>
0.0000

> <Gold.PLP.part.buried>
-5.1114

> <Gold.PLP.part.nonpolar>
-27.9008

> <Gold.PLP.part.repulsive>
0.2326

> <Gold.PLP.ligand.clash>
0.0000

> <Gold.PLP.ligand.torsion>
0.3739

> <Gold.PLP.Chemscore.Hbond>
3.0000

> <Gold.PLP.Chemscore.CHOScore>
0.0000

> <Gold.PLP.Chemscore.Metal>
0.0000

> <Gold.Chemscore.Hbonds>
donor molecule, donor type, donor heavy atom, donor atom, acceptor molecule, acceptor atom, score
      L1  H     2    39       P1  7957  1.00
      L1  H     6    27       P1  8028  1.00
      L1  H     9    28       P1  8028  0.65

> <Gold.PLP.Chemscore.Internal.Correction>
0.1191

> <Gold.Rescore>
     Score         DG    S(hbond)    S(metal)    S(lipo)     H(rot)  DE(clash)    DE(int)     intcor
     16.94     -20.71       2.80        0.00      85.00       1.59       1.94       1.83       ----

> <Gold.Chemscore.Fitness>
16.9396

> <Gold.Chemscore.DG>
-20.7128

> <Gold.Chemscore.ZeroCoef>
-5.4800

> <Gold.Chemscore.Hbond>
2.7981

> <Gold.Chemscore.Metal>
0.0000

> <Gold.Chemscore.Lipo>
84.9984

> <Gold.Chemscore.Internal_Hbond>
0.0000

> <Gold.Chemscore.DEClash>
1.9420

> <Gold.Chemscore.DEInternal>
1.8311

> <Gold.Chemscore.Rot>
1.5850

> <Gold.Chemscore.Internal.Correction>
   9.000000E+99

> <Gold.Chemscore.Hbonds>
donor molecule, donor type, donor heavy atom, donor atom, acceptor molecule, acceptor atom, score
      L1  H     2    39       P1  7957  0.99
      L1  H     6    27       P1  8028  0.94
      L1  H     9    28       P1  8028  0.39

> <Gold.Chemscore.Hbond.Weighted>
-9.3457

> <Gold.Chemscore.Metal.Weighted>
-0.0000

> <Gold.Chemscore.Lipo.Weighted>
-9.9448

> <Gold.Chemscore.Internal_Hbond.Weighted>
0.0000

> <Gold.Chemscore.DEClash.Weighted>
1.9420

> <Gold.Chemscore.DEInternal.Weighted>
1.8311

> <Gold.Chemscore.Rot.Weighted>
4.0577

> <Gold.Chemscore.Internal.Correction.Weighted>
   9.000000E+99

> <Gold.Protein.RotatedTorsions>
[ 6907 6896 6895 6894 ] final -140.45 input  -60.11 | X-H torsion
[ 7974 7965 7964 7962 ] final -136.97 input  175.53 | X-H torsion
[ 8008 7997 7996 7995 ] final  104.70 input   59.86 | X-H torsion
[ 10167 10162 10161 10158 ] final  -19.23 input  -65.29 | X-H torsion
[ 10718 10713 10712 10709 ] final   99.42 input   66.30 | X-H torsion
[ 10763 10752 10751 10750 ] final   85.09 input  -60.55 | X-H torsion
[ 11005 11000 10999 10996 ] final  -56.70 input  -57.11 | X-H torsion

> <Gold.Protein.ActiveResidues>
 VAL166  LYS551  ARG553  GLY616  TRP617  ASP618  TYR619  PRO620  LYS621  CYS622 
 ASP623  PHE694  ASN695  SER759  ASP760  ASP761  ALA762  ILE779  LEU786  VAL792 
 PHE793  MET794  SER795  GLU796  ALA797  LYS798  CYS799  TRP800  GLU811  SER814 

> <Gold.Protein.RotatedAtoms>
  151.0609  133.5545  159.2634 H   0  0  0  0  0  0  0  0  0  0  0  0  # atno 6907 bound_to 6896
  151.2521  135.0625  159.9075 H   0  0  0  0  0  0  0  0  0  0  0  0  # atno 6908 bound_to 6896
  152.5397  134.0368  159.8103 H   0  0  0  0  0  0  0  0  0  0  0  0  # atno 6909 bound_to 6896
  144.8882  140.6604  143.5162 H   0  0  0  0  0  0  0  0  0  0  0  0  # atno 7974 bound_to 7965
  156.1596  140.3143  155.8784 H   0  0  0  0  0  0  0  0  0  0  0  0  # atno 8008 bound_to 7997
  155.3810  140.0487  157.3060 H   0  0  0  0  0  0  0  0  0  0  0  0  # atno 8009 bound_to 7997
  154.5133  140.2172  155.9124 H   0  0  0  0  0  0  0  0  0  0  0  0  # atno 8010 bound_to 7997
  140.7266  143.4839  151.0081 H   0  0  0  0  0  0  0  0  0  0  0  0  # atno 10167 bound_to 10162
  157.6876  131.0669  150.4946 H   0  0  0  0  0  0  0  0  0  0  0  0  # atno 10718 bound_to 10713
  153.1442  135.4630  154.9542 H   0  0  0  0  0  0  0  0  0  0  0  0  # atno 10763 bound_to 10752
  154.7773  135.3177  154.8068 H   0  0  0  0  0  0  0  0  0  0  0  0  # atno 10764 bound_to 10752
  153.8585  135.6915  153.4839 H   0  0  0  0  0  0  0  0  0  0  0  0  # atno 10765 bound_to 10752
  141.1132  133.6610  156.4659 H   0  0  0  0  0  0  0  0  0  0  0  0  # atno 11005 bound_to 11000
  145.3831  139.1632  143.4269 LP  0  0  0  0  0  0  0  0  0  0  0  0  # atno 17320 bound_to 7965
  146.3037  140.3914  142.8695 LP  0  0  0  0  0  0  0  0  0  0  0  0  # atno 17321 bound_to 7965
  139.8539  143.7402  152.3177 LP  0  0  0  0  0  0  0  0  0  0  0  0  # atno 17342 bound_to 10162
  139.7593  144.7511  151.0387 LP  0  0  0  0  0  0  0  0  0  0  0  0  # atno 17343 bound_to 10162
  156.5270  130.4175  149.6221 LP  0  0  0  0  0  0  0  0  0  0  0  0  # atno 17370 bound_to 10713
  156.3103  130.7225  151.2116 LP  0  0  0  0  0  0  0  0  0  0  0  0  # atno 17371 bound_to 10713
  140.4718  134.6746  157.5133 LP  0  0  0  0  0  0  0  0  0  0  0  0  # atno 17394 bound_to 11000
  140.0038  134.6796  155.9488 LP  0  0  0  0  0  0  0  0  0  0  0  0  # atno 17395 bound_to 11000

$$$$
