AV-unprocessed.smi:672|AV-procd|sdf|3293|dock9
  -GOLD-   22720 0253D 1   1.00000     0.00000
 Structure written by MMmdl.
 35 36  0  0  0  0  0  0  0  0  2 V2000
  150.4123  141.3528  157.8453 C   0  0  0  0  0  0  0  0  0  0  0  0
  150.7886  141.4740  156.3649 C   0  0  0  0  0  0  0  0  0  0  0  0
  151.1949  140.1677  155.7690 C   0  0  0  0  0  0  0  0  0  0  0  0
  152.4116  139.9485  155.2637 N   0  0  0  0  0  0  0  0  0  0  0  0
  152.5381  138.6694  154.7416 N   0  0  0  0  0  0  0  0  0  0  0  0
  151.4111  137.9495  154.8355 C   0  0  0  0  0  0  0  0  0  0  0  0
  151.3228  136.6867  154.3864 N   0  5  0  0  0  0  0  0  0  0  0  0
  150.5491  135.7906  155.0404 C   0  0  0  0  0  0  0  0  0  0  0  0
  150.7184  135.3812  156.1913 O   0  0  0  0  0  0  0  0  0  0  0  0
  149.5177  135.3361  154.3144 N   0  0  0  0  0  0  0  0  0  0  0  0
  148.5213  134.3642  154.7599 C   0  0  2  0  0  0  0  0  0  0  0  0
  149.1737  133.0498  155.2387 C   0  0  0  0  0  0  0  0  0  0  0  0
  148.4622  131.9221  154.4888 C   0  0  0  0  0  0  0  0  0  0  0  0
  148.0087  132.5661  153.1796 C   0  0  1  0  0  0  0  0  0  0  0  0
  146.6691  131.6550  152.3583 S   0  0  0  0  0  0  0  0  0  0  0  0
  146.3950  132.7172  150.9155 C   0  0  0  0  0  0  0  0  0  0  0  0
  147.5898  133.9771  153.5979 C   0  0  0  0  0  0  0  0  0  0  0  0
  150.0872  138.8144  155.6154 S   0  0  0  0  0  0  0  0  0  0  0  0
  150.1246  142.3214  158.2540 H   0  0  0  0  0  0  0  0  0  0  0  0
  151.2497  140.9773  158.4341 H   0  0  0  0  0  0  0  0  0  0  0  0
  149.5734  140.6698  157.9824 H   0  0  0  0  0  0  0  0  0  0  0  0
  149.9476  141.8749  155.7980 H   0  0  0  0  0  0  0  0  0  0  0  0
  151.6099  142.1815  156.2473 H   0  0  0  0  0  0  0  0  0  0  0  0
  149.4162  135.6979  153.3775 H   0  0  0  0  0  0  0  0  0  0  0  0
  147.9233  134.8054  155.5593 H   0  0  0  0  0  0  0  0  0  0  0  0
  150.2349  133.0315  154.9850 H   0  0  0  0  0  0  0  0  0  0  0  0
  149.1012  132.9274  156.3198 H   0  0  0  0  0  0  0  0  0  0  0  0
  149.1074  131.0573  154.3332 H   0  0  0  0  0  0  0  0  0  0  0  0
  147.5951  131.5927  155.0630 H   0  0  0  0  0  0  0  0  0  0  0  0
  148.8581  132.6390  152.4989 H   0  0  0  0  0  0  0  0  0  0  0  0
  145.5749  132.3264  150.3132 H   0  0  0  0  0  0  0  0  0  0  0  0
  147.2885  132.7587  150.2930 H   0  0  0  0  0  0  0  0  0  0  0  0
  146.1411  133.7295  151.2302 H   0  0  0  0  0  0  0  0  0  0  0  0
  146.5612  133.9613  153.9612 H   0  0  0  0  0  0  0  0  0  0  0  0
  147.6221  134.6807  152.7649 H   0  0  0  0  0  0  0  0  0  0  0  0
  1  2  1  0  0  0  0
  1 19  1  0  0  0  0
  1 20  1  0  0  0  0
  1 21  1  0  0  0  0
  2  3  1  0  0  0  0
  2 22  1  0  0  0  0
  2 23  1  0  0  0  0
  3 18  1  0  0  0  0
  3  4  2  0  0  0  0
  4  5  1  0  0  0  0
  5  6  2  0  0  0  0
  6  7  1  0  0  0  0
  6 18  1  0  0  0  0
  7  8  1  0  0  0  0
  8  9  2  0  0  0  0
  8 10  1  0  0  0  0
 10 11  1  0  0  0  0
 10 24  1  0  0  0  0
 11 17  1  0  0  0  0
 11 12  1  0  0  0  0
 11 25  1  0  0  0  0
 12 13  1  0  0  0  0
 12 26  1  0  0  0  0
 12 27  1  0  0  0  0
 13 14  1  0  0  0  0
 13 28  1  0  0  0  0
 13 29  1  0  0  0  0
 14 15  1  0  0  0  0
 14 17  1  0  0  0  0
 14 30  1  0  0  0  0
 15 16  1  0  0  0  0
 16 31  1  0  0  0  0
 16 32  1  0  0  0  0
 16 33  1  0  0  0  0
 17 34  1  0  0  0  0
 17 35  1  0  0  0  0
M  CHG  1   7  -1
M  END
> <s_m_source_file>
AV-unprocessed.smi

> <i_m_source_file_index>
672

> <i_lp_mmshare_version>
43012

> <i_f3d_flags>
0

> <s_epik_input>
W0NIM11bQ0gyXWMxbm5jKHMxKVtOSF1DKD1PKVtOSF1bQ0BASF0yW0NIMl1bQ0gyXVtDQEhdKFtDSDJdMilTW0NIM10=

> <s_epik_cmdline>
J2VwaWtfcHl0aG9uJywgJy1waCcsICc3LjAnLCAnLXRuJywgJzgnLCAnLW1hJywgJzIwMCcsICctbWV0YWxfYmluZGluZycsICctaW1hZScsICc8aW5maWxlLm1hZT4nLCAnLW9tYWUnLCAnPG91dGZpbGUubWFlPic=

> <r_lp_tautomer_probability>
1

> <r_epik_Ionization_Penalty>
4.49964

> <r_epik_Ionization_Penalty_Charging>
4.32991

> <r_epik_Ionization_Penalty_Neutral>
0.169727

> <r_epik_State_Penalty>
4.32952

> <r_epik_Charging_Adjusted_Penalty>
8.65943

> <i_epik_Tot_Q>
-1

> <i_epik_Tot_abs_Q>
1

> <r_epik_Metal_State_Penalty>
0.740482

> <b_epik_Metal_Only>
1

> <s_lp_Force_Field>
OPLS_2005

> <r_lp_Energy>
9.96547

> <b_lp_Chiralities_Consistent>
1

> <s_lp_Variant>
AV-unprocessed.smi:672-5

> <Gold.Version>
5.8.1

> <Gold.Id.Protein>
6NUR|6NUR_protein|mol2

> <Gold.PLP.Fitness>
40.4027

> <Gold.PLP.PLP>
-29.8296

> <Gold.PLP.part.hbond>
-4.0000

> <Gold.PLP.part.metal>
0.0000

> <Gold.PLP.part.buried>
-3.8350

> <Gold.PLP.part.nonpolar>
-23.6041

> <Gold.PLP.part.repulsive>
1.1402

> <Gold.PLP.ligand.clash>
0.0000

> <Gold.PLP.ligand.torsion>
0.8788

> <Gold.PLP.Chemscore.Hbond>
4.0931

> <Gold.PLP.Chemscore.CHOScore>
0.0000

> <Gold.PLP.Chemscore.Metal>
0.0000

> <Gold.Chemscore.Hbonds>
donor molecule, donor type, donor heavy atom, donor atom, acceptor molecule, acceptor atom, score
      L1  H    10    24       P1  7948  1.00
      P1  H  7989  7998       L1     4  0.13
      P1  H  7997  8010       L1     4  0.64
      P1  H 10752 10765       L1     7  2.00

> <Gold.PLP.Chemscore.Internal.Correction>
0.0515

> <Gold.Rescore>
     Score         DG    S(hbond)    S(metal)    S(lipo)     H(rot)  DE(clash)    DE(int)     intcor
     14.41     -15.34       2.26        0.00      48.97       1.34       0.05       0.88       ----

> <Gold.Chemscore.Fitness>
14.4147

> <Gold.Chemscore.DG>
-15.3396

> <Gold.Chemscore.ZeroCoef>
-5.4800

> <Gold.Chemscore.Hbond>
2.2645

> <Gold.Chemscore.Metal>
0.0000

> <Gold.Chemscore.Lipo>
48.9681

> <Gold.Chemscore.Internal_Hbond>
0.0000

> <Gold.Chemscore.DEClash>
0.0491

> <Gold.Chemscore.DEInternal>
0.8758

> <Gold.Chemscore.Rot>
1.3410

> <Gold.Chemscore.Internal.Correction>
   9.000000E+99

> <Gold.Chemscore.Hbonds>
donor molecule, donor type, donor heavy atom, donor atom, acceptor molecule, acceptor atom, score
      L1  H    10    24       P1  7948  0.25
      P1  H  7997  8010       L1     4  0.13
      P1  H 10752 10765       L1     7  0.29

> <Gold.Chemscore.Hbond.Weighted>
-7.5633

> <Gold.Chemscore.Metal.Weighted>
-0.0000

> <Gold.Chemscore.Lipo.Weighted>
-5.7293

> <Gold.Chemscore.Internal_Hbond.Weighted>
0.0000

> <Gold.Chemscore.DEClash.Weighted>
0.0491

> <Gold.Chemscore.DEInternal.Weighted>
0.8758

> <Gold.Chemscore.Rot.Weighted>
3.4329

> <Gold.Chemscore.Internal.Correction.Weighted>
   9.000000E+99

> <Gold.Protein.RotatedTorsions>
[ 6907 6896 6895 6894 ] final   38.31 input  -60.11 | X-H torsion
[ 7974 7965 7964 7962 ] final  108.92 input  175.53 | X-H torsion
[ 8008 7997 7996 7995 ] final  104.25 input   59.86 | X-H torsion
[ 10167 10162 10161 10158 ] final   93.49 input  -65.29 | X-H torsion
[ 10718 10713 10712 10709 ] final  144.02 input   66.30 | X-H torsion
[ 10763 10752 10751 10750 ] final  155.25 input  -60.55 | X-H torsion
[ 11005 11000 10999 10996 ] final   59.87 input  -57.11 | X-H torsion

> <Gold.Protein.ActiveResidues>
 VAL166  LYS551  ARG553  GLY616  TRP617  ASP618  TYR619  PRO620  LYS621  CYS622 
 ASP623  PHE694  ASN695  SER759  ASP760  ASP761  ALA762  ILE779  LEU786  VAL792 
 PHE793  MET794  SER795  GLU796  ALA797  LYS798  CYS799  TRP800  GLU811  SER814 

> <Gold.Protein.RotatedAtoms>
  152.1548  134.8959  160.0545 H   0  0  0  0  0  0  0  0  0  0  0  0  # atno 6907 bound_to 6896
  151.9977  133.3809  159.4178 H   0  0  0  0  0  0  0  0  0  0  0  0  # atno 6908 bound_to 6896
  150.6880  134.3790  159.5069 H   0  0  0  0  0  0  0  0  0  0  0  0  # atno 6909 bound_to 6896
  145.2744  139.2655  143.3949 H   0  0  0  0  0  0  0  0  0  0  0  0  # atno 7974 bound_to 7965
  156.1556  140.3151  155.8721 H   0  0  0  0  0  0  0  0  0  0  0  0  # atno 8008 bound_to 7997
  155.3884  140.0492  157.3058 H   0  0  0  0  0  0  0  0  0  0  0  0  # atno 8009 bound_to 7997
  154.5098  140.2160  155.9189 H   0  0  0  0  0  0  0  0  0  0  0  0  # atno 8010 bound_to 7997
  139.8175  144.6746  150.9562 H   0  0  0  0  0  0  0  0  0  0  0  0  # atno 10167 bound_to 10162
  157.3621  131.0966  151.0906 H   0  0  0  0  0  0  0  0  0  0  0  0  # atno 10718 bound_to 10713
  154.1654  135.2807  155.3097 H   0  0  0  0  0  0  0  0  0  0  0  0  # atno 10763 bound_to 10752
  154.6116  135.5497  153.7482 H   0  0  0  0  0  0  0  0  0  0  0  0  # atno 10764 bound_to 10752
  153.0180  135.6416  154.1795 H   0  0  0  0  0  0  0  0  0  0  0  0  # atno 10765 bound_to 10752
  140.0272  134.6065  155.9556 H   0  0  0  0  0  0  0  0  0  0  0  0  # atno 11005 bound_to 11000
  146.3236  140.3195  142.8632 LP  0  0  0  0  0  0  0  0  0  0  0  0  # atno 17320 bound_to 7965
  144.9307  140.7971  143.5691 LP  0  0  0  0  0  0  0  0  0  0  0  0  # atno 17321 bound_to 7965
  140.7815  143.4124  151.0971 LP  0  0  0  0  0  0  0  0  0  0  0  0  # atno 17342 bound_to 10162
  139.7787  143.8387  152.3134 LP  0  0  0  0  0  0  0  0  0  0  0  0  # atno 17343 bound_to 10162
  157.2042  130.6408  149.5750 LP  0  0  0  0  0  0  0  0  0  0  0  0  # atno 17370 bound_to 10713
  155.9739  130.4681  150.6347 LP  0  0  0  0  0  0  0  0  0  0  0  0  # atno 17371 bound_to 10713
  141.1810  133.6546  156.5020 LP  0  0  0  0  0  0  0  0  0  0  0  0  # atno 17394 bound_to 11000
  140.4286  134.7122  157.4929 LP  0  0  0  0  0  0  0  0  0  0  0  0  # atno 17395 bound_to 11000

$$$$
