AV-unprocessed.smi:1611|AV-procd|sdf|6474|dock8
  -GOLD-   22720 7133D 1   1.00000     0.00000
 Structure written by MMmdl.
 48 49  0  0  0  0  0  0  0  0  1 V2000
  151.1331  145.1707  160.4780 C   0  0  0  0  0  0  0  0  0  0  0  0
  151.9088  143.8650  160.4481 C   0  0  0  0  0  0  0  0  0  0  0  0
  152.6189  143.4666  161.5988 C   0  0  0  0  0  0  0  0  0  0  0  0
  153.3417  142.2610  161.6078 C   0  0  0  0  0  0  0  0  0  0  0  0
  153.3689  141.4434  160.4616 C   0  0  0  0  0  0  0  0  0  0  0  0
  154.1478  140.1412  160.4881 C   0  0  0  0  0  0  0  0  0  0  0  0
  152.6743  141.8425  159.2964 C   0  0  0  0  0  0  0  0  0  0  0  0
  152.7144  141.0420  158.1839 O   0  0  0  0  0  0  0  0  0  0  0  0
  151.6553  140.0972  158.1252 C   0  0  0  0  0  0  0  0  0  0  0  0
  151.6099  139.4881  156.7145 C   0  0  2  0  0  0  0  0  0  0  0  0
  152.9331  139.4900  156.2156 O   0  0  0  0  0  0  0  0  0  0  0  0
  150.7413  140.3285  155.7525 C   0  0  0  0  0  0  0  0  0  0  0  0
  149.3090  140.2020  156.0503 N   0  0  0  0  0  0  0  0  0  0  0  0
  149.0195  139.2622  157.0195 N   0  0  0  0  0  0  0  0  0  0  0  0
  147.8041  139.0368  157.3974 C   0  0  0  0  0  0  0  0  0  0  0  0
  147.6092  137.9890  158.4601 C   0  0  0  0  0  0  0  0  0  0  0  0
  146.7080  139.7873  156.7928 C   0  0  0  0  0  0  0  0  0  0  0  0
  145.2978  139.4795  157.2778 C   0  0  0  0  0  0  0  0  0  0  0  0
  147.0050  140.7054  155.8393 C   0  0  0  0  0  0  0  0  0  0  0  0
  145.9998  141.4822  155.1886 C   0  0  0  0  0  0  0  0  0  0  0  0
  145.1715  142.1080  154.6764 N   0  0  0  0  0  0  0  0  0  0  0  0
  148.3802  140.9667  155.4080 C   0  0  0  0  0  0  0  0  0  0  0  0
  148.6843  141.7983  154.5514 O   0  0  0  0  0  0  0  0  0  0  0  0
  151.9263  143.0469  159.2907 C   0  0  0  0  0  0  0  0  0  0  0  0
  151.1486  143.4602  158.0484 C   0  0  0  0  0  0  0  0  0  0  0  0
  151.3449  145.7378  161.3848 H   0  0  0  0  0  0  0  0  0  0  0  0
  150.0609  144.9751  160.4474 H   0  0  0  0  0  0  0  0  0  0  0  0
  151.3970  145.7971  159.6257 H   0  0  0  0  0  0  0  0  0  0  0  0
  152.6087  144.0837  162.4855 H   0  0  0  0  0  0  0  0  0  0  0  0
  153.8753  141.9665  162.4995 H   0  0  0  0  0  0  0  0  0  0  0  0
  153.5814  139.3416  160.0097 H   0  0  0  0  0  0  0  0  0  0  0  0
  154.3635  139.8311  161.5108 H   0  0  0  0  0  0  0  0  0  0  0  0
  155.0943  140.2564  159.9598 H   0  0  0  0  0  0  0  0  0  0  0  0
  151.8612  139.3168  158.8591 H   0  0  0  0  0  0  0  0  0  0  0  0
  150.6952  140.5403  158.3965 H   0  0  0  0  0  0  0  0  0  0  0  0
  151.2351  138.4656  156.7738 H   0  0  0  0  0  0  0  0  0  0  0  0
  153.2560  138.6021  156.2223 H   0  0  0  0  0  0  0  0  0  0  0  0
  151.0165  141.3820  155.8268 H   0  0  0  0  0  0  0  0  0  0  0  0
  150.9509  140.0602  154.7149 H   0  0  0  0  0  0  0  0  0  0  0  0
  146.9377  137.2041  158.1118 H   0  0  0  0  0  0  0  0  0  0  0  0
  147.1789  138.4276  159.3606 H   0  0  0  0  0  0  0  0  0  0  0  0
  148.5508  137.5150  158.7417 H   0  0  0  0  0  0  0  0  0  0  0  0
  144.5515  140.1236  156.8133 H   0  0  0  0  0  0  0  0  0  0  0  0
  145.2224  139.6210  158.3565 H   0  0  0  0  0  0  0  0  0  0  0  0
  145.0315  138.4477  157.0465 H   0  0  0  0  0  0  0  0  0  0  0  0
  151.0304  142.6389  157.3419 H   0  0  0  0  0  0  0  0  0  0  0  0
  151.6645  144.2734  157.5376 H   0  0  0  0  0  0  0  0  0  0  0  0
  150.1467  143.7992  158.3107 H   0  0  0  0  0  0  0  0  0  0  0  0
  1  2  1  0  0  0  0
  1 26  1  0  0  0  0
  1 27  1  0  0  0  0
  1 28  1  0  0  0  0
  2 24  1  0  0  0  0
  2  3  2  0  0  0  0
  3  4  1  0  0  0  0
  3 29  1  0  0  0  0
  4  5  2  0  0  0  0
  4 30  1  0  0  0  0
  5  6  1  0  0  0  0
  5  7  1  0  0  0  0
  6 31  1  0  0  0  0
  6 32  1  0  0  0  0
  6 33  1  0  0  0  0
  7  8  1  0  0  0  0
  7 24  2  0  0  0  0
  8  9  1  0  0  0  0
  9 10  1  0  0  0  0
  9 34  1  0  0  0  0
  9 35  1  0  0  0  0
 10 11  1  0  0  0  0
 10 12  1  0  0  0  0
 10 36  1  0  0  0  0
 11 37  1  0  0  0  0
 12 13  1  0  0  0  0
 12 38  1  0  0  0  0
 12 39  1  0  0  0  0
 13 22  1  0  0  0  0
 13 14  1  0  0  0  0
 14 15  2  0  0  0  0
 15 16  1  0  0  0  0
 15 17  1  0  0  0  0
 16 40  1  0  0  0  0
 16 41  1  0  0  0  0
 16 42  1  0  0  0  0
 17 18  1  0  0  0  0
 17 19  2  0  0  0  0
 18 43  1  0  0  0  0
 18 44  1  0  0  0  0
 18 45  1  0  0  0  0
 19 20  1  0  0  0  0
 19 22  1  0  0  0  0
 20 21  3  0  0  0  0
 22 23  2  0  0  0  0
 24 25  1  0  0  0  0
 25 46  1  0  0  0  0
 25 47  1  0  0  0  0
 25 48  1  0  0  0  0
M  END
> <s_m_source_file>
AV-unprocessed.smi

> <i_m_source_file_index>
1611

> <i_lp_mmshare_version>
43012

> <i_f3d_flags>
0

> <s_epik_input>
W0NIM11jMVtjSF1bY0hdYyhbQ0gzXSljKGMxW0NIM10pT1tDSDJdW0NASF0oW09IXSlbQ0gyXW4ybmMoW0NIM10pYyhbQ0gzXSljKEMjTiljMj1P

> <s_epik_cmdline>
J2VwaWtfcHl0aG9uJywgJy1waCcsICc3LjAnLCAnLXRuJywgJzgnLCAnLW1hJywgJzIwMCcsICctbWV0YWxfYmluZGluZycsICctaW1hZScsICc8aW5maWxlLm1hZT4nLCAnLW9tYWUnLCAnPG91dGZpbGUubWFlPic=

> <r_lp_tautomer_probability>
1

> <r_epik_Ionization_Penalty>
1.17331e-07

> <r_epik_Ionization_Penalty_Charging>
1.57223e-10

> <r_epik_Ionization_Penalty_Neutral>
1.17174e-07

> <r_epik_State_Penalty>
-0

> <r_epik_Charging_Adjusted_Penalty>
1.57223e-10

> <i_epik_Tot_Q>
0

> <i_epik_Tot_abs_Q>
0

> <r_epik_Metal_State_Penalty>
-0

> <b_epik_Metal_Only>
0

> <s_lp_Force_Field>
OPLS_2005

> <r_lp_Energy>
36.6232

> <b_lp_Chiralities_Consistent>
1

> <s_lp_Variant>
AV-unprocessed.smi:1611-1

> <Gold.Version>
5.8.1

> <Gold.Id.Protein>
6NUR|6NUR_protein|mol2

> <Gold.PLP.Fitness>
50.3838

> <Gold.PLP.PLP>
-47.8030

> <Gold.PLP.part.hbond>
-3.4581

> <Gold.PLP.part.metal>
0.0000

> <Gold.PLP.part.buried>
-2.3790

> <Gold.PLP.part.nonpolar>
-42.7351

> <Gold.PLP.part.repulsive>
0.4378

> <Gold.PLP.ligand.clash>
0.0000

> <Gold.PLP.ligand.torsion>
0.8621

> <Gold.PLP.Chemscore.Hbond>
1.4000

> <Gold.PLP.Chemscore.CHOScore>
0.0000

> <Gold.PLP.Chemscore.Metal>
0.0000

> <Gold.Chemscore.Hbonds>
donor molecule, donor type, donor heavy atom, donor atom, acceptor molecule, acceptor atom, score
      P1  H  7997  8009       L1    11  0.75

> <Gold.PLP.Chemscore.Internal.Correction>
0.1049

> <Gold.Rescore>
     Score         DG    S(hbond)    S(metal)    S(lipo)     H(rot)  DE(clash)    DE(int)     intcor
     16.94     -19.17       1.69        0.00     118.35       2.27       0.32       1.92       ----

> <Gold.Chemscore.Fitness>
16.9372

> <Gold.Chemscore.DG>
-19.1749

> <Gold.Chemscore.ZeroCoef>
-5.4800

> <Gold.Chemscore.Hbond>
1.6947

> <Gold.Chemscore.Metal>
0.0000

> <Gold.Chemscore.Lipo>
118.3520

> <Gold.Chemscore.Internal_Hbond>
0.0000

> <Gold.Chemscore.DEClash>
0.3203

> <Gold.Chemscore.DEInternal>
1.9175

> <Gold.Chemscore.Rot>
2.2706

> <Gold.Chemscore.Internal.Correction>
   9.000000E+99

> <Gold.Chemscore.Hbonds>
donor molecule, donor type, donor heavy atom, donor atom, acceptor molecule, acceptor atom, score
      P1  H  7997  8009       L1    11  0.09

> <Gold.Chemscore.Hbond.Weighted>
-5.6604

> <Gold.Chemscore.Metal.Weighted>
-0.0000

> <Gold.Chemscore.Lipo.Weighted>
-13.8472

> <Gold.Chemscore.Internal_Hbond.Weighted>
0.0000

> <Gold.Chemscore.DEClash.Weighted>
0.3203

> <Gold.Chemscore.DEInternal.Weighted>
1.9175

> <Gold.Chemscore.Rot.Weighted>
5.8127

> <Gold.Chemscore.Internal.Correction.Weighted>
   9.000000E+99

> <Gold.Protein.RotatedTorsions>
[ 6907 6896 6895 6894 ] final   62.03 input  -60.11 | X-H torsion
[ 7974 7965 7964 7962 ] final   -7.50 input  175.53 | X-H torsion
[ 8008 7997 7996 7995 ] final -153.73 input   59.86 | X-H torsion
[ 10167 10162 10161 10158 ] final  105.84 input  -65.29 | X-H torsion
[ 10718 10713 10712 10709 ] final  -33.60 input   66.30 | X-H torsion
[ 10763 10752 10751 10750 ] final  -24.81 input  -60.55 | X-H torsion
[ 11005 11000 10999 10996 ] final   63.09 input  -57.11 | X-H torsion

> <Gold.Protein.ActiveResidues>
 VAL166  LYS551  ARG553  GLY616  TRP617  ASP618  TYR619  PRO620  LYS621  CYS622 
 ASP623  PHE694  ASN695  SER759  ASP760  ASP761  ALA762  ILE779  LEU786  VAL792 
 PHE793  MET794  SER795  GLU796  ALA797  LYS798  CYS799  TRP800  GLU811  SER814 

> <Gold.Protein.RotatedAtoms>
  152.4138  134.6077  160.0016 H   0  0  0  0  0  0  0  0  0  0  0  0  # atno 6907 bound_to 6896
  151.6246  133.3331  159.3103 H   0  0  0  0  0  0  0  0  0  0  0  0  # atno 6908 bound_to 6896
  150.8028  134.7173  159.6682 H   0  0  0  0  0  0  0  0  0  0  0  0  # atno 6909 bound_to 6896
  146.2305  140.2329  142.8341 H   0  0  0  0  0  0  0  0  0  0  0  0  # atno 7974 bound_to 7965
  155.6754  140.0738  157.2504 H   0  0  0  0  0  0  0  0  0  0  0  0  # atno 8008 bound_to 7997
  154.4115  140.1691  156.1976 H   0  0  0  0  0  0  0  0  0  0  0  0  # atno 8009 bound_to 7997
  155.9581  140.3372  155.6469 H   0  0  0  0  0  0  0  0  0  0  0  0  # atno 8010 bound_to 7997
  139.7059  144.7086  151.1108 H   0  0  0  0  0  0  0  0  0  0  0  0  # atno 10167 bound_to 10162
  156.3607  130.4323  149.7626 H   0  0  0  0  0  0  0  0  0  0  0  0  # atno 10718 bound_to 10713
  153.6898  135.6962  153.5093 H   0  0  0  0  0  0  0  0  0  0  0  0  # atno 10763 bound_to 10752
  153.2422  135.4302  155.0709 H   0  0  0  0  0  0  0  0  0  0  0  0  # atno 10764 bound_to 10752
  154.8376  135.3510  154.6440 H   0  0  0  0  0  0  0  0  0  0  0  0  # atno 10765 bound_to 10752
  140.0048  134.6386  155.9873 H   0  0  0  0  0  0  0  0  0  0  0  0  # atno 11005 bound_to 11000
  144.9544  140.8211  143.5552 LP  0  0  0  0  0  0  0  0  0  0  0  0  # atno 17320 bound_to 7965
  145.2293  139.2122  143.5051 LP  0  0  0  0  0  0  0  0  0  0  0  0  # atno 17321 bound_to 7965
  140.7721  143.5360  150.9368 LP  0  0  0  0  0  0  0  0  0  0  0  0  # atno 17342 bound_to 10162
  139.9043  143.6798  152.3126 LP  0  0  0  0  0  0  0  0  0  0  0  0  # atno 17343 bound_to 10162
  156.4791  130.8032  151.3047 LP  0  0  0  0  0  0  0  0  0  0  0  0  # atno 17370 bound_to 10713
  157.7473  131.0011  150.2952 LP  0  0  0  0  0  0  0  0  0  0  0  0  # atno 17371 bound_to 10713
  141.1669  133.6537  156.4510 LP  0  0  0  0  0  0  0  0  0  0  0  0  # atno 17394 bound_to 11000
  140.4661  134.6796  157.5108 LP  0  0  0  0  0  0  0  0  0  0  0  0  # atno 17395 bound_to 11000

$$$$
