AV-unprocessed.smi:2424|AV-procd|sdf|9560|dock4
  -GOLD-   2272013193D 1   1.00000     0.00000
 Structure written by MMmdl.
 50 51  0  0  0  0  0  0  0  0  1 V2000
  147.6000  138.1363  157.8804 C   0  0  0  0  0  0  0  0  0  0  0  0
  146.7997  138.1893  156.5692 C   0  0  0  0  0  0  0  0  0  0  0  0
  147.6017  138.6334  155.3241 C   0  0  0  0  0  0  0  0  0  0  0  0
  148.8598  137.7351  155.1882 C   0  0  0  0  0  0  0  0  0  0  0  0
  150.0090  138.3350  154.3612 C   0  0  0  0  0  0  0  0  0  0  0  0
  146.7467  138.8328  154.0434 C   0  0  2  0  0  0  0  0  0  0  0  0
  146.8847  137.7685  153.0525 N   0  0  0  0  0  0  0  0  0  0  0  0
  145.9200  136.9064  152.7053 C   0  0  0  0  0  0  0  0  0  0  0  0
  144.7850  136.9364  153.1790 O   0  0  0  0  0  0  0  0  0  0  0  0
  146.3703  136.0322  151.7872 N   0  0  0  0  0  0  0  0  0  0  0  0
  145.7047  134.9517  151.1915 C   0  0  0  0  0  0  0  0  0  0  0  0
  144.5618  135.2084  150.5321 C   0  0  0  0  0  0  0  0  0  0  0  0
  143.8329  134.1946  149.9062 N   0  0  0  0  0  0  0  0  0  0  0  0
  144.1953  132.8919  149.8979 C   0  0  0  0  0  0  0  0  0  0  0  0
  143.4984  132.0553  149.3264 O   0  0  0  0  0  0  0  0  0  0  0  0
  145.4493  132.5794  150.6026 C   0  0  0  0  0  0  0  0  0  0  0  0
  145.9178  131.1350  150.6173 C   0  0  0  0  0  0  0  0  0  0  0  0
  146.1535  133.5628  151.2099 C   0  0  0  0  0  0  0  0  0  0  0  0
  147.5816  140.0669  153.6914 C   0  0  1  0  0  0  0  0  0  0  0  0
  146.9344  141.2406  152.9668 C   0  0  0  0  0  0  0  0  0  0  0  0
  147.8926  140.1588  155.1939 C   0  0  1  0  0  0  0  0  0  0  0  0
  146.9436  140.9920  155.8500 O   0  0  0  0  0  0  0  0  0  0  0  0
  147.2020  141.1393  157.2362 C   0  0  0  0  0  0  0  0  0  0  0  0
  142.9811  134.4647  149.4359 H   0  0  0  0  0  0  0  0  0  0  0  0
  146.9858  137.7300  158.6839 H   0  0  0  0  0  0  0  0  0  0  0  0
  147.9313  139.1237  158.1994 H   0  0  0  0  0  0  0  0  0  0  0  0
  148.4768  137.4972  157.7874 H   0  0  0  0  0  0  0  0  0  0  0  0
  146.4015  137.1876  156.4074 H   0  0  0  0  0  0  0  0  0  0  0  0
  145.9199  138.8148  156.7119 H   0  0  0  0  0  0  0  0  0  0  0  0
  149.2414  137.4479  156.1675 H   0  0  0  0  0  0  0  0  0  0  0  0
  148.5910  136.7902  154.7163 H   0  0  0  0  0  0  0  0  0  0  0  0
  150.7975  137.5965  154.2159 H   0  0  0  0  0  0  0  0  0  0  0  0
  150.4638  139.1914  154.8580 H   0  0  0  0  0  0  0  0  0  0  0  0
  149.6740  138.6545  153.3746 H   0  0  0  0  0  0  0  0  0  0  0  0
  145.7150  139.1084  154.2748 H   0  0  0  0  0  0  0  0  0  0  0  0
  147.7872  137.6759  152.6101 H   0  0  0  0  0  0  0  0  0  0  0  0
  147.3228  136.1619  151.4795 H   0  0  0  0  0  0  0  0  0  0  0  0
  144.1196  136.1895  150.4356 H   0  0  0  0  0  0  0  0  0  0  0  0
  146.8586  131.0258  151.1577 H   0  0  0  0  0  0  0  0  0  0  0  0
  146.0699  130.7734  149.5999 H   0  0  0  0  0  0  0  0  0  0  0  0
  145.1758  130.4989  151.1012 H   0  0  0  0  0  0  0  0  0  0  0  0
  147.0700  133.2832  151.7022 H   0  0  0  0  0  0  0  0  0  0  0  0
  148.4910  139.7666  153.1678 H   0  0  0  0  0  0  0  0  0  0  0  0
  145.9863  141.5234  153.4247 H   0  0  0  0  0  0  0  0  0  0  0  0
  146.7322  140.9930  151.9248 H   0  0  0  0  0  0  0  0  0  0  0  0
  147.5823  142.1172  152.9792 H   0  0  0  0  0  0  0  0  0  0  0  0
  148.9271  140.4545  155.3764 H   0  0  0  0  0  0  0  0  0  0  0  0
  146.4170  141.7418  157.6928 H   0  0  0  0  0  0  0  0  0  0  0  0
  148.1534  141.6456  157.4029 H   0  0  0  0  0  0  0  0  0  0  0  0
  147.2279  140.1765  157.7466 H   0  0  0  0  0  0  0  0  0  0  0  0
  1  2  1  0  0  0  0
  1 25  1  0  0  0  0
  1 26  1  0  0  0  0
  1 27  1  0  0  0  0
  2  3  1  0  0  0  0
  2 28  1  0  0  0  0
  2 29  1  0  0  0  0
  3 21  1  0  0  0  0
  3  4  1  0  0  0  0
  3  6  1  0  0  0  0
  4  5  1  0  0  0  0
  4 30  1  0  0  0  0
  4 31  1  0  0  0  0
  5 32  1  0  0  0  0
  5 33  1  0  0  0  0
  5 34  1  0  0  0  0
  6  7  1  0  0  0  0
  6 19  1  0  0  0  0
  6 35  1  0  0  0  0
  7  8  1  0  0  0  0
  7 36  1  0  0  0  0
  8  9  2  0  0  0  0
  8 10  1  0  0  0  0
 10 11  1  0  0  0  0
 10 37  1  0  0  0  0
 11 18  1  0  0  0  0
 11 12  2  0  0  0  0
 12 13  1  0  0  0  0
 12 38  1  0  0  0  0
 13 24  1  0  0  0  0
 13 14  1  0  0  0  0
 14 15  2  0  0  0  0
 14 16  1  0  0  0  0
 16 17  1  0  0  0  0
 16 18  2  0  0  0  0
 17 39  1  0  0  0  0
 17 40  1  0  0  0  0
 17 41  1  0  0  0  0
 18 42  1  0  0  0  0
 19 20  1  0  0  0  0
 19 21  1  0  0  0  0
 19 43  1  0  0  0  0
 20 44  1  0  0  0  0
 20 45  1  0  0  0  0
 20 46  1  0  0  0  0
 21 22  1  0  0  0  0
 21 47  1  0  0  0  0
 22 23  1  0  0  0  0
 23 48  1  0  0  0  0
 23 49  1  0  0  0  0
 23 50  1  0  0  0  0
M  END
> <s_m_source_file>
AV-unprocessed.smi

> <i_m_source_file_index>
2424

> <i_lp_mmshare_version>
43012

> <i_f3d_flags>
0

> <s_epik_input>
W0NIM11PW0NAQEhdMVtDQEhdKFtDSDNdKVtDQEBIXShDMShbQ0gyXVtDSDNdKVtDSDJdW0NIM10pW05IXUMoPU8pW05IXWMyW2NIXVtuSF1jKD1PKWMoW0NIM10pW2NIXTI=

> <s_epik_cmdline>
J2VwaWtfcHl0aG9uJywgJy1waCcsICc3LjAnLCAnLXRuJywgJzgnLCAnLW1hJywgJzIwMCcsICctbWV0YWxfYmluZGluZycsICctaW1hZScsICc8aW5maWxlLm1hZT4nLCAnLW9tYWUnLCAnPG91dGZpbGUubWFlPic=

> <r_lp_tautomer_probability>
1

> <r_epik_Ionization_Penalty>
4.7326e-05

> <r_epik_Ionization_Penalty_Charging>
2.70169e-05

> <r_epik_Ionization_Penalty_Neutral>
2.0309e-05

> <r_epik_State_Penalty>
-0

> <r_epik_Charging_Adjusted_Penalty>
2.70169e-05

> <i_epik_Tot_Q>
0

> <i_epik_Tot_abs_Q>
0

> <r_epik_Metal_State_Penalty>
0.0198736

> <b_epik_Metal_Only>
0

> <s_lp_Force_Field>
OPLS_2005

> <r_lp_Energy>
37.5965

> <b_lp_Chiralities_Consistent>
1

> <s_lp_Variant>
AV-unprocessed.smi:2424-2

> <Gold.Version>
5.8.1

> <Gold.Id.Protein>
6NUR|6NUR_protein|mol2

> <Gold.PLP.Fitness>
42.1667

> <Gold.PLP.PLP>
-30.1212

> <Gold.PLP.part.hbond>
-4.2205

> <Gold.PLP.part.metal>
0.0000

> <Gold.PLP.part.buried>
-6.5803

> <Gold.PLP.part.nonpolar>
-21.1071

> <Gold.PLP.part.repulsive>
0.6169

> <Gold.PLP.ligand.clash>
0.0000

> <Gold.PLP.ligand.torsion>
1.3039

> <Gold.PLP.Chemscore.Hbond>
3.6473

> <Gold.PLP.Chemscore.CHOScore>
1.0000

> <Gold.PLP.Chemscore.Metal>
0.0000

> <Gold.Chemscore.Hbonds>
donor molecule, donor type, donor heavy atom, donor atom, acceptor molecule, acceptor atom, score
      L1  H     7    36       P1  7948  0.78
      L1  H    10    37       P1  7948  1.00
      L1  H    13    24       P1 10186  0.90
      P1  H 10785 10796       L1    15  0.98
      L1  C    12    38       P1 10171  1.00

> <Gold.PLP.Chemscore.Internal.Correction>
0.7114

> <Gold.Rescore>
     Score         DG    S(hbond)    S(metal)    S(lipo)     H(rot)  DE(clash)    DE(int)     intcor
     20.16     -22.36       3.78        0.00      70.21       1.55       0.44       1.76       ----

> <Gold.Chemscore.Fitness>
20.1571

> <Gold.Chemscore.DG>
-22.3563

> <Gold.Chemscore.ZeroCoef>
-5.4800

> <Gold.Chemscore.Hbond>
3.7815

> <Gold.Chemscore.Metal>
0.0000

> <Gold.Chemscore.Lipo>
70.2094

> <Gold.Chemscore.Internal_Hbond>
0.0000

> <Gold.Chemscore.DEClash>
0.4396

> <Gold.Chemscore.DEInternal>
1.7596

> <Gold.Chemscore.Rot>
1.5502

> <Gold.Chemscore.Internal.Correction>
   9.000000E+99

> <Gold.Chemscore.Hbonds>
donor molecule, donor type, donor heavy atom, donor atom, acceptor molecule, acceptor atom, score
      L1  H     7    36       P1  7948  0.77
      L1  H    10    37       P1  7948  0.95
      L1  H    13    24       P1 10186  0.86
      P1  H 10785 10796       L1    15  0.88

> <Gold.Chemscore.Hbond.Weighted>
-12.6303

> <Gold.Chemscore.Metal.Weighted>
-0.0000

> <Gold.Chemscore.Lipo.Weighted>
-8.2145

> <Gold.Chemscore.Internal_Hbond.Weighted>
0.0000

> <Gold.Chemscore.DEClash.Weighted>
0.4396

> <Gold.Chemscore.DEInternal.Weighted>
1.7596

> <Gold.Chemscore.Rot.Weighted>
3.9685

> <Gold.Chemscore.Internal.Correction.Weighted>
   9.000000E+99

> <Gold.Protein.RotatedTorsions>
[ 6907 6896 6895 6894 ] final -119.32 input  -60.11 | X-H torsion
[ 7974 7965 7964 7962 ] final  -48.02 input  175.53 | X-H torsion
[ 8008 7997 7996 7995 ] final   56.93 input   59.86 | X-H torsion
[ 10167 10162 10161 10158 ] final  106.94 input  -65.29 | X-H torsion
[ 10718 10713 10712 10709 ] final -179.97 input   66.30 | X-H torsion
[ 10763 10752 10751 10750 ] final  -86.84 input  -60.55 | X-H torsion
[ 11005 11000 10999 10996 ] final   56.70 input  -57.11 | X-H torsion

> <Gold.Protein.ActiveResidues>
 VAL166  LYS551  ARG553  GLY616  TRP617  ASP618  TYR619  PRO620  LYS621  CYS622 
 ASP623  PHE694  ASN695  SER759  ASP760  ASP761  ALA762  ILE779  LEU786  VAL792 
 PHE793  MET794  SER795  GLU796  ALA797  LYS798  CYS799  TRP800  GLU811  SER814 

> <Gold.Protein.RotatedAtoms>
  150.8295  133.8115  159.3104 H   0  0  0  0  0  0  0  0  0  0  0  0  # atno 6907 bound_to 6896
  151.5850  135.1055  160.0035 H   0  0  0  0  0  0  0  0  0  0  0  0  # atno 6908 bound_to 6896
  152.4376  133.7347  159.6664 H   0  0  0  0  0  0  0  0  0  0  0  0  # atno 6909 bound_to 6896
  145.9555  140.7530  142.9483 H   0  0  0  0  0  0  0  0  0  0  0  0  # atno 7974 bound_to 7965
  155.5255  140.3481  155.4415 H   0  0  0  0  0  0  0  0  0  0  0  0  # atno 8008 bound_to 7997
  156.0755  140.1373  156.9804 H   0  0  0  0  0  0  0  0  0  0  0  0  # atno 8009 bound_to 7997
  154.4551  140.0957  156.6708 H   0  0  0  0  0  0  0  0  0  0  0  0  # atno 8010 bound_to 7997
  139.6968  144.7100  151.1253 H   0  0  0  0  0  0  0  0  0  0  0  0  # atno 10167 bound_to 10162
  156.8670  130.9771  151.3077 H   0  0  0  0  0  0  0  0  0  0  0  0  # atno 10718 bound_to 10713
  154.6270  135.5434  153.7638 H   0  0  0  0  0  0  0  0  0  0  0  0  # atno 10763 bound_to 10752
  153.0266  135.6426  154.1357 H   0  0  0  0  0  0  0  0  0  0  0  0  # atno 10764 bound_to 10752
  154.1289  135.2915  155.3170 H   0  0  0  0  0  0  0  0  0  0  0  0  # atno 10765 bound_to 10752
  140.0509  134.5738  155.9265 H   0  0  0  0  0  0  0  0  0  0  0  0  # atno 11005 bound_to 11000
  144.6804  140.2505  143.7332 LP  0  0  0  0  0  0  0  0  0  0  0  0  # atno 17320 bound_to 7965
  145.8112  139.2004  143.1992 LP  0  0  0  0  0  0  0  0  0  0  0  0  # atno 17321 bound_to 7965
  140.7698  143.5480  150.9236 LP  0  0  0  0  0  0  0  0  0  0  0  0  # atno 17342 bound_to 10162
  139.9160  143.6663  152.3106 LP  0  0  0  0  0  0  0  0  0  0  0  0  # atno 17343 bound_to 10162
  157.6218  130.8660  149.9121 LP  0  0  0  0  0  0  0  0  0  0  0  0  # atno 17370 bound_to 10713
  156.0746  130.3680  150.0703 LP  0  0  0  0  0  0  0  0  0  0  0  0  # atno 17371 bound_to 10713
  141.1930  133.6577  156.5526 LP  0  0  0  0  0  0  0  0  0  0  0  0  # atno 17394 bound_to 11000
  140.3919  134.7433  157.4727 LP  0  0  0  0  0  0  0  0  0  0  0  0  # atno 17395 bound_to 11000

$$$$
