AV-unprocessed.smi:2348|AV-procd|sdf|9370|dock5
  -GOLD-   2272012593D 1   1.00000     0.00000
 Structure written by MMmdl.
 28 29  0  0  0  0  0  0  0  0  1 V2000
  151.4189  137.7133  154.5282 C   0  0  0  0  0  0  0  0  0  0  0  0
  152.1409  138.3468  155.5806 O   0  0  0  0  0  0  0  0  0  0  0  0
  151.7967  139.6047  155.9458 C   0  0  0  0  0  0  0  0  0  0  0  0
  150.9516  140.2027  155.0974 N   0  0  0  0  0  0  0  0  0  0  0  0
  150.6247  141.4415  155.4787 C   0  0  0  0  0  0  0  0  0  0  0  0
  149.7592  142.1203  154.6560 N   0  0  0  0  0  0  0  0  0  0  0  0
  151.0416  142.0968  156.5670 N   0  0  0  0  0  0  0  0  0  0  0  0
  151.8812  141.3722  157.3159 C   0  0  0  0  0  0  0  0  0  0  0  0
  152.3495  141.9913  158.4604 N   0  0  0  0  0  0  0  0  0  0  0  0
  152.1046  143.4232  158.5771 C   0  0  0  0  0  0  0  0  0  0  0  0
  152.9439  144.0168  159.7215 C   0  0  0  0  0  0  0  0  0  0  0  0
  152.6625  143.3198  160.9314 O   0  0  0  0  0  0  0  0  0  0  0  0
  152.9852  141.9359  160.8348 C   0  0  0  0  0  0  0  0  0  0  0  0
  152.1459  141.2877  159.7203 C   0  0  0  0  0  0  0  0  0  0  0  0
  152.3071  140.1237  157.0763 N   0  0  0  0  0  0  0  0  0  0  0  0
  151.8239  136.7150  154.3636 H   0  0  0  0  0  0  0  0  0  0  0  0
  151.5104  138.2656  153.5917 H   0  0  0  0  0  0  0  0  0  0  0  0
  150.3623  137.6044  154.7776 H   0  0  0  0  0  0  0  0  0  0  0  0
  149.4046  141.6851  153.8168 H   0  0  0  0  0  0  0  0  0  0  0  0
  149.4629  143.0573  154.8880 H   0  0  0  0  0  0  0  0  0  0  0  0
  152.3506  143.9182  157.6368 H   0  0  0  0  0  0  0  0  0  0  0  0
  151.0434  143.5941  158.7634 H   0  0  0  0  0  0  0  0  0  0  0  0
  154.0094  143.9566  159.4934 H   0  0  0  0  0  0  0  0  0  0  0  0
  152.7056  145.0720  159.8551 H   0  0  0  0  0  0  0  0  0  0  0  0
  154.0518  141.8126  160.6396 H   0  0  0  0  0  0  0  0  0  0  0  0
  152.7783  141.4547  161.7906 H   0  0  0  0  0  0  0  0  0  0  0  0
  151.0878  141.3160  159.9840 H   0  0  0  0  0  0  0  0  0  0  0  0
  152.4219  140.2386  159.6063 H   0  0  0  0  0  0  0  0  0  0  0  0
  1  2  1  0  0  0  0
  1 16  1  0  0  0  0
  1 17  1  0  0  0  0
  1 18  1  0  0  0  0
  2  3  1  0  0  0  0
  3 15  1  0  0  0  0
  3  4  2  0  0  0  0
  4  5  1  0  0  0  0
  5  6  1  0  0  0  0
  5  7  2  0  0  0  0
  6 19  1  0  0  0  0
  6 20  1  0  0  0  0
  7  8  1  0  0  0  0
  8  9  1  0  0  0  0
  8 15  2  0  0  0  0
  9 14  1  0  0  0  0
  9 10  1  0  0  0  0
 10 11  1  0  0  0  0
 10 21  1  0  0  0  0
 10 22  1  0  0  0  0
 11 12  1  0  0  0  0
 11 23  1  0  0  0  0
 11 24  1  0  0  0  0
 12 13  1  0  0  0  0
 13 14  1  0  0  0  0
 13 25  1  0  0  0  0
 13 26  1  0  0  0  0
 14 27  1  0  0  0  0
 14 28  1  0  0  0  0
M  END
> <s_m_source_file>
AV-unprocessed.smi

> <i_m_source_file_index>
2348

> <i_lp_mmshare_version>
43012

> <i_f3d_flags>
0

> <s_epik_input>
W0NIM11PYzFuYyhbTkgyXSluYyhuMSlOMltDSDJdW0NIMl1PW0NIMl1bQ0gyXTI=

> <s_epik_cmdline>
J2VwaWtfcHl0aG9uJywgJy1waCcsICc3LjAnLCAnLXRuJywgJzgnLCAnLW1hJywgJzIwMCcsICctbWV0YWxfYmluZGluZycsICctaW1hZScsICc8aW5maWxlLm1hZT4nLCAnLW9tYWUnLCAnPG91dGZpbGUubWFlPic=

> <r_lp_tautomer_probability>
1

> <r_epik_Ionization_Penalty>
1.97915e-06

> <r_epik_Ionization_Penalty_Charging>
0

> <r_epik_Ionization_Penalty_Neutral>
1.97915e-06

> <r_epik_State_Penalty>
-0

> <r_epik_Charging_Adjusted_Penalty>
0

> <i_epik_Tot_Q>
0

> <i_epik_Tot_abs_Q>
0

> <r_epik_Metal_State_Penalty>
-0

> <b_epik_Metal_Only>
0

> <s_lp_Force_Field>
OPLS_2005

> <r_lp_Energy>
10.0664

> <b_lp_Chiralities_Consistent>
1

> <s_lp_Variant>
AV-unprocessed.smi:2348-1

> <Gold.Version>
5.8.1

> <Gold.Id.Protein>
6NUR|6NUR_protein|mol2

> <Gold.PLP.Fitness>
37.1784

> <Gold.PLP.PLP>
-28.4703

> <Gold.PLP.part.hbond>
-3.0000

> <Gold.PLP.part.metal>
0.0000

> <Gold.PLP.part.buried>
-5.3273

> <Gold.PLP.part.nonpolar>
-20.1395

> <Gold.PLP.part.repulsive>
0.4072

> <Gold.PLP.ligand.clash>
0.0000

> <Gold.PLP.ligand.torsion>
0.2748

> <Gold.PLP.Chemscore.Hbond>
2.9913

> <Gold.PLP.Chemscore.CHOScore>
0.0000

> <Gold.PLP.Chemscore.Metal>
0.0000

> <Gold.Chemscore.Hbonds>
donor molecule, donor type, donor heavy atom, donor atom, acceptor molecule, acceptor atom, score
      L1  H     6    20       P1  8028  1.00
      P1  H  7989  7998       L1     4  0.50
      P1  H  7997  8008       L1    15  0.66

> <Gold.PLP.Chemscore.Internal.Correction>
0.2839

> <Gold.Rescore>
     Score         DG    S(hbond)    S(metal)    S(lipo)     H(rot)  DE(clash)    DE(int)     intcor
     12.53     -12.89       1.45        0.00      52.16       1.38       0.03       0.33       ----

> <Gold.Chemscore.Fitness>
12.5334

> <Gold.Chemscore.DG>
-12.8919

> <Gold.Chemscore.ZeroCoef>
-5.4800

> <Gold.Chemscore.Hbond>
1.4528

> <Gold.Chemscore.Metal>
0.0000

> <Gold.Chemscore.Lipo>
52.1558

> <Gold.Chemscore.Internal_Hbond>
0.0000

> <Gold.Chemscore.DEClash>
0.0305

> <Gold.Chemscore.DEInternal>
0.3280

> <Gold.Chemscore.Rot>
1.3839

> <Gold.Chemscore.Internal.Correction>
   9.000000E+99

> <Gold.Chemscore.Hbonds>
donor molecule, donor type, donor heavy atom, donor atom, acceptor molecule, acceptor atom, score
      L1  H     6    20       P1  8028  1.00
      P1  H  7989  7998       L1     4  0.02
      P1  H  7997  8008       L1    15  0.09

> <Gold.Chemscore.Hbond.Weighted>
-4.8523

> <Gold.Chemscore.Metal.Weighted>
-0.0000

> <Gold.Chemscore.Lipo.Weighted>
-6.1022

> <Gold.Chemscore.Internal_Hbond.Weighted>
0.0000

> <Gold.Chemscore.DEClash.Weighted>
0.0305

> <Gold.Chemscore.DEInternal.Weighted>
0.3280

> <Gold.Chemscore.Rot.Weighted>
3.5427

> <Gold.Chemscore.Internal.Correction.Weighted>
   9.000000E+99

> <Gold.Protein.RotatedTorsions>
[ 6907 6896 6895 6894 ] final  -71.93 input  -60.11 | X-H torsion
[ 7974 7965 7964 7962 ] final -101.81 input  175.53 | X-H torsion
[ 8008 7997 7996 7995 ] final  -49.74 input   59.86 | X-H torsion
[ 10167 10162 10161 10158 ] final  135.65 input  -65.29 | X-H torsion
[ 10718 10713 10712 10709 ] final   95.18 input   66.30 | X-H torsion
[ 10763 10752 10751 10750 ] final  -85.42 input  -60.55 | X-H torsion
[ 11005 11000 10999 10996 ] final   21.61 input  -57.11 | X-H torsion

> <Gold.Protein.ActiveResidues>
 VAL166  LYS551  ARG553  GLY616  TRP617  ASP618  TYR619  PRO620  LYS621  CYS622 
 ASP623  PHE694  ASN695  SER759  ASP760  ASP761  ALA762  ILE779  LEU786  VAL792 
 PHE793  MET794  SER795  GLU796  ALA797  LYS798  CYS799  TRP800  GLU811  SER814 

> <Gold.Protein.RotatedAtoms>
  150.7191  134.5237  159.5665 H   0  0  0  0  0  0  0  0  0  0  0  0  # atno 6907 bound_to 6896
  152.2786  134.7851  160.0410 H   0  0  0  0  0  0  0  0  0  0  0  0  # atno 6908 bound_to 6896
  151.8505  133.3404  159.3708 H   0  0  0  0  0  0  0  0  0  0  0  0  # atno 6909 bound_to 6896
  145.2768  140.9315  143.2955 H   0  0  0  0  0  0  0  0  0  0  0  0  # atno 7974 bound_to 7965
  154.4049  140.1289  156.4552 H   0  0  0  0  0  0  0  0  0  0  0  0  # atno 8008 bound_to 7997
  155.7327  140.3491  155.5047 H   0  0  0  0  0  0  0  0  0  0  0  0  # atno 8009 bound_to 7997
  155.9113  140.1036  157.1268 H   0  0  0  0  0  0  0  0  0  0  0  0  # atno 8010 bound_to 7997
  139.5209  144.6506  151.5313 H   0  0  0  0  0  0  0  0  0  0  0  0  # atno 10167 bound_to 10162
  157.6941  131.0537  150.4300 H   0  0  0  0  0  0  0  0  0  0  0  0  # atno 10718 bound_to 10713
  154.6108  135.5486  153.7472 H   0  0  0  0  0  0  0  0  0  0  0  0  # atno 10763 bound_to 10752
  153.0194  135.6389  154.1580 H   0  0  0  0  0  0  0  0  0  0  0  0  # atno 10764 bound_to 10752
  154.1518  135.2902  155.3113 H   0  0  0  0  0  0  0  0  0  0  0  0  # atno 10765 bound_to 10752
  140.3897  134.1832  155.7662 H   0  0  0  0  0  0  0  0  0  0  0  0  # atno 11005 bound_to 11000
  144.9287  139.4324  143.6505 LP  0  0  0  0  0  0  0  0  0  0  0  0  # atno 17320 bound_to 7965
  146.3229  139.8187  142.8931 LP  0  0  0  0  0  0  0  0  0  0  0  0  # atno 17321 bound_to 7965
  140.6309  143.9077  150.6605 LP  0  0  0  0  0  0  0  0  0  0  0  0  # atno 17342 bound_to 10162
  140.2381  143.3684  152.1509 LP  0  0  0  0  0  0  0  0  0  0  0  0  # atno 17343 bound_to 10162
  156.4667  130.4044  149.6543 LP  0  0  0  0  0  0  0  0  0  0  0  0  # atno 17370 bound_to 10713
  156.3638  130.7495  151.2470 LP  0  0  0  0  0  0  0  0  0  0  0  0  # atno 17371 bound_to 10713
  141.1895  133.8237  157.0954 LP  0  0  0  0  0  0  0  0  0  0  0  0  # atno 17394 bound_to 11000
  140.0416  134.9851  157.0972 LP  0  0  0  0  0  0  0  0  0  0  0  0  # atno 17395 bound_to 11000

$$$$
