AV-unprocessed.smi:170|AV-procd|sdf|1406|dock3
  -GOLD-   2262019163D 1   1.00000     0.00000
 Structure written by MMmdl.
 57 61  0  0  0  0  0  0  0  0  1 V2000
  153.0952  140.3923  158.4489 O   0  0  0  0  0  0  0  0  0  0  0  0
  151.7903  140.7574  158.8575 C   0  0  2  0  0  0  0  0  0  0  0  0
  150.7596  140.0794  157.9336 C   0  0  0  0  0  0  0  0  0  0  0  0
  150.5790  138.6702  158.2356 N   0  0  0  0  0  0  0  0  0  0  0  0
  151.4495  137.8548  158.9220 C   0  0  0  0  0  0  0  0  0  0  0  0
  151.0598  136.6166  159.0582 N   0  0  0  0  0  0  0  0  0  0  0  0
  149.8288  136.5745  158.4138 C   0  0  0  0  0  0  0  0  0  0  0  0
  148.8622  135.5563  158.1717 C   0  0  0  0  0  0  0  0  0  0  0  0
  148.9769  134.2655  158.5593 N   0  0  0  0  0  0  0  0  0  0  0  0
  149.0947  133.3854  157.4029 C   0  0  0  0  0  0  0  0  0  0  0  0
  149.4243  131.9566  157.8555 C   0  0  0  0  0  0  0  0  0  0  0  0
  148.4229  131.5160  158.7627 O   0  0  0  0  0  0  0  0  0  0  0  0
  148.3743  132.3224  159.9346 C   0  0  0  0  0  0  0  0  0  0  0  0
  148.0273  133.7855  159.5716 C   0  0  1  0  0  0  0  0  0  0  0  0
  147.9988  134.6931  160.8301 C   0  0  0  0  0  0  0  0  0  0  0  0
  147.3686  134.0477  162.0666 C   0  0  0  0  0  0  0  0  0  0  0  0
  145.9291  133.5106  161.9826 C   0  0  0  0  0  0  0  0  0  0  0  0
  145.4521  134.8038  162.6459 C   0  0  0  0  0  0  0  0  0  0  0  0
  146.8717  134.9680  163.1929 C   0  0  0  0  0  0  0  0  0  0  0  0
  147.7346  135.8970  157.5006 N   0  0  0  0  0  0  0  0  0  0  0  0
  147.5649  137.1516  157.0724 C   0  0  0  0  0  0  0  0  0  0  0  0
  148.3811  138.1991  157.2091 N   0  0  0  0  0  0  0  0  0  0  0  0
  149.5102  137.8611  157.8955 C   0  0  0  0  0  0  0  0  0  0  0  0
  151.6374  142.2927  158.8629 C   0  0  2  0  0  0  0  0  0  0  0  0
  151.3051  142.9701  157.5291 C   0  0  0  0  0  0  0  0  0  0  0  0
  151.8088  144.3735  157.7812 C   0  0  0  0  0  0  0  0  0  0  0  0
  153.0745  144.1097  158.5935 C   0  0  0  0  0  0  0  0  0  0  0  0
  152.8186  142.9265  159.3466 O   0  0  0  0  0  0  0  0  0  0  0  0
  153.5187  139.9504  159.1692 H   0  0  0  0  0  0  0  0  0  0  0  0
  151.6418  140.3902  159.8738 H   0  0  0  0  0  0  0  0  0  0  0  0
  149.7902  140.5710  158.0239 H   0  0  0  0  0  0  0  0  0  0  0  0
  151.0607  140.1751  156.8896 H   0  0  0  0  0  0  0  0  0  0  0  0
  152.3879  138.2098  159.3228 H   0  0  0  0  0  0  0  0  0  0  0  0
  148.1584  133.3913  156.8425 H   0  0  0  0  0  0  0  0  0  0  0  0
  149.8747  133.7479  156.7318 H   0  0  0  0  0  0  0  0  0  0  0  0
  149.4484  131.2850  156.9973 H   0  0  0  0  0  0  0  0  0  0  0  0
  150.4077  131.9120  158.3263 H   0  0  0  0  0  0  0  0  0  0  0  0
  147.6184  131.8972  160.5937 H   0  0  0  0  0  0  0  0  0  0  0  0
  149.3271  132.2659  160.4639 H   0  0  0  0  0  0  0  0  0  0  0  0
  147.0356  133.7783  159.1209 H   0  0  0  0  0  0  0  0  0  0  0  0
  149.0158  135.0105  161.0631 H   0  0  0  0  0  0  0  0  0  0  0  0
  147.4536  135.6117  160.6145 H   0  0  0  0  0  0  0  0  0  0  0  0
  148.0247  133.2882  162.4922 H   0  0  0  0  0  0  0  0  0  0  0  0
  145.5436  133.3574  160.9745 H   0  0  0  0  0  0  0  0  0  0  0  0
  145.7686  132.6320  162.6099 H   0  0  0  0  0  0  0  0  0  0  0  0
  145.1842  135.5754  161.9222 H   0  0  0  0  0  0  0  0  0  0  0  0
  144.6806  134.6720  163.4047 H   0  0  0  0  0  0  0  0  0  0  0  0
  146.9939  134.5288  164.1845 H   0  0  0  0  0  0  0  0  0  0  0  0
  147.2553  135.9883  163.1561 H   0  0  0  0  0  0  0  0  0  0  0  0
  146.6443  137.3426  156.5409 H   0  0  0  0  0  0  0  0  0  0  0  0
  150.8576  142.5590  159.5786 H   0  0  0  0  0  0  0  0  0  0  0  0
  151.8587  142.5289  156.6999 H   0  0  0  0  0  0  0  0  0  0  0  0
  150.2427  142.9347  157.2872 H   0  0  0  0  0  0  0  0  0  0  0  0
  151.9989  144.9342  156.8657 H   0  0  0  0  0  0  0  0  0  0  0  0
  151.0858  144.9289  158.3802 H   0  0  0  0  0  0  0  0  0  0  0  0
  153.9174  143.9186  157.9287 H   0  0  0  0  0  0  0  0  0  0  0  0
  153.3370  144.9472  159.2401 H   0  0  0  0  0  0  0  0  0  0  0  0
  1  2  1  0  0  0  0
  1 29  1  0  0  0  0
  2  3  1  0  0  0  0
  2 24  1  0  0  0  0
  2 30  1  0  0  0  0
  3  4  1  0  0  0  0
  3 31  1  0  0  0  0
  3 32  1  0  0  0  0
  4 23  1  0  0  0  0
  4  5  1  0  0  0  0
  5  6  2  0  0  0  0
  5 33  1  0  0  0  0
  6  7  1  0  0  0  0
  7 23  2  0  0  0  0
  7  8  1  0  0  0  0
  8  9  1  0  0  0  0
  8 20  2  0  0  0  0
  9 14  1  0  0  0  0
  9 10  1  0  0  0  0
 10 11  1  0  0  0  0
 10 34  1  0  0  0  0
 10 35  1  0  0  0  0
 11 12  1  0  0  0  0
 11 36  1  0  0  0  0
 11 37  1  0  0  0  0
 12 13  1  0  0  0  0
 13 14  1  0  0  0  0
 13 38  1  0  0  0  0
 13 39  1  0  0  0  0
 14 15  1  0  0  0  0
 14 40  1  0  0  0  0
 15 16  1  0  0  0  0
 15 41  1  0  0  0  0
 15 42  1  0  0  0  0
 16 19  1  0  0  0  0
 16 17  1  0  0  0  0
 16 43  1  0  0  0  0
 17 18  1  0  0  0  0
 17 44  1  0  0  0  0
 17 45  1  0  0  0  0
 18 19  1  0  0  0  0
 18 46  1  0  0  0  0
 18 47  1  0  0  0  0
 19 48  1  0  0  0  0
 19 49  1  0  0  0  0
 20 21  1  0  0  0  0
 21 22  2  0  0  0  0
 21 50  1  0  0  0  0
 22 23  1  0  0  0  0
 24 28  1  0  0  0  0
 24 25  1  0  0  0  0
 24 51  1  0  0  0  0
 25 26  1  0  0  0  0
 25 52  1  0  0  0  0
 25 53  1  0  0  0  0
 26 27  1  0  0  0  0
 26 54  1  0  0  0  0
 26 55  1  0  0  0  0
 27 28  1  0  0  0  0
 27 56  1  0  0  0  0
 27 57  1  0  0  0  0
M  END
> <s_m_source_file>
AV-unprocessed.smi

> <i_m_source_file_index>
170

> <i_lp_mmshare_version>
43012

> <i_f3d_flags>
0

> <s_epik_input>
TzFbQ0gyXVtDSDJdW0NIMl1bQ0BIXTFbQ0BIXShbT0hdKVtDSDJdbihbY0hdbjIpYyhjMjMpbltjSF1uYzNONFtDSDJdW0NIMl1PW0NIMl1bQ0BIXTRbQ0gyXVtDSF01W0NIMl1bQ0gyXVtDSDJdNQ==

> <s_epik_cmdline>
J2VwaWtfcHl0aG9uJywgJy1waCcsICc3LjAnLCAnLXRuJywgJzgnLCAnLW1hJywgJzIwMCcsICctbWV0YWxfYmluZGluZycsICctaW1hZScsICc8aW5maWxlLm1hZT4nLCAnLW9tYWUnLCAnPG91dGZpbGUubWFlPic=

> <r_lp_tautomer_probability>
1

> <r_epik_Ionization_Penalty>
4.98275e-05

> <r_epik_Ionization_Penalty_Charging>
0

> <r_epik_Ionization_Penalty_Neutral>
4.98275e-05

> <r_epik_State_Penalty>
-0

> <r_epik_Charging_Adjusted_Penalty>
0

> <i_epik_Tot_Q>
0

> <i_epik_Tot_abs_Q>
0

> <r_epik_Metal_State_Penalty>
-0

> <b_epik_Metal_Only>
0

> <s_lp_Force_Field>
OPLS_2005

> <r_lp_Energy>
54.7181

> <b_lp_Chiralities_Consistent>
1

> <s_lp_Variant>
AV-unprocessed.smi:170-1

> <Gold.Version>
5.8.1

> <Gold.Id.Protein>
6NUR|6NUR_protein|mol2

> <Gold.PLP.Fitness>
47.1664

> <Gold.PLP.PLP>
-41.6553

> <Gold.PLP.part.hbond>
-3.0000

> <Gold.PLP.part.metal>
0.0000

> <Gold.PLP.part.buried>
-4.9790

> <Gold.PLP.part.nonpolar>
-33.1496

> <Gold.PLP.part.repulsive>
0.0000

> <Gold.PLP.ligand.clash>
0.0000

> <Gold.PLP.ligand.torsion>
1.1853

> <Gold.PLP.Chemscore.Hbond>
2.4922

> <Gold.PLP.Chemscore.CHOScore>
0.0000

> <Gold.PLP.Chemscore.Metal>
0.0000

> <Gold.Chemscore.Hbonds>
donor molecule, donor type, donor heavy atom, donor atom, acceptor molecule, acceptor atom, score
      P1  H  6896  6907       L1     6  0.77
      P1  H  6896  6909       L1     9  0.78
      P1  H  7997  8009       L1     1  0.69

> <Gold.PLP.Chemscore.Internal.Correction>
0.4049

> <Gold.Rescore>
     Score         DG    S(hbond)    S(metal)    S(lipo)     H(rot)  DE(clash)    DE(int)     intcor
     15.57     -16.88       1.42        0.00     114.03       2.61       0.09       1.23       ----

> <Gold.Chemscore.Fitness>
15.5684

> <Gold.Chemscore.DG>
-16.8842

> <Gold.Chemscore.ZeroCoef>
-5.4800

> <Gold.Chemscore.Hbond>
1.4238

> <Gold.Chemscore.Metal>
0.0000

> <Gold.Chemscore.Lipo>
114.0315

> <Gold.Chemscore.Internal_Hbond>
0.0000

> <Gold.Chemscore.DEClash>
0.0885

> <Gold.Chemscore.DEInternal>
1.2273

> <Gold.Chemscore.Rot>
2.6144

> <Gold.Chemscore.Internal.Correction>
   9.000000E+99

> <Gold.Chemscore.Hbonds>
donor molecule, donor type, donor heavy atom, donor atom, acceptor molecule, acceptor atom, score
      P1  H  6896  6907       L1     6  0.75
      P1  H  6896  6909       L1     9  0.04
      P1  H  7997  8009       L1     1  0.15

> <Gold.Chemscore.Hbond.Weighted>
-4.7554

> <Gold.Chemscore.Metal.Weighted>
-0.0000

> <Gold.Chemscore.Lipo.Weighted>
-13.3417

> <Gold.Chemscore.Internal_Hbond.Weighted>
0.0000

> <Gold.Chemscore.DEClash.Weighted>
0.0885

> <Gold.Chemscore.DEInternal.Weighted>
1.2273

> <Gold.Chemscore.Rot.Weighted>
6.6929

> <Gold.Chemscore.Internal.Correction.Weighted>
   9.000000E+99

> <Gold.Protein.RotatedTorsions>
[ 6907 6896 6895 6894 ] final    3.86 input  -60.11 | X-H torsion
[ 7974 7965 7964 7962 ] final   90.53 input  175.53 | X-H torsion
[ 8008 7997 7996 7995 ] final  159.12 input   59.86 | X-H torsion
[ 10167 10162 10161 10158 ] final   -7.42 input  -65.29 | X-H torsion
[ 10718 10713 10712 10709 ] final -174.88 input   66.30 | X-H torsion
[ 10763 10752 10751 10750 ] final  -97.47 input  -60.55 | X-H torsion
[ 11005 11000 10999 10996 ] final  -17.89 input  -57.11 | X-H torsion

> <Gold.Protein.ActiveResidues>
 VAL166  LYS551  ARG553  GLY616  TRP617  ASP618  TYR619  PRO620  LYS621  CYS622 
 ASP623  PHE694  ASN695  SER759  ASP760  ASP761  ALA762  ILE779  LEU786  VAL792 
 PHE793  MET794  SER795  GLU796  ALA797  LYS798  CYS799  TRP800  GLU811  SER814 

> <Gold.Protein.RotatedAtoms>
  151.6319  135.1022  160.0123 H   0  0  0  0  0  0  0  0  0  0  0  0  # atno 6907 bound_to 6896
  152.4102  133.6947  159.6399 H   0  0  0  0  0  0  0  0  0  0  0  0  # atno 6908 bound_to 6896
  150.7993  133.8555  159.3258 H   0  0  0  0  0  0  0  0  0  0  0  0  # atno 6909 bound_to 6896
  145.5178  139.2278  143.2689 H   0  0  0  0  0  0  0  0  0  0  0  0  # atno 7974 bound_to 7965
  156.2259  140.1840  156.7363 H   0  0  0  0  0  0  0  0  0  0  0  0  # atno 8008 bound_to 7997
  154.5941  140.0646  156.9307 H   0  0  0  0  0  0  0  0  0  0  0  0  # atno 8009 bound_to 7997
  155.2286  140.3313  155.4309 H   0  0  0  0  0  0  0  0  0  0  0  0  # atno 8010 bound_to 7997
  140.7028  143.6083  150.8729 H   0  0  0  0  0  0  0  0  0  0  0  0  # atno 10167 bound_to 10162
  156.7916  130.9520  151.3120 H   0  0  0  0  0  0  0  0  0  0  0  0  # atno 10718 bound_to 10713
  154.7330  135.5045  153.8995 H   0  0  0  0  0  0  0  0  0  0  0  0  # atno 10763 bound_to 10752
  153.0968  135.6674  153.9756 H   0  0  0  0  0  0  0  0  0  0  0  0  # atno 10764 bound_to 10752
  153.9552  135.3053  155.3416 H   0  0  0  0  0  0  0  0  0  0  0  0  # atno 10765 bound_to 10752
  140.8213  133.8066  155.9662 H   0  0  0  0  0  0  0  0  0  0  0  0  # atno 11005 bound_to 11000
  146.2126  140.5988  142.9053 LP  0  0  0  0  0  0  0  0  0  0  0  0  # atno 17320 bound_to 7965
  144.7692  140.5600  143.6681 LP  0  0  0  0  0  0  0  0  0  0  0  0  # atno 17321 bound_to 7965
  139.9806  143.5955  152.2944 LP  0  0  0  0  0  0  0  0  0  0  0  0  # atno 17342 bound_to 10162
  139.6575  144.7662  151.2028 LP  0  0  0  0  0  0  0  0  0  0  0  0  # atno 17343 bound_to 10162
  157.6597  130.8956  149.9804 LP  0  0  0  0  0  0  0  0  0  0  0  0  # atno 17370 bound_to 10713
  156.1155  130.3648  149.9975 LP  0  0  0  0  0  0  0  0  0  0  0  0  # atno 17371 bound_to 10713
  140.9096  134.2277  157.4994 LP  0  0  0  0  0  0  0  0  0  0  0  0  # atno 17394 bound_to 11000
  139.8708  134.9744  156.4844 LP  0  0  0  0  0  0  0  0  0  0  0  0  # atno 17395 bound_to 11000

$$$$
