AV-unprocessed.smi:3081|AV-procd|sdf|11741|dock8
  -GOLD-   2272017133D 1   1.00000     0.00000
 Structure written by MMmdl.
 26 27  0  0  0  0  0  0  0  0  2 V2000
  150.8401  136.8031  155.3154 C   0  0  0  0  0  0  0  0  0  0  0  0
  149.8565  137.7197  154.8910 C   0  0  0  0  0  0  0  0  0  0  0  0
  150.3042  139.0247  154.5926 C   0  0  0  0  0  0  0  0  0  0  0  0
  149.3391  140.1036  154.1213 C   0  0  1  0  0  0  0  0  0  0  0  0
  147.8774  139.6137  154.1044 C   0  0  0  0  0  0  0  0  0  0  0  0
  146.9407  140.7351  153.6287 C   0  0  0  0  0  0  0  0  0  0  0  0
  147.1313  142.0061  154.4732 C   0  0  0  0  0  0  0  0  0  0  0  0
  148.5443  142.4431  154.4481 N   0  3  0  0  0  0  0  0  0  0  0  0
  149.4796  141.4061  154.9375 C   0  0  0  0  0  0  0  0  0  0  0  0
  151.6077  139.3684  154.7091 N   0  0  0  0  0  0  0  0  0  0  0  0
  152.4501  138.4167  155.1211 C   0  0  0  0  0  0  0  0  0  0  0  0
  152.1389  137.1555  155.4287 N   0  0  0  0  0  0  0  0  0  0  0  0
  150.5838  135.7839  155.5638 H   0  0  0  0  0  0  0  0  0  0  0  0
  148.8195  137.4308  154.8025 H   0  0  0  0  0  0  0  0  0  0  0  0
  149.6096  140.3399  153.0908 H   0  0  0  0  0  0  0  0  0  0  0  0
  147.7774  138.7444  153.4534 H   0  0  0  0  0  0  0  0  0  0  0  0
  147.5760  139.2922  155.1024 H   0  0  0  0  0  0  0  0  0  0  0  0
  147.1389  140.9584  152.5795 H   0  0  0  0  0  0  0  0  0  0  0  0
  145.9037  140.4026  153.6830 H   0  0  0  0  0  0  0  0  0  0  0  0
  146.5031  142.8111  154.0919 H   0  0  0  0  0  0  0  0  0  0  0  0
  146.8285  141.8262  155.5055 H   0  0  0  0  0  0  0  0  0  0  0  0
  148.7915  142.6768  153.4971 H   0  0  0  0  0  0  0  0  0  0  0  0
  149.2790  141.2235  155.9943 H   0  0  0  0  0  0  0  0  0  0  0  0
  150.4979  141.7895  154.8679 H   0  0  0  0  0  0  0  0  0  0  0  0
  153.4892  138.6960  155.2130 H   0  0  0  0  0  0  0  0  0  0  0  0
  148.6425  143.2688  155.0220 H   0  0  0  0  0  0  0  0  0  0  0  0
  1 12  1  0  0  0  0
  1  2  2  0  0  0  0
  1 13  1  0  0  0  0
  2  3  1  0  0  0  0
  2 14  1  0  0  0  0
  3  4  1  0  0  0  0
  3 10  2  0  0  0  0
  4  9  1  0  0  0  0
  4  5  1  0  0  0  0
  4 15  1  0  0  0  0
  5  6  1  0  0  0  0
  5 16  1  0  0  0  0
  5 17  1  0  0  0  0
  6  7  1  0  0  0  0
  6 18  1  0  0  0  0
  6 19  1  0  0  0  0
  7  8  1  0  0  0  0
  7 20  1  0  0  0  0
  7 21  1  0  0  0  0
  8  9  1  0  0  0  0
  8 22  1  0  0  0  0
  8 26  1  0  0  0  0
  9 23  1  0  0  0  0
  9 24  1  0  0  0  0
 10 11  1  0  0  0  0
 11 12  2  0  0  0  0
 11 25  1  0  0  0  0
M  CHG  1   8   1
M  END
> <s_m_source_file>
AV-unprocessed.smi

> <i_m_source_file_index>
3081

> <i_lp_mmshare_version>
43012

> <i_f3d_flags>
0

> <s_epik_input>
bjFbY0hdbltjSF1bY0hdYzFbQ0BASF0yW0NIMl1bQ0gyXVtDSDJdW05IXVtDSDJdMg==

> <s_epik_cmdline>
J2VwaWtfcHl0aG9uJywgJy1waCcsICc3LjAnLCAnLXRuJywgJzgnLCAnLW1hJywgJzIwMCcsICctbWV0YWxfYmluZGluZycsICctaW1hZScsICc8aW5maWxlLm1hZT4nLCAnLW9tYWUnLCAnPG91dGZpbGUubWFlPic=

> <r_lp_tautomer_probability>
1

> <r_epik_Ionization_Penalty>
0.000373217

> <r_epik_Ionization_Penalty_Charging>
0.000372054

> <r_epik_Ionization_Penalty_Neutral>
1.16293e-06

> <r_epik_State_Penalty>
0.00022692

> <r_epik_Charging_Adjusted_Penalty>
0.000598973

> <i_epik_Tot_Q>
1

> <i_epik_Tot_abs_Q>
1

> <r_epik_Metal_State_Penalty>
-0

> <b_epik_Metal_Only>
0

> <s_epik_Chemistry_Notes>
This compound contains an electron-poor aromatic ring that is susceptible to covalent hydrolysis at low pH, typically resulting in measured values for nitrogen ring protonation that are around two units higher than predicted values.

> <s_lp_Force_Field>
OPLS_2005

> <r_lp_Energy>
7.17513

> <b_lp_Chiralities_Consistent>
1

> <s_lp_Variant>
AV-unprocessed.smi:3081-2

> <Gold.Version>
5.8.1

> <Gold.Id.Protein>
6NUR|6NUR_protein|mol2

> <Gold.PLP.Fitness>
35.1122

> <Gold.PLP.PLP>
-23.6208

> <Gold.PLP.part.hbond>
-3.0000

> <Gold.PLP.part.metal>
0.0000

> <Gold.PLP.part.buried>
-3.0982

> <Gold.PLP.part.nonpolar>
-19.9721

> <Gold.PLP.part.repulsive>
1.6839

> <Gold.PLP.ligand.clash>
0.0000

> <Gold.PLP.ligand.torsion>
0.0923

> <Gold.PLP.Chemscore.Hbond>
3.8800

> <Gold.PLP.Chemscore.CHOScore>
0.0000

> <Gold.PLP.Chemscore.Metal>
0.0000

> <Gold.Chemscore.Hbonds>
donor molecule, donor type, donor heavy atom, donor atom, acceptor molecule, acceptor atom, score
      L1  H     8    26       P1  8028  2.00
      P1  H  7989  7998       L1    10  1.00
      P1  H 10752 10763       L1    12  0.88

> <Gold.PLP.Chemscore.Internal.Correction>
0.0360

> <Gold.Rescore>
     Score         DG    S(hbond)    S(metal)    S(lipo)     H(rot)  DE(clash)    DE(int)     intcor
     17.08     -17.15       2.81        0.00      41.45       1.00       0.04       0.03       ----

> <Gold.Chemscore.Fitness>
17.0761

> <Gold.Chemscore.DG>
-17.1459

> <Gold.Chemscore.ZeroCoef>
-5.4800

> <Gold.Chemscore.Hbond>
2.8073

> <Gold.Chemscore.Metal>
0.0000

> <Gold.Chemscore.Lipo>
41.4473

> <Gold.Chemscore.Internal_Hbond>
0.0000

> <Gold.Chemscore.DEClash>
0.0368

> <Gold.Chemscore.DEInternal>
0.0330

> <Gold.Chemscore.Rot>
1.0000

> <Gold.Chemscore.Internal.Correction>
   9.000000E+99

> <Gold.Chemscore.Hbonds>
donor molecule, donor type, donor heavy atom, donor atom, acceptor molecule, acceptor atom, score
      L1  H     8    26       P1  8028  0.98
      P1  H  7989  7998       L1    10  0.25
      P1  H 10752 10763       L1    12  0.26

> <Gold.Chemscore.Hbond.Weighted>
-9.3765

> <Gold.Chemscore.Metal.Weighted>
-0.0000

> <Gold.Chemscore.Lipo.Weighted>
-4.8493

> <Gold.Chemscore.Internal_Hbond.Weighted>
0.0000

> <Gold.Chemscore.DEClash.Weighted>
0.0368

> <Gold.Chemscore.DEInternal.Weighted>
0.0330

> <Gold.Chemscore.Rot.Weighted>
2.5600

> <Gold.Chemscore.Internal.Correction.Weighted>
   9.000000E+99

> <Gold.Protein.RotatedTorsions>
[ 6907 6896 6895 6894 ] final  -52.76 input  -60.11 | X-H torsion
[ 7974 7965 7964 7962 ] final  -56.56 input  175.53 | X-H torsion
[ 8008 7997 7996 7995 ] final   -9.16 input   59.86 | X-H torsion
[ 10167 10162 10161 10158 ] final -125.37 input  -65.29 | X-H torsion
[ 10718 10713 10712 10709 ] final   31.48 input   66.30 | X-H torsion
[ 10763 10752 10751 10750 ] final   70.50 input  -60.55 | X-H torsion
[ 11005 11000 10999 10996 ] final  178.34 input  -57.11 | X-H torsion

> <Gold.Protein.ActiveResidues>
 VAL166  LYS551  ARG553  GLY616  TRP617  ASP618  TYR619  PRO620  LYS621  CYS622 
 ASP623  PHE694  ASN695  SER759  ASP760  ASP761  ALA762  ILE779  LEU786  VAL792 
 PHE793  MET794  SER795  GLU796  ALA797  LYS798  CYS799  TRP800  GLU811  SER814 

> <Gold.Protein.RotatedAtoms>
  150.8488  134.7806  159.6992 H   0  0  0  0  0  0  0  0  0  0  0  0  # atno 6907 bound_to 6896
  152.4558  134.5290  159.9815 H   0  0  0  0  0  0  0  0  0  0  0  0  # atno 6908 bound_to 6896
  151.5415  133.3394  159.2972 H   0  0  0  0  0  0  0  0  0  0  0  0  # atno 6909 bound_to 6896
  145.8613  140.8283  142.9935 H   0  0  0  0  0  0  0  0  0  0  0  0  # atno 7974 bound_to 7965
  154.5673  140.2362  155.8244 H   0  0  0  0  0  0  0  0  0  0  0  0  # atno 8008 bound_to 7997
  156.2078  140.3034  155.9624 H   0  0  0  0  0  0  0  0  0  0  0  0  # atno 8009 bound_to 7997
  155.2777  140.0421  157.3003 H   0  0  0  0  0  0  0  0  0  0  0  0  # atno 8010 bound_to 7997
  139.9828  143.5724  152.2372 H   0  0  0  0  0  0  0  0  0  0  0  0  # atno 10167 bound_to 10162
  157.2730  130.7217  149.6514 H   0  0  0  0  0  0  0  0  0  0  0  0  # atno 10718 bound_to 10713
  153.0345  135.5171  154.7451 H   0  0  0  0  0  0  0  0  0  0  0  0  # atno 10763 bound_to 10752
  154.6438  135.2916  155.0073 H   0  0  0  0  0  0  0  0  0  0  0  0  # atno 10764 bound_to 10752
  154.0981  135.6640  153.4916 H   0  0  0  0  0  0  0  0  0  0  0  0  # atno 10765 bound_to 10752
  140.3940  134.6836  157.4524 H   0  0  0  0  0  0  0  0  0  0  0  0  # atno 11005 bound_to 11000
  144.6726  140.1099  143.7456 LP  0  0  0  0  0  0  0  0  0  0  0  0  # atno 17320 bound_to 7965
  145.9245  139.2567  143.1362 LP  0  0  0  0  0  0  0  0  0  0  0  0  # atno 17321 bound_to 7965
  139.6397  144.7653  151.2364 LP  0  0  0  0  0  0  0  0  0  0  0  0  # atno 17342 bound_to 10162
  140.7483  143.6338  150.8398 LP  0  0  0  0  0  0  0  0  0  0  0  0  # atno 17343 bound_to 10162
  155.9663  130.4362  150.5122 LP  0  0  0  0  0  0  0  0  0  0  0  0  # atno 17370 bound_to 10713
  157.3050  131.0652  151.2041 LP  0  0  0  0  0  0  0  0  0  0  0  0  # atno 17371 bound_to 10713
  140.0385  134.6302  155.9012 LP  0  0  0  0  0  0  0  0  0  0  0  0  # atno 17394 bound_to 11000
  141.1880  133.6561  156.5308 LP  0  0  0  0  0  0  0  0  0  0  0  0  # atno 17395 bound_to 11000

$$$$
