#       Name:                AV-unprocessed.smi:2121
#       Creating user name   scv26
#       Creation time:       Fri Mar 27 11:39:16 2020


#       File generated by GOLD software.
#

@<TRIPOS>MOLECULE
AV-unprocessed.smi:2121
    57    58     1
SMALL
NO_CHARGES


@<TRIPOS>ATOM
      1 ****        -4.9618  -2.5540   3.4772 C.3            1 S1                 0.0000
      2 ****        -4.3535  -1.4637   2.5887 C.3            1 S1                 0.0000
      3 ****        -2.8488  -1.6864   2.3550 C.3            1 S1                 0.0000
      4 ****        -2.3327  -0.7020   1.4090 N.3            1 S1                 0.0000
      5 ****        -0.9342  -0.5549   1.2984 C.ar           1 S1                 0.0000
      6 ****        -0.3931   0.5648   0.6250 C.ar           1 S1                 0.0000
      7 ****         1.0047   0.6961   0.5235 C.ar           1 S1                 0.0000
      8 ****         1.8304  -0.2980   1.0923 C.ar           1 S1                 0.0000
      9 ****         3.3518  -0.2341   1.0343 C.3            1 S1                 0.0000
     10 ****         3.8878   0.6388  -0.0053 N.am           1 S1                 0.0000
     11 ****         3.9734   0.3230  -1.3063 C.2            1 S1                 0.0000
     12 ****         3.6424  -0.7744  -1.7584 O.2            1 S1                 0.0000
     13 ****         4.5154   1.4207  -2.2350 C.3            1 S1                 0.0000
     14 ****         5.9496   1.0480  -2.6451 C.3            1 S1                 0.0000
     15 ****         3.7019   1.5134  -3.4467 N.am           1 S1                 0.0000
     16 ****         2.5079   2.1195  -3.5280 C.2            1 S1                 0.0000
     17 ****         1.9784   2.0358  -4.7487 N.am           1 S1                 0.0000
     18 ****         1.9499   2.6898  -2.5924 O.2            1 S1                 0.0000
     19 ****         1.2001  -1.3726   1.7511 C.ar           1 S1                 0.0000
     20 ****        -0.1393  -1.5014   1.8554 N.ar           1 S1                 0.0000
     21 ****        -3.0656  -0.6778   0.1470 C.3            1 S1                 0.0000
     22 ****        -4.5788  -0.5121   0.3896 C.3            1 S1                 0.0000
     23 ****        -4.9823   0.9213   0.7786 C.3            1 S1                 0.0000
     24 ****        -5.0388  -1.4792   1.3368 O.3            1 S1                 0.0000
     25 ****        -4.4790  -2.5788   4.4544 H              1 S1                 0.0000
     26 ****        -4.8516  -3.5397   3.0239 H              1 S1                 0.0000
     27 ****        -6.0257  -2.3773   3.6369 H              1 S1                 0.0000
     28 ****        -4.5089  -0.5034   3.0806 H              1 S1                 0.0000
     29 ****        -2.3191  -1.6089   3.3054 H              1 S1                 0.0000
     30 ****        -2.6712  -2.6887   1.9626 H              1 S1                 0.0000
     31 ****        -1.0305   1.3267   0.2014 H              1 S1                 0.0000
     32 ****         1.4234   1.5533   0.0175 H              1 S1                 0.0000
     33 ****         3.7138   0.1268   1.9971 H              1 S1                 0.0000
     34 ****         3.7539  -1.2415   0.9127 H              1 S1                 0.0000
     35 ****         4.1861   1.5602   0.2806 H              1 S1                 0.0000
     36 ****         4.5218   2.3839  -1.7209 H              1 S1                 0.0000
     37 ****         6.6014   0.9676  -1.7742 H              1 S1                 0.0000
     38 ****         6.3769   1.8087  -3.2993 H              1 S1                 0.0000
     39 ****         5.9872   0.0965  -3.1780 H              1 S1                 0.0000
     40 ****         4.0686   1.0667  -4.2741 H              1 S1                 0.0000
     41 ****         1.0815   2.4554  -4.9438 H              1 S1                 0.0000
     42 ****         2.4831   1.5525  -5.4776 H              1 S1                 0.0000
     43 ****         1.7875  -2.1541   2.2104 H              1 S1                 0.0000
     44 ****        -2.7148   0.1135  -0.5143 H              1 S1                 0.0000
     45 ****        -2.8802  -1.6201  -0.3702 H              1 S1                 0.0000
     46 ****        -5.0898  -0.7387  -0.5465 H              1 S1                 0.0000
     47 ****        -4.7379   1.6204  -0.0215 H              1 S1                 0.0000
     48 ****        -4.4700   1.2672   1.6761 H              1 S1                 0.0000
     49 ****        -6.0554   0.9882   0.9582 H              1 S1                 0.0000
     50 ****        -2.5442   0.1607   1.8685 LP             1 S1                 0.0000
     51 ****         3.2894  -1.4816  -1.1459 LP             1 S1                 0.0000
     52 ****         3.7267  -0.9577  -2.7378 LP             1 S1                 0.0000
     53 ****         2.3882   2.7233  -1.6942 LP             1 S1                 0.0000
     54 ****         1.0577   3.1202  -2.7297 LP             1 S1                 0.0000
     55 ****        -0.5389  -2.2822   2.3357 LP             1 S1                 0.0000
     56 ****        -6.0085  -1.3075   1.5108 LP             1 S1                 0.0000
     57 ****        -4.9284  -2.3873   0.9329 LP             1 S1                 0.0000
@<TRIPOS>BOND
    1    1    2 1     
    2    1   25 1     
    3    1   26 1     
    4    1   27 1     
    5    2   24 1     
    6    2    3 1     
    7    2   28 1     
    8    3    4 1     
    9    3   29 1     
   10    3   30 1     
   11    4    5 1     
   12    4   21 1     
   13    5   20 ar    
   14    5    6 ar    
   15    6    7 ar    
   16    6   31 1     
   17    7    8 ar    
   18    7   32 1     
   19    8    9 1     
   20    8   19 ar    
   21    9   10 1     
   22    9   33 1     
   23    9   34 1     
   24   10   11 am    
   25   10   35 1     
   26   11   12 2     
   27   11   13 1     
   28   13   14 1     
   29   13   15 1     
   30   13   36 1     
   31   14   37 1     
   32   14   38 1     
   33   14   39 1     
   34   15   16 am    
   35   15   40 1     
   36   16   17 am    
   37   16   18 2     
   38   17   41 1     
   39   17   42 1     
   40   19   20 ar    
   41   19   43 1     
   42   21   22 1     
   43   21   44 1     
   44   21   45 1     
   45   22   23 1     
   46   22   24 1     
   47   22   46 1     
   48   23   47 1     
   49   23   48 1     
   50   23   49 1     
   51    4   50 1     
   52   12   51 1     
   53   12   52 1     
   54   18   53 1     
   55   18   54 1     
   56   20   55 1     
   57   24   56 1     
   58   24   57 1     
@<TRIPOS>SUBSTRUCTURE
      1 S1             1
@<TRIPOS>SET
LONE_PAIRS      STATIC     ATOMS    <user>   **** ""
8 50 51 52 53 54 55 56 57
DONOR_HYDROGENS      STATIC     ATOMS    <user>   **** ""
4 35 40 41 42
ATOM$BLUE        STATIC     ATOMS    COLORGROUP SYSTEM
8 50 51 52 53 54 55 56 57
ATOM$RED        STATIC     ATOMS    COLORGROUP SYSTEM
4 35 40 41 42
