AV-unprocessed.smi:1467|AV-procd|sdf|5956|dock7
  -GOLD-   22720 6 43D 1   1.00000     0.00000
 Structure written by MMmdl.
 41 42  0  0  0  0  0  0  0  0  2 V2000
  151.0677  141.2047  156.3858 C   0  0  0  0  0  0  0  0  0  0  0  0
  151.6808  139.8681  155.9623 C   0  0  0  0  0  0  0  0  0  0  0  0
  152.7322  139.5183  156.4982 O   0  0  0  0  0  0  0  0  0  0  0  0
  151.0556  139.1190  155.0224 N   0  0  0  0  0  0  0  0  0  0  0  0
  149.7609  139.4275  154.4084 C   0  0  0  0  0  0  0  0  0  0  0  0
  148.7284  138.3796  154.8621 C   0  0  0  0  0  0  0  0  0  0  0  0
  149.1811  136.9952  154.5562 N   0  3  0  0  0  0  0  0  0  0  0  0
  148.1862  135.9784  154.9811 C   0  0  0  0  0  0  0  0  0  0  0  0
  146.8074  136.1868  154.3254 C   0  0  0  0  0  0  0  0  0  0  0  0
  146.6894  135.4349  153.0813 N   0  0  0  0  0  0  0  0  0  0  0  0
  145.7483  134.5135  152.8312 C   0  0  0  0  0  0  0  0  0  0  0  0
  144.8788  134.1967  153.6431 O   0  0  0  0  0  0  0  0  0  0  0  0
  145.8881  133.9891  151.6027 N   0  0  0  0  0  0  0  0  0  0  0  0
  145.0661  133.0115  150.9861 C   0  0  0  0  0  0  0  0  0  0  0  0
  145.5352  131.7845  150.4428 C   0  0  0  0  0  0  0  0  0  0  0  0
  144.5430  131.0736  149.9264 N   0  0  0  0  0  0  0  0  0  0  0  0
  143.4454  131.8361  150.1325 N   0  0  0  0  0  0  0  0  0  0  0  0
  143.7160  133.0249  150.7734 C   0  0  0  0  0  0  0  0  0  0  0  0
  150.5597  136.7201  155.0487 C   0  0  0  0  0  0  0  0  0  0  0  0
  151.5498  137.8078  154.5934 C   0  0  0  0  0  0  0  0  0  0  0  0
  142.5288  131.5359  149.8318 H   0  0  0  0  0  0  0  0  0  0  0  0
  150.0763  141.0583  156.8148 H   0  0  0  0  0  0  0  0  0  0  0  0
  150.9914  141.8825  155.5353 H   0  0  0  0  0  0  0  0  0  0  0  0
  151.6881  141.6889  157.1407 H   0  0  0  0  0  0  0  0  0  0  0  0
  149.3926  140.4262  154.6380 H   0  0  0  0  0  0  0  0  0  0  0  0
  149.8676  139.3985  153.3229 H   0  0  0  0  0  0  0  0  0  0  0  0
  148.5540  138.4736  155.9355 H   0  0  0  0  0  0  0  0  0  0  0  0
  147.7753  138.5716  154.3676 H   0  0  0  0  0  0  0  0  0  0  0  0
  148.5670  134.9779  154.7702 H   0  0  0  0  0  0  0  0  0  0  0  0
  148.0661  136.0400  156.0638 H   0  0  0  0  0  0  0  0  0  0  0  0
  146.0088  135.9013  155.0125 H   0  0  0  0  0  0  0  0  0  0  0  0
  146.6478  137.2365  154.0816 H   0  0  0  0  0  0  0  0  0  0  0  0
  147.3649  135.6357  152.3582 H   0  0  0  0  0  0  0  0  0  0  0  0
  146.6612  134.3254  151.0474 H   0  0  0  0  0  0  0  0  0  0  0  0
  146.5415  131.3939  150.4071 H   0  0  0  0  0  0  0  0  0  0  0  0
  142.9450  133.7442  151.0066 H   0  0  0  0  0  0  0  0  0  0  0  0
  150.5507  136.6649  156.1386 H   0  0  0  0  0  0  0  0  0  0  0  0
  150.9066  135.7539  154.6851 H   0  0  0  0  0  0  0  0  0  0  0  0
  151.6429  137.7992  153.5065 H   0  0  0  0  0  0  0  0  0  0  0  0
  152.5459  137.5829  154.9772 H   0  0  0  0  0  0  0  0  0  0  0  0
  149.2250  136.9437  153.5483 H   0  0  0  0  0  0  0  0  0  0  0  0
  1  2  1  0  0  0  0
  1 22  1  0  0  0  0
  1 23  1  0  0  0  0
  1 24  1  0  0  0  0
  2  3  2  0  0  0  0
  2  4  1  0  0  0  0
  4 20  1  0  0  0  0
  4  5  1  0  0  0  0
  5  6  1  0  0  0  0
  5 25  1  0  0  0  0
  5 26  1  0  0  0  0
  6  7  1  0  0  0  0
  6 27  1  0  0  0  0
  6 28  1  0  0  0  0
  7  8  1  0  0  0  0
  7 19  1  0  0  0  0
  7 41  1  0  0  0  0
  8  9  1  0  0  0  0
  8 29  1  0  0  0  0
  8 30  1  0  0  0  0
  9 10  1  0  0  0  0
  9 31  1  0  0  0  0
  9 32  1  0  0  0  0
 10 11  1  0  0  0  0
 10 33  1  0  0  0  0
 11 12  2  0  0  0  0
 11 13  1  0  0  0  0
 13 14  1  0  0  0  0
 13 34  1  0  0  0  0
 14 18  2  0  0  0  0
 14 15  1  0  0  0  0
 15 16  2  0  0  0  0
 15 35  1  0  0  0  0
 16 17  1  0  0  0  0
 17 21  1  0  0  0  0
 17 18  1  0  0  0  0
 18 36  1  0  0  0  0
 19 20  1  0  0  0  0
 19 37  1  0  0  0  0
 19 38  1  0  0  0  0
 20 39  1  0  0  0  0
 20 40  1  0  0  0  0
M  CHG  1   7   1
M  END
> <s_m_source_file>
AV-unprocessed.smi

> <i_m_source_file_index>
1467

> <i_lp_mmshare_version>
43012

> <i_f3d_flags>
0

> <s_epik_input>
W0NIM11DKD1PKU4xW0NIMl1bQ0gyXU4oW0NIMl1bQ0gyXTEpW0NIMl1bQ0gyXVtOSF1DKD1PKVtOSF1jMltjSF1uW25IXVtjSF0y

> <s_epik_cmdline>
J2VwaWtfcHl0aG9uJywgJy1waCcsICc3LjAnLCAnLXRuJywgJzgnLCAnLW1hJywgJzIwMCcsICctbWV0YWxfYmluZGluZycsICctaW1hZScsICc8aW5maWxlLm1hZT4nLCAnLW9tYWUnLCAnPG91dGZpbGUubWFlPic=

> <r_lp_tautomer_probability>
0.5

> <r_epik_Ionization_Penalty>
0.630073

> <r_epik_Ionization_Penalty_Charging>
0.630034

> <r_epik_Ionization_Penalty_Neutral>
3.91951e-05

> <r_epik_State_Penalty>
0.646805

> <r_epik_Charging_Adjusted_Penalty>
1.27684

> <i_epik_Tot_Q>
1

> <i_epik_Tot_abs_Q>
1

> <r_epik_Metal_State_Penalty>
0.646807

> <b_epik_Metal_Only>
0

> <s_lp_Force_Field>
OPLS_2005

> <r_lp_Energy>
42.6294

> <b_lp_Chiralities_Consistent>
1

> <s_lp_Variant>
AV-unprocessed.smi:1467-2

> <Gold.Version>
5.8.1

> <Gold.Id.Protein>
6NUR|6NUR_protein|mol2

> <Gold.PLP.Fitness>
49.7309

> <Gold.PLP.PLP>
-30.4651

> <Gold.PLP.part.hbond>
-4.9606

> <Gold.PLP.part.metal>
0.0000

> <Gold.PLP.part.buried>
-1.9573

> <Gold.PLP.part.nonpolar>
-24.8440

> <Gold.PLP.part.repulsive>
0.3353

> <Gold.PLP.ligand.clash>
0.0000

> <Gold.PLP.ligand.torsion>
0.7268

> <Gold.PLP.Chemscore.Hbond>
4.9582

> <Gold.PLP.Chemscore.CHOScore>
1.9334

> <Gold.PLP.Chemscore.Metal>
0.0000

> <Gold.Chemscore.Hbonds>
donor molecule, donor type, donor heavy atom, donor atom, acceptor molecule, acceptor atom, score
      L1  H     7    41       P1  7948  2.00
      L1  H    10    33       P1  7948  1.00
      L1  H    17    21       P1 10952  0.83
      P1  H  7997  8010       L1     3  1.00
      L1  C    15    35       P1 10747  1.00
      L1  C    18    36       P1 10186  0.96

> <Gold.PLP.Chemscore.Internal.Correction>
0.0445

> <Gold.Rescore>
     Score         DG    S(hbond)    S(metal)    S(lipo)     H(rot)  DE(clash)    DE(int)     intcor
     19.44     -20.46       3.76        0.00      59.11       1.75       0.34       0.68       ----

> <Gold.Chemscore.Fitness>
19.4423

> <Gold.Chemscore.DG>
-20.4647

> <Gold.Chemscore.ZeroCoef>
-5.4800

> <Gold.Chemscore.Hbond>
3.7580

> <Gold.Chemscore.Metal>
0.0000

> <Gold.Chemscore.Lipo>
59.1145

> <Gold.Chemscore.Internal_Hbond>
0.0000

> <Gold.Chemscore.DEClash>
0.3383

> <Gold.Chemscore.DEInternal>
0.6841

> <Gold.Chemscore.Rot>
1.7513

> <Gold.Chemscore.Internal.Correction>
   9.000000E+99

> <Gold.Chemscore.Hbonds>
donor molecule, donor type, donor heavy atom, donor atom, acceptor molecule, acceptor atom, score
      L1  H     7    41       P1  7948  0.98
      L1  H    10    33       P1  7948  0.96
      L1  H    17    21       P1 10952  0.81
      P1  H  7997  8010       L1     3  1.00

> <Gold.Chemscore.Hbond.Weighted>
-12.5517

> <Gold.Chemscore.Metal.Weighted>
-0.0000

> <Gold.Chemscore.Lipo.Weighted>
-6.9164

> <Gold.Chemscore.Internal_Hbond.Weighted>
0.0000

> <Gold.Chemscore.DEClash.Weighted>
0.3383

> <Gold.Chemscore.DEInternal.Weighted>
0.6841

> <Gold.Chemscore.Rot.Weighted>
4.4833

> <Gold.Chemscore.Internal.Correction.Weighted>
   9.000000E+99

> <Gold.Protein.RotatedTorsions>
[ 6907 6896 6895 6894 ] final -121.31 input  -60.11 | X-H torsion
[ 7974 7965 7964 7962 ] final  -89.40 input  175.53 | X-H torsion
[ 8008 7997 7996 7995 ] final   79.57 input   59.86 | X-H torsion
[ 10167 10162 10161 10158 ] final   64.83 input  -65.29 | X-H torsion
[ 10718 10713 10712 10709 ] final   49.68 input   66.30 | X-H torsion
[ 10763 10752 10751 10750 ] final   69.80 input  -60.55 | X-H torsion
[ 11005 11000 10999 10996 ] final   23.64 input  -57.11 | X-H torsion

> <Gold.Protein.ActiveResidues>
 VAL166  LYS551  ARG553  GLY616  TRP617  ASP618  TYR619  PRO620  LYS621  CYS622 
 ASP623  PHE694  ASN695  SER759  ASP760  ASP761  ALA762  ILE779  LEU786  VAL792 
 PHE793  MET794  SER795  GLU796  ALA797  LYS798  CYS799  TRP800  GLU811  SER814 

> <Gold.Protein.RotatedAtoms>
  150.8472  133.7843  159.3038 H   0  0  0  0  0  0  0  0  0  0  0  0  # atno 6907 bound_to 6896
  151.5527  135.1065  159.9963 H   0  0  0  0  0  0  0  0  0  0  0  0  # atno 6908 bound_to 6896
  152.4523  133.7610  159.6803 H   0  0  0  0  0  0  0  0  0  0  0  0  # atno 6909 bound_to 6896
  145.4404  140.9559  143.2078 H   0  0  0  0  0  0  0  0  0  0  0  0  # atno 7974 bound_to 7965
  155.8715  140.3449  155.5825 H   0  0  0  0  0  0  0  0  0  0  0  0  # atno 8008 bound_to 7997
  155.7822  140.0860  157.2072 H   0  0  0  0  0  0  0  0  0  0  0  0  # atno 8009 bound_to 7997
  154.4018  140.1498  156.3052 H   0  0  0  0  0  0  0  0  0  0  0  0  # atno 8010 bound_to 7997
  140.1179  144.4759  150.6938 H   0  0  0  0  0  0  0  0  0  0  0  0  # atno 10167 bound_to 10162
  157.4810  130.8315  149.8094 H   0  0  0  0  0  0  0  0  0  0  0  0  # atno 10718 bound_to 10713
  153.0307  135.5197  154.7344 H   0  0  0  0  0  0  0  0  0  0  0  0  # atno 10763 bound_to 10752
  154.6362  135.2906  155.0160 H   0  0  0  0  0  0  0  0  0  0  0  0  # atno 10764 bound_to 10752
  154.1094  135.6624  153.4935 H   0  0  0  0  0  0  0  0  0  0  0  0  # atno 10765 bound_to 10752
  140.3674  134.2059  155.7668 H   0  0  0  0  0  0  0  0  0  0  0  0  # atno 11005 bound_to 11000
  144.8125  139.5936  143.7023 LP  0  0  0  0  0  0  0  0  0  0  0  0  # atno 17320 bound_to 7965
  146.2559  139.6302  142.9395 LP  0  0  0  0  0  0  0  0  0  0  0  0  # atno 17321 bound_to 7965
  140.6889  143.2365  151.5185 LP  0  0  0  0  0  0  0  0  0  0  0  0  # atno 17342 bound_to 10162
  139.5584  144.2217  152.1651 LP  0  0  0  0  0  0  0  0  0  0  0  0  # atno 17343 bound_to 10162
  156.0122  130.3828  150.2228 LP  0  0  0  0  0  0  0  0  0  0  0  0  # atno 17370 bound_to 10713
  157.0414  131.0036  151.3282 LP  0  0  0  0  0  0  0  0  0  0  0  0  # atno 17371 bound_to 10713
  141.1965  133.8080  157.0668 LP  0  0  0  0  0  0  0  0  0  0  0  0  # atno 17394 bound_to 11000
  140.0578  134.9771  157.1252 LP  0  0  0  0  0  0  0  0  0  0  0  0  # atno 17395 bound_to 11000

$$$$
