AV-unprocessed.smi:1868|AV-procd|sdf|7586|dock4
  -GOLD-   22720 9293D 1   1.00000     0.00000
 Structure written by MMmdl.
 47 49  0  0  0  0  0  0  0  0  2 V2000
  154.2539  139.4445  162.0403 C   0  0  0  0  0  0  0  0  0  0  0  0
  153.5352  140.6842  161.6110 C   0  0  0  0  0  0  0  0  0  0  0  0
  153.2464  141.6684  162.4621 N   0  0  0  0  0  0  0  0  0  0  0  0
  152.6136  142.5930  161.6540 C   0  0  0  0  0  0  0  0  0  0  0  0
  152.0626  143.8574  161.9615 C   0  0  0  0  0  0  0  0  0  0  0  0
  151.4541  144.6350  160.9544 C   0  0  0  0  0  0  0  0  0  0  0  0
  151.3882  144.1608  159.6283 C   0  0  0  0  0  0  0  0  0  0  0  0
  151.9305  142.9035  159.3003 C   0  0  0  0  0  0  0  0  0  0  0  0
  152.5356  142.1305  160.3097 C   0  0  0  0  0  0  0  0  0  0  0  0
  153.1393  140.8761  160.3286 N   0  0  0  0  0  0  0  0  0  0  0  0
  153.3040  139.9758  159.1958 C   0  0  0  0  0  0  0  0  0  0  0  0
  152.8978  138.5221  159.5175 C   0  0  2  0  0  0  0  0  0  0  0  0
  153.9654  137.6887  159.1130 O   0  0  0  0  0  0  0  0  0  0  0  0
  151.6041  138.0704  158.8011 C   0  0  0  0  0  0  0  0  0  0  0  0
  151.8064  137.7700  157.3606 N   0  3  2  0  0  0  0  0  0  0  0  0
  152.1394  138.9900  156.5805 C   0  0  0  0  0  0  0  0  0  0  0  0
  152.4776  138.6454  155.1193 C   0  0  0  0  0  0  0  0  0  0  0  0
  151.3487  137.8581  154.4305 C   0  0  2  0  0  0  0  0  0  0  0  0
  150.1329  138.7369  154.0871 C   0  0  0  0  0  0  0  0  0  0  0  0
  150.9777  136.6382  155.2931 C   0  0  0  0  0  0  0  0  0  0  0  0
  150.6721  137.0253  156.7512 C   0  0  0  0  0  0  0  0  0  0  0  0
  154.4579  139.4732  163.1112 H   0  0  0  0  0  0  0  0  0  0  0  0
  155.2045  139.3586  161.5141 H   0  0  0  0  0  0  0  0  0  0  0  0
  153.6515  138.5611  161.8321 H   0  0  0  0  0  0  0  0  0  0  0  0
  152.1084  144.2302  162.9742 H   0  0  0  0  0  0  0  0  0  0  0  0
  151.0364  145.6002  161.2007 H   0  0  0  0  0  0  0  0  0  0  0  0
  150.9211  144.7633  158.8631 H   0  0  0  0  0  0  0  0  0  0  0  0
  151.8791  142.5386  158.2855 H   0  0  0  0  0  0  0  0  0  0  0  0
  152.7094  140.3575  158.3648 H   0  0  0  0  0  0  0  0  0  0  0  0
  154.3423  140.0164  158.8640 H   0  0  0  0  0  0  0  0  0  0  0  0
  152.7912  138.4263  160.5965 H   0  0  0  0  0  0  0  0  0  0  0  0
  154.1540  137.8494  158.2013 H   0  0  0  0  0  0  0  0  0  0  0  0
  151.1809  137.1838  159.2736 H   0  0  0  0  0  0  0  0  0  0  0  0
  150.8581  138.8588  158.9151 H   0  0  0  0  0  0  0  0  0  0  0  0
  151.3071  139.6938  156.6263 H   0  0  0  0  0  0  0  0  0  0  0  0
  152.9971  139.4907  157.0316 H   0  0  0  0  0  0  0  0  0  0  0  0
  152.6987  139.5560  154.5613 H   0  0  0  0  0  0  0  0  0  0  0  0
  153.3919  138.0507  155.0991 H   0  0  0  0  0  0  0  0  0  0  0  0
  151.7374  137.4857  153.4817 H   0  0  0  0  0  0  0  0  0  0  0  0
  149.6602  139.1548  154.9756 H   0  0  0  0  0  0  0  0  0  0  0  0
  149.3767  138.1625  153.5515 H   0  0  0  0  0  0  0  0  0  0  0  0
  150.4231  139.5701  153.4465 H   0  0  0  0  0  0  0  0  0  0  0  0
  150.1259  136.1136  154.8587 H   0  0  0  0  0  0  0  0  0  0  0  0
  151.8060  135.9285  155.2826 H   0  0  0  0  0  0  0  0  0  0  0  0
  150.4680  136.1161  157.3148 H   0  0  0  0  0  0  0  0  0  0  0  0
  149.7656  137.6299  156.8025 H   0  0  0  0  0  0  0  0  0  0  0  0
  152.6185  137.1726  157.3040 H   0  0  0  0  0  0  0  0  0  0  0  0
  1  2  1  0  0  0  0
  1 22  1  0  0  0  0
  1 23  1  0  0  0  0
  1 24  1  0  0  0  0
  2 10  1  0  0  0  0
  2  3  2  0  0  0  0
  3  4  1  0  0  0  0
  4  9  2  0  0  0  0
  4  5  1  0  0  0  0
  5  6  2  0  0  0  0
  5 25  1  0  0  0  0
  6  7  1  0  0  0  0
  6 26  1  0  0  0  0
  7  8  2  0  0  0  0
  7 27  1  0  0  0  0
  8  9  1  0  0  0  0
  8 28  1  0  0  0  0
  9 10  1  0  0  0  0
 10 11  1  0  0  0  0
 11 12  1  0  0  0  0
 11 29  1  0  0  0  0
 11 30  1  0  0  0  0
 12 13  1  0  0  0  0
 12 14  1  0  0  0  0
 12 31  1  0  0  0  0
 13 32  1  0  0  0  0
 14 15  1  0  0  0  0
 14 33  1  0  0  0  0
 14 34  1  0  0  0  0
 15 21  1  0  0  0  0
 15 16  1  0  0  0  0
 15 47  1  0  0  0  0
 16 17  1  0  0  0  0
 16 35  1  0  0  0  0
 16 36  1  0  0  0  0
 17 18  1  0  0  0  0
 17 37  1  0  0  0  0
 17 38  1  0  0  0  0
 18 19  1  0  0  0  0
 18 20  1  0  0  0  0
 18 39  1  0  0  0  0
 19 40  1  0  0  0  0
 19 41  1  0  0  0  0
 19 42  1  0  0  0  0
 20 21  1  0  0  0  0
 20 43  1  0  0  0  0
 20 44  1  0  0  0  0
 21 45  1  0  0  0  0
 21 46  1  0  0  0  0
M  CHG  1  15   1
M  END
> <s_m_source_file>
AV-unprocessed.smi

> <i_m_source_file_index>
1868

> <i_lp_mmshare_version>
43012

> <i_f3d_flags>
0

> <s_epik_input>
W2NIXTFbY0hdW2NIXVtjSF1jKGMxMiluKGMobjIpW0NIM10pW0NIMl1bQ0BIXShbT0hdKVtDSDJdTjNbQ0gyXVtDSDJdW0NIXShbQ0gzXSlbQ0gyXVtDSDJdMw==

> <s_epik_cmdline>
J2VwaWtfcHl0aG9uJywgJy1waCcsICc3LjAnLCAnLXRuJywgJzgnLCAnLW1hJywgJzIwMCcsICctbWV0YWxfYmluZGluZycsICctaW1hZScsICc8aW5maWxlLm1hZT4nLCAnLW9tYWUnLCAnPG91dGZpbGUubWFlPic=

> <r_epik_Ionization_Penalty>
0.101157

> <r_epik_Ionization_Penalty_Charging>
0.00181365

> <r_epik_Ionization_Penalty_Neutral>
0.0993436

> <r_epik_State_Penalty>
0.0871902

> <r_epik_Charging_Adjusted_Penalty>
0.0890039

> <i_epik_Tot_Q>
1

> <i_epik_Tot_abs_Q>
1

> <r_epik_Metal_State_Penalty>
9.24346e-05

> <b_epik_Metal_Only>
0

> <s_lp_Force_Field>
OPLS_2005

> <r_lp_Energy>
25.8314

> <b_lp_Chiralities_Consistent>
1

> <s_lp_Variant>
AV-unprocessed.smi:1868-3

> <Gold.Version>
5.8.1

> <Gold.Id.Protein>
6NUR|6NUR_protein|mol2

> <Gold.PLP.Fitness>
45.2318

> <Gold.PLP.PLP>
-47.2901

> <Gold.PLP.part.hbond>
0.0000

> <Gold.PLP.part.metal>
0.0000

> <Gold.PLP.part.buried>
-5.1852

> <Gold.PLP.part.nonpolar>
-41.5352

> <Gold.PLP.part.repulsive>
0.1108

> <Gold.PLP.ligand.clash>
0.0000

> <Gold.PLP.ligand.torsion>
1.0406

> <Gold.PLP.Chemscore.Hbond>
0.0000

> <Gold.PLP.Chemscore.CHOScore>
0.0000

> <Gold.PLP.Chemscore.Metal>
0.0000

> <Gold.PLP.Chemscore.Internal.Correction>
0.0230

> <Gold.Rescore>
     Score         DG    S(hbond)    S(metal)    S(lipo)     H(rot)  DE(clash)    DE(int)     intcor
     15.07     -16.05       0.00        0.00     132.31       1.92       0.00       0.98       ----

> <Gold.Chemscore.Fitness>
15.0667

> <Gold.Chemscore.DG>
-16.0458

> <Gold.Chemscore.ZeroCoef>
-5.4800

> <Gold.Chemscore.Hbond>
0.0000

> <Gold.Chemscore.Metal>
0.0000

> <Gold.Chemscore.Lipo>
132.3125

> <Gold.Chemscore.Internal_Hbond>
0.0000

> <Gold.Chemscore.DEClash>
0.0004

> <Gold.Chemscore.DEInternal>
0.9788

> <Gold.Chemscore.Rot>
1.9198

> <Gold.Chemscore.Internal.Correction>
   9.000000E+99

> <Gold.Chemscore.Hbond.Weighted>
-0.0000

> <Gold.Chemscore.Metal.Weighted>
-0.0000

> <Gold.Chemscore.Lipo.Weighted>
-15.4806

> <Gold.Chemscore.Internal_Hbond.Weighted>
0.0000

> <Gold.Chemscore.DEClash.Weighted>
0.0004

> <Gold.Chemscore.DEInternal.Weighted>
0.9788

> <Gold.Chemscore.Rot.Weighted>
4.9147

> <Gold.Chemscore.Internal.Correction.Weighted>
   9.000000E+99

> <Gold.Protein.RotatedTorsions>
[ 6907 6896 6895 6894 ] final  143.96 input  -60.11 | X-H torsion
[ 7974 7965 7964 7962 ] final  173.61 input  175.53 | X-H torsion
[ 8008 7997 7996 7995 ] final   81.48 input   59.86 | X-H torsion
[ 10167 10162 10161 10158 ] final   46.90 input  -65.29 | X-H torsion
[ 10718 10713 10712 10709 ] final -131.13 input   66.30 | X-H torsion
[ 10763 10752 10751 10750 ] final -103.62 input  -60.55 | X-H torsion
[ 11005 11000 10999 10996 ] final  -57.11 input  -57.11 | X-H torsion

> <Gold.Protein.ActiveResidues>
 VAL166  LYS551  ARG553  GLY616  TRP617  ASP618  TYR619  PRO620  LYS621  CYS622 
 ASP623  PHE694  ASN695  SER759  ASP760  ASP761  ALA762  ILE779  LEU786  VAL792 
 PHE793  MET794  SER795  GLU796  ALA797  LYS798  CYS799  TRP800  GLU811  SER814 

> <Gold.Protein.RotatedAtoms>
  152.1997  133.4832  159.5051 H   0  0  0  0  0  0  0  0  0  0  0  0  # atno 6907 bound_to 6896
  150.6967  134.1606  159.4184 H   0  0  0  0  0  0  0  0  0  0  0  0  # atno 6908 bound_to 6896
  151.9523  135.0163  160.0593 H   0  0  0  0  0  0  0  0  0  0  0  0  # atno 6909 bound_to 6896
  144.7240  139.9673  143.6436 H   0  0  0  0  0  0  0  0  0  0  0  0  # atno 7974 bound_to 7965
  155.8977  140.3435  155.6003 H   0  0  0  0  0  0  0  0  0  0  0  0  # atno 8008 bound_to 7997
  155.7536  140.0823  157.2208 H   0  0  0  0  0  0  0  0  0  0  0  0  # atno 8009 bound_to 7997
  154.4040  140.1548  156.2740 H   0  0  0  0  0  0  0  0  0  0  0  0  # atno 8010 bound_to 7997
  140.3092  144.2841  150.6203 H   0  0  0  0  0  0  0  0  0  0  0  0  # atno 10167 bound_to 10162
  156.2213  130.6980  151.0759 H   0  0  0  0  0  0  0  0  0  0  0  0  # atno 10718 bound_to 10713
  154.7820  135.4816  153.9865 H   0  0  0  0  0  0  0  0  0  0  0  0  # atno 10763 bound_to 10752
  153.1507  135.6790  153.8893 H   0  0  0  0  0  0  0  0  0  0  0  0  # atno 10764 bound_to 10752
  153.8538  135.3164  155.3412 H   0  0  0  0  0  0  0  0  0  0  0  0  # atno 10765 bound_to 10752
  141.1150  133.6610  156.4720 H   0  0  0  0  0  0  0  0  0  0  0  0  # atno 11005 bound_to 11000
  146.0590  139.3585  143.0593 LP  0  0  0  0  0  0  0  0  0  0  0  0  # atno 17320 bound_to 7965
  145.8117  140.9722  143.0945 LP  0  0  0  0  0  0  0  0  0  0  0  0  # atno 17321 bound_to 7965
  140.5583  143.2196  151.7809 LP  0  0  0  0  0  0  0  0  0  0  0  0  # atno 17342 bound_to 10162
  139.4897  144.4383  151.9793 LP  0  0  0  0  0  0  0  0  0  0  0  0  # atno 17343 bound_to 10162
  157.7089  131.0744  150.6571 LP  0  0  0  0  0  0  0  0  0  0  0  0  # atno 17370 bound_to 10713
  156.6635  130.4519  149.5680 LP  0  0  0  0  0  0  0  0  0  0  0  0  # atno 17371 bound_to 10713
  140.4671  134.6788  157.5112 LP  0  0  0  0  0  0  0  0  0  0  0  0  # atno 17394 bound_to 11000
  140.0066  134.6754  155.9445 LP  0  0  0  0  0  0  0  0  0  0  0  0  # atno 17395 bound_to 11000

$$$$
