AV-unprocessed.smi:2390|AV-procd|sdf|9476|dock9
  -GOLD-   2272013103D 1   1.00000     0.00000
 Structure written by MMmdl.
 45 46  0  0  0  0  0  0  0  0  1 V2000
  153.1656  141.6188  160.7225 C   0  0  0  0  0  0  0  0  0  0  0  0
  152.4562  142.7313  159.9798 C   0  0  0  0  0  0  0  0  0  0  0  0
  152.5024  144.0598  160.4465 C   0  0  0  0  0  0  0  0  0  0  0  0
  151.8222  145.0454  159.7091 C   0  0  0  0  0  0  0  0  0  0  0  0
  151.1292  144.6650  158.5436 C   0  0  0  0  0  0  0  0  0  0  0  0
  151.1308  143.3093  158.1448 C   0  0  0  0  0  0  0  0  0  0  0  0
  150.4047  143.0300  156.9567 N   0  0  0  0  0  0  0  0  0  0  0  0
  150.0518  141.8307  156.4615 C   0  0  0  0  0  0  0  0  0  0  0  0
  150.2889  140.7448  156.9915 O   0  0  0  0  0  0  0  0  0  0  0  0
  149.4012  141.9623  155.2961 N   0  0  0  0  0  0  0  0  0  0  0  0
  148.9146  140.8658  154.4586 C   0  0  1  0  0  0  0  0  0  0  0  0
  149.9888  139.7665  154.3685 C   0  0  0  0  0  0  0  0  0  0  0  0
  147.5179  140.3730  154.9528 C   0  0  1  0  0  0  0  0  0  0  0  0
  146.5050  141.5467  154.9223 C   0  0  0  0  0  0  0  0  0  0  0  0
  147.0187  139.1728  154.2345 N   0  0  0  0  0  0  0  0  0  0  0  0
  146.9193  139.3812  152.7852 C   0  0  0  0  0  0  0  0  0  0  0  0
  146.3907  138.1449  152.0372 C   0  0  0  0  0  0  0  0  0  0  0  0
  145.1265  137.7689  152.5649 O   0  0  0  0  0  0  0  0  0  0  0  0
  145.1949  137.4798  153.9540 C   0  0  0  0  0  0  0  0  0  0  0  0
  145.7103  138.7128  154.7155 C   0  0  0  0  0  0  0  0  0  0  0  0
  151.7896  142.3662  158.8635 N   0  0  0  0  0  0  0  0  0  0  0  0
  153.7936  142.0146  161.5212 H   0  0  0  0  0  0  0  0  0  0  0  0
  153.8005  141.0506  160.0420 H   0  0  0  0  0  0  0  0  0  0  0  0
  152.4391  140.9371  161.1652 H   0  0  0  0  0  0  0  0  0  0  0  0
  153.0437  144.3191  161.3447 H   0  0  0  0  0  0  0  0  0  0  0  0
  151.8323  146.0763  160.0309 H   0  0  0  0  0  0  0  0  0  0  0  0
  150.6031  145.4104  157.9645 H   0  0  0  0  0  0  0  0  0  0  0  0
  150.1346  143.8363  156.4132 H   0  0  0  0  0  0  0  0  0  0  0  0
  149.2558  142.8955  154.9399 H   0  0  0  0  0  0  0  0  0  0  0  0
  148.8097  141.2023  153.4283 H   0  0  0  0  0  0  0  0  0  0  0  0
  149.6158  138.8940  153.8315 H   0  0  0  0  0  0  0  0  0  0  0  0
  150.3348  139.4396  155.3487 H   0  0  0  0  0  0  0  0  0  0  0  0
  150.8646  140.1305  153.8302 H   0  0  0  0  0  0  0  0  0  0  0  0
  147.6431  140.0984  156.0014 H   0  0  0  0  0  0  0  0  0  0  0  0
  146.8866  142.4379  155.4163 H   0  0  0  0  0  0  0  0  0  0  0  0
  145.5845  141.3095  155.4532 H   0  0  0  0  0  0  0  0  0  0  0  0
  146.2409  141.8219  153.9008 H   0  0  0  0  0  0  0  0  0  0  0  0
  146.2708  140.2339  152.5782 H   0  0  0  0  0  0  0  0  0  0  0  0
  147.8944  139.6135  152.3613 H   0  0  0  0  0  0  0  0  0  0  0  0
  146.2809  138.3637  150.9749 H   0  0  0  0  0  0  0  0  0  0  0  0
  147.0915  137.3127  152.1216 H   0  0  0  0  0  0  0  0  0  0  0  0
  144.2023  137.2032  154.3092 H   0  0  0  0  0  0  0  0  0  0  0  0
  145.8469  136.6214  154.1244 H   0  0  0  0  0  0  0  0  0  0  0  0
  145.7605  138.4291  155.7644 H   0  0  0  0  0  0  0  0  0  0  0  0
  144.9812  139.5205  154.6377 H   0  0  0  0  0  0  0  0  0  0  0  0
  1  2  1  0  0  0  0
  1 22  1  0  0  0  0
  1 23  1  0  0  0  0
  1 24  1  0  0  0  0
  2 21  1  0  0  0  0
  2  3  2  0  0  0  0
  3  4  1  0  0  0  0
  3 25  1  0  0  0  0
  4  5  2  0  0  0  0
  4 26  1  0  0  0  0
  5  6  1  0  0  0  0
  5 27  1  0  0  0  0
  6  7  1  0  0  0  0
  6 21  2  0  0  0  0
  7  8  1  0  0  0  0
  7 28  1  0  0  0  0
  8  9  2  0  0  0  0
  8 10  1  0  0  0  0
 10 11  1  0  0  0  0
 10 29  1  0  0  0  0
 11 12  1  0  0  0  0
 11 13  1  0  0  0  0
 11 30  1  0  0  0  0
 12 31  1  0  0  0  0
 12 32  1  0  0  0  0
 12 33  1  0  0  0  0
 13 14  1  0  0  0  0
 13 15  1  0  0  0  0
 13 34  1  0  0  0  0
 14 35  1  0  0  0  0
 14 36  1  0  0  0  0
 14 37  1  0  0  0  0
 15 20  1  0  0  0  0
 15 16  1  0  0  0  0
 16 17  1  0  0  0  0
 16 38  1  0  0  0  0
 16 39  1  0  0  0  0
 17 18  1  0  0  0  0
 17 40  1  0  0  0  0
 17 41  1  0  0  0  0
 18 19  1  0  0  0  0
 19 20  1  0  0  0  0
 19 42  1  0  0  0  0
 19 43  1  0  0  0  0
 20 44  1  0  0  0  0
 20 45  1  0  0  0  0
M  END
> <s_m_source_file>
AV-unprocessed.smi

> <i_m_source_file_index>
2390

> <i_lp_mmshare_version>
43012

> <i_f3d_flags>
0

> <s_epik_input>
W0NIM11jMVtjSF1bY0hdW2NIXWMobjEpW05IXUMoPU8pW05IXVtDQEhdKFtDSDNdKVtDQEhdKFtDSDNdKU4yW0NIMl1bQ0gyXU9bQ0gyXVtDSDJdMg==

> <s_epik_cmdline>
J2VwaWtfcHl0aG9uJywgJy1waCcsICc3LjAnLCAnLXRuJywgJzgnLCAnLW1hJywgJzIwMCcsICctbWV0YWxfYmluZGluZycsICctaW1hZScsICc8aW5maWxlLm1hZT4nLCAnLW9tYWUnLCAnPG91dGZpbGUubWFlPic=

> <r_epik_Ionization_Penalty>
0.266074

> <r_epik_Ionization_Penalty_Charging>
0

> <r_epik_Ionization_Penalty_Neutral>
0.266074

> <r_epik_State_Penalty>
0.257924

> <r_epik_Charging_Adjusted_Penalty>
0.257924

> <i_epik_Tot_Q>
0

> <i_epik_Tot_abs_Q>
0

> <r_epik_Metal_State_Penalty>
0.257919

> <b_epik_Metal_Only>
0

> <s_lp_Force_Field>
OPLS_2005

> <r_lp_Energy>
36.7319

> <b_lp_Chiralities_Consistent>
1

> <s_lp_Variant>
AV-unprocessed.smi:2390-4

> <Gold.Version>
5.8.1

> <Gold.Id.Protein>
6NUR|6NUR_protein|mol2

> <Gold.PLP.Fitness>
44.4595

> <Gold.PLP.PLP>
-39.7506

> <Gold.PLP.part.hbond>
-2.0000

> <Gold.PLP.part.metal>
0.0000

> <Gold.PLP.part.buried>
-4.1627

> <Gold.PLP.part.nonpolar>
-35.3212

> <Gold.PLP.part.repulsive>
0.7429

> <Gold.PLP.ligand.clash>
0.0000

> <Gold.PLP.ligand.torsion>
0.3735

> <Gold.PLP.Chemscore.Hbond>
1.7840

> <Gold.PLP.Chemscore.CHOScore>
0.0000

> <Gold.PLP.Chemscore.Metal>
0.0000

> <Gold.Chemscore.Hbonds>
donor molecule, donor type, donor heavy atom, donor atom, acceptor molecule, acceptor atom, score
      L1  H     7    28       P1  8028  0.98
      L1  H    10    29       P1  8028  0.78

> <Gold.PLP.Chemscore.Internal.Correction>
0.1038

> <Gold.Rescore>
     Score         DG    S(hbond)    S(metal)    S(lipo)     H(rot)  DE(clash)    DE(int)     intcor
     16.30     -19.26       1.85        0.00      96.34       1.44       0.01       2.95       ----

> <Gold.Chemscore.Fitness>
16.2981

> <Gold.Chemscore.DG>
-19.2609

> <Gold.Chemscore.ZeroCoef>
-5.4800

> <Gold.Chemscore.Hbond>
1.8547

> <Gold.Chemscore.Metal>
0.0000

> <Gold.Chemscore.Lipo>
96.3386

> <Gold.Chemscore.Internal_Hbond>
0.0000

> <Gold.Chemscore.DEClash>
0.0142

> <Gold.Chemscore.DEInternal>
2.9486

> <Gold.Chemscore.Rot>
1.4396

> <Gold.Chemscore.Internal.Correction>
   9.000000E+99

> <Gold.Chemscore.Hbonds>
donor molecule, donor type, donor heavy atom, donor atom, acceptor molecule, acceptor atom, score
      L1  H     7    28       P1  8028  0.93
      L1  H    10    29       P1  8028  0.76

> <Gold.Chemscore.Hbond.Weighted>
-6.1948

> <Gold.Chemscore.Metal.Weighted>
-0.0000

> <Gold.Chemscore.Lipo.Weighted>
-11.2716

> <Gold.Chemscore.Internal_Hbond.Weighted>
0.0000

> <Gold.Chemscore.DEClash.Weighted>
0.0142

> <Gold.Chemscore.DEInternal.Weighted>
2.9486

> <Gold.Chemscore.Rot.Weighted>
3.6855

> <Gold.Chemscore.Internal.Correction.Weighted>
   9.000000E+99

> <Gold.Protein.RotatedTorsions>
[ 6907 6896 6895 6894 ] final   43.41 input  -60.11 | X-H torsion
[ 7974 7965 7964 7962 ] final  -41.67 input  175.53 | X-H torsion
[ 8008 7997 7996 7995 ] final   91.70 input   59.86 | X-H torsion
[ 10167 10162 10161 10158 ] final  -49.06 input  -65.29 | X-H torsion
[ 10718 10713 10712 10709 ] final  105.14 input   66.30 | X-H torsion
[ 10763 10752 10751 10750 ] final  -86.93 input  -60.55 | X-H torsion
[ 11005 11000 10999 10996 ] final  -35.75 input  -57.11 | X-H torsion

> <Gold.Protein.ActiveResidues>
 VAL166  LYS551  ARG553  GLY616  TRP617  ASP618  TYR619  PRO620  LYS621  CYS622 
 ASP623  PHE694  ASN695  SER759  ASP760  ASP761  ALA762  ILE779  LEU786  VAL792 
 PHE793  MET794  SER795  GLU796  ALA797  LYS798  CYS799  TRP800  GLU811  SER814 

> <Gold.Protein.RotatedAtoms>
  152.2199  134.8422  160.0486 H   0  0  0  0  0  0  0  0  0  0  0  0  # atno 6907 bound_to 6896
  151.9210  133.3580  159.3905 H   0  0  0  0  0  0  0  0  0  0  0  0  # atno 6908 bound_to 6896
  150.6997  134.4561  159.5403 H   0  0  0  0  0  0  0  0  0  0  0  0  # atno 6909 bound_to 6896
  146.0189  140.6874  142.9188 H   0  0  0  0  0  0  0  0  0  0  0  0  # atno 7974 bound_to 7965
  156.0268  140.3334  155.7097 H   0  0  0  0  0  0  0  0  0  0  0  0  # atno 8008 bound_to 7997
  155.5943  140.0649  157.2768 H   0  0  0  0  0  0  0  0  0  0  0  0  # atno 8009 bound_to 7997
  154.4337  140.1821  156.1094 H   0  0  0  0  0  0  0  0  0  0  0  0  # atno 8010 bound_to 7997
  140.6702  143.2713  151.4161 H   0  0  0  0  0  0  0  0  0  0  0  0  # atno 10167 bound_to 10162
  157.6716  131.0820  150.5811 H   0  0  0  0  0  0  0  0  0  0  0  0  # atno 10718 bound_to 10713
  154.6280  135.5431  153.7649 H   0  0  0  0  0  0  0  0  0  0  0  0  # atno 10763 bound_to 10752
  153.0270  135.6429  154.1343 H   0  0  0  0  0  0  0  0  0  0  0  0  # atno 10764 bound_to 10752
  154.1274  135.2916  155.3173 H   0  0  0  0  0  0  0  0  0  0  0  0  # atno 10765 bound_to 10752
  140.9821  133.7051  156.1701 H   0  0  0  0  0  0  0  0  0  0  0  0  # atno 11005 bound_to 11000
  144.6982  140.3531  143.7178 LP  0  0  0  0  0  0  0  0  0  0  0  0  # atno 17320 bound_to 7965
  145.7224  139.1713  143.2477 LP  0  0  0  0  0  0  0  0  0  0  0  0  # atno 17321 bound_to 7965
  139.5967  144.1381  152.2152 LP  0  0  0  0  0  0  0  0  0  0  0  0  # atno 17342 bound_to 10162
  140.0753  144.5746  150.7162 LP  0  0  0  0  0  0  0  0  0  0  0  0  # atno 17343 bound_to 10162
  156.6112  130.4380  149.5858 LP  0  0  0  0  0  0  0  0  0  0  0  0  # atno 17370 bound_to 10713
  156.2429  130.6862  151.1573 LP  0  0  0  0  0  0  0  0  0  0  0  0  # atno 17371 bound_to 10713
  140.7171  134.4398  157.5577 LP  0  0  0  0  0  0  0  0  0  0  0  0  # atno 17394 bound_to 11000
  139.8954  134.8683  156.2132 LP  0  0  0  0  0  0  0  0  0  0  0  0  # atno 17395 bound_to 11000

$$$$
