AV-unprocessed.smi:110|AV-procd|sdf|1070|dock10
  -GOLD-   2262018153D 1   1.00000     0.00000
 Structure written by MMmdl.
 46 50  0  0  0  0  0  0  0  0  1 V2000
  147.6063  137.6558  153.8282 O   0  0  0  0  0  0  0  0  0  0  0  0
  146.5638  138.5942  153.6689 C   0  0  0  0  0  0  0  0  0  0  0  0
  147.1385  140.0212  153.6321 C   0  0  2  0  0  0  0  0  0  0  0  0
  148.4508  140.0547  154.1720 O   0  0  0  0  0  0  0  0  0  0  0  0
  148.7700  141.3728  154.4795 C   0  0  2  0  0  0  0  0  0  0  0  0
  149.6833  141.3661  155.6614 N   0  0  0  0  0  0  0  0  0  0  0  0
  149.5741  142.1140  156.8111 C   0  0  0  0  0  0  0  0  0  0  0  0
  150.5097  141.9127  157.6986 N   0  0  0  0  0  0  0  0  0  0  0  0
  151.3391  140.9609  157.1156 C   0  0  0  0  0  0  0  0  0  0  0  0
  152.5288  140.2886  157.5231 C   0  0  0  0  0  0  0  0  0  0  0  0
  153.1545  140.5150  158.7074 N   0  0  0  0  0  0  0  0  0  0  0  0
  153.8133  139.3958  159.3991 C   0  0  0  0  0  0  0  0  0  0  0  0
  153.9545  139.7722  160.8845 C   0  0  0  0  0  0  0  0  0  0  0  0
  153.4447  141.1749  160.8706 C   0  0  0  0  0  0  0  0  0  0  0  0
  153.3961  142.0697  161.9538 C   0  0  0  0  0  0  0  0  0  0  0  0
  152.8873  143.3652  161.7240 C   0  0  0  0  0  0  0  0  0  0  0  0
  152.4486  143.7406  160.4335 C   0  0  0  0  0  0  0  0  0  0  0  0
  152.5076  142.8246  159.3600 C   0  0  0  0  0  0  0  0  0  0  0  0
  153.0032  141.5240  159.5973 C   0  0  0  0  0  0  0  0  0  0  0  0
  153.0655  139.3952  156.6520 N   0  0  0  0  0  0  0  0  0  0  0  0
  152.4837  139.1653  155.4725 C   0  0  0  0  0  0  0  0  0  0  0  0
  151.3772  139.7125  154.9694 N   0  0  0  0  0  0  0  0  0  0  0  0
  150.8272  140.6135  155.8324 C   0  0  0  0  0  0  0  0  0  0  0  0
  147.4563  142.1143  154.7877 C   0  0  1  0  0  0  0  0  0  0  0  0
  147.2875  143.2250  153.9293 O   0  0  0  0  0  0  0  0  0  0  0  0
  146.3883  141.0666  154.4733 C   0  0  2  0  0  0  0  0  0  0  0  0
  145.8757  140.5065  155.6679 O   0  0  0  0  0  0  0  0  0  0  0  0
  147.1804  140.3830  152.6026 H   0  0  0  0  0  0  0  0  0  0  0  0
  149.3492  141.8221  153.6713 H   0  0  0  0  0  0  0  0  0  0  0  0
  147.4198  142.4491  155.8260 H   0  0  0  0  0  0  0  0  0  0  0  0
  145.5429  141.4815  153.9223 H   0  0  0  0  0  0  0  0  0  0  0  0
  147.8936  137.3768  152.9724 H   0  0  0  0  0  0  0  0  0  0  0  0
  146.0630  138.3655  152.7278 H   0  0  0  0  0  0  0  0  0  0  0  0
  145.8286  138.4822  154.4667 H   0  0  0  0  0  0  0  0  0  0  0  0
  148.7694  142.8158  156.9753 H   0  0  0  0  0  0  0  0  0  0  0  0
  153.2432  138.4729  159.2843 H   0  0  0  0  0  0  0  0  0  0  0  0
  154.7992  139.2364  158.9617 H   0  0  0  0  0  0  0  0  0  0  0  0
  153.3317  139.1480  161.5258 H   0  0  0  0  0  0  0  0  0  0  0  0
  154.9886  139.7291  161.2272 H   0  0  0  0  0  0  0  0  0  0  0  0
  153.7415  141.7753  162.9339 H   0  0  0  0  0  0  0  0  0  0  0  0
  152.8387  144.0752  162.5364 H   0  0  0  0  0  0  0  0  0  0  0  0
  152.0697  144.7378  160.2652 H   0  0  0  0  0  0  0  0  0  0  0  0
  152.1842  143.1313  158.3768 H   0  0  0  0  0  0  0  0  0  0  0  0
  152.9756  138.4404  154.8409 H   0  0  0  0  0  0  0  0  0  0  0  0
  147.0828  142.9059  153.0638 H   0  0  0  0  0  0  0  0  0  0  0  0
  146.3371  140.8848  156.4004 H   0  0  0  0  0  0  0  0  0  0  0  0
  1  2  1  0  0  0  0
  1 32  1  0  0  0  0
  2  3  1  0  0  0  0
  2 33  1  0  0  0  0
  2 34  1  0  0  0  0
  3 28  1  0  0  0  0
  3 26  1  0  0  0  0
  3  4  1  0  0  0  0
  4  5  1  0  0  0  0
  5 29  1  0  0  0  0
  5  6  1  0  0  0  0
  5 24  1  0  0  0  0
  6 23  1  0  0  0  0
  6  7  1  0  0  0  0
  7  8  2  0  0  0  0
  7 35  1  0  0  0  0
  8  9  1  0  0  0  0
  9 23  2  0  0  0  0
  9 10  1  0  0  0  0
 10 11  1  0  0  0  0
 10 20  2  0  0  0  0
 11 19  1  0  0  0  0
 11 12  1  0  0  0  0
 12 13  1  0  0  0  0
 12 36  1  0  0  0  0
 12 37  1  0  0  0  0
 13 14  1  0  0  0  0
 13 38  1  0  0  0  0
 13 39  1  0  0  0  0
 14 19  2  0  0  0  0
 14 15  1  0  0  0  0
 15 16  2  0  0  0  0
 15 40  1  0  0  0  0
 16 17  1  0  0  0  0
 16 41  1  0  0  0  0
 17 18  2  0  0  0  0
 17 42  1  0  0  0  0
 18 19  1  0  0  0  0
 18 43  1  0  0  0  0
 20 21  1  0  0  0  0
 21 22  2  0  0  0  0
 21 44  1  0  0  0  0
 22 23  1  0  0  0  0
 24 30  1  0  0  0  0
 24 25  1  0  0  0  0
 24 26  1  0  0  0  0
 25 45  1  0  0  0  0
 26 31  1  0  0  0  0
 26 27  1  0  0  0  0
 27 46  1  0  0  0  0
M  END
> <s_m_source_file>
AV-unprocessed.smi

> <i_m_source_file_index>
110

> <i_lp_mmshare_version>
43012

> <i_f3d_flags>
0

> <s_epik_input>
W09IXVtDSDJdW0NASF0xT1tDQEhdKFtDQEhdKFtPSF0pW0NAQEhdMVtPSF0pbihbY0hdbjIpYyhjMjMpbltjSF1uYzNOKFtDSDJdW0NIMl00KWMoYzQ1KVtjSF1bY0hdW2NIXVtjSF01

> <s_epik_cmdline>
J2VwaWtfcHl0aG9uJywgJy1waCcsICc3LjAnLCAnLXRuJywgJzgnLCAnLW1hJywgJzIwMCcsICctbWV0YWxfYmluZGluZycsICctaW1hZScsICc8aW5maWxlLm1hZT4nLCAnLW9tYWUnLCAnPG91dGZpbGUubWFlPic=

> <r_lp_tautomer_probability>
1

> <r_epik_Ionization_Penalty>
0.00068475

> <r_epik_Ionization_Penalty_Charging>
0

> <r_epik_Ionization_Penalty_Neutral>
0.00068475

> <r_epik_State_Penalty>
0.000417442

> <r_epik_Charging_Adjusted_Penalty>
0.000417442

> <i_epik_Tot_Q>
0

> <i_epik_Tot_abs_Q>
0

> <r_epik_Metal_State_Penalty>
-0

> <b_epik_Metal_Only>
0

> <s_epik_Chemistry_Notes>
This compound contains an acetal/aminal-like group ( X-CH(R)-Y where X, Y are N, S, or O) that may be acid/base labile, releasing an aldehyde.

> <s_lp_Force_Field>
OPLS_2005

> <r_lp_Energy>
57.5739

> <b_lp_Chiralities_Consistent>
1

> <s_lp_Variant>
AV-unprocessed.smi:110-8

> <Gold.Version>
5.8.1

> <Gold.Id.Protein>
6NUR|6NUR_protein|mol2

> <Gold.PLP.Fitness>
59.9023

> <Gold.PLP.PLP>
-49.5863

> <Gold.PLP.part.hbond>
-4.9658

> <Gold.PLP.part.metal>
0.0000

> <Gold.PLP.part.buried>
0.3474

> <Gold.PLP.part.nonpolar>
-43.9106

> <Gold.PLP.part.repulsive>
0.2280

> <Gold.PLP.ligand.clash>
0.0000

> <Gold.PLP.ligand.torsion>
1.1585

> <Gold.PLP.Chemscore.Hbond>
3.5062

> <Gold.PLP.Chemscore.CHOScore>
0.6706

> <Gold.PLP.Chemscore.Metal>
0.0000

> <Gold.Chemscore.Hbonds>
donor molecule, donor type, donor heavy atom, donor atom, acceptor molecule, acceptor atom, score
      L1  H     1    32       P1  7948  1.00
      P1  H  7989  7998       L1    22  0.95
      P1  H  7997  8010       L1    20  0.99
      P1  H  8022  8030       L1    25  0.51
      L1  C     7    35       P1  8028  0.70

> <Gold.PLP.Chemscore.Internal.Correction>
0.1025

> <Gold.Rescore>
     Score         DG    S(hbond)    S(metal)    S(lipo)     H(rot)  DE(clash)    DE(int)     intcor
     12.25     -15.43       1.85        0.00     106.38       3.38       0.67       2.51       ----

> <Gold.Chemscore.Fitness>
12.2550

> <Gold.Chemscore.DG>
-15.4302

> <Gold.Chemscore.ZeroCoef>
-5.4800

> <Gold.Chemscore.Hbond>
1.8460

> <Gold.Chemscore.Metal>
0.0000

> <Gold.Chemscore.Lipo>
106.3823

> <Gold.Chemscore.Internal_Hbond>
0.0000

> <Gold.Chemscore.DEClash>
0.6653

> <Gold.Chemscore.DEInternal>
2.5099

> <Gold.Chemscore.Rot>
3.3837

> <Gold.Chemscore.Internal.Correction>
   9.000000E+99

> <Gold.Chemscore.Hbonds>
donor molecule, donor type, donor heavy atom, donor atom, acceptor molecule, acceptor atom, score
      L1  H     1    32       P1  7948  0.95
      P1  H  7989  7998       L1    22  0.19
      P1  H  7997  8010       L1    20  0.09
      P1  H  8022  8030       L1    25  0.22

> <Gold.Chemscore.Hbond.Weighted>
-6.1656

> <Gold.Chemscore.Metal.Weighted>
-0.0000

> <Gold.Chemscore.Lipo.Weighted>
-12.4467

> <Gold.Chemscore.Internal_Hbond.Weighted>
0.0000

> <Gold.Chemscore.DEClash.Weighted>
0.6653

> <Gold.Chemscore.DEInternal.Weighted>
2.5099

> <Gold.Chemscore.Rot.Weighted>
8.6622

> <Gold.Chemscore.Internal.Correction.Weighted>
   9.000000E+99

> <Gold.Protein.RotatedTorsions>
[ 6907 6896 6895 6894 ] final -109.15 input  -60.11 | X-H torsion
[ 7974 7965 7964 7962 ] final  -13.62 input  175.53 | X-H torsion
[ 8008 7997 7996 7995 ] final   82.76 input   59.86 | X-H torsion
[ 10167 10162 10161 10158 ] final  163.06 input  -65.29 | X-H torsion
[ 10718 10713 10712 10709 ] final  -15.64 input   66.30 | X-H torsion
[ 10763 10752 10751 10750 ] final  -39.15 input  -60.55 | X-H torsion
[ 11005 11000 10999 10996 ] final -115.87 input  -57.11 | X-H torsion

> <Gold.Protein.ActiveResidues>
 VAL166  LYS551  ARG553  GLY616  TRP617  ASP618  TYR619  PRO620  LYS621  CYS622 
 ASP623  PHE694  ASN695  SER759  ASP760  ASP761  ALA762  ILE779  LEU786  VAL792 
 PHE793  MET794  SER795  GLU796  ALA797  LYS798  CYS799  TRP800  GLU811  SER814 

> <Gold.Protein.RotatedAtoms>
  150.7544  133.9572  159.3503 H   0  0  0  0  0  0  0  0  0  0  0  0  # atno 6907 bound_to 6896
  151.7494  135.0834  160.0338 H   0  0  0  0  0  0  0  0  0  0  0  0  # atno 6908 bound_to 6896
  152.3476  133.6104  159.5957 H   0  0  0  0  0  0  0  0  0  0  0  0  # atno 6909 bound_to 6896
  146.2107  140.3229  142.8392 H   0  0  0  0  0  0  0  0  0  0  0  0  # atno 7974 bound_to 7965
  155.9150  140.3425  155.6128 H   0  0  0  0  0  0  0  0  0  0  0  0  # atno 8008 bound_to 7997
  155.7342  140.0799  157.2294 H   0  0  0  0  0  0  0  0  0  0  0  0  # atno 8009 bound_to 7997
  154.4061  140.1582  156.2530 H   0  0  0  0  0  0  0  0  0  0  0  0  # atno 8010 bound_to 7997
  139.4868  144.4375  151.8994 H   0  0  0  0  0  0  0  0  0  0  0  0  # atno 10167 bound_to 10162
  156.5989  130.4818  149.6248 H   0  0  0  0  0  0  0  0  0  0  0  0  # atno 10718 bound_to 10713
  153.9246  135.6778  153.4747 H   0  0  0  0  0  0  0  0  0  0  0  0  # atno 10763 bound_to 10752
  153.1011  135.4828  154.8865 H   0  0  0  0  0  0  0  0  0  0  0  0  # atno 10764 bound_to 10752
  154.7460  135.3172  154.8601 H   0  0  0  0  0  0  0  0  0  0  0  0  # atno 10765 bound_to 10752
  141.0459  133.9763  157.2917 H   0  0  0  0  0  0  0  0  0  0  0  0  # atno 11005 bound_to 11000
  144.8907  140.7520  143.5928 LP  0  0  0  0  0  0  0  0  0  0  0  0  # atno 17320 bound_to 7965
  145.3152  139.1806  143.4617 LP  0  0  0  0  0  0  0  0  0  0  0  0  # atno 17321 bound_to 7965
  140.3825  144.2718  150.5907 LP  0  0  0  0  0  0  0  0  0  0  0  0  # atno 17342 bound_to 10162
  140.5220  143.2263  151.8374 LP  0  0  0  0  0  0  0  0  0  0  0  0  # atno 17343 bound_to 10162
  156.2486  130.6894  151.1624 LP  0  0  0  0  0  0  0  0  0  0  0  0  # atno 17370 bound_to 10713
  157.7285  131.0631  150.5818 LP  0  0  0  0  0  0  0  0  0  0  0  0  # atno 17371 bound_to 10713
  139.9312  135.0200  156.8405 LP  0  0  0  0  0  0  0  0  0  0  0  0  # atno 17394 bound_to 11000
  140.6147  134.0050  155.7592 LP  0  0  0  0  0  0  0  0  0  0  0  0  # atno 17395 bound_to 11000

$$$$
