AV-unprocessed.smi:618|AV-procd|sdf|3080|dock6
  -GOLD-   22720 0 03D 1   1.00000     0.00000
 Structure written by MMmdl.
 41 43  0  0  0  0  0  0  0  0  2 V2000
  144.6487  137.0080  152.0114 O   0  0  0  0  0  0  0  0  0  0  0  0
  145.8197  136.7028  151.7864 C   0  0  0  0  0  0  0  0  0  0  0  0
  146.8323  137.5789  151.8487 N   0  0  0  0  0  0  0  0  0  0  0  0
  146.6902  138.9919  152.1838 C   0  0  0  0  0  0  0  0  0  0  0  0
  147.3278  139.3258  153.5513 C   0  0  2  0  0  0  0  0  0  0  0  0
  146.3591  139.1084  154.7394 C   0  0  0  0  0  0  0  0  0  0  0  0
  145.3842  140.2141  154.7797 N   0  3  1  0  0  0  0  0  0  0  0  0
  144.3636  140.2011  155.8423 C   0  0  0  0  0  0  0  0  0  0  0  0
  143.9519  141.6766  156.0154 C   0  0  0  0  0  0  0  0  0  0  0  0
  144.9017  142.4836  155.1125 C   0  0  0  0  0  0  0  0  0  0  0  0
  146.0533  141.5132  154.8702 C   0  0  2  0  0  0  0  0  0  0  0  0
  146.9184  141.7185  153.6217 C   0  0  0  0  0  0  0  0  0  0  0  0
  147.8734  140.6548  153.5692 O   0  0  0  0  0  0  0  0  0  0  0  0
  146.2570  135.4709  151.4751 N   0  0  0  0  0  0  0  0  0  0  0  0
  145.4953  134.2838  151.3007 C   0  0  0  0  0  0  0  0  0  0  0  0
  144.0824  134.2267  151.3768 C   0  0  0  0  0  0  0  0  0  0  0  0
  143.4395  132.9917  151.1660 C   0  0  0  0  0  0  0  0  0  0  0  0
  144.2303  131.8619  150.8803 C   0  0  0  0  0  0  0  0  0  0  0  0
  145.5765  131.9044  150.7908 N   0  0  0  0  0  0  0  0  0  0  0  0
  146.1857  133.0921  150.9927 C   0  0  0  0  0  0  0  0  0  0  0  0
  147.7650  137.2452  151.6532 H   0  0  0  0  0  0  0  0  0  0  0  0
  147.1397  139.5809  151.3850 H   0  0  0  0  0  0  0  0  0  0  0  0
  145.6318  139.2580  152.1897 H   0  0  0  0  0  0  0  0  0  0  0  0
  148.1686  138.6470  153.6971 H   0  0  0  0  0  0  0  0  0  0  0  0
  145.8407  138.1530  154.6508 H   0  0  0  0  0  0  0  0  0  0  0  0
  146.9176  139.0841  155.6765 H   0  0  0  0  0  0  0  0  0  0  0  0
  143.5243  139.5614  155.5687 H   0  0  0  0  0  0  0  0  0  0  0  0
  144.7936  139.8205  156.7701 H   0  0  0  0  0  0  0  0  0  0  0  0
  142.9112  141.8422  155.7348 H   0  0  0  0  0  0  0  0  0  0  0  0
  144.0625  141.9760  157.0583 H   0  0  0  0  0  0  0  0  0  0  0  0
  144.4043  142.7215  154.1709 H   0  0  0  0  0  0  0  0  0  0  0  0
  145.2271  143.4194  155.5680 H   0  0  0  0  0  0  0  0  0  0  0  0
  146.6960  141.5150  155.7538 H   0  0  0  0  0  0  0  0  0  0  0  0
  146.3138  141.7462  152.7149 H   0  0  0  0  0  0  0  0  0  0  0  0
  147.4494  142.6687  153.6791 H   0  0  0  0  0  0  0  0  0  0  0  0
  147.2578  135.3561  151.4076 H   0  0  0  0  0  0  0  0  0  0  0  0
  143.4820  135.1006  151.5769 H   0  0  0  0  0  0  0  0  0  0  0  0
  142.3638  132.9134  151.2181 H   0  0  0  0  0  0  0  0  0  0  0  0
  143.7687  130.9002  150.7130 H   0  0  0  0  0  0  0  0  0  0  0  0
  147.2629  133.0886  150.9103 H   0  0  0  0  0  0  0  0  0  0  0  0
  144.8838  140.2102  153.9023 H   0  0  0  0  0  0  0  0  0  0  0  0
  1  2  2  0  0  0  0
  2  3  1  0  0  0  0
  2 14  1  0  0  0  0
  3  4  1  0  0  0  0
  3 21  1  0  0  0  0
  4  5  1  0  0  0  0
  4 22  1  0  0  0  0
  4 23  1  0  0  0  0
  5 13  1  0  0  0  0
  5  6  1  0  0  0  0
  5 24  1  0  0  0  0
  6  7  1  0  0  0  0
  6 25  1  0  0  0  0
  6 26  1  0  0  0  0
  7 11  1  0  0  0  0
  7  8  1  0  0  0  0
  7 41  1  0  0  0  0
  8  9  1  0  0  0  0
  8 27  1  0  0  0  0
  8 28  1  0  0  0  0
  9 10  1  0  0  0  0
  9 29  1  0  0  0  0
  9 30  1  0  0  0  0
 10 11  1  0  0  0  0
 10 31  1  0  0  0  0
 10 32  1  0  0  0  0
 11 12  1  0  0  0  0
 11 33  1  0  0  0  0
 12 13  1  0  0  0  0
 12 34  1  0  0  0  0
 12 35  1  0  0  0  0
 14 15  1  0  0  0  0
 14 36  1  0  0  0  0
 15 20  1  0  0  0  0
 15 16  2  0  0  0  0
 16 17  1  0  0  0  0
 16 37  1  0  0  0  0
 17 18  2  0  0  0  0
 17 38  1  0  0  0  0
 18 19  1  0  0  0  0
 18 39  1  0  0  0  0
 19 20  2  0  0  0  0
 20 40  1  0  0  0  0
M  CHG  1   7   1
M  END
> <s_m_source_file>
AV-unprocessed.smi

> <i_m_source_file_index>
618

> <i_lp_mmshare_version>
43012

> <i_f3d_flags>
0

> <s_epik_input>
W2NIXTFuW2NIXVtjSF1bY0hdYzFbTkhdQyg9TylbTkhdW0NIMl1bQ0BIXShbQ0gyXTIpT1tDSDJdW0NAQEhdKE4yMylbQ0gyXVtDSDJdW0NIMl0z

> <s_epik_cmdline>
J2VwaWtfcHl0aG9uJywgJy1waCcsICc3LjAnLCAnLXRuJywgJzgnLCAnLW1hJywgJzIwMCcsICctbWV0YWxfYmluZGluZycsICctaW1hZScsICc8aW5maWxlLm1hZT4nLCAnLW9tYWUnLCAnPG91dGZpbGUubWFlPic=

> <r_epik_Ionization_Penalty>
0.111044

> <r_epik_Ionization_Penalty_Charging>
0.10673

> <r_epik_Ionization_Penalty_Neutral>
0.00431361

> <r_epik_State_Penalty>
0.0978747

> <r_epik_Charging_Adjusted_Penalty>
0.204605

> <i_epik_Tot_Q>
1

> <i_epik_Tot_abs_Q>
1

> <r_epik_Metal_State_Penalty>
0.0947591

> <b_epik_Metal_Only>
0

> <s_lp_Force_Field>
OPLS_2005

> <r_lp_Energy>
41.554

> <b_lp_Chiralities_Consistent>
1

> <s_lp_Variant>
AV-unprocessed.smi:618-7

> <Gold.Version>
5.8.1

> <Gold.Id.Protein>
6NUR|6NUR_protein|mol2

> <Gold.PLP.Fitness>
41.9620

> <Gold.PLP.PLP>
-30.4520

> <Gold.PLP.part.hbond>
-2.7664

> <Gold.PLP.part.metal>
0.0000

> <Gold.PLP.part.buried>
-6.0835

> <Gold.PLP.part.nonpolar>
-24.3620

> <Gold.PLP.part.repulsive>
3.1950

> <Gold.PLP.ligand.clash>
0.0000

> <Gold.PLP.ligand.torsion>
0.4071

> <Gold.PLP.Chemscore.Hbond>
3.8240

> <Gold.PLP.Chemscore.CHOScore>
0.2807

> <Gold.PLP.Chemscore.Metal>
0.0000

> <Gold.Chemscore.Hbonds>
donor molecule, donor type, donor heavy atom, donor atom, acceptor molecule, acceptor atom, score
      L1  H     3    21       P1  7948  1.00
      L1  H     7    41       P1 10175  2.00
      L1  H    14    36       P1  7948  0.88
      L1  C    20    40       P1 10747  0.13

> <Gold.PLP.Chemscore.Internal.Correction>
0.0101

> <Gold.Rescore>
     Score         DG    S(hbond)    S(metal)    S(lipo)     H(rot)  DE(clash)    DE(int)     intcor
     17.04     -19.28       2.83        0.00      64.92       1.27       0.63       1.61       ----

> <Gold.Chemscore.Fitness>
17.0446

> <Gold.Chemscore.DG>
-19.2806

> <Gold.Chemscore.ZeroCoef>
-5.4800

> <Gold.Chemscore.Hbond>
2.8278

> <Gold.Chemscore.Metal>
0.0000

> <Gold.Chemscore.Lipo>
64.9206

> <Gold.Chemscore.Internal_Hbond>
0.0000

> <Gold.Chemscore.DEClash>
0.6255

> <Gold.Chemscore.DEInternal>
1.6104

> <Gold.Chemscore.Rot>
1.2656

> <Gold.Chemscore.Internal.Correction>
   9.000000E+99

> <Gold.Chemscore.Hbonds>
donor molecule, donor type, donor heavy atom, donor atom, acceptor molecule, acceptor atom, score
      L1  H     3    21       P1  7948  0.92
      L1  H     7    41       P1 10175  1.00
      L1  H    14    36       P1  7948  0.78

> <Gold.Chemscore.Hbond.Weighted>
-9.4447

> <Gold.Chemscore.Metal.Weighted>
-0.0000

> <Gold.Chemscore.Lipo.Weighted>
-7.5957

> <Gold.Chemscore.Internal_Hbond.Weighted>
0.0000

> <Gold.Chemscore.DEClash.Weighted>
0.6255

> <Gold.Chemscore.DEInternal.Weighted>
1.6104

> <Gold.Chemscore.Rot.Weighted>
3.2399

> <Gold.Chemscore.Internal.Correction.Weighted>
   9.000000E+99

> <Gold.Protein.RotatedTorsions>
[ 6907 6896 6895 6894 ] final  159.22 input  -60.11 | X-H torsion
[ 7974 7965 7964 7962 ] final   62.31 input  175.53 | X-H torsion
[ 8008 7997 7996 7995 ] final  -71.08 input   59.86 | X-H torsion
[ 10167 10162 10161 10158 ] final -129.67 input  -65.29 | X-H torsion
[ 10718 10713 10712 10709 ] final  -51.19 input   66.30 | X-H torsion
[ 10763 10752 10751 10750 ] final  119.28 input  -60.55 | X-H torsion
[ 11005 11000 10999 10996 ] final   53.30 input  -57.11 | X-H torsion

> <Gold.Protein.ActiveResidues>
 VAL166  LYS551  ARG553  GLY616  TRP617  ASP618  TYR619  PRO620  LYS621  CYS622 
 ASP623  PHE694  ASN695  SER759  ASP760  ASP761  ALA762  ILE779  LEU786  VAL792 
 PHE793  MET794  SER795  GLU796  ALA797  LYS798  CYS799  TRP800  GLU811  SER814 

> <Gold.Protein.RotatedAtoms>
  151.9888  133.3783  159.4135 H   0  0  0  0  0  0  0  0  0  0  0  0  # atno 6907 bound_to 6896
  150.6924  134.3959  159.5106 H   0  0  0  0  0  0  0  0  0  0  0  0  # atno 6908 bound_to 6896
  152.1689  134.8850  160.0586 H   0  0  0  0  0  0  0  0  0  0  0  0  # atno 6909 bound_to 6896
  145.8749  139.3403  143.0741 H   0  0  0  0  0  0  0  0  0  0  0  0  # atno 7974 bound_to 7965
  154.5060  140.0822  156.7895 H   0  0  0  0  0  0  0  0  0  0  0  0  # atno 8008 bound_to 7997
  155.3893  140.3431  155.4232 H   0  0  0  0  0  0  0  0  0  0  0  0  # atno 8009 bound_to 7997
  156.1516  140.1560  156.8748 H   0  0  0  0  0  0  0  0  0  0  0  0  # atno 8010 bound_to 7997
  139.9373  143.6203  152.2513 H   0  0  0  0  0  0  0  0  0  0  0  0  # atno 10167 bound_to 10162
  156.1732  130.4149  149.9616 H   0  0  0  0  0  0  0  0  0  0  0  0  # atno 10718 bound_to 10713
  153.5806  135.3484  155.2873 H   0  0  0  0  0  0  0  0  0  0  0  0  # atno 10763 bound_to 10752
  154.8668  135.4181  154.2624 H   0  0  0  0  0  0  0  0  0  0  0  0  # atno 10764 bound_to 10752
  153.3410  135.7050  153.6938 H   0  0  0  0  0  0  0  0  0  0  0  0  # atno 10765 bound_to 10752
  140.0778  134.5380  155.8978 H   0  0  0  0  0  0  0  0  0  0  0  0  # atno 11005 bound_to 11000
  145.9093  140.9190  143.0462 LP  0  0  0  0  0  0  0  0  0  0  0  0  # atno 17320 bound_to 7965
  144.6726  140.1139  143.7454 LP  0  0  0  0  0  0  0  0  0  0  0  0  # atno 17321 bound_to 7965
  139.6733  144.7660  151.1743 LP  0  0  0  0  0  0  0  0  0  0  0  0  # atno 17342 bound_to 10162
  140.7621  143.5833  150.8872 LP  0  0  0  0  0  0  0  0  0  0  0  0  # atno 17343 bound_to 10162
  156.7409  130.9079  151.3632 LP  0  0  0  0  0  0  0  0  0  0  0  0  # atno 17370 bound_to 10713
  157.6817  130.9147  150.0285 LP  0  0  0  0  0  0  0  0  0  0  0  0  # atno 17371 bound_to 10713
  141.2036  133.6633  156.6071 LP  0  0  0  0  0  0  0  0  0  0  0  0  # atno 17394 bound_to 11000
  140.3532  134.7751  157.4481 LP  0  0  0  0  0  0  0  0  0  0  0  0  # atno 17395 bound_to 11000

$$$$
