AV-unprocessed.smi:2009|AV-procd|sdf|8147|dock1
  -GOLD-   2272010383D 1   1.00000     0.00000
 Structure written by MMmdl.
 37 38  0  0  0  0  0  0  0  0  2 V2000
  151.0525  138.6224  153.9968 C   0  0  0  0  0  0  0  0  0  0  0  0
  150.3977  139.5078  155.0657 C   0  0  2  0  0  0  0  0  0  0  0  0
  149.3268  140.4502  154.4604 C   0  0  0  0  0  0  0  0  0  0  0  0
  148.2423  139.7613  153.7663 N   0  0  0  0  0  0  0  0  0  0  0  0
  147.7159  140.0323  152.5183 C   0  0  0  0  0  0  0  0  0  0  0  0
  146.7254  139.1228  152.2829 C   0  0  0  0  0  0  0  0  0  0  0  0
  146.7254  138.3148  153.4536 C   0  0  0  0  0  0  0  0  0  0  0  0
  147.6401  138.6888  154.3334 N   0  0  0  0  0  0  0  0  0  0  0  0
  151.4342  140.2880  155.7284 N   0  5  0  0  0  0  0  0  0  0  0  0
  151.8464  139.9243  157.2542 S   0  0  0  0  0  0  0  0  0  0  0  0
  150.7251  139.4421  158.0773 O   0  0  0  0  0  0  0  0  0  0  0  0
  153.1206  139.1912  157.3341 O   0  0  0  0  0  0  0  0  0  0  0  0
  152.1694  141.5451  157.7959 N   0  0  0  0  0  0  0  0  0  0  0  0
  152.5827  141.7039  159.2063 C   0  0  0  0  0  0  0  0  0  0  0  0
  153.1701  143.0992  159.4768 C   0  0  0  0  0  0  0  0  0  0  0  0
  152.1990  144.2032  159.0531 C   0  0  0  0  0  0  0  0  0  0  0  0
  151.8453  144.0149  157.5764 C   0  0  0  0  0  0  0  0  0  0  0  0
  151.2634  142.6159  157.3179 C   0  0  0  0  0  0  0  0  0  0  0  0
  150.3080  138.0091  153.4889 H   0  0  0  0  0  0  0  0  0  0  0  0
  151.7856  137.9472  154.4399 H   0  0  0  0  0  0  0  0  0  0  0  0
  151.5623  139.2202  153.2404 H   0  0  0  0  0  0  0  0  0  0  0  0
  149.8919  138.8394  155.7640 H   0  0  0  0  0  0  0  0  0  0  0  0
  148.8910  141.0773  155.2396 H   0  0  0  0  0  0  0  0  0  0  0  0
  149.7980  141.1334  153.7524 H   0  0  0  0  0  0  0  0  0  0  0  0
  148.0832  140.8480  151.9140 H   0  0  0  0  0  0  0  0  0  0  0  0
  146.0970  139.0474  151.4083 H   0  0  0  0  0  0  0  0  0  0  0  0
  146.0952  137.4695  153.6871 H   0  0  0  0  0  0  0  0  0  0  0  0
  151.7204  141.5217  159.8487 H   0  0  0  0  0  0  0  0  0  0  0  0
  153.3304  140.9529  159.4596 H   0  0  0  0  0  0  0  0  0  0  0  0
  153.4106  143.2005  160.5354 H   0  0  0  0  0  0  0  0  0  0  0  0
  154.1102  143.2103  158.9347 H   0  0  0  0  0  0  0  0  0  0  0  0
  151.2959  144.1619  159.6630 H   0  0  0  0  0  0  0  0  0  0  0  0
  152.6470  145.1840  159.2132 H   0  0  0  0  0  0  0  0  0  0  0  0
  151.1299  144.7765  157.2648 H   0  0  0  0  0  0  0  0  0  0  0  0
  152.7361  144.1577  156.9633 H   0  0  0  0  0  0  0  0  0  0  0  0
  151.0755  142.5046  156.2512 H   0  0  0  0  0  0  0  0  0  0  0  0
  150.2992  142.5095  157.8162 H   0  0  0  0  0  0  0  0  0  0  0  0
  1  2  1  0  0  0  0
  1 19  1  0  0  0  0
  1 20  1  0  0  0  0
  1 21  1  0  0  0  0
  2  3  1  0  0  0  0
  2  9  1  0  0  0  0
  2 22  1  0  0  0  0
  3  4  1  0  0  0  0
  3 23  1  0  0  0  0
  3 24  1  0  0  0  0
  4  8  1  0  0  0  0
  4  5  1  0  0  0  0
  5  6  2  0  0  0  0
  5 25  1  0  0  0  0
  6  7  1  0  0  0  0
  6 26  1  0  0  0  0
  7  8  2  0  0  0  0
  7 27  1  0  0  0  0
  9 10  1  0  0  0  0
 10 11  2  0  0  0  0
 10 12  2  0  0  0  0
 10 13  1  0  0  0  0
 13 18  1  0  0  0  0
 13 14  1  0  0  0  0
 14 15  1  0  0  0  0
 14 28  1  0  0  0  0
 14 29  1  0  0  0  0
 15 16  1  0  0  0  0
 15 30  1  0  0  0  0
 15 31  1  0  0  0  0
 16 17  1  0  0  0  0
 16 32  1  0  0  0  0
 16 33  1  0  0  0  0
 17 18  1  0  0  0  0
 17 34  1  0  0  0  0
 17 35  1  0  0  0  0
 18 36  1  0  0  0  0
 18 37  1  0  0  0  0
M  CHG  1   9  -1
M  END
> <s_m_source_file>
AV-unprocessed.smi

> <i_m_source_file_index>
2009

> <i_lp_mmshare_version>
43012

> <i_f3d_flags>
0

> <s_epik_input>
bjFbY0hdW2NIXVtjSF1uMVtDSDJdW0NAQEhdKFtDSDNdKVtOSF1TKD1PKSg9TylOMltDSDJdW0NIMl1bQ0gyXVtDSDJdW0NIMl0y

> <s_epik_cmdline>
J2VwaWtfcHl0aG9uJywgJy1waCcsICc3LjAnLCAnLXRuJywgJzgnLCAnLW1hJywgJzIwMCcsICctbWV0YWxfYmluZGluZycsICctaW1hZScsICc8aW5maWxlLm1hZT4nLCAnLW9tYWUnLCAnPG91dGZpbGUubWFlPic=

> <r_lp_tautomer_probability>
1

> <r_epik_Ionization_Penalty>
1.75622

> <r_epik_Ionization_Penalty_Charging>
1.7562

> <r_epik_Ionization_Penalty_Neutral>
2.38826e-05

> <r_epik_State_Penalty>
1.86645

> <r_epik_Charging_Adjusted_Penalty>
3.62264

> <i_epik_Tot_Q>
-1

> <i_epik_Tot_abs_Q>
1

> <r_epik_Metal_State_Penalty>
0.460135

> <b_epik_Metal_Only>
0

> <s_lp_Force_Field>
OPLS_2005

> <r_lp_Energy>
5.98775

> <b_lp_Chiralities_Consistent>
1

> <s_lp_Variant>
AV-unprocessed.smi:2009-3

> <Gold.Version>
5.8.1

> <Gold.Id.Protein>
6NUR|6NUR_protein|mol2

> <Gold.PLP.Fitness>
38.7550

> <Gold.PLP.PLP>
-35.2804

> <Gold.PLP.part.hbond>
-1.0000

> <Gold.PLP.part.metal>
0.0000

> <Gold.PLP.part.buried>
0.6526

> <Gold.PLP.part.nonpolar>
-35.2972

> <Gold.PLP.part.repulsive>
0.0912

> <Gold.PLP.ligand.clash>
0.0000

> <Gold.PLP.ligand.torsion>
1.2998

> <Gold.PLP.Chemscore.Hbond>
1.0000

> <Gold.PLP.Chemscore.CHOScore>
0.4522

> <Gold.PLP.Chemscore.Metal>
0.0000

> <Gold.Chemscore.Hbonds>
donor molecule, donor type, donor heavy atom, donor atom, acceptor molecule, acceptor atom, score
      P1  H  7997  8009       L1    12  1.00
      L1  C     5    25       P1  7957  0.24

> <Gold.PLP.Chemscore.Internal.Correction>
1.7176

> <Gold.Rescore>
     Score         DG    S(hbond)    S(metal)    S(lipo)     H(rot)  DE(clash)    DE(int)     intcor
     14.50     -16.43       1.00        0.00      99.41       1.57       0.73       1.19       ----

> <Gold.Chemscore.Fitness>
14.5020

> <Gold.Chemscore.DG>
-16.4281

> <Gold.Chemscore.ZeroCoef>
-5.4800

> <Gold.Chemscore.Hbond>
0.9968

> <Gold.Chemscore.Metal>
0.0000

> <Gold.Chemscore.Lipo>
99.4081

> <Gold.Chemscore.Internal_Hbond>
0.0000

> <Gold.Chemscore.DEClash>
0.7345

> <Gold.Chemscore.DEInternal>
1.1916

> <Gold.Chemscore.Rot>
1.5672

> <Gold.Chemscore.Internal.Correction>
   9.000000E+99

> <Gold.Chemscore.Hbonds>
donor molecule, donor type, donor heavy atom, donor atom, acceptor molecule, acceptor atom, score
      P1  H  7997  8009       L1    12  0.95

> <Gold.Chemscore.Hbond.Weighted>
-3.3292

> <Gold.Chemscore.Metal.Weighted>
-0.0000

> <Gold.Chemscore.Lipo.Weighted>
-11.6307

> <Gold.Chemscore.Internal_Hbond.Weighted>
0.0000

> <Gold.Chemscore.DEClash.Weighted>
0.7345

> <Gold.Chemscore.DEInternal.Weighted>
1.1916

> <Gold.Chemscore.Rot.Weighted>
4.0119

> <Gold.Chemscore.Internal.Correction.Weighted>
   9.000000E+99

> <Gold.Protein.RotatedTorsions>
[ 6907 6896 6895 6894 ] final -150.69 input  -60.11 | X-H torsion
[ 7974 7965 7964 7962 ] final  149.50 input  175.53 | X-H torsion
[ 8008 7997 7996 7995 ] final  154.47 input   59.86 | X-H torsion
[ 10167 10162 10161 10158 ] final   97.39 input  -65.29 | X-H torsion
[ 10718 10713 10712 10709 ] final   51.17 input   66.30 | X-H torsion
[ 10763 10752 10751 10750 ] final   82.38 input  -60.55 | X-H torsion
[ 11005 11000 10999 10996 ] final   26.37 input  -57.11 | X-H torsion

> <Gold.Protein.ActiveResidues>
 VAL166  LYS551  ARG553  GLY616  TRP617  ASP618  TYR619  PRO620  LYS621  CYS622 
 ASP623  PHE694  ASN695  SER759  ASP760  ASP761  ALA762  ILE779  LEU786  VAL792 
 PHE793  MET794  SER795  GLU796  ALA797  LYS798  CYS799  TRP800  GLU811  SER814 

> <Gold.Protein.RotatedAtoms>
  151.2022  133.4604  159.2596 H   0  0  0  0  0  0  0  0  0  0  0  0  # atno 6907 bound_to 6896
  151.1058  134.9999  159.8481 H   0  0  0  0  0  0  0  0  0  0  0  0  # atno 6908 bound_to 6896
  152.5447  134.1945  159.8740 H   0  0  0  0  0  0  0  0  0  0  0  0  # atno 6909 bound_to 6896
  144.8434  139.6288  143.6006 H   0  0  0  0  0  0  0  0  0  0  0  0  # atno 7974 bound_to 7965
  156.2530  140.1966  156.6650 H   0  0  0  0  0  0  0  0  0  0  0  0  # atno 8008 bound_to 7997
  154.6435  140.0580  156.9899 H   0  0  0  0  0  0  0  0  0  0  0  0  # atno 8009 bound_to 7997
  155.1526  140.3252  155.4431 H   0  0  0  0  0  0  0  0  0  0  0  0  # atno 8010 bound_to 7997
  139.7805  144.6890  151.0029 H   0  0  0  0  0  0  0  0  0  0  0  0  # atno 10167 bound_to 10162
  157.4955  130.8404  149.8254 H   0  0  0  0  0  0  0  0  0  0  0  0  # atno 10718 bound_to 10713
  153.1198  135.4730  154.9176 H   0  0  0  0  0  0  0  0  0  0  0  0  # atno 10763 bound_to 10752
  154.7564  135.3119  154.8464 H   0  0  0  0  0  0  0  0  0  0  0  0  # atno 10764 bound_to 10752
  153.9032  135.6873  153.4808 H   0  0  0  0  0  0  0  0  0  0  0  0  # atno 10765 bound_to 10752
  140.3378  134.2366  155.7694 H   0  0  0  0  0  0  0  0  0  0  0  0  # atno 11005 bound_to 11000
  146.2722  139.6665  142.9288 LP  0  0  0  0  0  0  0  0  0  0  0  0  # atno 17320 bound_to 7965
  145.4647  141.0434  143.2732 LP  0  0  0  0  0  0  0  0  0  0  0  0  # atno 17321 bound_to 7965
  140.7818  143.4488  151.0443 LP  0  0  0  0  0  0  0  0  0  0  0  0  # atno 17342 bound_to 10162
  139.8169  143.7874  152.3175 LP  0  0  0  0  0  0  0  0  0  0  0  0  # atno 17343 bound_to 10162
  156.0198  130.3800  150.1997 LP  0  0  0  0  0  0  0  0  0  0  0  0  # atno 17370 bound_to 10713
  157.0186  130.9972  151.3346 LP  0  0  0  0  0  0  0  0  0  0  0  0  # atno 17371 bound_to 10713
  141.2046  133.7881  157.0275 LP  0  0  0  0  0  0  0  0  0  0  0  0  # atno 17394 bound_to 11000
  140.0806  134.9650  157.1618 LP  0  0  0  0  0  0  0  0  0  0  0  0  # atno 17395 bound_to 11000

$$$$
