#       Name:                AV-unprocessed.smi:541
#       Creating user name   scv26
#       Creation time:       Thu Mar 26 23:36:34 2020


#       File generated by GOLD software.
#

@<TRIPOS>MOLECULE
AV-unprocessed.smi:541
    50    52     1
SMALL
NO_CHARGES


@<TRIPOS>ATOM
      1 ****        -3.8752   2.6661   3.2033 C.3            1 S1                 0.0000
      2 ****        -3.4704   1.8422   1.9790 C.3            1 S1                 0.0000
      3 ****        -2.0727   1.9691   1.7813 O.3            1 S1                 0.0000
      4 ****        -1.6116   1.2420   0.6553 C.3            1 S1                 0.0000
      5 ****        -0.0930   1.4317   0.5314 C.3            1 S1                 0.0000
      6 ****         0.4739   0.6110  -0.5358 N.pl3          1 S1                 0.0000
      7 ****         1.0575  -0.6248  -0.4733 C.2            1 S1                 0.0000
      8 ****         1.2009  -1.3912   0.6960 N.pl3          1 S1                 0.0000
      9 ****         0.6486  -1.2212   2.0409 C.3            1 S1                 0.0000
     10 ****         0.7739  -2.5487   2.7809 C.3            1 S1                 0.0000
     11 ****         2.0496  -3.1074   2.1925 C.3            1 S1                 0.0000
     12 ****         1.9503  -2.6479   0.7411 C.3            1 S1                 0.0000
     13 ****         1.5000  -1.0719  -1.6523 N.2            1 S1                 0.0000
     14 ****         1.1575  -0.0646  -2.5361 C.2            1 S1                 0.0000
     15 ****         0.5314   0.9551  -1.8936 C.2            1 S1                 0.0000
     16 ****         0.0324   2.1698  -2.5810 C.2            1 S1                 0.0000
     17 ****        -0.5496   3.0591  -1.9633 O.2            1 S1                 0.0000
     18 ****         0.2953   2.1504  -3.9262 N.pl3          1 S1                -1.0000
     19 ****         0.9325   1.1399  -4.6128 C.2            1 S1                 0.0000
     20 ****         1.1312   1.2030  -5.8268 O.2            1 S1                 0.0000
     21 ****         1.3627   0.0274  -3.9396 N.am           1 S1                 0.0000
     22 ****         2.0373  -1.0669  -4.6438 C.3            1 S1                 0.0000
     23 ****        -4.9469   2.5895   3.3875 H              1 S1                 0.0000
     24 ****        -3.6347   3.7200   3.0618 H              1 S1                 0.0000
     25 ****        -3.3558   2.3201   4.0973 H              1 S1                 0.0000
     26 ****        -3.7350   0.7947   2.1317 H              1 S1                 0.0000
     27 ****        -4.0093   2.1954   1.0986 H              1 S1                 0.0000
     28 ****        -1.8593   0.1859   0.7661 H              1 S1                 0.0000
     29 ****        -2.1115   1.5948  -0.2478 H              1 S1                 0.0000
     30 ****         0.1411   2.4779   0.3408 H              1 S1                 0.0000
     31 ****         0.4099   1.2259   1.4705 H              1 S1                 0.0000
     32 ****         1.2300  -0.4609   2.5632 H              1 S1                 0.0000
     33 ****        -0.3915  -0.9024   2.0171 H              1 S1                 0.0000
     34 ****         0.8141  -2.4314   3.8641 H              1 S1                 0.0000
     35 ****        -0.0685  -3.1975   2.5362 H              1 S1                 0.0000
     36 ****         2.9155  -2.6497   2.6731 H              1 S1                 0.0000
     37 ****         2.1332  -4.1898   2.2931 H              1 S1                 0.0000
     38 ****         1.4118  -3.3888   0.1486 H              1 S1                 0.0000
     39 ****         2.9405  -2.5300   0.2992 H              1 S1                 0.0000
     40 ****         1.3950  -1.4708  -5.4277 H              1 S1                 0.0000
     41 ****         2.3018  -1.8928  -3.9837 H              1 S1                 0.0000
     42 ****         2.9587  -0.7115  -5.1067 H              1 S1                 0.0000
     43 ****        -1.6022   1.6298   2.5959 LP             1 S1                 0.0000
     44 ****        -1.8548   2.9360   1.6490 LP             1 S1                 0.0000
     45 ****         1.9688  -1.9329  -1.8494 LP             1 S1                 0.0000
     46 ****        -0.6943   2.9710  -0.9778 LP             1 S1                 0.0000
     47 ****        -0.8784   3.8706  -2.4464 LP             1 S1                 0.0000
     48 ****        -0.0029   2.9428  -4.4584 LP             1 S1                 0.0000
     49 ****         0.8271   2.0041  -6.3423 LP             1 S1                 0.0000
     50 ****         1.5966   0.4531  -6.2969 LP             1 S1                 0.0000
@<TRIPOS>BOND
    1    1    2 1     
    2    1   23 1     
    3    1   24 1     
    4    1   25 1     
    5    2    3 1     
    6    2   26 1     
    7    2   27 1     
    8    3    4 1     
    9    4    5 1     
   10    4   28 1     
   11    4   29 1     
   12    5    6 1     
   13    5   30 1     
   14    5   31 1     
   15    6   15 1     
   16    6    7 1     
   17    7    8 1     
   18    7   13 2     
   19    8   12 1     
   20    8    9 1     
   21    9   10 1     
   22    9   32 1     
   23    9   33 1     
   24   10   11 1     
   25   10   34 1     
   26   10   35 1     
   27   11   12 1     
   28   11   36 1     
   29   11   37 1     
   30   12   38 1     
   31   12   39 1     
   32   13   14 1     
   33   14   21 1     
   34   14   15 2     
   35   15   16 1     
   36   16   17 2     
   37   16   18 1     
   38   18   19 1     
   39   19   20 2     
   40   19   21 am    
   41   21   22 1     
   42   22   40 1     
   43   22   41 1     
   44   22   42 1     
   45    3   43 1     
   46    3   44 1     
   47   13   45 1     
   48   17   46 1     
   49   17   47 1     
   50   18   48 1     
   51   20   49 1     
   52   20   50 1     
@<TRIPOS>SUBSTRUCTURE
      1 S1             1
@<TRIPOS>SET
LONE_PAIRS      STATIC     ATOMS    <user>   **** ""
8 43 44 45 46 47 48 49 50
ATOM$BLUE        STATIC     ATOMS    COLORGROUP SYSTEM
8 43 44 45 46 47 48 49 50
