#       Name:                AV-unprocessed.smi:2047
#       Creating user name   scv26
#       Creation time:       Fri Mar 27 10:58:23 2020


#       File generated by GOLD software.
#

@<TRIPOS>MOLECULE
AV-unprocessed.smi:2047
    46    48     1
SMALL
NO_CHARGES


@<TRIPOS>ATOM
      1 ****         0.0025   2.6640   0.1384 O.2            1 S1                 0.0000
      2 ****        -0.3459   1.4867   0.2211 C.2            1 S1                 0.0000
      3 ****         0.4864   0.4341   0.2915 N.am           1 S1                 0.0000
      4 ****         1.9114   0.4266   0.3130 C.ar           1 S1                 0.0000
      5 ****         2.6819   1.5292   0.7649 C.ar           1 S1                 0.0000
      6 ****         4.0880   1.4412   0.7776 C.ar           1 S1                 0.0000
      7 ****         4.7041   0.2510   0.3499 C.ar           1 S1                 0.0000
      8 ****         3.9439  -0.7858  -0.0596 N.pl3          1 S1                 1.0000
      9 ****         2.5889  -0.7524  -0.0921 C.ar           1 S1                 0.0000
     10 ****         1.8910  -1.8871  -0.5409 N.3            1 S1                 0.0000
     11 ****         2.1389  -3.1158   0.1950 C.3            1 S1                 0.0000
     12 ****         1.5989  -4.2384  -0.6945 C.3            1 S1                 0.0000
     13 ****         1.5770  -3.6450  -2.1087 C.3            1 S1                 0.0000
     14 ****         2.0881  -2.2112  -1.9437 C.3            1 S1                 0.0000
     15 ****        -1.6275   1.0944   0.2369 N.am           1 S1                 0.0000
     16 ****        -2.7779   1.9918   0.1801 C.3            1 S1                 0.0000
     17 ****        -4.0490   1.2396  -0.2557 C.3            1 S1                 0.0000
     18 ****        -5.2681   2.1198   0.0453 C.3            1 S1                 0.0000
     19 ****        -4.8294   3.1066   1.5266 S.o2           1 S1                 0.0000
     20 ****        -4.9600   4.5353   1.2034 O.2            1 S1                 0.0000
     21 ****        -5.4860   2.5349   2.7120 O.2            1 S1                 0.0000
     22 ****        -3.0566   2.6429   1.5446 C.3            1 S1                 0.0000
     23 ****         0.0504  -0.4762   0.2668 H              1 S1                 0.0000
     24 ****         2.2221   2.4393   1.1177 H              1 S1                 0.0000
     25 ****         4.6850   2.2755   1.1166 H              1 S1                 0.0000
     26 ****         5.7730   0.0952   0.3284 H              1 S1                 0.0000
     27 ****         3.2070  -3.2557   0.3658 H              1 S1                 0.0000
     28 ****         1.6413  -3.0986   1.1652 H              1 S1                 0.0000
     29 ****         2.2162  -5.1348  -0.6288 H              1 S1                 0.0000
     30 ****         0.5869  -4.5092  -0.3907 H              1 S1                 0.0000
     31 ****         2.1950  -4.2119  -2.8055 H              1 S1                 0.0000
     32 ****         0.5574  -3.6433  -2.4960 H              1 S1                 0.0000
     33 ****         1.5483  -1.5159  -2.5875 H              1 S1                 0.0000
     34 ****         3.1465  -2.1581  -2.2028 H              1 S1                 0.0000
     35 ****        -1.8253   0.1061   0.2976 H              1 S1                 0.0000
     36 ****        -2.5920   2.7808  -0.5514 H              1 S1                 0.0000
     37 ****        -4.0123   0.9553  -1.3079 H              1 S1                 0.0000
     38 ****        -4.1363   0.3171   0.3203 H              1 S1                 0.0000
     39 ****        -5.4564   2.8125  -0.7754 H              1 S1                 0.0000
     40 ****        -6.1752   1.5441   0.2297 H              1 S1                 0.0000
     41 ****        -2.9082   1.9336   2.3596 H              1 S1                 0.0000
     42 ****        -2.4400   3.5224   1.7321 H              1 S1                 0.0000
     43 ****         4.4151  -1.6391  -0.3606 H              1 S1                 0.0000
     44 ****         0.9747   2.8975   0.1192 LP             1 S1                 0.0000
     45 ****        -0.6865   3.3871   0.0904 LP             1 S1                 0.0000
     46 ****         0.9529  -1.5819  -0.3775 LP             1 S1                 0.0000
@<TRIPOS>BOND
    1    1    2 2     
    2    2    3 am    
    3    2   15 am    
    4    3    4 1     
    5    3   23 1     
    6    4    9 ar    
    7    4    5 ar    
    8    5    6 ar    
    9    5   24 1     
   10    6    7 ar    
   11    6   25 1     
   12    7    8 ar    
   13    7   26 1     
   14    8    9 ar    
   15    8   43 1     
   16    9   10 1     
   17   10   14 1     
   18   10   11 1     
   19   11   12 1     
   20   11   27 1     
   21   11   28 1     
   22   12   13 1     
   23   12   29 1     
   24   12   30 1     
   25   13   14 1     
   26   13   31 1     
   27   13   32 1     
   28   14   33 1     
   29   14   34 1     
   30   15   16 1     
   31   15   35 1     
   32   16   22 1     
   33   16   17 1     
   34   16   36 1     
   35   17   18 1     
   36   17   37 1     
   37   17   38 1     
   38   18   19 1     
   39   18   39 1     
   40   18   40 1     
   41   19   20 2     
   42   19   21 2     
   43   19   22 1     
   44   22   41 1     
   45   22   42 1     
   46    1   44 1     
   47    1   45 1     
   48   10   46 1     
@<TRIPOS>SUBSTRUCTURE
      1 S1             1
@<TRIPOS>SET
LONE_PAIRS      STATIC     ATOMS    <user>   **** ""
5 44 45 46 20 21
DONOR_HYDROGENS      STATIC     ATOMS    <user>   **** ""
3 23 43 35
ATOM$BLUE        STATIC     ATOMS    COLORGROUP SYSTEM
5 44 45 46 20 21
ATOM$RED        STATIC     ATOMS    COLORGROUP SYSTEM
3 23 43 35
