AV-unprocessed.smi:2761|AV-procd|sdf|10634|dock4
  -GOLD-   2272015 83D 1   1.00000     0.00000
 Structure written by MMmdl.
 26 27  0  0  0  0  0  0  0  0  2 V2000
  153.4606  140.5211  159.5565 O   0  0  0  0  0  0  0  0  0  0  0  0
  152.8556  141.3641  158.8907 C   0  0  0  0  0  0  0  0  0  0  0  0
  152.1926  141.1132  157.7407 N   0  0  0  0  0  0  0  0  0  0  0  0
  152.0371  139.8914  157.0785 C   0  0  0  0  0  0  0  0  0  0  0  0
  151.7823  140.0591  155.6706 C   0  0  0  0  0  0  0  0  0  0  0  0
  151.6154  138.9417  154.9290 C   0  0  0  0  0  0  0  0  0  0  0  0
  151.6914  137.6092  155.5335 C   0  0  0  0  0  0  0  0  0  0  0  0
  151.5334  136.6204  154.8209 O   0  0  0  0  0  0  0  0  0  0  0  0
  151.9377  137.5262  156.8797 N   0  5  0  0  0  0  0  0  0  0  0  0
  152.1138  138.7338  157.6614 N   0  0  0  0  0  0  0  0  0  0  0  0
  152.8488  142.8297  159.3543 C   0  0  2  0  0  0  0  0  0  0  0  0
  152.2367  143.0088  160.7631 C   0  0  0  0  0  0  0  0  0  0  0  0
  152.2311  144.3893  161.1041 O   0  0  0  0  0  0  0  0  0  0  0  0
  151.4720  145.1500  160.1754 C   0  0  0  0  0  0  0  0  0  0  0  0
  152.0896  144.9876  158.7777 C   0  0  0  0  0  0  0  0  0  0  0  0
  152.0904  143.6097  158.4309 O   0  0  0  0  0  0  0  0  0  0  0  0
  151.7511  141.9161  157.3176 H   0  0  0  0  0  0  0  0  0  0  0  0
  151.7195  141.0246  155.1904 H   0  0  0  0  0  0  0  0  0  0  0  0
  151.4225  139.0314  153.8702 H   0  0  0  0  0  0  0  0  0  0  0  0
  153.8829  143.1787  159.3550 H   0  0  0  0  0  0  0  0  0  0  0  0
  151.2217  142.6100  160.8068 H   0  0  0  0  0  0  0  0  0  0  0  0
  152.8240  142.4754  161.5113 H   0  0  0  0  0  0  0  0  0  0  0  0
  150.4304  144.8253  160.1819 H   0  0  0  0  0  0  0  0  0  0  0  0
  151.4849  146.1975  160.4770 H   0  0  0  0  0  0  0  0  0  0  0  0
  151.5086  145.5404  158.0396 H   0  0  0  0  0  0  0  0  0  0  0  0
  153.1054  145.3848  158.7523 H   0  0  0  0  0  0  0  0  0  0  0  0
  1  2  2  0  0  0  0
  2  3  1  0  0  0  0
  2 11  1  0  0  0  0
  3 17  1  0  0  0  0
  3  4  1  0  0  0  0
  4  5  1  0  0  0  0
  4 10  2  0  0  0  0
  5  6  2  0  0  0  0
  5 18  1  0  0  0  0
  6  7  1  0  0  0  0
  6 19  1  0  0  0  0
  7  8  2  0  0  0  0
  7  9  1  0  0  0  0
  9 10  1  0  0  0  0
 11 16  1  0  0  0  0
 11 12  1  0  0  0  0
 11 20  1  0  0  0  0
 12 13  1  0  0  0  0
 12 21  1  0  0  0  0
 12 22  1  0  0  0  0
 13 14  1  0  0  0  0
 14 15  1  0  0  0  0
 14 23  1  0  0  0  0
 14 24  1  0  0  0  0
 15 16  1  0  0  0  0
 15 25  1  0  0  0  0
 15 26  1  0  0  0  0
M  CHG  1   9  -1
M  END
> <s_m_source_file>
AV-unprocessed.smi

> <i_m_source_file_index>
2761

> <i_lp_mmshare_version>
43012

> <i_f3d_flags>
0

> <s_epik_input>
TzFbQ0gyXVtDSDJdT1tDSDJdW0NASF0xQyg9TylbTkhdYzJbY0hdW2NIXWMoW09IXSlubjI=

> <s_epik_cmdline>
J2VwaWtfcHl0aG9uJywgJy1waCcsICc3LjAnLCAnLXRuJywgJzgnLCAnLW1hJywgJzIwMCcsICctbWV0YWxfYmluZGluZycsICctaW1hZScsICc8aW5maWxlLm1hZT4nLCAnLW9tYWUnLCAnPG91dGZpbGUubWFlPic=

> <r_lp_tautomer_probability>
1

> <r_epik_Ionization_Penalty>
4.21844

> <r_epik_Ionization_Penalty_Charging>
0.119247

> <r_epik_Ionization_Penalty_Neutral>
4.0992

> <r_epik_State_Penalty>
4.09486

> <r_epik_Charging_Adjusted_Penalty>
4.2141

> <i_epik_Tot_Q>
-1

> <i_epik_Tot_abs_Q>
1

> <r_epik_Metal_State_Penalty>
0.651223

> <b_epik_Metal_Only>
1

> <s_lp_Force_Field>
OPLS_2005

> <r_lp_Energy>
28.3559

> <b_lp_Chiralities_Consistent>
1

> <s_lp_Variant>
AV-unprocessed.smi:2761-3

> <Gold.Version>
5.8.1

> <Gold.Id.Protein>
6NUR|6NUR_protein|mol2

> <Gold.PLP.Fitness>
34.1945

> <Gold.PLP.PLP>
-31.4493

> <Gold.PLP.part.hbond>
-1.0000

> <Gold.PLP.part.metal>
0.0000

> <Gold.PLP.part.buried>
-3.5675

> <Gold.PLP.part.nonpolar>
-26.0595

> <Gold.PLP.part.repulsive>
0.4083

> <Gold.PLP.ligand.clash>
0.0000

> <Gold.PLP.ligand.torsion>
0.1282

> <Gold.PLP.Chemscore.Hbond>
1.0000

> <Gold.PLP.Chemscore.CHOScore>
0.0000

> <Gold.PLP.Chemscore.Metal>
0.0000

> <Gold.Chemscore.Hbonds>
donor molecule, donor type, donor heavy atom, donor atom, acceptor molecule, acceptor atom, score
      P1  H 10752 10764       L1     8  1.00

> <Gold.PLP.Chemscore.Internal.Correction>
0.0016

> <Gold.Rescore>
     Score         DG    S(hbond)    S(metal)    S(lipo)     H(rot)  DE(clash)    DE(int)     intcor
     12.65     -13.71       1.00        0.00      63.83       1.00       0.04       1.02       ----

> <Gold.Chemscore.Fitness>
12.6494

> <Gold.Chemscore.DG>
-13.7110

> <Gold.Chemscore.ZeroCoef>
-5.4800

> <Gold.Chemscore.Hbond>
0.9950

> <Gold.Chemscore.Metal>
0.0000

> <Gold.Chemscore.Lipo>
63.8267

> <Gold.Chemscore.Internal_Hbond>
0.0000

> <Gold.Chemscore.DEClash>
0.0440

> <Gold.Chemscore.DEInternal>
1.0177

> <Gold.Chemscore.Rot>
1.0000

> <Gold.Chemscore.Internal.Correction>
   9.000000E+99

> <Gold.Chemscore.Hbonds>
donor molecule, donor type, donor heavy atom, donor atom, acceptor molecule, acceptor atom, score
      P1  H 10752 10764       L1     8  0.97

> <Gold.Chemscore.Hbond.Weighted>
-3.3233

> <Gold.Chemscore.Metal.Weighted>
-0.0000

> <Gold.Chemscore.Lipo.Weighted>
-7.4677

> <Gold.Chemscore.Internal_Hbond.Weighted>
0.0000

> <Gold.Chemscore.DEClash.Weighted>
0.0440

> <Gold.Chemscore.DEInternal.Weighted>
1.0177

> <Gold.Chemscore.Rot.Weighted>
2.5600

> <Gold.Chemscore.Internal.Correction.Weighted>
   9.000000E+99

> <Gold.Protein.RotatedTorsions>
[ 6907 6896 6895 6894 ] final   24.17 input  -60.11 | X-H torsion
[ 7974 7965 7964 7962 ] final    5.85 input  175.53 | X-H torsion
[ 8008 7997 7996 7995 ] final  -10.91 input   59.86 | X-H torsion
[ 10167 10162 10161 10158 ] final  105.70 input  -65.29 | X-H torsion
[ 10718 10713 10712 10709 ] final  147.29 input   66.30 | X-H torsion
[ 10763 10752 10751 10750 ] final  -70.46 input  -60.55 | X-H torsion
[ 11005 11000 10999 10996 ] final   68.93 input  -57.11 | X-H torsion

> <Gold.Protein.ActiveResidues>
 VAL166  LYS551  ARG553  GLY616  TRP617  ASP618  TYR619  PRO620  LYS621  CYS622 
 ASP623  PHE694  ASN695  SER759  ASP760  ASP761  ALA762  ILE779  LEU786  VAL792 
 PHE793  MET794  SER795  GLU796  ALA797  LYS798  CYS799  TRP800  GLU811  SER814 

> <Gold.Protein.RotatedAtoms>
  151.9534  135.0158  160.0543 H   0  0  0  0  0  0  0  0  0  0  0  0  # atno 6907 bound_to 6896
  152.1933  133.4784  159.5028 H   0  0  0  0  0  0  0  0  0  0  0  0  # atno 6908 bound_to 6896
  150.6939  134.1602  159.4216 H   0  0  0  0  0  0  0  0  0  0  0  0  # atno 6909 bound_to 6896
  146.2438  140.0322  142.8389 H   0  0  0  0  0  0  0  0  0  0  0  0  # atno 7974 bound_to 7965
  154.5512  140.2316  155.8482 H   0  0  0  0  0  0  0  0  0  0  0  0  # atno 8008 bound_to 7997
  156.1948  140.3068  155.9366 H   0  0  0  0  0  0  0  0  0  0  0  0  # atno 8009 bound_to 7997
  155.3067  140.0433  157.3023 H   0  0  0  0  0  0  0  0  0  0  0  0  # atno 8010 bound_to 7997
  139.7071  144.7084  151.1089 H   0  0  0  0  0  0  0  0  0  0  0  0  # atno 10167 bound_to 10162
  157.3228  131.0907  151.1226 H   0  0  0  0  0  0  0  0  0  0  0  0  # atno 10718 bound_to 10713
  154.4179  135.5993  153.5992 H   0  0  0  0  0  0  0  0  0  0  0  0  # atno 10763 bound_to 10752
  152.9792  135.5945  154.3990 H   0  0  0  0  0  0  0  0  0  0  0  0  # atno 10764 bound_to 10752
  154.3812  135.2841  155.2189 H   0  0  0  0  0  0  0  0  0  0  0  0  # atno 10765 bound_to 10752
  139.9683  134.6943  156.0499 H   0  0  0  0  0  0  0  0  0  0  0  0  # atno 11005 bound_to 11000
  145.1144  140.9425  143.4637 LP  0  0  0  0  0  0  0  0  0  0  0  0  # atno 17320 bound_to 7965
  145.0543  139.3156  143.5912 LP  0  0  0  0  0  0  0  0  0  0  0  0  # atno 17321 bound_to 7965
  140.7724  143.5344  150.9385 LP  0  0  0  0  0  0  0  0  0  0  0  0  # atno 17342 bound_to 10162
  139.9028  143.6815  152.3128 LP  0  0  0  0  0  0  0  0  0  0  0  0  # atno 17343 bound_to 10162
  157.2505  130.6612  149.5929 LP  0  0  0  0  0  0  0  0  0  0  0  0  # atno 17370 bound_to 10713
  155.9687  130.4540  150.5833 LP  0  0  0  0  0  0  0  0  0  0  0  0  # atno 17371 bound_to 10713
  141.1363  133.6574  156.3602 LP  0  0  0  0  0  0  0  0  0  0  0  0  # atno 17394 bound_to 11000
  140.5348  134.6177  157.5361 LP  0  0  0  0  0  0  0  0  0  0  0  0  # atno 17395 bound_to 11000

$$$$
