AV-unprocessed.smi:3068|AV-procd|sdf|11700|dock7
  -GOLD-   2272017103D 1   1.00000     0.00000
 Structure written by MMmdl.
 40 42  0  0  0  0  0  0  0  0  2 V2000
  150.3500  136.8661  159.1892 N   0  0  0  0  0  0  0  0  0  0  0  0
  149.3247  136.7308  159.7084 C   0  0  0  0  0  0  0  0  0  0  0  0
  148.0327  136.5606  160.3610 C   0  0  0  0  0  0  0  0  0  0  0  0
  147.9445  136.9669  161.6487 N   0  0  0  0  0  0  0  0  0  0  0  0
  146.7528  136.8174  162.2647 C   0  0  0  0  0  0  0  0  0  0  0  0
  145.6432  136.2624  161.5984 C   0  0  0  0  0  0  0  0  0  0  0  0
  145.7214  135.8554  160.3136 N   0  0  0  0  0  0  0  0  0  0  0  0
  146.9137  136.0000  159.6822 C   0  0  0  0  0  0  0  0  0  0  0  0
  147.0112  135.5800  158.3424 N   0  0  0  0  0  0  0  0  0  0  0  0
  145.9482  135.8277  157.3753 C   0  0  0  0  0  0  0  0  0  0  0  0
  146.1433  135.0367  156.0707 C   0  0  2  0  0  0  0  0  0  0  0  0
  147.3166  135.6012  155.2400 C   0  0  0  0  0  0  0  0  0  0  0  0
  147.4309  134.9231  153.9260 N   0  3  1  0  0  0  0  0  0  0  0  0
  148.0560  133.5747  154.0079 C   0  0  0  0  0  0  0  0  0  0  0  0
  148.2138  132.9471  152.6154 C   0  0  0  0  0  0  0  0  0  0  0  0
  146.8596  132.8670  151.9021 C   0  0  0  0  0  0  0  0  0  0  0  0
  146.2293  134.2639  151.8232 C   0  0  0  0  0  0  0  0  0  0  0  0
  146.1286  134.9472  153.2037 C   0  0  1  0  0  0  0  0  0  0  0  0
  144.9992  134.3916  154.0965 C   0  0  0  0  0  0  0  0  0  0  0  0
  144.9465  135.1417  155.3044 O   0  0  0  0  0  0  0  0  0  0  0  0
  146.6846  137.1420  163.2925 H   0  0  0  0  0  0  0  0  0  0  0  0
  144.6919  136.1447  162.0960 H   0  0  0  0  0  0  0  0  0  0  0  0
  147.8801  135.1863  158.0091 H   0  0  0  0  0  0  0  0  0  0  0  0
  144.9957  135.5591  157.8327 H   0  0  0  0  0  0  0  0  0  0  0  0
  145.8908  136.8966  157.1663 H   0  0  0  0  0  0  0  0  0  0  0  0
  146.3315  133.9893  156.3093 H   0  0  0  0  0  0  0  0  0  0  0  0
  147.1580  136.6657  155.0613 H   0  0  0  0  0  0  0  0  0  0  0  0
  148.2557  135.5174  155.7884 H   0  0  0  0  0  0  0  0  0  0  0  0
  149.0357  133.6605  154.4792 H   0  0  0  0  0  0  0  0  0  0  0  0
  147.4629  132.9130  154.6393 H   0  0  0  0  0  0  0  0  0  0  0  0
  148.9106  133.5391  152.0205 H   0  0  0  0  0  0  0  0  0  0  0  0
  148.6490  131.9512  152.7022 H   0  0  0  0  0  0  0  0  0  0  0  0
  146.9877  132.4572  150.8996 H   0  0  0  0  0  0  0  0  0  0  0  0
  146.1973  132.1839  152.4347 H   0  0  0  0  0  0  0  0  0  0  0  0
  146.8382  134.8854  151.1650 H   0  0  0  0  0  0  0  0  0  0  0  0
  145.2451  134.2065  151.3568 H   0  0  0  0  0  0  0  0  0  0  0  0
  145.8930  135.9965  153.0178 H   0  0  0  0  0  0  0  0  0  0  0  0
  144.0387  134.4871  153.5896 H   0  0  0  0  0  0  0  0  0  0  0  0
  145.1344  133.3321  154.3168 H   0  0  0  0  0  0  0  0  0  0  0  0
  148.0696  135.4783  153.3747 H   0  0  0  0  0  0  0  0  0  0  0  0
  1  2  3  0  0  0  0
  2  3  1  0  0  0  0
  3  8  1  0  0  0  0
  3  4  2  0  0  0  0
  4  5  1  0  0  0  0
  5  6  2  0  0  0  0
  5 21  1  0  0  0  0
  6  7  1  0  0  0  0
  6 22  1  0  0  0  0
  7  8  2  0  0  0  0
  8  9  1  0  0  0  0
  9 10  1  0  0  0  0
  9 23  1  0  0  0  0
 10 11  1  0  0  0  0
 10 24  1  0  0  0  0
 10 25  1  0  0  0  0
 11 20  1  0  0  0  0
 11 12  1  0  0  0  0
 11 26  1  0  0  0  0
 12 13  1  0  0  0  0
 12 27  1  0  0  0  0
 12 28  1  0  0  0  0
 13 18  1  0  0  0  0
 13 14  1  0  0  0  0
 13 40  1  0  0  0  0
 14 15  1  0  0  0  0
 14 29  1  0  0  0  0
 14 30  1  0  0  0  0
 15 16  1  0  0  0  0
 15 31  1  0  0  0  0
 15 32  1  0  0  0  0
 16 17  1  0  0  0  0
 16 33  1  0  0  0  0
 16 34  1  0  0  0  0
 17 18  1  0  0  0  0
 17 35  1  0  0  0  0
 17 36  1  0  0  0  0
 18 19  1  0  0  0  0
 18 37  1  0  0  0  0
 19 20  1  0  0  0  0
 19 38  1  0  0  0  0
 19 39  1  0  0  0  0
M  CHG  1  13   1
M  END
> <s_m_source_file>
AV-unprocessed.smi

> <i_m_source_file_index>
3068

> <i_lp_mmshare_version>
43012

> <i_f3d_flags>
0

> <s_epik_input>
TiNDYzFuW2NIXVtjSF1uYzFbTkhdW0NIMl1bQ0BIXShbQ0gyXTIpT1tDSDJdW0NAQEhdKE4yMylbQ0gyXVtDSDJdW0NIMl1bQ0gyXTM=

> <s_epik_cmdline>
J2VwaWtfcHl0aG9uJywgJy1waCcsICc3LjAnLCAnLXRuJywgJzgnLCAnLW1hJywgJzIwMCcsICctbWV0YWxfYmluZGluZycsICctaW1hZScsICc8aW5maWxlLm1hZT4nLCAnLW9tYWUnLCAnPG91dGZpbGUubWFlPic=

> <r_epik_Ionization_Penalty>
0.0804321

> <r_epik_Ionization_Penalty_Charging>
0.0803403

> <r_epik_Ionization_Penalty_Neutral>
9.17277e-05

> <r_epik_State_Penalty>
0.0711481

> <r_epik_Charging_Adjusted_Penalty>
0.151488

> <i_epik_Tot_Q>
1

> <i_epik_Tot_abs_Q>
1

> <r_epik_Metal_State_Penalty>
0.0711481

> <b_epik_Metal_Only>
0

> <s_lp_Force_Field>
OPLS_2005

> <r_lp_Energy>
39.785

> <b_lp_Chiralities_Consistent>
1

> <s_lp_Variant>
AV-unprocessed.smi:3068-3

> <Gold.Version>
5.8.1

> <Gold.Id.Protein>
6NUR|6NUR_protein|mol2

> <Gold.PLP.Fitness>
35.0480

> <Gold.PLP.PLP>
-23.8760

> <Gold.PLP.part.hbond>
-3.7706

> <Gold.PLP.part.metal>
0.0000

> <Gold.PLP.part.buried>
-3.2252

> <Gold.PLP.part.nonpolar>
-18.0253

> <Gold.PLP.part.repulsive>
0.0392

> <Gold.PLP.ligand.clash>
0.0000

> <Gold.PLP.ligand.torsion>
0.4483

> <Gold.PLP.Chemscore.Hbond>
4.0227

> <Gold.PLP.Chemscore.CHOScore>
0.0000

> <Gold.PLP.Chemscore.Metal>
0.0000

> <Gold.Chemscore.Hbonds>
donor molecule, donor type, donor heavy atom, donor atom, acceptor molecule, acceptor atom, score
      L1  H    13    40       P1  7948  2.00
      P1  H  6896  6909       L1     1  0.77
      P1  H  6931  6943       L1     4  1.00
      P1  H  6934  6947       L1     4  0.04

> <Gold.PLP.Chemscore.Internal.Correction>
0.0006

> <Gold.Rescore>
     Score         DG    S(hbond)    S(metal)    S(lipo)     H(rot)  DE(clash)    DE(int)     intcor
     15.85     -16.30       2.67        0.00      45.14       1.32       0.02       0.42       ----

> <Gold.Chemscore.Fitness>
15.8547

> <Gold.Chemscore.DG>
-16.2985

> <Gold.Chemscore.ZeroCoef>
-5.4800

> <Gold.Chemscore.Hbond>
2.6689

> <Gold.Chemscore.Metal>
0.0000

> <Gold.Chemscore.Lipo>
45.1420

> <Gold.Chemscore.Internal_Hbond>
0.0000

> <Gold.Chemscore.DEClash>
0.0222

> <Gold.Chemscore.DEInternal>
0.4216

> <Gold.Chemscore.Rot>
1.3193

> <Gold.Chemscore.Internal.Correction>
   9.000000E+99

> <Gold.Chemscore.Hbonds>
donor molecule, donor type, donor heavy atom, donor atom, acceptor molecule, acceptor atom, score
      L1  H    13    40       P1  7948  0.99
      P1  H  6896  6909       L1     1  0.16
      P1  H  6931  6943       L1     4  0.74

> <Gold.Chemscore.Hbond.Weighted>
-8.9143

> <Gold.Chemscore.Metal.Weighted>
-0.0000

> <Gold.Chemscore.Lipo.Weighted>
-5.2816

> <Gold.Chemscore.Internal_Hbond.Weighted>
0.0000

> <Gold.Chemscore.DEClash.Weighted>
0.0222

> <Gold.Chemscore.DEInternal.Weighted>
0.4216

> <Gold.Chemscore.Rot.Weighted>
3.3774

> <Gold.Chemscore.Internal.Correction.Weighted>
   9.000000E+99

> <Gold.Protein.RotatedTorsions>
[ 6907 6896 6895 6894 ] final  106.69 input  -60.11 | X-H torsion
[ 7974 7965 7964 7962 ] final -100.55 input  175.53 | X-H torsion
[ 8008 7997 7996 7995 ] final  -47.77 input   59.86 | X-H torsion
[ 10167 10162 10161 10158 ] final   89.87 input  -65.29 | X-H torsion
[ 10718 10713 10712 10709 ] final   95.97 input   66.30 | X-H torsion
[ 10763 10752 10751 10750 ] final  106.65 input  -60.55 | X-H torsion
[ 11005 11000 10999 10996 ] final   29.64 input  -57.11 | X-H torsion

> <Gold.Protein.ActiveResidues>
 VAL166  LYS551  ARG553  GLY616  TRP617  ASP618  TYR619  PRO620  LYS621  CYS622 
 ASP623  PHE694  ASN695  SER759  ASP760  ASP761  ALA762  ILE779  LEU786  VAL792 
 PHE793  MET794  SER795  GLU796  ALA797  LYS798  CYS799  TRP800  GLU811  SER814 

> <Gold.Protein.RotatedAtoms>
  152.5184  133.9344  159.7595 H   0  0  0  0  0  0  0  0  0  0  0  0  # atno 6907 bound_to 6896
  150.9688  133.6358  159.2748 H   0  0  0  0  0  0  0  0  0  0  0  0  # atno 6908 bound_to 6896
  151.3577  135.0903  159.9477 H   0  0  0  0  0  0  0  0  0  0  0  0  # atno 6909 bound_to 6896
  145.2931  140.9358  143.2866 H   0  0  0  0  0  0  0  0  0  0  0  0  # atno 7974 bound_to 7965
  154.4020  140.1338  156.4229 H   0  0  0  0  0  0  0  0  0  0  0  0  # atno 8008 bound_to 7997
  155.7625  140.3486  155.5185 H   0  0  0  0  0  0  0  0  0  0  0  0  # atno 8009 bound_to 7997
  155.8845  140.0993  157.1452 H   0  0  0  0  0  0  0  0  0  0  0  0  # atno 8010 bound_to 7997
  139.8530  144.6584  150.9147 H   0  0  0  0  0  0  0  0  0  0  0  0  # atno 10167 bound_to 10162
  157.6932  131.0563  150.4420 H   0  0  0  0  0  0  0  0  0  0  0  0  # atno 10718 bound_to 10713
  153.3958  135.3870  155.1954 H   0  0  0  0  0  0  0  0  0  0  0  0  # atno 10763 bound_to 10752
  154.8724  135.3759  154.4680 H   0  0  0  0  0  0  0  0  0  0  0  0  # atno 10764 bound_to 10752
  153.5172  135.7087  153.5812 H   0  0  0  0  0  0  0  0  0  0  0  0  # atno 10765 bound_to 10752
  140.3028  134.2738  155.7750 H   0  0  0  0  0  0  0  0  0  0  0  0  # atno 11005 bound_to 11000
  144.9156  139.4475  143.6566 LP  0  0  0  0  0  0  0  0  0  0  0  0  # atno 17320 bound_to 7965
  146.3178  139.7988  142.8970 LP  0  0  0  0  0  0  0  0  0  0  0  0  # atno 17321 bound_to 7965
  140.7785  143.3811  151.1476 LP  0  0  0  0  0  0  0  0  0  0  0  0  # atno 17342 bound_to 10162
  139.7447  143.8870  152.3060 LP  0  0  0  0  0  0  0  0  0  0  0  0  # atno 17343 bound_to 10162
  156.4778  130.4067  149.6479 LP  0  0  0  0  0  0  0  0  0  0  0  0  # atno 17370 bound_to 10713
  156.3536  130.7445  151.2408 LP  0  0  0  0  0  0  0  0  0  0  0  0  # atno 17371 bound_to 10713
  141.2124  133.7657  156.9792 LP  0  0  0  0  0  0  0  0  0  0  0  0  # atno 17394 bound_to 11000
  140.1094  134.9486  157.2043 LP  0  0  0  0  0  0  0  0  0  0  0  0  # atno 17395 bound_to 11000

$$$$
