AV-unprocessed.smi:1675|AV-procd|sdf|6716|dock7
  -GOLD-   22720 7463D 1   1.00000     0.00000
 Structure written by MMmdl.
 40 42  0  0  0  0  0  0  0  0  1 V2000
  146.9220  137.7381  153.1989 N   0  0  0  0  0  0  0  0  0  0  0  0
  146.7838  138.5266  152.1300 C   0  0  0  0  0  0  0  0  0  0  0  0
  146.5436  138.0757  151.0113 O   0  0  0  0  0  0  0  0  0  0  0  0
  146.9435  140.0338  152.3548 C   0  0  0  0  0  0  0  0  0  0  0  0
  147.3267  140.3408  153.7228 N   0  0  0  0  0  0  0  0  0  0  0  0
  148.5672  140.7222  154.1973 C   0  0  0  0  0  0  0  0  0  0  0  0
  148.4120  140.8948  155.5437 C   0  0  0  0  0  0  0  0  0  0  0  0
  149.3671  141.2785  156.5189 N   0  0  0  0  0  0  0  0  0  0  0  0
  150.7063  141.2883  156.3960 C   0  0  0  0  0  0  0  0  0  0  0  0
  151.3134  140.9375  155.3846 O   0  0  0  0  0  0  0  0  0  0  0  0
  151.4886  141.7501  157.6299 C   0  0  0  0  0  0  0  0  0  0  0  0
  151.4509  143.2810  157.8430 C   0  0  1  0  0  0  0  0  0  0  0  0
  150.4252  143.7412  158.9017 C   0  0  0  0  0  0  0  0  0  0  0  0
  151.2475  144.6927  159.7911 C   0  0  1  0  0  0  0  0  0  0  0  0
  152.2043  143.8631  160.6662 C   0  0  0  0  0  0  0  0  0  0  0  0
  153.2600  143.3865  159.6523 C   0  0  0  0  0  0  0  0  0  0  0  0
  152.7504  143.9778  158.3216 C   0  0  2  0  0  0  0  0  0  0  0  0
  152.2063  145.3244  158.7882 C   0  0  0  0  0  0  0  0  0  0  0  0
  147.0499  140.6053  155.8162 C   0  0  0  0  0  0  0  0  0  0  0  0
  146.3993  140.2747  154.7112 N   0  0  0  0  0  0  0  0  0  0  0  0
  146.8269  136.7378  153.0978 H   0  0  0  0  0  0  0  0  0  0  0  0
  147.1223  138.1416  154.1023 H   0  0  0  0  0  0  0  0  0  0  0  0
  147.7024  140.4426  151.6863 H   0  0  0  0  0  0  0  0  0  0  0  0
  146.0029  140.5328  152.1172 H   0  0  0  0  0  0  0  0  0  0  0  0
  149.4217  140.8277  153.5454 H   0  0  0  0  0  0  0  0  0  0  0  0
  148.9924  141.5825  157.4060 H   0  0  0  0  0  0  0  0  0  0  0  0
  151.0851  141.2579  158.5161 H   0  0  0  0  0  0  0  0  0  0  0  0
  152.5150  141.3943  157.5431 H   0  0  0  0  0  0  0  0  0  0  0  0
  151.1677  143.7340  156.8908 H   0  0  0  0  0  0  0  0  0  0  0  0
  149.5972  144.2692  158.4270 H   0  0  0  0  0  0  0  0  0  0  0  0
  150.0031  142.9148  159.4748 H   0  0  0  0  0  0  0  0  0  0  0  0
  150.6392  145.3986  160.3570 H   0  0  0  0  0  0  0  0  0  0  0  0
  152.6649  144.4832  161.4364 H   0  0  0  0  0  0  0  0  0  0  0  0
  151.6986  143.0336  161.1620 H   0  0  0  0  0  0  0  0  0  0  0  0
  154.2363  143.8033  159.9020 H   0  0  0  0  0  0  0  0  0  0  0  0
  153.3686  142.3029  159.6320 H   0  0  0  0  0  0  0  0  0  0  0  0
  153.5197  144.0485  157.5523 H   0  0  0  0  0  0  0  0  0  0  0  0
  151.7009  145.8865  158.0009 H   0  0  0  0  0  0  0  0  0  0  0  0
  152.9617  145.9608  159.2530 H   0  0  0  0  0  0  0  0  0  0  0  0
  146.5220  140.6239  156.7582 H   0  0  0  0  0  0  0  0  0  0  0  0
  1  2  1  0  0  0  0
  1 21  1  0  0  0  0
  1 22  1  0  0  0  0
  2  3  2  0  0  0  0
  2  4  1  0  0  0  0
  4  5  1  0  0  0  0
  4 23  1  0  0  0  0
  4 24  1  0  0  0  0
  5 20  1  0  0  0  0
  5  6  1  0  0  0  0
  6  7  2  0  0  0  0
  6 25  1  0  0  0  0
  7  8  1  0  0  0  0
  7 19  1  0  0  0  0
  8  9  1  0  0  0  0
  8 26  1  0  0  0  0
  9 10  2  0  0  0  0
  9 11  1  0  0  0  0
 11 12  1  0  0  0  0
 11 27  1  0  0  0  0
 11 28  1  0  0  0  0
 12 17  1  0  0  0  0
 12 13  1  0  0  0  0
 12 29  1  0  0  0  0
 13 14  1  0  0  0  0
 13 30  1  0  0  0  0
 13 31  1  0  0  0  0
 14 18  1  0  0  0  0
 14 15  1  0  0  0  0
 14 32  1  0  0  0  0
 15 16  1  0  0  0  0
 15 33  1  0  0  0  0
 15 34  1  0  0  0  0
 16 17  1  0  0  0  0
 16 35  1  0  0  0  0
 16 36  1  0  0  0  0
 17 18  1  0  0  0  0
 17 37  1  0  0  0  0
 18 38  1  0  0  0  0
 18 39  1  0  0  0  0
 19 20  2  0  0  0  0
 19 40  1  0  0  0  0
M  END
> <s_m_source_file>
AV-unprocessed.smi

> <i_m_source_file_index>
1675

> <i_lp_mmshare_version>
43012

> <i_f3d_flags>
0

> <s_epik_input>
W05IMl1DKD1PKVtDSDJdbjFbY0hdYyhbY0hdbjEpW05IXUMoPU8pW0NIMl1bQ0BIXShbQ0gyXVtDQEBIXTIzKVtDQEBIXShbQ0gyXTMpW0NIMl1bQ0gyXTI=

> <s_epik_cmdline>
J2VwaWtfcHl0aG9uJywgJy1waCcsICc3LjAnLCAnLXRuJywgJzgnLCAnLW1hJywgJzIwMCcsICctbWV0YWxfYmluZGluZycsICctaW1hZScsICc8aW5maWxlLm1hZT4nLCAnLW9tYWUnLCAnPG91dGZpbGUubWFlPic=

> <r_lp_tautomer_probability>
1

> <r_epik_Ionization_Penalty>
2.17494e-05

> <r_epik_Ionization_Penalty_Charging>
0

> <r_epik_Ionization_Penalty_Neutral>
2.17494e-05

> <r_epik_State_Penalty>
-0

> <r_epik_Charging_Adjusted_Penalty>
0

> <i_epik_Tot_Q>
0

> <i_epik_Tot_abs_Q>
0

> <r_epik_Metal_State_Penalty>
-0

> <b_epik_Metal_Only>
0

> <s_lp_Force_Field>
OPLS_2005

> <r_lp_Energy>
53.8381

> <b_lp_Chiralities_Consistent>
1

> <s_lp_Variant>
AV-unprocessed.smi:1675-2

> <Gold.Version>
5.8.1

> <Gold.Id.Protein>
6NUR|6NUR_protein|mol2

> <Gold.PLP.Fitness>
49.2840

> <Gold.PLP.PLP>
-43.5705

> <Gold.PLP.part.hbond>
-3.0000

> <Gold.PLP.part.metal>
0.0000

> <Gold.PLP.part.buried>
-1.6054

> <Gold.PLP.part.nonpolar>
-40.2458

> <Gold.PLP.part.repulsive>
1.8000

> <Gold.PLP.ligand.clash>
0.0000

> <Gold.PLP.ligand.torsion>
1.0179

> <Gold.PLP.Chemscore.Hbond>
1.7040

> <Gold.PLP.Chemscore.CHOScore>
0.8685

> <Gold.PLP.Chemscore.Metal>
0.0000

> <Gold.Chemscore.Hbonds>
donor molecule, donor type, donor heavy atom, donor atom, acceptor molecule, acceptor atom, score
      P1  H  7954  7966       L1     3  1.00
      P1  H  7989  7998       L1    10  0.66
      L1  C     6    25       P1  7957  0.94

> <Gold.PLP.Chemscore.Internal.Correction>
0.0318

> <Gold.Rescore>
     Score         DG    S(hbond)    S(metal)    S(lipo)     H(rot)  DE(clash)    DE(int)     intcor
     12.97     -18.89       1.69        0.00     113.25       2.15       2.29       3.63       ----

> <Gold.Chemscore.Fitness>
12.9702

> <Gold.Chemscore.DG>
-18.8910

> <Gold.Chemscore.ZeroCoef>
-5.4800

> <Gold.Chemscore.Hbond>
1.6948

> <Gold.Chemscore.Metal>
0.0000

> <Gold.Chemscore.Lipo>
113.2540

> <Gold.Chemscore.Internal_Hbond>
0.0000

> <Gold.Chemscore.DEClash>
2.2927

> <Gold.Chemscore.DEInternal>
3.6282

> <Gold.Chemscore.Rot>
2.1486

> <Gold.Chemscore.Internal.Correction>
   9.000000E+99

> <Gold.Chemscore.Hbonds>
donor molecule, donor type, donor heavy atom, donor atom, acceptor molecule, acceptor atom, score
      P1  H  7954  7966       L1     3  0.83
      P1  H  7989  7998       L1    10  0.66

> <Gold.Chemscore.Hbond.Weighted>
-5.6607

> <Gold.Chemscore.Metal.Weighted>
-0.0000

> <Gold.Chemscore.Lipo.Weighted>
-13.2507

> <Gold.Chemscore.Internal_Hbond.Weighted>
0.0000

> <Gold.Chemscore.DEClash.Weighted>
2.2927

> <Gold.Chemscore.DEInternal.Weighted>
3.6282

> <Gold.Chemscore.Rot.Weighted>
5.5004

> <Gold.Chemscore.Internal.Correction.Weighted>
   9.000000E+99

> <Gold.Protein.RotatedTorsions>
[ 6907 6896 6895 6894 ] final   52.99 input  -60.11 | X-H torsion
[ 7974 7965 7964 7962 ] final  177.06 input  175.53 | X-H torsion
[ 8008 7997 7996 7995 ] final  -73.86 input   59.86 | X-H torsion
[ 10167 10162 10161 10158 ] final -110.82 input  -65.29 | X-H torsion
[ 10718 10713 10712 10709 ] final  111.33 input   66.30 | X-H torsion
[ 10763 10752 10751 10750 ] final  -42.20 input  -60.55 | X-H torsion
[ 11005 11000 10999 10996 ] final  -23.91 input  -57.11 | X-H torsion

> <Gold.Protein.ActiveResidues>
 VAL166  LYS551  ARG553  GLY616  TRP617  ASP618  TYR619  PRO620  LYS621  CYS622 
 ASP623  PHE694  ASN695  SER759  ASP760  ASP761  ALA762  ILE779  LEU786  VAL792 
 PHE793  MET794  SER795  GLU796  ALA797  LYS798  CYS799  TRP800  GLU811  SER814 

> <Gold.Protein.RotatedAtoms>
  152.3291  134.7283  160.0293 H   0  0  0  0  0  0  0  0  0  0  0  0  # atno 6907 bound_to 6896
  151.7705  133.3335  159.3451 H   0  0  0  0  0  0  0  0  0  0  0  0  # atno 6908 bound_to 6896
  150.7412  134.5954  159.6053 H   0  0  0  0  0  0  0  0  0  0  0  0  # atno 6909 bound_to 6896
  144.7174  140.0190  143.6440 H   0  0  0  0  0  0  0  0  0  0  0  0  # atno 7974 bound_to 7965
  154.5282  140.0771  156.8298 H   0  0  0  0  0  0  0  0  0  0  0  0  # atno 8008 bound_to 7997
  155.3430  140.3408  155.4221 H   0  0  0  0  0  0  0  0  0  0  0  0  # atno 8009 bound_to 7997
  156.1754  140.1634  156.8358 H   0  0  0  0  0  0  0  0  0  0  0  0  # atno 8010 bound_to 7997
  140.1403  143.4284  152.1566 H   0  0  0  0  0  0  0  0  0  0  0  0  # atno 10167 bound_to 10162
  157.6450  131.0948  150.6732 H   0  0  0  0  0  0  0  0  0  0  0  0  # atno 10718 bound_to 10713
  153.9751  135.6723  153.4748 H   0  0  0  0  0  0  0  0  0  0  0  0  # atno 10763 bound_to 10752
  153.0774  135.4941  154.8430 H   0  0  0  0  0  0  0  0  0  0  0  0  # atno 10764 bound_to 10752
  154.7197  135.3114  154.9029 H   0  0  0  0  0  0  0  0  0  0  0  0  # atno 10765 bound_to 10752
  140.8796  133.7663  156.0286 H   0  0  0  0  0  0  0  0  0  0  0  0  # atno 11005 bound_to 11000
  146.0196  139.3240  143.0821 LP  0  0  0  0  0  0  0  0  0  0  0  0  # atno 17320 bound_to 7965
  145.8584  140.9489  143.0713 LP  0  0  0  0  0  0  0  0  0  0  0  0  # atno 17321 bound_to 7965
  139.5475  144.7311  151.4537 LP  0  0  0  0  0  0  0  0  0  0  0  0  # atno 17342 bound_to 10162
  140.6764  143.8180  150.7064 LP  0  0  0  0  0  0  0  0  0  0  0  0  # atno 17343 bound_to 10162
  156.7051  130.4635  149.5562 LP  0  0  0  0  0  0  0  0  0  0  0  0  # atno 17370 bound_to 10713
  156.1769  130.6473  151.0904 LP  0  0  0  0  0  0  0  0  0  0  0  0  # atno 17371 bound_to 10713
  140.8477  134.2991  157.5288 LP  0  0  0  0  0  0  0  0  0  0  0  0  # atno 17394 bound_to 11000
  139.8718  134.9451  156.3899 LP  0  0  0  0  0  0  0  0  0  0  0  0  # atno 17395 bound_to 11000

$$$$
