AV-unprocessed.smi:2597|AV-procd|sdf|10173|dock2
  -GOLD-   2272014183D 1   1.00000     0.00000
 Structure written by MMmdl.
 31 32  0  0  0  0  0  0  0  0  2 V2000
  145.8960  136.0243  151.7036 N   0  3  0  0  0  0  0  0  0  0  0  0
  145.3916  134.7709  151.1112 C   0  0  2  0  0  0  0  0  0  0  0  0
  144.1173  134.2901  151.8351 C   0  0  0  0  0  0  0  0  0  0  0  0
  143.5832  132.9878  151.2177 C   0  0  0  0  0  0  0  0  0  0  0  0
  144.6533  131.8851  151.2043 C   0  0  0  0  0  0  0  0  0  0  0  0
  145.9345  132.3516  150.4878 C   0  0  0  0  0  0  0  0  0  0  0  0
  146.4993  133.6850  151.0313 C   0  0  2  0  0  0  0  0  0  0  0  0
  147.2592  133.5141  152.2708 N   0  0  0  0  0  0  0  0  0  0  0  0
  148.4577  132.8475  152.4323 C   0  0  0  0  0  0  0  0  0  0  0  0
  148.7404  133.0011  153.7597 C   0  0  0  0  0  0  0  0  0  0  0  0
  149.9183  132.5088  154.5435 C   0  0  0  0  0  0  0  0  0  0  0  0
  149.9364  131.1042  154.4076 O   0  0  0  0  0  0  0  0  0  0  0  0
  147.7161  133.7384  154.3487 N   0  0  0  0  0  0  0  0  0  0  0  0
  146.8340  134.0357  153.4487 N   0  0  0  0  0  0  0  0  0  0  0  0
  145.1047  135.0172  150.0880 H   0  0  0  0  0  0  0  0  0  0  0  0
  147.2247  134.0328  150.2939 H   0  0  0  0  0  0  0  0  0  0  0  0
  146.8951  136.0825  151.5660 H   0  0  0  0  0  0  0  0  0  0  0  0
  145.6915  136.0377  152.6926 H   0  0  0  0  0  0  0  0  0  0  0  0
  144.3052  134.1434  152.8983 H   0  0  0  0  0  0  0  0  0  0  0  0
  143.3459  135.0584  151.7728 H   0  0  0  0  0  0  0  0  0  0  0  0
  142.7069  132.6470  151.7699 H   0  0  0  0  0  0  0  0  0  0  0  0
  143.2482  133.1799  150.1976 H   0  0  0  0  0  0  0  0  0  0  0  0
  144.8770  131.5742  152.2240 H   0  0  0  0  0  0  0  0  0  0  0  0
  144.2588  130.9998  150.7048 H   0  0  0  0  0  0  0  0  0  0  0  0
  146.6951  131.5713  150.5369 H   0  0  0  0  0  0  0  0  0  0  0  0
  145.7065  132.4782  149.4285 H   0  0  0  0  0  0  0  0  0  0  0  0
  148.9848  132.3508  151.6308 H   0  0  0  0  0  0  0  0  0  0  0  0
  150.8550  132.9248  154.1710 H   0  0  0  0  0  0  0  0  0  0  0  0
  149.8309  132.7746  155.5970 H   0  0  0  0  0  0  0  0  0  0  0  0
  149.6032  130.8820  153.5516 H   0  0  0  0  0  0  0  0  0  0  0  0
  145.4501  136.8128  151.2568 H   0  0  0  0  0  0  0  0  0  0  0  0
  1  2  1  0  0  0  0
  1 17  1  0  0  0  0
  1 18  1  0  0  0  0
  1 31  1  0  0  0  0
  2 15  1  0  0  0  0
  2  7  1  0  0  0  0
  2  3  1  0  0  0  0
  3  4  1  0  0  0  0
  3 19  1  0  0  0  0
  3 20  1  0  0  0  0
  4  5  1  0  0  0  0
  4 21  1  0  0  0  0
  4 22  1  0  0  0  0
  5  6  1  0  0  0  0
  5 23  1  0  0  0  0
  5 24  1  0  0  0  0
  6  7  1  0  0  0  0
  6 25  1  0  0  0  0
  6 26  1  0  0  0  0
  7 16  1  0  0  0  0
  7  8  1  0  0  0  0
  8 14  1  0  0  0  0
  8  9  1  0  0  0  0
  9 10  2  0  0  0  0
  9 27  1  0  0  0  0
 10 11  1  0  0  0  0
 10 13  1  0  0  0  0
 11 12  1  0  0  0  0
 11 28  1  0  0  0  0
 11 29  1  0  0  0  0
 12 30  1  0  0  0  0
 13 14  2  0  0  0  0
M  CHG  1   1   1
M  END
> <s_m_source_file>
AV-unprocessed.smi

> <i_m_source_file_index>
2597

> <i_lp_mmshare_version>
43012

> <i_f3d_flags>
0

> <s_epik_input>
W05IMl1bQ0BIXTFbQ0gyXVtDSDJdW0NIMl1bQ0gyXVtDQEhdMW4yW2NIXWMobm4yKVtDSDJdW09IXQ==

> <s_epik_cmdline>
J2VwaWtfcHl0aG9uJywgJy1waCcsICc3LjAnLCAnLXRuJywgJzgnLCAnLW1hJywgJzIwMCcsICctbWV0YWxfYmluZGluZycsICctaW1hZScsICc8aW5maWxlLm1hZT4nLCAnLW9tYWUnLCAnPG91dGZpbGUubWFlPic=

> <r_lp_tautomer_probability>
1

> <r_epik_Ionization_Penalty>
0.014346

> <r_epik_Ionization_Penalty_Charging>
0.014316

> <r_epik_Ionization_Penalty_Neutral>
3.00097e-05

> <r_epik_State_Penalty>
0.0111909

> <r_epik_Charging_Adjusted_Penalty>
0.0255069

> <i_epik_Tot_Q>
1

> <i_epik_Tot_abs_Q>
1

> <r_epik_Metal_State_Penalty>
0.011192

> <b_epik_Metal_Only>
0

> <s_lp_Force_Field>
OPLS_2005

> <r_lp_Energy>
16.1833

> <b_lp_Chiralities_Consistent>
1

> <s_lp_Variant>
AV-unprocessed.smi:2597-4

> <Gold.Version>
5.8.1

> <Gold.Id.Protein>
6NUR|6NUR_protein|mol2

> <Gold.PLP.Fitness>
34.8787

> <Gold.PLP.PLP>
-26.2405

> <Gold.PLP.part.hbond>
-1.0000

> <Gold.PLP.part.metal>
0.0000

> <Gold.PLP.part.buried>
-3.1398

> <Gold.PLP.part.nonpolar>
-22.8442

> <Gold.PLP.part.repulsive>
0.1924

> <Gold.PLP.ligand.clash>
0.0000

> <Gold.PLP.ligand.torsion>
0.2133

> <Gold.PLP.Chemscore.Hbond>
2.0000

> <Gold.PLP.Chemscore.CHOScore>
1.0000

> <Gold.PLP.Chemscore.Metal>
0.0000

> <Gold.Chemscore.Hbonds>
donor molecule, donor type, donor heavy atom, donor atom, acceptor molecule, acceptor atom, score
      L1  H     1    17       P1  7948  1.92
      L1  C     9    27       P1 10747  0.90

> <Gold.PLP.Chemscore.Internal.Correction>
0.0649

> <Gold.Rescore>
     Score         DG    S(hbond)    S(metal)    S(lipo)     H(rot)  DE(clash)    DE(int)     intcor
      9.78     -11.34       1.00        0.00      62.14       1.86       0.02       1.53       ----

> <Gold.Chemscore.Fitness>
9.7834

> <Gold.Chemscore.DG>
-11.3400

> <Gold.Chemscore.ZeroCoef>
-5.4800

> <Gold.Chemscore.Hbond>
0.9995

> <Gold.Chemscore.Metal>
0.0000

> <Gold.Chemscore.Lipo>
62.1410

> <Gold.Chemscore.Internal_Hbond>
0.0000

> <Gold.Chemscore.DEClash>
0.0220

> <Gold.Chemscore.DEInternal>
1.5345

> <Gold.Chemscore.Rot>
1.8551

> <Gold.Chemscore.Internal.Correction>
   9.000000E+99

> <Gold.Chemscore.Hbonds>
donor molecule, donor type, donor heavy atom, donor atom, acceptor molecule, acceptor atom, score
      L1  H     1    17       P1  7948  0.90

> <Gold.Chemscore.Hbond.Weighted>
-3.3384

> <Gold.Chemscore.Metal.Weighted>
-0.0000

> <Gold.Chemscore.Lipo.Weighted>
-7.2705

> <Gold.Chemscore.Internal_Hbond.Weighted>
0.0000

> <Gold.Chemscore.DEClash.Weighted>
0.0220

> <Gold.Chemscore.DEInternal.Weighted>
1.5345

> <Gold.Chemscore.Rot.Weighted>
4.7489

> <Gold.Chemscore.Internal.Correction.Weighted>
   9.000000E+99

> <Gold.Protein.RotatedTorsions>
[ 6907 6896 6895 6894 ] final   -9.48 input  -60.11 | X-H torsion
[ 7974 7965 7964 7962 ] final -164.15 input  175.53 | X-H torsion
[ 8008 7997 7996 7995 ] final  152.85 input   59.86 | X-H torsion
[ 10167 10162 10161 10158 ] final  -53.38 input  -65.29 | X-H torsion
[ 10718 10713 10712 10709 ] final -159.02 input   66.30 | X-H torsion
[ 10763 10752 10751 10750 ] final   64.77 input  -60.55 | X-H torsion
[ 11005 11000 10999 10996 ] final  -21.65 input  -57.11 | X-H torsion

> <Gold.Protein.ActiveResidues>
 VAL166  LYS551  ARG553  GLY616  TRP617  ASP618  TYR619  PRO620  LYS621  CYS622 
 ASP623  PHE694  ASN695  SER759  ASP760  ASP761  ALA762  ILE779  LEU786  VAL792 
 PHE793  MET794  SER795  GLU796  ALA797  LYS798  CYS799  TRP800  GLU811  SER814 

> <Gold.Protein.RotatedAtoms>
  151.4172  135.0993  159.9602 H   0  0  0  0  0  0  0  0  0  0  0  0  # atno 6907 bound_to 6896
  152.5000  133.8741  159.7324 H   0  0  0  0  0  0  0  0  0  0  0  0  # atno 6908 bound_to 6896
  150.9249  133.6778  159.2851 H   0  0  0  0  0  0  0  0  0  0  0  0  # atno 6909 bound_to 6896
  144.7305  140.3003  143.6205 H   0  0  0  0  0  0  0  0  0  0  0  0  # atno 7974 bound_to 7965
  156.2610  140.2009  156.6398 H   0  0  0  0  0  0  0  0  0  0  0  0  # atno 8008 bound_to 7997
  154.6618  140.0560  157.0095 H   0  0  0  0  0  0  0  0  0  0  0  0  # atno 8009 bound_to 7997
  155.1264  140.3229  155.4487 H   0  0  0  0  0  0  0  0  0  0  0  0  # atno 8010 bound_to 7997
  140.6488  143.2552  151.4784 H   0  0  0  0  0  0  0  0  0  0  0  0  # atno 10167 bound_to 10162
  156.5623  130.8652  151.2813 H   0  0  0  0  0  0  0  0  0  0  0  0  # atno 10718 bound_to 10713
  153.0069  135.5381  154.6562 H   0  0  0  0  0  0  0  0  0  0  0  0  # atno 10763 bound_to 10752
  154.5782  135.2847  155.0761 H   0  0  0  0  0  0  0  0  0  0  0  0  # atno 10764 bound_to 10752
  154.1901  135.6501  153.5110 H   0  0  0  0  0  0  0  0  0  0  0  0  # atno 10765 bound_to 10752
  140.8581  133.7808  156.0043 H   0  0  0  0  0  0  0  0  0  0  0  0  # atno 11005 bound_to 11000
  145.7767  139.1876  143.2181 LP  0  0  0  0  0  0  0  0  0  0  0  0  # atno 17320 bound_to 7965
  146.0867  140.7703  142.9615 LP  0  0  0  0  0  0  0  0  0  0  0  0  # atno 17321 bound_to 7965
  139.5701  144.1950  152.1823 LP  0  0  0  0  0  0  0  0  0  0  0  0  # atno 17342 bound_to 10162
  140.1243  144.5345  150.6843 LP  0  0  0  0  0  0  0  0  0  0  0  0  # atno 17343 bound_to 10162
  157.7366  130.9781  150.2145 LP  0  0  0  0  0  0  0  0  0  0  0  0  # atno 17370 bound_to 10713
  156.2788  130.3731  149.7956 LP  0  0  0  0  0  0  0  0  0  0  0  0  # atno 17371 bound_to 10713
  140.8714  134.2722  157.5189 LP  0  0  0  0  0  0  0  0  0  0  0  0  # atno 17394 bound_to 11000
  139.8706  134.9569  156.4252 LP  0  0  0  0  0  0  0  0  0  0  0  0  # atno 17395 bound_to 11000

$$$$
