AV-unprocessed.smi:2179|AV-procd|sdf|8856|dock2
  -GOLD-   2272012 53D 1   1.00000     0.00000
 Structure written by MMmdl.
 47 48  0  0  0  0  0  0  0  0  1 V2000
  151.9659  130.9679  155.6312 C   0  0  0  0  0  0  0  0  0  0  0  0
  151.3025  132.2365  156.1570 C   0  0  0  0  0  0  0  0  0  0  0  0
  151.3904  132.5267  157.3495 O   0  0  0  0  0  0  0  0  0  0  0  0
  150.6473  132.9857  155.2575 N   0  0  0  0  0  0  0  0  0  0  0  0
  149.9533  134.2328  155.5551 C   0  0  0  0  0  0  0  0  0  0  0  0
  150.4344  135.3778  154.6457 C   0  0  0  0  0  0  0  0  0  0  0  0
  150.7947  136.5585  155.4206 N   0  0  0  0  0  0  0  0  0  0  0  0
  151.7146  136.5854  156.3987 C   0  0  0  0  0  0  0  0  0  0  0  0
  152.3811  135.6055  156.7323 O   0  0  0  0  0  0  0  0  0  0  0  0
  151.9404  137.9236  157.0403 C   0  0  0  0  0  0  0  0  0  0  0  0
  151.3724  139.1048  156.5156 C   0  0  0  0  0  0  0  0  0  0  0  0
  151.5990  140.3272  157.1769 C   0  0  0  0  0  0  0  0  0  0  0  0
  152.3854  140.3419  158.3531 C   0  0  0  0  0  0  0  0  0  0  0  0
  152.6267  141.5559  159.0329 N   0  0  0  0  0  0  0  0  0  0  0  0
  152.5712  141.4897  160.4908 C   0  0  0  0  0  0  0  0  0  0  0  0
  153.1601  142.7712  161.1104 C   0  0  2  0  0  0  0  0  0  0  0  0
  153.0089  142.7950  162.6349 C   0  0  0  0  0  0  0  0  0  0  0  0
  152.4822  143.9051  160.5766 O   0  0  0  0  0  0  0  0  0  0  0  0
  152.6405  144.0188  159.1651 C   0  0  2  0  0  0  0  0  0  0  0  0
  151.9596  145.3127  158.7069 C   0  0  0  0  0  0  0  0  0  0  0  0
  152.0341  142.7758  158.4882 C   0  0  0  0  0  0  0  0  0  0  0  0
  152.9153  139.2033  158.8638 N   0  0  0  0  0  0  0  0  0  0  0  0
  152.6948  138.0336  158.2276 C   0  0  0  0  0  0  0  0  0  0  0  0
  152.9851  131.1830  155.3093 H   0  0  0  0  0  0  0  0  0  0  0  0
  151.4151  130.5566  154.7843 H   0  0  0  0  0  0  0  0  0  0  0  0
  152.0067  130.2066  156.4108 H   0  0  0  0  0  0  0  0  0  0  0  0
  150.6267  132.6681  154.2991 H   0  0  0  0  0  0  0  0  0  0  0  0
  148.8860  134.0648  155.4078 H   0  0  0  0  0  0  0  0  0  0  0  0
  150.0842  134.4913  156.6076 H   0  0  0  0  0  0  0  0  0  0  0  0
  151.2807  135.0593  154.0341 H   0  0  0  0  0  0  0  0  0  0  0  0
  149.6411  135.6611  153.9532 H   0  0  0  0  0  0  0  0  0  0  0  0
  150.3139  137.4173  155.1957 H   0  0  0  0  0  0  0  0  0  0  0  0
  150.7632  139.0858  155.6238 H   0  0  0  0  0  0  0  0  0  0  0  0
  151.1541  141.2298  156.7858 H   0  0  0  0  0  0  0  0  0  0  0  0
  151.5306  141.3693  160.7952 H   0  0  0  0  0  0  0  0  0  0  0  0
  153.1147  140.6281  160.8759 H   0  0  0  0  0  0  0  0  0  0  0  0
  154.2220  142.8418  160.8669 H   0  0  0  0  0  0  0  0  0  0  0  0
  153.5233  141.9503  163.0940 H   0  0  0  0  0  0  0  0  0  0  0  0
  151.9598  142.7486  162.9285 H   0  0  0  0  0  0  0  0  0  0  0  0
  153.4314  143.7087  163.0535 H   0  0  0  0  0  0  0  0  0  0  0  0
  153.7039  144.0842  158.9280 H   0  0  0  0  0  0  0  0  0  0  0  0
  152.0625  145.4501  157.6303 H   0  0  0  0  0  0  0  0  0  0  0  0
  152.4027  146.1803  159.1963 H   0  0  0  0  0  0  0  0  0  0  0  0
  150.8952  145.3037  158.9435 H   0  0  0  0  0  0  0  0  0  0  0  0
  152.2078  142.8305  157.4126 H   0  0  0  0  0  0  0  0  0  0  0  0
  150.9545  142.7505  158.6444 H   0  0  0  0  0  0  0  0  0  0  0  0
  153.1420  137.1625  158.6841 H   0  0  0  0  0  0  0  0  0  0  0  0
  1  2  1  0  0  0  0
  1 24  1  0  0  0  0
  1 25  1  0  0  0  0
  1 26  1  0  0  0  0
  2  3  2  0  0  0  0
  2  4  1  0  0  0  0
  4  5  1  0  0  0  0
  4 27  1  0  0  0  0
  5  6  1  0  0  0  0
  5 28  1  0  0  0  0
  5 29  1  0  0  0  0
  6  7  1  0  0  0  0
  6 30  1  0  0  0  0
  6 31  1  0  0  0  0
  7  8  1  0  0  0  0
  7 32  1  0  0  0  0
  8  9  2  0  0  0  0
  8 10  1  0  0  0  0
 10 23  1  0  0  0  0
 10 11  2  0  0  0  0
 11 12  1  0  0  0  0
 11 33  1  0  0  0  0
 12 13  2  0  0  0  0
 12 34  1  0  0  0  0
 13 14  1  0  0  0  0
 13 22  1  0  0  0  0
 14 21  1  0  0  0  0
 14 15  1  0  0  0  0
 15 16  1  0  0  0  0
 15 35  1  0  0  0  0
 15 36  1  0  0  0  0
 16 17  1  0  0  0  0
 16 18  1  0  0  0  0
 16 37  1  0  0  0  0
 17 38  1  0  0  0  0
 17 39  1  0  0  0  0
 17 40  1  0  0  0  0
 18 19  1  0  0  0  0
 19 20  1  0  0  0  0
 19 21  1  0  0  0  0
 19 41  1  0  0  0  0
 20 42  1  0  0  0  0
 20 43  1  0  0  0  0
 20 44  1  0  0  0  0
 21 45  1  0  0  0  0
 21 46  1  0  0  0  0
 22 23  2  0  0  0  0
 23 47  1  0  0  0  0
M  END
> <s_m_source_file>
AV-unprocessed.smi

> <i_m_source_file_index>
2179

> <i_lp_mmshare_version>
43012

> <i_f3d_flags>
0

> <s_epik_input>
W0NIM11DKD1PKVtOSF1bQ0gyXVtDSDJdW05IXUMoPU8pYzFbY0hdW2NIXWMobltjSF0xKU4yW0NIMl1bQ0BASF0oW0NIM10pT1tDQEBIXShbQ0gzXSlbQ0gyXTI=

> <s_epik_cmdline>
J2VwaWtfcHl0aG9uJywgJy1waCcsICc3LjAnLCAnLXRuJywgJzgnLCAnLW1hJywgJzIwMCcsICctbWV0YWxfYmluZGluZycsICctaW1hZScsICc8aW5maWxlLm1hZT4nLCAnLW9tYWUnLCAnPG91dGZpbGUubWFlPic=

> <r_lp_tautomer_probability>
1

> <r_epik_Ionization_Penalty>
2.00433e-05

> <r_epik_Ionization_Penalty_Charging>
0

> <r_epik_Ionization_Penalty_Neutral>
2.00433e-05

> <r_epik_State_Penalty>
-0

> <r_epik_Charging_Adjusted_Penalty>
0

> <i_epik_Tot_Q>
0

> <i_epik_Tot_abs_Q>
0

> <r_epik_Metal_State_Penalty>
-0

> <b_epik_Metal_Only>
0

> <s_lp_Force_Field>
OPLS_2005

> <r_lp_Energy>
13.6511

> <b_lp_Chiralities_Consistent>
1

> <s_lp_Variant>
AV-unprocessed.smi:2179-1

> <Gold.Version>
5.8.1

> <Gold.Id.Protein>
6NUR|6NUR_protein|mol2

> <Gold.PLP.Fitness>
44.1410

> <Gold.PLP.PLP>
-39.1923

> <Gold.PLP.part.hbond>
-2.0000

> <Gold.PLP.part.metal>
0.0000

> <Gold.PLP.part.buried>
-5.8995

> <Gold.PLP.part.nonpolar>
-30.9936

> <Gold.PLP.part.repulsive>
0.1974

> <Gold.PLP.ligand.clash>
0.0000

> <Gold.PLP.ligand.torsion>
0.7083

> <Gold.PLP.Chemscore.Hbond>
2.0000

> <Gold.PLP.Chemscore.CHOScore>
0.0000

> <Gold.PLP.Chemscore.Metal>
0.0000

> <Gold.Chemscore.Hbonds>
donor molecule, donor type, donor heavy atom, donor atom, acceptor molecule, acceptor atom, score
      P1  H  6896  6907       L1     3  0.91
      P1  H 10752 10765       L1     9  1.00

> <Gold.PLP.Chemscore.Internal.Correction>
0.3652

> <Gold.Rescore>
     Score         DG    S(hbond)    S(metal)    S(lipo)     H(rot)  DE(clash)    DE(int)     intcor
     17.36     -19.08       1.92        0.00     102.23       1.86       0.17       1.55       ----

> <Gold.Chemscore.Fitness>
17.3641

> <Gold.Chemscore.DG>
-19.0800

> <Gold.Chemscore.ZeroCoef>
-5.4800

> <Gold.Chemscore.Hbond>
1.9153

> <Gold.Chemscore.Metal>
0.0000

> <Gold.Chemscore.Lipo>
102.2285

> <Gold.Chemscore.Internal_Hbond>
0.0000

> <Gold.Chemscore.DEClash>
0.1706

> <Gold.Chemscore.DEInternal>
1.5452

> <Gold.Chemscore.Rot>
1.8586

> <Gold.Chemscore.Internal.Correction>
   9.000000E+99

> <Gold.Chemscore.Hbonds>
donor molecule, donor type, donor heavy atom, donor atom, acceptor molecule, acceptor atom, score
      P1  H  6896  6907       L1     3  0.82
      P1  H 10752 10765       L1     9  0.26

> <Gold.Chemscore.Hbond.Weighted>
-6.3972

> <Gold.Chemscore.Metal.Weighted>
-0.0000

> <Gold.Chemscore.Lipo.Weighted>
-11.9607

> <Gold.Chemscore.Internal_Hbond.Weighted>
0.0000

> <Gold.Chemscore.DEClash.Weighted>
0.1706

> <Gold.Chemscore.DEInternal.Weighted>
1.5452

> <Gold.Chemscore.Rot.Weighted>
4.7579

> <Gold.Chemscore.Internal.Correction.Weighted>
   9.000000E+99

> <Gold.Protein.RotatedTorsions>
[ 6907 6896 6895 6894 ] final -178.76 input  -60.11 | X-H torsion
[ 7974 7965 7964 7962 ] final   93.72 input  175.53 | X-H torsion
[ 8008 7997 7996 7995 ] final  -47.28 input   59.86 | X-H torsion
[ 10167 10162 10161 10158 ] final   55.56 input  -65.29 | X-H torsion
[ 10718 10713 10712 10709 ] final  -58.99 input   66.30 | X-H torsion
[ 10763 10752 10751 10750 ] final -132.14 input  -60.55 | X-H torsion
[ 11005 11000 10999 10996 ] final  -23.87 input  -57.11 | X-H torsion

> <Gold.Protein.ActiveResidues>
 VAL166  LYS551  ARG553  GLY616  TRP617  ASP618  TYR619  PRO620  LYS621  CYS622 
 ASP623  PHE694  ASN695  SER759  ASP760  ASP761  ALA762  ILE779  LEU786  VAL792 
 PHE793  MET794  SER795  GLU796  ALA797  LYS798  CYS799  TRP800  GLU811  SER814 

> <Gold.Protein.RotatedAtoms>
  151.6425  133.3325  159.3133 H   0  0  0  0  0  0  0  0  0  0  0  0  # atno 6907 bound_to 6896
  150.8001  134.7092  159.6603 H   0  0  0  0  0  0  0  0  0  0  0  0  # atno 6908 bound_to 6896
  152.4092  134.6158  160.0089 H   0  0  0  0  0  0  0  0  0  0  0  0  # atno 6909 bound_to 6896
  145.4752  139.2280  143.2913 H   0  0  0  0  0  0  0  0  0  0  0  0  # atno 7974 bound_to 7965
  154.4015  140.1350  156.4150 H   0  0  0  0  0  0  0  0  0  0  0  0  # atno 8008 bound_to 7997
  155.7697  140.3484  155.5220 H   0  0  0  0  0  0  0  0  0  0  0  0  # atno 8009 bound_to 7997
  155.8779  140.0982  157.1496 H   0  0  0  0  0  0  0  0  0  0  0  0  # atno 8010 bound_to 7997
  140.2181  144.3818  150.6461 H   0  0  0  0  0  0  0  0  0  0  0  0  # atno 10167 bound_to 10162
  156.1094  130.4177  150.0654 H   0  0  0  0  0  0  0  0  0  0  0  0  # atno 10718 bound_to 10713
  154.8745  135.3807  154.4361 H   0  0  0  0  0  0  0  0  0  0  0  0  # atno 10763 bound_to 10752
  153.5050  135.7030  153.5816 H   0  0  0  0  0  0  0  0  0  0  0  0  # atno 10764 bound_to 10752
  153.4131  135.3920  155.2029 H   0  0  0  0  0  0  0  0  0  0  0  0  # atno 10765 bound_to 10752
  140.8792  133.7665  156.0281 H   0  0  0  0  0  0  0  0  0  0  0  0  # atno 11005 bound_to 11000
  146.2373  140.5534  142.8949 LP  0  0  0  0  0  0  0  0  0  0  0  0  # atno 17320 bound_to 7965
  144.7921  140.6053  143.6534 LP  0  0  0  0  0  0  0  0  0  0  0  0  # atno 17321 bound_to 7965
  140.6275  143.2183  151.6566 LP  0  0  0  0  0  0  0  0  0  0  0  0  # atno 17342 bound_to 10162
  139.5154  144.3379  152.0767 LP  0  0  0  0  0  0  0  0  0  0  0  0  # atno 17343 bound_to 10162
  156.8621  130.9495  151.3617 LP  0  0  0  0  0  0  0  0  0  0  0  0  # atno 17370 bound_to 10713
  157.6274  130.8702  149.9213 LP  0  0  0  0  0  0  0  0  0  0  0  0  # atno 17371 bound_to 10713
  140.8481  134.2987  157.5286 LP  0  0  0  0  0  0  0  0  0  0  0  0  # atno 17394 bound_to 11000
  139.8718  134.9453  156.3905 LP  0  0  0  0  0  0  0  0  0  0  0  0  # atno 17395 bound_to 11000

$$$$
