#       Name:                AV-unprocessed.smi:2106
#       Creating user name   scv26
#       Creation time:       Fri Mar 27 11:33:28 2020


#       File generated by GOLD software.
#

@<TRIPOS>MOLECULE
AV-unprocessed.smi:2106
    53    54     1
SMALL
NO_CHARGES


@<TRIPOS>ATOM
      1 ****        -4.6957  -1.7879   4.4221 C.3            1 S1                 0.0000
      2 ****        -4.5676  -0.7225   3.3739 C.2            1 S1                 0.0000
      3 ****        -4.8845   0.6604   3.4802 C.2            1 S1                 0.0000
      4 ****        -4.5818   1.1723   2.2501 C.2            1 S1                 0.0000
      5 ****        -4.6957   2.5693   1.7348 C.3            1 S1                 0.0000
      6 ****        -4.1133   0.1205   1.4824 N.pl3          1 S1                 0.0000
      7 ****        -3.6480   0.1255   0.1047 C.3            1 S1                 0.0000
      8 ****        -2.1487   0.4191   0.0318 C.2            1 S1                 0.0000
      9 ****        -1.7520   1.5777  -0.0924 O.2            1 S1                 0.0000
     10 ****        -1.3263  -0.6386   0.1120 N.am           1 S1                 0.0000
     11 ****         0.1303  -0.5723   0.0933 C.3            1 S1                 0.0000
     12 ****         0.6713  -0.2785  -1.3202 C.3            1 S1                 0.0000
     13 ****         2.1545  -0.2884  -1.3787 N.4            1 S1                 1.0000
     14 ****         2.6592  -0.4361  -2.7638 C.3            1 S1                 0.0000
     15 ****         4.1949  -0.5450  -2.7741 C.3            1 S1                 0.0000
     16 ****         4.7573  -0.5974  -4.1989 C.3            1 S1                 0.0000
     17 ****         4.7569   0.5930  -2.1261 O.3            1 S1                 0.0000
     18 ****         4.3228   0.7928  -0.7814 C.3            1 S1                 0.0000
     19 ****         4.9106  -0.2531   0.1832 C.3            1 S1                 0.0000
     20 ****         2.7852   0.8857  -0.7260 C.3            1 S1                 0.0000
     21 ****        -4.1057  -1.0397   2.1754 N.2            1 S1                 0.0000
     22 ****        -5.1187  -1.3851   5.3425 H              1 S1                 0.0000
     23 ****        -3.7242  -2.2190   4.6645 H              1 S1                 0.0000
     24 ****        -5.3459  -2.5956   4.0847 H              1 S1                 0.0000
     25 ****        -5.2748   1.1967   4.3325 H              1 S1                 0.0000
     26 ****        -5.0557   3.2425   2.5127 H              1 S1                 0.0000
     27 ****        -5.3938   2.6196   0.8991 H              1 S1                 0.0000
     28 ****        -3.7289   2.9396   1.3938 H              1 S1                 0.0000
     29 ****        -3.8686  -0.8392  -0.3558 H              1 S1                 0.0000
     30 ****        -4.2018   0.8769  -0.4590 H              1 S1                 0.0000
     31 ****        -1.7426  -1.5526   0.2206 H              1 S1                 0.0000
     32 ****         0.4548   0.1807   0.8117 H              1 S1                 0.0000
     33 ****         0.5161  -1.5284   0.4480 H              1 S1                 0.0000
     34 ****         0.2842  -1.0425  -1.9961 H              1 S1                 0.0000
     35 ****         0.3013   0.6781  -1.6923 H              1 S1                 0.0000
     36 ****         2.2285  -1.3285  -3.2198 H              1 S1                 0.0000
     37 ****         2.3348   0.4174  -3.3619 H              1 S1                 0.0000
     38 ****         4.5019  -1.4540  -2.2564 H              1 S1                 0.0000
     39 ****         4.3678  -1.4572  -4.7447 H              1 S1                 0.0000
     40 ****         5.8446  -0.6770  -4.1860 H              1 S1                 0.0000
     41 ****         4.4971   0.3010  -4.7594 H              1 S1                 0.0000
     42 ****         4.7241   1.7602  -0.4774 H              1 S1                 0.0000
     43 ****         4.6754   0.0003   1.2172 H              1 S1                 0.0000
     44 ****         5.9964  -0.2958   0.0947 H              1 S1                 0.0000
     45 ****         4.5205  -1.2540  -0.0002 H              1 S1                 0.0000
     46 ****         2.4557   1.7938  -1.2336 H              1 S1                 0.0000
     47 ****         2.4671   0.9744   0.3121 H              1 S1                 0.0000
     48 ****         2.4594  -1.1086  -0.8743 H              1 S1                 0.0000
     49 ****        -2.4102   2.3286  -0.1458 LP             1 S1                 0.0000
     50 ****        -0.7714   1.7681  -0.1399 LP             1 S1                 0.0000
     51 ****         4.5117   1.4050  -2.6558 LP             1 S1                 0.0000
     52 ****         5.7513   0.4873  -2.1193 LP             1 S1                 0.0000
     53 ****        -3.8147  -1.9405   1.8530 LP             1 S1                 0.0000
@<TRIPOS>BOND
    1    1    2 1     
    2    1   22 1     
    3    1   23 1     
    4    1   24 1     
    5    2   21 2     
    6    2    3 1     
    7    3    4 2     
    8    3   25 1     
    9    4    5 1     
   10    4    6 1     
   11    5   26 1     
   12    5   27 1     
   13    5   28 1     
   14    6    7 1     
   15    6   21 1     
   16    7    8 1     
   17    7   29 1     
   18    7   30 1     
   19    8    9 2     
   20    8   10 am    
   21   10   11 1     
   22   10   31 1     
   23   11   12 1     
   24   11   32 1     
   25   11   33 1     
   26   12   13 1     
   27   12   34 1     
   28   12   35 1     
   29   13   20 1     
   30   13   14 1     
   31   13   48 1     
   32   14   15 1     
   33   14   36 1     
   34   14   37 1     
   35   15   16 1     
   36   15   17 1     
   37   15   38 1     
   38   16   39 1     
   39   16   40 1     
   40   16   41 1     
   41   17   18 1     
   42   18   19 1     
   43   18   20 1     
   44   18   42 1     
   45   19   43 1     
   46   19   44 1     
   47   19   45 1     
   48   20   46 1     
   49   20   47 1     
   50    9   49 1     
   51    9   50 1     
   52   17   51 1     
   53   17   52 1     
   54   21   53 1     
@<TRIPOS>SUBSTRUCTURE
      1 S1             1
@<TRIPOS>SET
LONE_PAIRS      STATIC     ATOMS    <user>   **** ""
5 49 50 51 52 53
DONOR_HYDROGENS      STATIC     ATOMS    <user>   **** ""
2 31 48
ATOM$BLUE        STATIC     ATOMS    COLORGROUP SYSTEM
5 49 50 51 52 53
ATOM$RED        STATIC     ATOMS    COLORGROUP SYSTEM
2 31 48
