AV-unprocessed.smi:2406|AV-procd|sdf|9516|dock1
  -GOLD-   2272013143D 1   1.00000     0.00000
 Structure written by MMmdl.
 36 37  0  0  0  0  0  0  0  0  1 V2000
  143.7896  143.9822  157.3911 C   0  0  0  0  0  0  0  0  0  0  0  0
  143.6383  143.6518  158.7672 O   0  0  0  0  0  0  0  0  0  0  0  0
  144.7638  143.6538  159.5647 C   0  0  0  0  0  0  0  0  0  0  0  0
  146.0122  143.9818  158.9973 C   0  0  0  0  0  0  0  0  0  0  0  0
  147.1388  143.9775  159.8500 C   0  0  0  0  0  0  0  0  0  0  0  0
  148.3743  144.3222  159.2407 N   0  0  0  0  0  0  0  0  0  0  0  0
  149.5891  144.3963  159.8121 C   0  0  0  0  0  0  0  0  0  0  0  0
  149.8362  144.1432  160.9916 O   0  0  0  0  0  0  0  0  0  0  0  0
  150.5183  144.7811  158.9235 N   0  0  0  0  0  0  0  0  0  0  0  0
  151.9403  144.9801  159.2017 C   0  0  2  0  0  0  0  0  0  0  0  0
  152.7187  144.9460  157.8794 C   0  0  0  0  0  0  0  0  0  0  0  0
  152.4636  143.9205  160.1919 C   0  0  0  0  0  0  0  0  0  0  0  0
  152.6452  142.5452  159.5739 C   0  0  0  0  0  0  0  0  0  0  0  0
  152.9355  141.3397  160.4352 C   0  0  0  0  0  0  0  0  0  0  0  0
  154.0058  141.8924  159.5223 C   0  0  0  0  0  0  0  0  0  0  0  0
  146.9940  143.6612  161.1607 N   0  0  0  0  0  0  0  0  0  0  0  0
  145.7698  143.3636  161.6005 C   0  0  0  0  0  0  0  0  0  0  0  0
  144.6488  143.3429  160.8786 N   0  0  0  0  0  0  0  0  0  0  0  0
  142.8182  143.9331  156.8994 H   0  0  0  0  0  0  0  0  0  0  0  0
  144.4531  143.2803  156.8841 H   0  0  0  0  0  0  0  0  0  0  0  0
  144.1743  144.9950  157.2628 H   0  0  0  0  0  0  0  0  0  0  0  0
  146.0955  144.2297  157.9491 H   0  0  0  0  0  0  0  0  0  0  0  0
  148.3250  144.5516  158.2592 H   0  0  0  0  0  0  0  0  0  0  0  0
  150.2180  144.9610  157.9767 H   0  0  0  0  0  0  0  0  0  0  0  0
  152.0995  145.9655  159.6432 H   0  0  0  0  0  0  0  0  0  0  0  0
  153.7827  145.1153  158.0468 H   0  0  0  0  0  0  0  0  0  0  0  0
  152.3672  145.7203  157.1967 H   0  0  0  0  0  0  0  0  0  0  0  0
  152.6100  143.9838  157.3779 H   0  0  0  0  0  0  0  0  0  0  0  0
  153.4178  144.2376  160.6144 H   0  0  0  0  0  0  0  0  0  0  0  0
  151.7699  143.8364  161.0296 H   0  0  0  0  0  0  0  0  0  0  0  0
  152.0089  142.3649  158.7095 H   0  0  0  0  0  0  0  0  0  0  0  0
  153.0554  141.4989  161.5052 H   0  0  0  0  0  0  0  0  0  0  0  0
  152.4657  140.3997  160.1532 H   0  0  0  0  0  0  0  0  0  0  0  0
  154.2538  141.3175  158.6324 H   0  0  0  0  0  0  0  0  0  0  0  0
  154.8396  142.4149  159.9870 H   0  0  0  0  0  0  0  0  0  0  0  0
  145.6771  143.1160  162.6474 H   0  0  0  0  0  0  0  0  0  0  0  0
  1  2  1  0  0  0  0
  1 19  1  0  0  0  0
  1 20  1  0  0  0  0
  1 21  1  0  0  0  0
  2  3  1  0  0  0  0
  3 18  1  0  0  0  0
  3  4  2  0  0  0  0
  4  5  1  0  0  0  0
  4 22  1  0  0  0  0
  5  6  1  0  0  0  0
  5 16  2  0  0  0  0
  6  7  1  0  0  0  0
  6 23  1  0  0  0  0
  7  8  2  0  0  0  0
  7  9  1  0  0  0  0
  9 10  1  0  0  0  0
  9 24  1  0  0  0  0
 10 11  1  0  0  0  0
 10 12  1  0  0  0  0
 10 25  1  0  0  0  0
 11 26  1  0  0  0  0
 11 27  1  0  0  0  0
 11 28  1  0  0  0  0
 12 13  1  0  0  0  0
 12 29  1  0  0  0  0
 12 30  1  0  0  0  0
 13 15  1  0  0  0  0
 13 14  1  0  0  0  0
 13 31  1  0  0  0  0
 14 15  1  0  0  0  0
 14 32  1  0  0  0  0
 14 33  1  0  0  0  0
 15 34  1  0  0  0  0
 15 35  1  0  0  0  0
 16 17  1  0  0  0  0
 17 18  2  0  0  0  0
 17 36  1  0  0  0  0
M  END
> <s_m_source_file>
AV-unprocessed.smi

> <i_m_source_file_index>
2406

> <i_lp_mmshare_version>
43012

> <i_f3d_flags>
0

> <s_epik_input>
W0NIM11PYzFbY0hdYyhuW2NIXW4xKVtOSF1DKD1PKVtOSF1bQ0BIXShbQ0gzXSlbQ0gyXVtDSF0yW0NIMl1bQ0gyXTI=

> <s_epik_cmdline>
J2VwaWtfcHl0aG9uJywgJy1waCcsICc3LjAnLCAnLXRuJywgJzgnLCAnLW1hJywgJzIwMCcsICctbWV0YWxfYmluZGluZycsICctaW1hZScsICc8aW5maWxlLm1hZT4nLCAnLW9tYWUnLCAnPG91dGZpbGUubWFlPic=

> <r_lp_tautomer_probability>
1

> <r_epik_Ionization_Penalty>
2.82876e-05

> <r_epik_Ionization_Penalty_Charging>
0

> <r_epik_Ionization_Penalty_Neutral>
2.82876e-05

> <r_epik_State_Penalty>
-0

> <r_epik_Charging_Adjusted_Penalty>
0

> <i_epik_Tot_Q>
0

> <i_epik_Tot_abs_Q>
0

> <r_epik_Metal_State_Penalty>
-0

> <b_epik_Metal_Only>
0

> <s_lp_Force_Field>
OPLS_2005

> <r_lp_Energy>
11.282

> <b_lp_Chiralities_Consistent>
1

> <s_lp_Variant>
AV-unprocessed.smi:2406-1

> <Gold.Version>
5.8.1

> <Gold.Id.Protein>
6NUR|6NUR_protein|mol2

> <Gold.PLP.Fitness>
39.4723

> <Gold.PLP.PLP>
-35.9287

> <Gold.PLP.part.hbond>
-3.0034

> <Gold.PLP.part.metal>
0.0000

> <Gold.PLP.part.buried>
-6.2384

> <Gold.PLP.part.nonpolar>
-26.3119

> <Gold.PLP.part.repulsive>
0.5951

> <Gold.PLP.ligand.clash>
0.2830

> <Gold.PLP.ligand.torsion>
0.7797

> <Gold.PLP.Chemscore.Hbond>
1.5920

> <Gold.PLP.Chemscore.CHOScore>
0.0000

> <Gold.PLP.Chemscore.Metal>
0.0000

> <Gold.Chemscore.Hbonds>
donor molecule, donor type, donor heavy atom, donor atom, acceptor molecule, acceptor atom, score
      L1  H     6    23       P1  8029  0.75
      P1  H  6933  6944       L1    16  1.00

> <Gold.PLP.Chemscore.Internal.Correction>
0.6100

> <Gold.Rescore>
     Score         DG    S(hbond)    S(metal)    S(lipo)     H(rot)  DE(clash)    DE(int)     intcor
     11.67     -15.40       1.74        0.00      75.59       1.85       0.01       3.71       ----

> <Gold.Chemscore.Fitness>
11.6745

> <Gold.Chemscore.DG>
-15.3999

> <Gold.Chemscore.ZeroCoef>
-5.4800

> <Gold.Chemscore.Hbond>
1.7369

> <Gold.Chemscore.Metal>
0.0000

> <Gold.Chemscore.Lipo>
75.5893

> <Gold.Chemscore.Internal_Hbond>
0.0000

> <Gold.Chemscore.DEClash>
0.0110

> <Gold.Chemscore.DEInternal>
3.7144

> <Gold.Chemscore.Rot>
1.8458

> <Gold.Chemscore.Internal.Correction>
   9.000000E+99

> <Gold.Chemscore.Hbonds>
donor molecule, donor type, donor heavy atom, donor atom, acceptor molecule, acceptor atom, score
      L1  H     6    23       P1  8029  0.46
      P1  H  6933  6944       L1    16  0.37

> <Gold.Chemscore.Hbond.Weighted>
-5.8013

> <Gold.Chemscore.Metal.Weighted>
-0.0000

> <Gold.Chemscore.Lipo.Weighted>
-8.8439

> <Gold.Chemscore.Internal_Hbond.Weighted>
0.0000

> <Gold.Chemscore.DEClash.Weighted>
0.0110

> <Gold.Chemscore.DEInternal.Weighted>
3.7144

> <Gold.Chemscore.Rot.Weighted>
4.7254

> <Gold.Chemscore.Internal.Correction.Weighted>
   9.000000E+99

> <Gold.Protein.RotatedTorsions>
[ 6907 6896 6895 6894 ] final   57.81 input  -60.11 | X-H torsion
[ 7974 7965 7964 7962 ] final  178.49 input  175.53 | X-H torsion
[ 8008 7997 7996 7995 ] final   64.69 input   59.86 | X-H torsion
[ 10167 10162 10161 10158 ] final  164.06 input  -65.29 | X-H torsion
[ 10718 10713 10712 10709 ] final -131.25 input   66.30 | X-H torsion
[ 10763 10752 10751 10750 ] final -148.84 input  -60.55 | X-H torsion
[ 11005 11000 10999 10996 ] final  142.15 input  -57.11 | X-H torsion

> <Gold.Protein.ActiveResidues>
 VAL166  LYS551  ARG553  GLY616  TRP617  ASP618  TYR619  PRO620  LYS621  CYS622 
 ASP623  PHE694  ASN695  SER759  ASP760  ASP761  ALA762  ILE779  LEU786  VAL792 
 PHE793  MET794  SER795  GLU796  ALA797  LYS798  CYS799  TRP800  GLU811  SER814 

> <Gold.Protein.RotatedAtoms>
  152.3766  134.6654  160.0157 H   0  0  0  0  0  0  0  0  0  0  0  0  # atno 6907 bound_to 6896
  151.6930  133.3305  159.3255 H   0  0  0  0  0  0  0  0  0  0  0  0  # atno 6908 bound_to 6896
  150.7714  134.6617  159.6388 H   0  0  0  0  0  0  0  0  0  0  0  0  # atno 6909 bound_to 6896
  144.7156  140.0405  143.6437 H   0  0  0  0  0  0  0  0  0  0  0  0  # atno 7974 bound_to 7965
  155.6499  140.3497  155.4744 H   0  0  0  0  0  0  0  0  0  0  0  0  # atno 8008 bound_to 7997
  155.9856  140.1183  157.0709 H   0  0  0  0  0  0  0  0  0  0  0  0  # atno 8009 bound_to 7997
  154.4204  140.1129  156.5481 H   0  0  0  0  0  0  0  0  0  0  0  0  # atno 8010 bound_to 7997
  139.4883  144.4274  151.9112 H   0  0  0  0  0  0  0  0  0  0  0  0  # atno 10167 bound_to 10162
  156.2225  130.6987  151.0772 H   0  0  0  0  0  0  0  0  0  0  0  0  # atno 10718 bound_to 10713
  154.8211  135.3324  154.7036 H   0  0  0  0  0  0  0  0  0  0  0  0  # atno 10763 bound_to 10752
  153.7669  135.6928  153.4918 H   0  0  0  0  0  0  0  0  0  0  0  0  # atno 10764 bound_to 10752
  153.2072  135.4495  155.0285 H   0  0  0  0  0  0  0  0  0  0  0  0  # atno 10765 bound_to 10752
  140.0455  134.9283  157.0922 H   0  0  0  0  0  0  0  0  0  0  0  0  # atno 11005 bound_to 11000
  146.0028  139.3105  143.0917 LP  0  0  0  0  0  0  0  0  0  0  0  0  # atno 17320 bound_to 7965
  145.8774  140.9383  143.0619 LP  0  0  0  0  0  0  0  0  0  0  0  0  # atno 17321 bound_to 7965
  140.3721  144.2843  150.5918 LP  0  0  0  0  0  0  0  0  0  0  0  0  # atno 17342 bound_to 10162
  140.5310  143.2243  151.8239 LP  0  0  0  0  0  0  0  0  0  0  0  0  # atno 17343 bound_to 10162
  157.7094  131.0741  150.6552 LP  0  0  0  0  0  0  0  0  0  0  0  0  # atno 17370 bound_to 10713
  156.6616  130.4514  149.5686 LP  0  0  0  0  0  0  0  0  0  0  0  0  # atno 17371 bound_to 10713
  140.4000  134.2092  155.7164 LP  0  0  0  0  0  0  0  0  0  0  0  0  # atno 17394 bound_to 11000
  141.1905  133.8216  157.0917 LP  0  0  0  0  0  0  0  0  0  0  0  0  # atno 17395 bound_to 11000

$$$$
