#       Name:                AV-unprocessed.smi:158
#       Creating user name   scv26
#       Creation time:       Thu Mar 26 19:03:24 2020


#       File generated by GOLD software.
#

@<TRIPOS>MOLECULE
AV-unprocessed.smi:158
    40    42     1
SMALL
NO_CHARGES


@<TRIPOS>ATOM
      1 ****        -4.9955  -0.2994   0.4387 N.pl3          1 S1                 0.0000
      2 ****        -3.7000   0.0386   0.3782 C.ar           1 S1                 0.0000
      3 ****        -3.3802   1.3515   0.3032 N.ar           1 S1                 0.0000
      4 ****        -2.0983   1.7314   0.2432 C.ar           1 S1                 0.0000
      5 ****        -1.8013   3.4274   0.1514 Cl             1 S1                 0.0000
      6 ****        -1.0189   0.9432   0.2469 N.ar           1 S1                 0.0000
      7 ****        -1.3354  -0.3820   0.3190 C.ar           1 S1                 0.0000
      8 ****        -2.6510  -0.9133   0.3896 C.ar           1 S1                 0.0000
      9 ****        -2.6000  -2.2989   0.4564 N.2            1 S1                 0.0000
     10 ****        -1.3220  -2.5670   0.4252 C.2            1 S1                 0.0000
     11 ****        -0.4887  -1.4731   0.3407 N.pl3          1 S1                 0.0000
     12 ****         1.0056  -1.4735   0.2774 C.3            1 S1                 0.0000
     13 ****         1.4766  -0.3700   0.9877 O.3            1 S1                 0.0000
     14 ****         2.5079   0.2758   0.2536 C.3            1 S1                 0.0000
     15 ****         2.6306   1.7506   0.6756 C.3            1 S1                 0.0000
     16 ****         3.7354   2.3549   0.0372 O.3            1 S1                 0.0000
     17 ****         2.1792  -0.0003  -1.2215 C.3            1 S1                 0.0000
     18 ****         1.3376   0.9768  -1.8025 O.3            1 S1                 0.0000
     19 ****         1.4836  -1.3519  -1.1776 C.3            1 S1                 0.0000
     20 ****         2.3673  -2.3213  -1.4189 F              1 S1                 0.0000
     21 ****         1.3047  -2.4055   0.7591 H              1 S1                 0.0000
     22 ****         3.4337  -0.2464   0.5020 H              1 S1                 0.0000
     23 ****         3.0882  -0.0369  -1.8231 H              1 S1                 0.0000
     24 ****         0.6686  -1.4603  -1.8955 H              1 S1                 0.0000
     25 ****        -5.2590  -1.2728   0.4955 H              1 S1                 0.0000
     26 ****        -5.7052   0.4188   0.4293 H              1 S1                 0.0000
     27 ****        -0.9484  -3.5802   0.4590 H              1 S1                 0.0000
     28 ****         1.7214   2.3087   0.4502 H              1 S1                 0.0000
     29 ****         2.7808   1.8158   1.7533 H              1 S1                 0.0000
     30 ****         3.8010   3.2497   0.3345 H              1 S1                 0.0000
     31 ****         1.7804   1.8110  -1.7670 H              1 S1                 0.0000
     32 ****        -4.1047   2.0406   0.2925 LP             1 S1                 0.0000
     33 ****        -0.0810   1.2874   0.2017 LP             1 S1                 0.0000
     34 ****        -3.3636  -2.9419   0.5148 LP             1 S1                 0.0000
     35 ****         1.8378  -0.6733   1.8695 LP             1 S1                 0.0000
     36 ****         0.7252   0.2723   1.1383 LP             1 S1                 0.0000
     37 ****         3.6033   2.3375  -0.9539 LP             1 S1                 0.0000
     38 ****         4.5723   1.8596   0.2706 LP             1 S1                 0.0000
     39 ****         0.4785   1.0285  -1.2934 LP             1 S1                 0.0000
     40 ****         1.1471   0.7357  -2.7542 LP             1 S1                 0.0000
@<TRIPOS>BOND
    1    1    2 1     
    2    1   25 1     
    3    1   26 1     
    4    2    8 ar    
    5    2    3 ar    
    6    3    4 ar    
    7    4    5 1     
    8    4    6 ar    
    9    6    7 ar    
   10    7   11 1     
   11    7    8 ar    
   12    8    9 1     
   13    9   10 2     
   14   10   11 1     
   15   10   27 1     
   16   11   12 1     
   17   12   21 1     
   18   12   19 1     
   19   12   13 1     
   20   13   14 1     
   21   14   22 1     
   22   14   15 1     
   23   14   17 1     
   24   15   16 1     
   25   15   28 1     
   26   15   29 1     
   27   16   30 1     
   28   17   23 1     
   29   17   18 1     
   30   17   19 1     
   31   18   31 1     
   32   19   24 1     
   33   19   20 1     
   34    3   32 1     
   35    6   33 1     
   36    9   34 1     
   37   13   35 1     
   38   13   36 1     
   39   16   37 1     
   40   16   38 1     
   41   18   39 1     
   42   18   40 1     
@<TRIPOS>SUBSTRUCTURE
      1 S1             1
@<TRIPOS>SET
LONE_PAIRS      STATIC     ATOMS    <user>   **** ""
9 32 33 34 35 36 37 38 39 40
DONOR_HYDROGENS      STATIC     ATOMS    <user>   **** ""
4 25 26 30 31
ATOM$BLUE        STATIC     ATOMS    COLORGROUP SYSTEM
9 32 33 34 35 36 37 38 39 40
ATOM$RED        STATIC     ATOMS    COLORGROUP SYSTEM
4 25 26 30 31
