AV-unprocessed.smi:72|AV-procd|sdf|743|dock7
  -GOLD-   2262017 73D 1   1.00000     0.00000
 Structure written by MMmdl.
 29 30  0  0  0  0  0  0  0  0  1 V2000
  151.1528  134.6060  156.2928 N   0  0  0  0  0  0  0  0  0  0  0  0
  151.1084  135.9356  155.9290 C   0  0  0  0  0  0  0  0  0  0  0  0
  149.8493  136.4446  155.5815 N   0  0  0  0  0  0  0  0  0  0  0  0
  149.8010  137.6967  155.2537 C   0  0  0  0  0  0  0  0  0  0  0  0
  150.9938  138.5240  155.2566 N   0  0  0  0  0  0  0  0  0  0  0  0
  150.9319  139.9848  154.8710 C   0  0  2  0  0  0  0  0  0  0  0  0
  151.3497  140.7563  155.9586 O   0  0  0  0  0  0  0  0  0  0  0  0
  150.4624  141.8542  156.1427 C   0  0  2  0  0  0  0  0  0  0  0  0
  150.4954  142.3025  157.6114 C   0  0  0  0  0  0  0  0  0  0  0  0
  149.4470  143.2136  157.8612 O   0  0  0  0  0  0  0  0  0  0  0  0
  149.1174  141.2674  155.7107 C   0  0  1  0  0  0  0  0  0  0  0  0
  148.1529  142.2567  155.4028 O   0  0  0  0  0  0  0  0  0  0  0  0
  149.4933  140.3946  154.5170 C   0  0  1  0  0  0  0  0  0  0  0  0
  149.4585  141.1024  153.2914 O   0  0  0  0  0  0  0  0  0  0  0  0
  152.2443  137.9353  155.5902 C   0  0  0  0  0  0  0  0  0  0  0  0
  153.2766  138.6050  155.5556 O   0  0  0  0  0  0  0  0  0  0  0  0
  152.2398  136.5805  155.9444 N   0  0  0  0  0  0  0  0  0  0  0  0
  151.6437  140.1291  154.0570 H   0  0  0  0  0  0  0  0  0  0  0  0
  150.7441  142.6663  155.4694 H   0  0  0  0  0  0  0  0  0  0  0  0
  148.7258  140.6312  156.5056 H   0  0  0  0  0  0  0  0  0  0  0  0
  148.8422  139.5232  154.4324 H   0  0  0  0  0  0  0  0  0  0  0  0
  152.0030  134.1325  156.5613 H   0  0  0  0  0  0  0  0  0  0  0  0
  150.3412  134.0054  156.3103 H   0  0  0  0  0  0  0  0  0  0  0  0
  148.8807  138.2017  154.9568 H   0  0  0  0  0  0  0  0  0  0  0  0
  150.3485  141.4457  158.2696 H   0  0  0  0  0  0  0  0  0  0  0  0
  151.4565  142.7488  157.8689 H   0  0  0  0  0  0  0  0  0  0  0  0
  149.0967  143.5004  157.0314 H   0  0  0  0  0  0  0  0  0  0  0  0
  148.5122  143.1033  155.6194 H   0  0  0  0  0  0  0  0  0  0  0  0
  149.4371  140.4771  152.5833 H   0  0  0  0  0  0  0  0  0  0  0  0
  1  2  1  0  0  0  0
  1 22  1  0  0  0  0
  1 23  1  0  0  0  0
  2 17  2  0  0  0  0
  2  3  1  0  0  0  0
  3  4  2  0  0  0  0
  4  5  1  0  0  0  0
  4 24  1  0  0  0  0
  5  6  1  0  0  0  0
  5 15  1  0  0  0  0
  6 18  1  0  0  0  0
  6 13  1  0  0  0  0
  6  7  1  0  0  0  0
  7  8  1  0  0  0  0
  8 19  1  0  0  0  0
  8  9  1  0  0  0  0
  8 11  1  0  0  0  0
  9 10  1  0  0  0  0
  9 25  1  0  0  0  0
  9 26  1  0  0  0  0
 10 27  1  0  0  0  0
 11 20  1  0  0  0  0
 11 12  1  0  0  0  0
 11 13  1  0  0  0  0
 12 28  1  0  0  0  0
 13 21  1  0  0  0  0
 13 14  1  0  0  0  0
 14 29  1  0  0  0  0
 15 16  2  0  0  0  0
 15 17  1  0  0  0  0
M  END
> <s_m_source_file>
AV-unprocessed.smi

> <i_m_source_file_index>
72

> <i_lp_mmshare_version>
43012

> <i_f3d_flags>
0

> <s_epik_input>
W05IMl1jMW5bY0hdbihjKD1PKW4xKVtDQEBIXTJPW0NASF0oW0NIMl1bT0hdKVtDQEBIXShbT0hdKVtDQEhdMltPSF0=

> <s_epik_cmdline>
J2VwaWtfcHl0aG9uJywgJy1waCcsICc3LjAnLCAnLXRuJywgJzgnLCAnLW1hJywgJzIwMCcsICctbWV0YWxfYmluZGluZycsICctaW1hZScsICc8aW5maWxlLm1hZT4nLCAnLW9tYWUnLCAnPG91dGZpbGUubWFlPic=

> <r_lp_tautomer_probability>
4.77166e-05

> <r_epik_Ionization_Penalty>
1.3546

> <r_epik_Ionization_Penalty_Charging>
1.46833e-10

> <r_epik_Ionization_Penalty_Neutral>
1.3546

> <r_epik_State_Penalty>
3.51908

> <r_epik_Charging_Adjusted_Penalty>
3.51908

> <i_epik_Tot_Q>
0

> <i_epik_Tot_abs_Q>
0

> <r_epik_Metal_State_Penalty>
3.44088

> <b_epik_Metal_Only>
1

> <s_epik_Chemistry_Notes>
This compound contains an acetal/aminal-like group ( X-CH(R)-Y where X, Y are N, S, or O) that may be acid/base labile, releasing an aldehyde.

> <s_lp_Force_Field>
OPLS_2005

> <r_lp_Energy>
30.18

> <b_lp_Chiralities_Consistent>
1

> <s_lp_Variant>
AV-unprocessed.smi:72-81

> <Gold.Version>
5.8.1

> <Gold.Id.Protein>
6NUR|6NUR_protein|mol2

> <Gold.PLP.Fitness>
42.9019

> <Gold.PLP.PLP>
-25.5933

> <Gold.PLP.part.hbond>
-7.3905

> <Gold.PLP.part.metal>
0.0000

> <Gold.PLP.part.buried>
-2.9272

> <Gold.PLP.part.nonpolar>
-16.8470

> <Gold.PLP.part.repulsive>
0.2711

> <Gold.PLP.ligand.clash>
0.0000

> <Gold.PLP.ligand.torsion>
0.0410

> <Gold.PLP.Chemscore.Hbond>
5.7920

> <Gold.PLP.Chemscore.CHOScore>
0.0000

> <Gold.PLP.Chemscore.Metal>
0.0000

> <Gold.Chemscore.Hbonds>
donor molecule, donor type, donor heavy atom, donor atom, acceptor molecule, acceptor atom, score
      L1  H    10    27       P1  8028  1.00
      L1  H    12    28       P1  8028  1.00
      L1  H    14    29       P1  7957  0.91
      P1  H  7989  7998       L1    14  0.01
      P1  H  7997  8009       L1    16  0.96
      P1  H  8011  8017       L1    14  0.75
      P1  H 10752 10763       L1    17  0.75

> <Gold.PLP.Chemscore.Internal.Correction>
0.0147

> <Gold.Rescore>
     Score         DG    S(hbond)    S(metal)    S(lipo)     H(rot)  DE(clash)    DE(int)     intcor
      8.70     -11.06       3.81        0.00      27.84       4.06       1.11       1.25       ----

> <Gold.Chemscore.Fitness>
8.6973

> <Gold.Chemscore.DG>
-11.0575

> <Gold.Chemscore.ZeroCoef>
-5.4800

> <Gold.Chemscore.Hbond>
3.8065

> <Gold.Chemscore.Metal>
0.0000

> <Gold.Chemscore.Lipo>
27.8400

> <Gold.Chemscore.Internal_Hbond>
0.0000

> <Gold.Chemscore.DEClash>
1.1091

> <Gold.Chemscore.DEInternal>
1.2511

> <Gold.Chemscore.Rot>
4.0600

> <Gold.Chemscore.Internal.Correction>
   9.000000E+99

> <Gold.Chemscore.Hbonds>
donor molecule, donor type, donor heavy atom, donor atom, acceptor molecule, acceptor atom, score
      L1  H    10    27       P1  8028  0.68
      L1  H    12    28       P1  8028  0.99
      L1  H    14    29       P1  7957  0.85
      P1  H  7997  8009       L1    16  0.91
      P1  H  8011  8017       L1    14  0.09
      P1  H 10752 10763       L1    17  0.08

> <Gold.Chemscore.Hbond.Weighted>
-12.7138

> <Gold.Chemscore.Metal.Weighted>
-0.0000

> <Gold.Chemscore.Lipo.Weighted>
-3.2573

> <Gold.Chemscore.Internal_Hbond.Weighted>
0.0000

> <Gold.Chemscore.DEClash.Weighted>
1.1091

> <Gold.Chemscore.DEInternal.Weighted>
1.2511

> <Gold.Chemscore.Rot.Weighted>
10.3936

> <Gold.Chemscore.Internal.Correction.Weighted>
   9.000000E+99

> <Gold.Protein.RotatedTorsions>
[ 6907 6896 6895 6894 ] final   70.38 input  -60.11 | X-H torsion
[ 7974 7965 7964 7962 ] final  -82.95 input  175.53 | X-H torsion
[ 8008 7997 7996 7995 ] final -150.80 input   59.86 | X-H torsion
[ 10167 10162 10161 10158 ] final -158.74 input  -65.29 | X-H torsion
[ 10718 10713 10712 10709 ] final   28.13 input   66.30 | X-H torsion
[ 10763 10752 10751 10750 ] final   75.65 input  -60.55 | X-H torsion
[ 11005 11000 10999 10996 ] final -105.00 input  -57.11 | X-H torsion

> <Gold.Protein.ActiveResidues>
 VAL166  LYS551  ARG553  GLY616  TRP617  ASP618  TYR619  PRO620  LYS621  CYS622 
 ASP623  PHE694  ASN695  SER759  ASP760  ASP761  ALA762  ILE779  LEU786  VAL792 
 PHE793  MET794  SER795  GLU796  ALA797  LYS798  CYS799  TRP800  GLU811  SER814 

> <Gold.Protein.RotatedAtoms>
  152.4745  134.4877  159.9685 H   0  0  0  0  0  0  0  0  0  0  0  0  # atno 6907 bound_to 6896
  151.4896  133.3522  159.2859 H   0  0  0  0  0  0  0  0  0  0  0  0  # atno 6908 bound_to 6896
  150.8776  134.8188  159.7262 H   0  0  0  0  0  0  0  0  0  0  0  0  # atno 6909 bound_to 6896
  145.5265  140.9526  143.1626 H   0  0  0  0  0  0  0  0  0  0  0  0  # atno 7974 bound_to 7965
  155.6293  140.0689  157.2654 H   0  0  0  0  0  0  0  0  0  0  0  0  # atno 8008 bound_to 7997
  154.4210  140.1770  156.1503 H   0  0  0  0  0  0  0  0  0  0  0  0  # atno 8009 bound_to 7997
  155.9946  140.3342  155.6789 H   0  0  0  0  0  0  0  0  0  0  0  0  # atno 8010 bound_to 7997
  139.6669  143.9813  152.2260 H   0  0  0  0  0  0  0  0  0  0  0  0  # atno 10167 bound_to 10162
  157.2294  130.7016  149.6306 H   0  0  0  0  0  0  0  0  0  0  0  0  # atno 10718 bound_to 10713
  153.0670  135.4980  154.8221 H   0  0  0  0  0  0  0  0  0  0  0  0  # atno 10763 bound_to 10752
  154.6967  135.2994  154.9403 H   0  0  0  0  0  0  0  0  0  0  0  0  # atno 10764 bound_to 10752
  154.0140  135.6750  153.4820 H   0  0  0  0  0  0  0  0  0  0  0  0  # atno 10765 bound_to 10752
  141.1074  133.8771  157.1681 H   0  0  0  0  0  0  0  0  0  0  0  0  # atno 11005 bound_to 11000
  144.7648  139.6870  143.7219 LP  0  0  0  0  0  0  0  0  0  0  0  0  # atno 17320 bound_to 7965
  146.2072  139.5404  142.9705 LP  0  0  0  0  0  0  0  0  0  0  0  0  # atno 17321 bound_to 7965
  139.9567  144.6584  150.8119 LP  0  0  0  0  0  0  0  0  0  0  0  0  # atno 17342 bound_to 10162
  140.7603  143.3147  151.2760 LP  0  0  0  0  0  0  0  0  0  0  0  0  # atno 17343 bound_to 10162
  155.9676  130.4494  150.5656 LP  0  0  0  0  0  0  0  0  0  0  0  0  # atno 17370 bound_to 10713
  157.3494  131.0731  151.1725 LP  0  0  0  0  0  0  0  0  0  0  0  0  # atno 17371 bound_to 10713
  139.9951  135.0050  157.0063 LP  0  0  0  0  0  0  0  0  0  0  0  0  # atno 17394 bound_to 11000
  140.4866  134.1235  155.7225 LP  0  0  0  0  0  0  0  0  0  0  0  0  # atno 17395 bound_to 11000

$$$$
