AV-unprocessed.smi:2986|AV-procd|sdf|11382|dock9
  -GOLD-   2272016303D 1   1.00000     0.00000
 Structure written by MMmdl.
 43 45  0  0  0  0  0  0  0  0  2 V2000
  153.4096  137.7937  157.6558 C   0  0  0  0  0  0  0  0  0  0  0  0
  153.3424  138.7794  156.6403 O   0  0  0  0  0  0  0  0  0  0  0  0
  152.0773  139.4141  156.5830 C   0  0  0  0  0  0  0  0  0  0  0  0
  151.8187  140.1115  157.9232 C   0  0  0  0  0  0  0  0  0  0  0  0
  151.4623  141.5254  157.7490 N   0  0  0  0  0  0  0  0  0  0  0  0
  150.7882  142.1515  156.7454 C   0  0  0  0  0  0  0  0  0  0  0  0
  150.1172  141.3928  155.3031 S   0  0  0  0  0  0  0  0  0  0  0  0
  148.6161  140.5576  155.8916 C   0  0  0  0  0  0  0  0  0  0  0  0
  147.4996  141.5370  156.2535 C   0  0  0  0  0  0  0  0  0  0  0  0
  147.1237  141.6163  157.4220 O   0  0  0  0  0  0  0  0  0  0  0  0
  146.9911  142.2472  155.2304 N   0  0  0  0  0  0  0  0  0  0  0  0
  145.9158  143.1708  155.2448 C   0  0  0  0  0  0  0  0  0  0  0  0
  145.3050  143.7731  154.1068 C   0  0  0  0  0  0  0  0  0  0  0  0
  144.3372  144.5621  154.6615 C   0  0  0  0  0  0  0  0  0  0  0  0
  143.3134  145.4736  154.0773 C   0  0  0  0  0  0  0  0  0  0  0  0
  144.3561  144.4531  156.0172 O   0  0  0  0  0  0  0  0  0  0  0  0
  145.3689  143.5586  156.3818 N   0  0  0  0  0  0  0  0  0  0  0  0
  150.6902  143.4699  157.0687 N   0  3  0  0  0  0  0  0  0  0  0  0
  151.3236  143.6954  158.2921 C   0  0  0  0  0  0  0  0  0  0  0  0
  151.4913  144.8634  159.0297 C   0  0  0  0  0  0  0  0  0  0  0  0
  152.1941  144.7475  160.2470 C   0  0  0  0  0  0  0  0  0  0  0  0
  152.6985  143.5070  160.6893 C   0  0  0  0  0  0  0  0  0  0  0  0
  152.5204  142.3287  159.9347 C   0  0  0  0  0  0  0  0  0  0  0  0
  151.8244  142.4517  158.7327 C   0  0  0  0  0  0  0  0  0  0  0  0
  154.3961  137.3303  157.6518 H   0  0  0  0  0  0  0  0  0  0  0  0
  152.6691  137.0092  157.4945 H   0  0  0  0  0  0  0  0  0  0  0  0
  153.2470  138.2317  158.6415 H   0  0  0  0  0  0  0  0  0  0  0  0
  152.0615  140.1394  155.7678 H   0  0  0  0  0  0  0  0  0  0  0  0
  151.2964  138.6776  156.3866 H   0  0  0  0  0  0  0  0  0  0  0  0
  151.0007  139.6206  158.4507 H   0  0  0  0  0  0  0  0  0  0  0  0
  152.6892  140.0457  158.5767 H   0  0  0  0  0  0  0  0  0  0  0  0
  148.2677  139.8765  155.1141 H   0  0  0  0  0  0  0  0  0  0  0  0
  148.8632  139.9490  156.7616 H   0  0  0  0  0  0  0  0  0  0  0  0
  147.3947  142.0701  154.3218 H   0  0  0  0  0  0  0  0  0  0  0  0
  145.5224  143.6561  153.0560 H   0  0  0  0  0  0  0  0  0  0  0  0
  143.3594  145.4647  152.9882 H   0  0  0  0  0  0  0  0  0  0  0  0
  143.4711  146.4980  154.4149 H   0  0  0  0  0  0  0  0  0  0  0  0
  142.3101  145.1690  154.3754 H   0  0  0  0  0  0  0  0  0  0  0  0
  151.1060  145.8149  158.6934 H   0  0  0  0  0  0  0  0  0  0  0  0
  152.3500  145.6278  160.8538 H   0  0  0  0  0  0  0  0  0  0  0  0
  153.2329  143.4577  161.6270 H   0  0  0  0  0  0  0  0  0  0  0  0
  152.9110  141.3833  160.2814 H   0  0  0  0  0  0  0  0  0  0  0  0
  150.2242  144.1605  156.4946 H   0  0  0  0  0  0  0  0  0  0  0  0
  1  2  1  0  0  0  0
  1 25  1  0  0  0  0
  1 26  1  0  0  0  0
  1 27  1  0  0  0  0
  2  3  1  0  0  0  0
  3  4  1  0  0  0  0
  3 28  1  0  0  0  0
  3 29  1  0  0  0  0
  4  5  1  0  0  0  0
  4 30  1  0  0  0  0
  4 31  1  0  0  0  0
  5 24  1  0  0  0  0
  5  6  1  0  0  0  0
  6  7  1  0  0  0  0
  6 18  2  0  0  0  0
  7  8  1  0  0  0  0
  8  9  1  0  0  0  0
  8 32  1  0  0  0  0
  8 33  1  0  0  0  0
  9 10  2  0  0  0  0
  9 11  1  0  0  0  0
 11 12  1  0  0  0  0
 11 34  1  0  0  0  0
 12 17  2  0  0  0  0
 12 13  1  0  0  0  0
 13 14  2  0  0  0  0
 13 35  1  0  0  0  0
 14 15  1  0  0  0  0
 14 16  1  0  0  0  0
 15 36  1  0  0  0  0
 15 37  1  0  0  0  0
 15 38  1  0  0  0  0
 16 17  1  0  0  0  0
 18 19  1  0  0  0  0
 18 43  1  0  0  0  0
 19 24  2  0  0  0  0
 19 20  1  0  0  0  0
 20 21  2  0  0  0  0
 20 39  1  0  0  0  0
 21 22  1  0  0  0  0
 21 40  1  0  0  0  0
 22 23  2  0  0  0  0
 22 41  1  0  0  0  0
 23 24  1  0  0  0  0
 23 42  1  0  0  0  0
M  CHG  1  18   1
M  END
> <s_m_source_file>
AV-unprocessed.smi

> <i_m_source_file_index>
2986

> <i_lp_mmshare_version>
43012

> <i_f3d_flags>
0

> <s_epik_input>
W2NIXTFbY0hdW2NIXVtjSF1jKGMxMiluKFtDSDJdW0NIMl1PW0NIM10pYyhuMilTW0NIMl1DKD1PKVtOSF1jM1tjSF1jKFtDSDNdKW9uMw==

> <s_epik_cmdline>
J2VwaWtfcHl0aG9uJywgJy1waCcsICc3LjAnLCAnLXRuJywgJzgnLCAnLW1hJywgJzIwMCcsICctbWV0YWxfYmluZGluZycsICctaW1hZScsICc8aW5maWxlLm1hZT4nLCAnLW9tYWUnLCAnPG91dGZpbGUubWFlPic=

> <r_epik_Ionization_Penalty>
1.88527

> <r_epik_Ionization_Penalty_Charging>
1.88465

> <r_epik_Ionization_Penalty_Neutral>
0.000624705

> <r_epik_State_Penalty>
2.00469

> <r_epik_Charging_Adjusted_Penalty>
3.88934

> <i_epik_Tot_Q>
1

> <i_epik_Tot_abs_Q>
1

> <r_epik_Metal_State_Penalty>
2.24687

> <b_epik_Metal_Only>
0

> <s_lp_Force_Field>
OPLS_2005

> <r_lp_Energy>
12.3116

> <b_lp_Chiralities_Consistent>
1

> <s_lp_Variant>
AV-unprocessed.smi:2986-2

> <Gold.Version>
5.8.1

> <Gold.Id.Protein>
6NUR|6NUR_protein|mol2

> <Gold.PLP.Fitness>
53.4138

> <Gold.PLP.PLP>
-46.3709

> <Gold.PLP.part.hbond>
-2.7420

> <Gold.PLP.part.metal>
0.0000

> <Gold.PLP.part.buried>
-7.8035

> <Gold.PLP.part.nonpolar>
-35.8474

> <Gold.PLP.part.repulsive>
0.3972

> <Gold.PLP.ligand.clash>
0.0000

> <Gold.PLP.ligand.torsion>
1.0306

> <Gold.PLP.Chemscore.Hbond>
3.0000

> <Gold.PLP.Chemscore.CHOScore>
0.0000

> <Gold.PLP.Chemscore.Metal>
0.0000

> <Gold.Chemscore.Hbonds>
donor molecule, donor type, donor heavy atom, donor atom, acceptor molecule, acceptor atom, score
      L1  H    18    43       P1  8028  2.00
      P1  H  7997  8009       L1     2  1.00

> <Gold.PLP.Chemscore.Internal.Correction>
0.1042

> <Gold.Rescore>
     Score         DG    S(hbond)    S(metal)    S(lipo)     H(rot)  DE(clash)    DE(int)     intcor
     16.23     -18.68       1.78        0.00     113.37       2.35       0.01       2.44       ----

> <Gold.Chemscore.Fitness>
16.2340

> <Gold.Chemscore.DG>
-18.6831

> <Gold.Chemscore.ZeroCoef>
-5.4800

> <Gold.Chemscore.Hbond>
1.7795

> <Gold.Chemscore.Metal>
0.0000

> <Gold.Chemscore.Lipo>
113.3652

> <Gold.Chemscore.Internal_Hbond>
0.0000

> <Gold.Chemscore.DEClash>
0.0126

> <Gold.Chemscore.DEInternal>
2.4365

> <Gold.Chemscore.Rot>
2.3453

> <Gold.Chemscore.Internal.Correction>
   9.000000E+99

> <Gold.Chemscore.Hbonds>
donor molecule, donor type, donor heavy atom, donor atom, acceptor molecule, acceptor atom, score
      L1  H    18    43       P1  8028  0.97
      P1  H  7997  8009       L1     2  0.41

> <Gold.Chemscore.Hbond.Weighted>
-5.9434

> <Gold.Chemscore.Metal.Weighted>
-0.0000

> <Gold.Chemscore.Lipo.Weighted>
-13.2637

> <Gold.Chemscore.Internal_Hbond.Weighted>
0.0000

> <Gold.Chemscore.DEClash.Weighted>
0.0126

> <Gold.Chemscore.DEInternal.Weighted>
2.4365

> <Gold.Chemscore.Rot.Weighted>
6.0040

> <Gold.Chemscore.Internal.Correction.Weighted>
   9.000000E+99

> <Gold.Protein.RotatedTorsions>
[ 6907 6896 6895 6894 ] final   67.01 input  -60.11 | X-H torsion
[ 7974 7965 7964 7962 ] final  -78.82 input  175.53 | X-H torsion
[ 8008 7997 7996 7995 ] final  174.84 input   59.86 | X-H torsion
[ 10167 10162 10161 10158 ] final  -97.94 input  -65.29 | X-H torsion
[ 10718 10713 10712 10709 ] final    0.30 input   66.30 | X-H torsion
[ 10763 10752 10751 10750 ] final -178.74 input  -60.55 | X-H torsion
[ 11005 11000 10999 10996 ] final  -81.08 input  -57.11 | X-H torsion

> <Gold.Protein.ActiveResidues>
 VAL166  LYS551  ARG553  GLY616  TRP617  ASP618  TYR619  PRO620  LYS621  CYS622 
 ASP623  PHE694  ASN695  SER759  ASP760  ASP761  ALA762  ILE779  LEU786  VAL792 
 PHE793  MET794  SER795  GLU796  ALA797  LYS798  CYS799  TRP800  GLU811  SER814 

> <Gold.Protein.RotatedAtoms>
  152.4521  134.5370  159.9827 H   0  0  0  0  0  0  0  0  0  0  0  0  # atno 6907 bound_to 6896
  151.5440  133.3422  159.2948 H   0  0  0  0  0  0  0  0  0  0  0  0  # atno 6908 bound_to 6896
  150.8454  134.7792  159.7029 H   0  0  0  0  0  0  0  0  0  0  0  0  # atno 6909 bound_to 6896
  145.5814  140.9448  143.1342 H   0  0  0  0  0  0  0  0  0  0  0  0  # atno 7974 bound_to 7965
  156.0933  140.1424  156.9564 H   0  0  0  0  0  0  0  0  0  0  0  0  # atno 8008 bound_to 7997
  154.4655  140.0928  156.7056 H   0  0  0  0  0  0  0  0  0  0  0  0  # atno 8009 bound_to 7997
  155.4884  140.3447  155.4353 H   0  0  0  0  0  0  0  0  0  0  0  0  # atno 8010 bound_to 7997
  140.2782  143.3299  152.0467 H   0  0  0  0  0  0  0  0  0  0  0  0  # atno 10167 bound_to 10162
  156.8314  130.5489  149.5686 H   0  0  0  0  0  0  0  0  0  0  0  0  # atno 10718 bound_to 10713
  154.5439  135.2808  155.1070 H   0  0  0  0  0  0  0  0  0  0  0  0  # atno 10763 bound_to 10752
  154.2542  135.6333  153.5255 H   0  0  0  0  0  0  0  0  0  0  0  0  # atno 10764 bound_to 10752
  152.9986  135.5590  154.5986 H   0  0  0  0  0  0  0  0  0  0  0  0  # atno 10765 bound_to 10752
  141.1667  133.7179  156.8368 H   0  0  0  0  0  0  0  0  0  0  0  0  # atno 11005 bound_to 11000
  144.7392  139.7497  143.7317 LP  0  0  0  0  0  0  0  0  0  0  0  0  # atno 17320 bound_to 7965
  146.1714  139.4865  142.9925 LP  0  0  0  0  0  0  0  0  0  0  0  0  # atno 17321 bound_to 7965
  139.4970  144.6610  151.6465 LP  0  0  0  0  0  0  0  0  0  0  0  0  # atno 17342 bound_to 10162
  140.5834  143.9907  150.6281 LP  0  0  0  0  0  0  0  0  0  0  0  0  # atno 17343 bound_to 10162
  156.0932  130.5912  150.9769 LP  0  0  0  0  0  0  0  0  0  0  0  0  # atno 17370 bound_to 10713
  157.6405  131.0911  150.8261 LP  0  0  0  0  0  0  0  0  0  0  0  0  # atno 17371 bound_to 10713
  140.2011  134.8896  157.3170 LP  0  0  0  0  0  0  0  0  0  0  0  0  # atno 17394 bound_to 11000
  140.2186  134.4051  155.7577 LP  0  0  0  0  0  0  0  0  0  0  0  0  # atno 17395 bound_to 11000

$$$$
