AV-unprocessed.smi:1271|AV-procd|sdf|5333|dock10
  -GOLD-   22720 4463D 1   1.00000     0.00000
 Structure written by MMmdl.
 35 36  0  0  0  0  0  0  0  0  1 V2000
  148.9610  140.6816  157.7417 C   0  0  0  0  0  0  0  0  0  0  0  0
  150.3549  140.8580  157.1193 C   0  0  1  0  0  0  0  0  0  0  0  0
  150.2827  141.6063  155.7741 C   0  0  0  0  0  0  0  0  0  0  0  0
  149.2953  141.0315  154.8766 N   0  0  0  0  0  0  0  0  0  0  0  0
  148.1808  141.6340  154.3322 C   0  0  0  0  0  0  0  0  0  0  0  0
  147.5464  140.6982  153.5668 C   0  0  0  0  0  0  0  0  0  0  0  0
  148.3594  139.5387  153.7071 C   0  0  0  0  0  0  0  0  0  0  0  0
  149.4067  139.7416  154.4899 N   0  0  0  0  0  0  0  0  0  0  0  0
  151.2277  141.5806  158.0409 N   0  0  0  0  0  0  0  0  0  0  0  0
  152.4010  141.1429  158.5270 C   0  0  0  0  0  0  0  0  0  0  0  0
  152.8398  140.0209  158.2701 O   0  0  0  0  0  0  0  0  0  0  0  0
  153.0546  142.0363  159.3125 N   0  0  0  0  0  0  0  0  0  0  0  0
  152.6560  143.4334  159.5516 C   0  0  0  0  0  0  0  0  0  0  0  0
  151.8921  143.5150  160.8832 C   0  0  0  0  0  0  0  0  0  0  0  0
  152.9585  143.0249  162.2748 S   0  0  0  0  0  0  0  0  0  0  0  0
  153.6128  141.4549  161.6248 C   0  0  0  0  0  0  0  0  0  0  0  0
  154.1541  141.6292  160.1954 C   0  0  0  0  0  0  0  0  0  0  0  0
  148.2972  140.1398  157.0675 H   0  0  0  0  0  0  0  0  0  0  0  0
  148.4988  141.6445  157.9609 H   0  0  0  0  0  0  0  0  0  0  0  0
  149.0121  140.1168  158.6730 H   0  0  0  0  0  0  0  0  0  0  0  0
  150.7739  139.8673  156.9327 H   0  0  0  0  0  0  0  0  0  0  0  0
  150.0159  142.6507  155.9402 H   0  0  0  0  0  0  0  0  0  0  0  0
  151.2564  141.6092  155.2805 H   0  0  0  0  0  0  0  0  0  0  0  0
  147.9332  142.6653  154.5363 H   0  0  0  0  0  0  0  0  0  0  0  0
  146.6384  140.8221  152.9953 H   0  0  0  0  0  0  0  0  0  0  0  0
  148.2200  138.5623  153.2671 H   0  0  0  0  0  0  0  0  0  0  0  0
  150.9378  142.5139  158.2952 H   0  0  0  0  0  0  0  0  0  0  0  0
  153.5411  144.0700  159.5918 H   0  0  0  0  0  0  0  0  0  0  0  0
  152.0513  143.8512  158.7464 H   0  0  0  0  0  0  0  0  0  0  0  0
  151.5359  144.5305  161.0566 H   0  0  0  0  0  0  0  0  0  0  0  0
  151.0147  142.8675  160.8592 H   0  0  0  0  0  0  0  0  0  0  0  0
  154.4011  141.1023  162.2900 H   0  0  0  0  0  0  0  0  0  0  0  0
  152.8210  140.7050  161.6425 H   0  0  0  0  0  0  0  0  0  0  0  0
  154.6261  140.7039  159.8617 H   0  0  0  0  0  0  0  0  0  0  0  0
  154.9466  142.3786  160.1805 H   0  0  0  0  0  0  0  0  0  0  0  0
  1  2  1  0  0  0  0
  1 18  1  0  0  0  0
  1 19  1  0  0  0  0
  1 20  1  0  0  0  0
  2  3  1  0  0  0  0
  2  9  1  0  0  0  0
  2 21  1  0  0  0  0
  3  4  1  0  0  0  0
  3 22  1  0  0  0  0
  3 23  1  0  0  0  0
  4  8  1  0  0  0  0
  4  5  1  0  0  0  0
  5  6  2  0  0  0  0
  5 24  1  0  0  0  0
  6  7  1  0  0  0  0
  6 25  1  0  0  0  0
  7  8  2  0  0  0  0
  7 26  1  0  0  0  0
  9 10  1  0  0  0  0
  9 27  1  0  0  0  0
 10 11  2  0  0  0  0
 10 12  1  0  0  0  0
 12 17  1  0  0  0  0
 12 13  1  0  0  0  0
 13 14  1  0  0  0  0
 13 28  1  0  0  0  0
 13 29  1  0  0  0  0
 14 15  1  0  0  0  0
 14 30  1  0  0  0  0
 14 31  1  0  0  0  0
 15 16  1  0  0  0  0
 16 17  1  0  0  0  0
 16 32  1  0  0  0  0
 16 33  1  0  0  0  0
 17 34  1  0  0  0  0
 17 35  1  0  0  0  0
M  END
> <s_m_source_file>
AV-unprocessed.smi

> <i_m_source_file_index>
1271

> <i_lp_mmshare_version>
43012

> <i_f3d_flags>
0

> <s_epik_input>
bjFbY0hdW2NIXVtjSF1uMVtDSDJdW0NAQEhdKFtDSDNdKVtOSF1DKD1PKU4yW0NIMl1bQ0gyXVNbQ0gyXVtDSDJdMg==

> <s_epik_cmdline>
J2VwaWtfcHl0aG9uJywgJy1waCcsICc3LjAnLCAnLXRuJywgJzgnLCAnLW1hJywgJzIwMCcsICctbWV0YWxfYmluZGluZycsICctaW1hZScsICc8aW5maWxlLm1hZT4nLCAnLW9tYWUnLCAnPG91dGZpbGUubWFlPic=

> <r_lp_tautomer_probability>
1

> <r_epik_Ionization_Penalty>
5.86346e-05

> <r_epik_Ionization_Penalty_Charging>
0

> <r_epik_Ionization_Penalty_Neutral>
5.86346e-05

> <r_epik_State_Penalty>
-0

> <r_epik_Charging_Adjusted_Penalty>
0

> <i_epik_Tot_Q>
0

> <i_epik_Tot_abs_Q>
0

> <r_epik_Metal_State_Penalty>
-0

> <b_epik_Metal_Only>
0

> <s_lp_Force_Field>
OPLS_2005

> <r_lp_Energy>
23.1202

> <b_lp_Chiralities_Consistent>
1

> <s_lp_Variant>
AV-unprocessed.smi:1271-2

> <Gold.Version>
5.8.1

> <Gold.Id.Protein>
6NUR|6NUR_protein|mol2

> <Gold.PLP.Fitness>
46.6145

> <Gold.PLP.PLP>
-39.1579

> <Gold.PLP.part.hbond>
-1.0000

> <Gold.PLP.part.metal>
0.0000

> <Gold.PLP.part.buried>
-1.2960

> <Gold.PLP.part.nonpolar>
-36.1099

> <Gold.PLP.part.repulsive>
0.1891

> <Gold.PLP.ligand.clash>
0.0000

> <Gold.PLP.ligand.torsion>
0.1230

> <Gold.PLP.Chemscore.Hbond>
1.0000

> <Gold.PLP.Chemscore.CHOScore>
1.5565

> <Gold.PLP.Chemscore.Metal>
0.0000

> <Gold.Chemscore.Hbonds>
donor molecule, donor type, donor heavy atom, donor atom, acceptor molecule, acceptor atom, score
      P1  H  7997  8010       L1    11  0.73
      L1  C     5    24       P1  8028  1.00
      L1  C     7    26       P1  7948  0.33

> <Gold.PLP.Chemscore.Internal.Correction>
0.0330

> <Gold.Rescore>
     Score         DG    S(hbond)    S(metal)    S(lipo)     H(rot)  DE(clash)    DE(int)     intcor
     15.38     -15.61       0.92        0.00      90.94       1.41       0.02       0.21       ----

> <Gold.Chemscore.Fitness>
15.3776

> <Gold.Chemscore.DG>
-15.6078

> <Gold.Chemscore.ZeroCoef>
-5.4800

> <Gold.Chemscore.Hbond>
0.9250

> <Gold.Chemscore.Metal>
0.0000

> <Gold.Chemscore.Lipo>
90.9414

> <Gold.Chemscore.Internal_Hbond>
0.0000

> <Gold.Chemscore.DEClash>
0.0186

> <Gold.Chemscore.DEInternal>
0.2116

> <Gold.Chemscore.Rot>
1.4069

> <Gold.Chemscore.Internal.Correction>
   9.000000E+99

> <Gold.Chemscore.Hbonds>
donor molecule, donor type, donor heavy atom, donor atom, acceptor molecule, acceptor atom, score
      P1  H  7997  8010       L1    11  0.61

> <Gold.Chemscore.Hbond.Weighted>
-3.0893

> <Gold.Chemscore.Metal.Weighted>
-0.0000

> <Gold.Chemscore.Lipo.Weighted>
-10.6401

> <Gold.Chemscore.Internal_Hbond.Weighted>
0.0000

> <Gold.Chemscore.DEClash.Weighted>
0.0186

> <Gold.Chemscore.DEInternal.Weighted>
0.2116

> <Gold.Chemscore.Rot.Weighted>
3.6017

> <Gold.Chemscore.Internal.Correction.Weighted>
   9.000000E+99

> <Gold.Protein.RotatedTorsions>
[ 6907 6896 6895 6894 ] final  -46.87 input  -60.11 | X-H torsion
[ 7974 7965 7964 7962 ] final   60.03 input  175.53 | X-H torsion
[ 8008 7997 7996 7995 ] final   38.86 input   59.86 | X-H torsion
[ 10167 10162 10161 10158 ] final   58.28 input  -65.29 | X-H torsion
[ 10718 10713 10712 10709 ] final   55.70 input   66.30 | X-H torsion
[ 10763 10752 10751 10750 ] final  129.94 input  -60.55 | X-H torsion
[ 11005 11000 10999 10996 ] final  -71.77 input  -57.11 | X-H torsion

> <Gold.Protein.ActiveResidues>
 VAL166  LYS551  ARG553  GLY616  TRP617  ASP618  TYR619  PRO620  LYS621  CYS622 
 ASP623  PHE694  ASN695  SER759  ASP760  ASP761  ALA762  ILE779  LEU786  VAL792 
 PHE793  MET794  SER795  GLU796  ALA797  LYS798  CYS799  TRP800  GLU811  SER814 

> <Gold.Protein.RotatedAtoms>
  150.9067  134.8482  159.7397 H   0  0  0  0  0  0  0  0  0  0  0  0  # atno 6907 bound_to 6896
  152.4922  134.4420  159.9556 H   0  0  0  0  0  0  0  0  0  0  0  0  # atno 6908 bound_to 6896
  151.4467  133.3589  159.2824 H   0  0  0  0  0  0  0  0  0  0  0  0  # atno 6909 bound_to 6896
  145.9005  139.3578  143.0595 H   0  0  0  0  0  0  0  0  0  0  0  0  # atno 7974 bound_to 7965
  155.2271  140.3335  155.4308 H   0  0  0  0  0  0  0  0  0  0  0  0  # atno 8008 bound_to 7997
  156.2310  140.1850  156.7289 H   0  0  0  0  0  0  0  0  0  0  0  0  # atno 8009 bound_to 7997
  154.5977  140.0628  156.9312 H   0  0  0  0  0  0  0  0  0  0  0  0  # atno 8010 bound_to 7997
  140.1889  144.4105  150.6580 H   0  0  0  0  0  0  0  0  0  0  0  0  # atno 10167 bound_to 10162
  157.5368  130.8669  149.8765 H   0  0  0  0  0  0  0  0  0  0  0  0  # atno 10718 bound_to 10713
  153.7499  135.3211  155.3319 H   0  0  0  0  0  0  0  0  0  0  0  0  # atno 10763 bound_to 10752
  154.8266  135.4565  154.0942 H   0  0  0  0  0  0  0  0  0  0  0  0  # atno 10764 bound_to 10752
  153.2142  135.6939  153.8160 H   0  0  0  0  0  0  0  0  0  0  0  0  # atno 10765 bound_to 10752
  141.1598  133.6827  156.6957 H   0  0  0  0  0  0  0  0  0  0  0  0  # atno 11005 bound_to 11000
  145.8796  140.9370  143.0608 LP  0  0  0  0  0  0  0  0  0  0  0  0  # atno 17320 bound_to 7965
  144.6735  140.0763  143.7471 LP  0  0  0  0  0  0  0  0  0  0  0  0  # atno 17321 bound_to 7965
  140.6469  143.2215  151.6166 LP  0  0  0  0  0  0  0  0  0  0  0  0  # atno 17342 bound_to 10162
  139.5264  144.3046  152.1044 LP  0  0  0  0  0  0  0  0  0  0  0  0  # atno 17343 bound_to 10162
  156.0465  130.3727  150.1305 LP  0  0  0  0  0  0  0  0  0  0  0  0  # atno 17370 bound_to 10713
  156.9487  130.9768  151.3502 LP  0  0  0  0  0  0  0  0  0  0  0  0  # atno 17371 bound_to 10713
  140.2996  134.8174  157.4087 LP  0  0  0  0  0  0  0  0  0  0  0  0  # atno 17394 bound_to 11000
  140.1273  134.5141  155.8134 LP  0  0  0  0  0  0  0  0  0  0  0  0  # atno 17395 bound_to 11000

$$$$
