AV-unprocessed.smi:741|AV-procd|sdf|3556|dock7
  -GOLD-   22720 0553D 1   1.00000     0.00000
 Structure written by MMmdl.
 43 44  0  0  0  0  0  0  0  0  3 V2000
  144.9480  133.0437  151.5367 C   0  0  0  0  0  0  0  0  0  0  0  0
  145.9348  134.2198  151.5704 C   0  0  0  0  0  0  0  0  0  0  0  0
  145.4913  135.3786  152.4841 C   0  0  2  0  0  0  0  0  0  0  0  0
  144.1758  136.0119  151.9780 C   0  0  0  0  0  0  0  0  0  0  0  0
  143.1625  136.1770  153.0486 N   0  3  0  0  0  0  0  0  0  0  0  0
  142.4420  137.4715  153.0209 C   0  0  0  0  0  0  0  0  0  0  0  0
  140.9776  137.1765  153.3751 C   0  0  0  0  0  0  0  0  0  0  0  0
  140.9778  135.7346  153.8741 C   0  0  0  0  0  0  0  0  0  0  0  0
  142.1426  135.1095  153.1153 C   0  0  0  0  0  0  0  0  0  0  0  0
  146.5575  136.3807  152.5600 N   0  0  0  0  0  0  0  0  0  0  0  0
  146.4424  137.6241  153.0499 C   0  0  0  0  0  0  0  0  0  0  0  0
  145.3801  138.1000  153.4480 O   0  0  0  0  0  0  0  0  0  0  0  0
  147.6207  138.2709  153.0198 N   0  0  0  0  0  0  0  0  0  0  0  0
  147.9240  139.5858  153.4692 C   0  0  0  0  0  0  0  0  0  0  0  0
  146.9556  140.5906  153.2489 C   0  0  0  0  0  0  0  0  0  0  0  0
  147.2175  141.9129  153.6622 C   0  0  0  0  0  0  0  0  0  0  0  0
  148.3929  142.2112  154.2556 N   0  3  0  0  0  0  0  0  0  0  0  0
  149.3546  141.2893  154.4747 C   0  0  0  0  0  0  0  0  0  0  0  0
  149.1496  139.9503  154.0834 C   0  0  0  0  0  0  0  0  0  0  0  0
  145.2867  132.2765  150.8402 H   0  0  0  0  0  0  0  0  0  0  0  0
  143.9588  133.3697  151.2138 H   0  0  0  0  0  0  0  0  0  0  0  0
  144.8448  132.5753  152.5155 H   0  0  0  0  0  0  0  0  0  0  0  0
  146.9164  133.8580  151.8796 H   0  0  0  0  0  0  0  0  0  0  0  0
  146.0582  134.5932  150.5531 H   0  0  0  0  0  0  0  0  0  0  0  0
  145.3177  134.9541  153.4746 H   0  0  0  0  0  0  0  0  0  0  0  0
  144.4026  136.9918  151.5543 H   0  0  0  0  0  0  0  0  0  0  0  0
  143.7489  135.4201  151.1669 H   0  0  0  0  0  0  0  0  0  0  0  0
  142.8984  138.1469  153.7450 H   0  0  0  0  0  0  0  0  0  0  0  0
  142.5021  137.9471  152.0406 H   0  0  0  0  0  0  0  0  0  0  0  0
  140.5761  137.8720  154.1124 H   0  0  0  0  0  0  0  0  0  0  0  0
  140.3614  137.2534  152.4784 H   0  0  0  0  0  0  0  0  0  0  0  0
  141.1791  135.7114  154.9460 H   0  0  0  0  0  0  0  0  0  0  0  0
  140.0312  135.2233  153.6965 H   0  0  0  0  0  0  0  0  0  0  0  0
  141.8196  134.8389  152.1087 H   0  0  0  0  0  0  0  0  0  0  0  0
  142.5181  134.2094  153.6013 H   0  0  0  0  0  0  0  0  0  0  0  0
  147.4706  136.0827  152.2479 H   0  0  0  0  0  0  0  0  0  0  0  0
  148.3865  137.7764  152.5856 H   0  0  0  0  0  0  0  0  0  0  0  0
  146.0157  140.3543  152.7711 H   0  0  0  0  0  0  0  0  0  0  0  0
  146.5286  142.7352  153.5342 H   0  0  0  0  0  0  0  0  0  0  0  0
  150.2570  141.6489  154.9475 H   0  0  0  0  0  0  0  0  0  0  0  0
  149.9416  139.2368  154.2501 H   0  0  0  0  0  0  0  0  0  0  0  0
  143.6529  136.1563  153.9314 H   0  0  0  0  0  0  0  0  0  0  0  0
  148.5640  143.1747  154.5454 H   0  0  0  0  0  0  0  0  0  0  0  0
  1  2  1  0  0  0  0
  1 20  1  0  0  0  0
  1 21  1  0  0  0  0
  1 22  1  0  0  0  0
  2  3  1  0  0  0  0
  2 23  1  0  0  0  0
  2 24  1  0  0  0  0
  3  4  1  0  0  0  0
  3 10  1  0  0  0  0
  3 25  1  0  0  0  0
  4  5  1  0  0  0  0
  4 26  1  0  0  0  0
  4 27  1  0  0  0  0
  5  9  1  0  0  0  0
  5  6  1  0  0  0  0
  5 42  1  0  0  0  0
  6  7  1  0  0  0  0
  6 28  1  0  0  0  0
  6 29  1  0  0  0  0
  7  8  1  0  0  0  0
  7 30  1  0  0  0  0
  7 31  1  0  0  0  0
  8  9  1  0  0  0  0
  8 32  1  0  0  0  0
  8 33  1  0  0  0  0
  9 34  1  0  0  0  0
  9 35  1  0  0  0  0
 10 11  1  0  0  0  0
 10 36  1  0  0  0  0
 11 12  2  0  0  0  0
 11 13  1  0  0  0  0
 13 14  1  0  0  0  0
 13 37  1  0  0  0  0
 14 19  1  0  0  0  0
 14 15  2  0  0  0  0
 15 16  1  0  0  0  0
 15 38  1  0  0  0  0
 16 17  2  0  0  0  0
 16 39  1  0  0  0  0
 17 18  1  0  0  0  0
 17 43  1  0  0  0  0
 18 19  2  0  0  0  0
 18 40  1  0  0  0  0
 19 41  1  0  0  0  0
M  CHG  1   5   1
M  CHG  1  17   1
M  END
> <s_m_source_file>
AV-unprocessed.smi

> <i_m_source_file_index>
741

> <i_lp_mmshare_version>
43012

> <i_f3d_flags>
0

> <s_epik_input>
W0NIMl0xW0NIMl1bQ0gyXVtDSDJdTjFbQ0gyXVtDQEBIXShbQ0gyXVtDSDNdKVtOSF1DKD1PKVtOSF1jMltjSF1bY0hdbltjSF1bY0hdMg==

> <s_epik_cmdline>
J2VwaWtfcHl0aG9uJywgJy1waCcsICc3LjAnLCAnLXRuJywgJzgnLCAnLW1hJywgJzIwMCcsICctbWV0YWxfYmluZGluZycsICctaW1hZScsICc8aW5maWxlLm1hZT4nLCAnLW9tYWUnLCAnPG91dGZpbGUubWFlPic=

> <r_epik_Ionization_Penalty>
1.10771

> <r_epik_Ionization_Penalty_Charging>
1.10769

> <r_epik_Ionization_Penalty_Neutral>
1.91663e-05

> <r_epik_State_Penalty>
1.16347

> <r_epik_Charging_Adjusted_Penalty>
2.27116

> <i_epik_Tot_Q>
2

> <i_epik_Tot_abs_Q>
2

> <r_epik_Metal_State_Penalty>
1.24871

> <b_epik_Metal_Only>
0

> <s_lp_Force_Field>
OPLS_2005

> <r_lp_Energy>
49.4114

> <b_lp_Chiralities_Consistent>
1

> <s_lp_Variant>
AV-unprocessed.smi:741-3

> <Gold.Version>
5.8.1

> <Gold.Id.Protein>
6NUR|6NUR_protein|mol2

> <Gold.PLP.Fitness>
41.4207

> <Gold.PLP.PLP>
-32.8415

> <Gold.PLP.part.hbond>
-2.9182

> <Gold.PLP.part.metal>
0.0000

> <Gold.PLP.part.buried>
-4.5707

> <Gold.PLP.part.nonpolar>
-26.5646

> <Gold.PLP.part.repulsive>
0.4385

> <Gold.PLP.ligand.clash>
0.0000

> <Gold.PLP.ligand.torsion>
1.7062

> <Gold.PLP.Chemscore.Hbond>
3.9760

> <Gold.PLP.Chemscore.CHOScore>
0.0000

> <Gold.PLP.Chemscore.Metal>
0.0000

> <Gold.Chemscore.Hbonds>
donor molecule, donor type, donor heavy atom, donor atom, acceptor molecule, acceptor atom, score
      L1  H    10    36       P1  7948  0.98
      L1  H    13    37       P1  7948  0.96
      L1  H    17    43       P1  8028  2.00

> <Gold.PLP.Chemscore.Internal.Correction>
0.0636

> <Gold.Rescore>
     Score         DG    S(hbond)    S(metal)    S(lipo)     H(rot)  DE(clash)    DE(int)     intcor
     15.83     -20.07       2.97        0.00      75.39       1.63       0.07       4.17       ----

> <Gold.Chemscore.Fitness>
15.8306

> <Gold.Chemscore.DG>
-20.0675

> <Gold.Chemscore.ZeroCoef>
-5.4800

> <Gold.Chemscore.Hbond>
2.9730

> <Gold.Chemscore.Metal>
0.0000

> <Gold.Chemscore.Lipo>
75.3865

> <Gold.Chemscore.Internal_Hbond>
0.0000

> <Gold.Chemscore.DEClash>
0.0693

> <Gold.Chemscore.DEInternal>
4.1676

> <Gold.Chemscore.Rot>
1.6260

> <Gold.Chemscore.Internal.Correction>
   9.000000E+99

> <Gold.Chemscore.Hbonds>
donor molecule, donor type, donor heavy atom, donor atom, acceptor molecule, acceptor atom, score
      L1  H    10    36       P1  7948  0.92
      L1  H    13    37       P1  7948  0.92
      L1  H    17    43       P1  8028  1.00

> <Gold.Chemscore.Hbond.Weighted>
-9.9299

> <Gold.Chemscore.Metal.Weighted>
-0.0000

> <Gold.Chemscore.Lipo.Weighted>
-8.8202

> <Gold.Chemscore.Internal_Hbond.Weighted>
0.0000

> <Gold.Chemscore.DEClash.Weighted>
0.0693

> <Gold.Chemscore.DEInternal.Weighted>
4.1676

> <Gold.Chemscore.Rot.Weighted>
4.1626

> <Gold.Chemscore.Internal.Correction.Weighted>
   9.000000E+99

> <Gold.Protein.RotatedTorsions>
[ 6907 6896 6895 6894 ] final -104.58 input  -60.11 | X-H torsion
[ 7974 7965 7964 7962 ] final -136.41 input  175.53 | X-H torsion
[ 8008 7997 7996 7995 ] final   24.30 input   59.86 | X-H torsion
[ 10167 10162 10161 10158 ] final -139.65 input  -65.29 | X-H torsion
[ 10718 10713 10712 10709 ] final  -62.42 input   66.30 | X-H torsion
[ 10763 10752 10751 10750 ] final   18.27 input  -60.55 | X-H torsion
[ 11005 11000 10999 10996 ] final    0.21 input  -57.11 | X-H torsion

> <Gold.Protein.ActiveResidues>
 VAL166  LYS551  ARG553  GLY616  TRP617  ASP618  TYR619  PRO620  LYS621  CYS622 
 ASP623  PHE694  ASN695  SER759  ASP760  ASP761  ALA762  ILE779  LEU786  VAL792 
 PHE793  MET794  SER795  GLU796  ALA797  LYS798  CYS799  TRP800  GLU811  SER814 

> <Gold.Protein.RotatedAtoms>
  150.7294  134.0256  159.3715 H   0  0  0  0  0  0  0  0  0  0  0  0  # atno 6907 bound_to 6896
  151.8223  135.0645  160.0436 H   0  0  0  0  0  0  0  0  0  0  0  0  # atno 6908 bound_to 6896
  152.2994  133.5604  159.5645 H   0  0  0  0  0  0  0  0  0  0  0  0  # atno 6909 bound_to 6896
  144.8930  140.6667  143.5133 H   0  0  0  0  0  0  0  0  0  0  0  0  # atno 7974 bound_to 7965
  154.9942  140.3117  155.4893 H   0  0  0  0  0  0  0  0  0  0  0  0  # atno 8008 bound_to 7997
  156.2935  140.2243  156.4989 H   0  0  0  0  0  0  0  0  0  0  0  0  # atno 8009 bound_to 7997
  154.7676  140.0454  157.1013 H   0  0  0  0  0  0  0  0  0  0  0  0  # atno 8010 bound_to 7997
  139.8358  143.7386  152.2665 H   0  0  0  0  0  0  0  0  0  0  0  0  # atno 10167 bound_to 10162
  156.0856  130.4209  150.1133 H   0  0  0  0  0  0  0  0  0  0  0  0  # atno 10718 bound_to 10713
  153.1264  135.6730  153.9249 H   0  0  0  0  0  0  0  0  0  0  0  0  # atno 10763 bound_to 10752
  153.8749  135.3065  155.3444 H   0  0  0  0  0  0  0  0  0  0  0  0  # atno 10764 bound_to 10752
  154.7669  135.4959  153.9652 H   0  0  0  0  0  0  0  0  0  0  0  0  # atno 10765 bound_to 10752
  140.6291  133.9591  155.8265 H   0  0  0  0  0  0  0  0  0  0  0  0  # atno 11005 bound_to 11000
  145.3750  139.1650  143.4311 LP  0  0  0  0  0  0  0  0  0  0  0  0  # atno 17320 bound_to 7965
  146.3064  140.3826  142.8685 LP  0  0  0  0  0  0  0  0  0  0  0  0  # atno 17321 bound_to 7965
  139.7608  144.7507  151.0367 LP  0  0  0  0  0  0  0  0  0  0  0  0  # atno 17342 bound_to 10162
  140.7802  143.4753  151.0091 LP  0  0  0  0  0  0  0  0  0  0  0  0  # atno 17343 bound_to 10162
  156.9155  130.9665  151.3556 LP  0  0  0  0  0  0  0  0  0  0  0  0  # atno 17370 bound_to 10713
  157.5989  130.8498  149.8772 LP  0  0  0  0  0  0  0  0  0  0  0  0  # atno 17371 bound_to 10713
  141.0688  134.0237  157.3556 LP  0  0  0  0  0  0  0  0  0  0  0  0  # atno 17394 bound_to 11000
  139.9123  135.0192  156.7741 LP  0  0  0  0  0  0  0  0  0  0  0  0  # atno 17395 bound_to 11000

$$$$
