AV-unprocessed.smi:1244|AV-procd|sdf|5223|dock7
  -GOLD-   22720 4323D 1   1.00000     0.00000
 Structure written by MMmdl.
 54 56  0  0  0  0  0  0  0  0  1 V2000
  151.5266  142.2817  157.1724 C   0  0  0  0  0  0  0  0  0  0  0  0
  150.8717  141.6451  155.9421 C   0  0  1  0  0  0  0  0  0  0  0  0
  151.4976  140.2832  155.5927 C   0  0  0  0  0  0  0  0  0  0  0  0
  150.8228  139.6457  154.4695 N   0  0  0  0  0  0  0  0  0  0  0  0
  151.4636  138.3786  154.1250 C   0  0  0  0  0  0  0  0  0  0  0  0
  151.0648  137.1881  155.0174 C   0  0  0  0  0  0  0  0  0  0  0  0
  150.2416  136.2301  154.2893 N   0  0  0  0  0  0  0  0  0  0  0  0
  150.2377  134.9057  154.4961 C   0  0  0  0  0  0  0  0  0  0  0  0
  150.9468  134.3458  155.3323 O   0  0  0  0  0  0  0  0  0  0  0  0
  149.3808  134.2873  153.6662 N   0  0  0  0  0  0  0  0  0  0  0  0
  149.0879  132.8967  153.5723 C   0  0  0  0  0  0  0  0  0  0  0  0
  149.8958  131.9223  154.2088 C   0  0  0  0  0  0  0  0  0  0  0  0
  149.5753  130.5610  154.0701 C   0  0  0  0  0  0  0  0  0  0  0  0
  148.4521  130.2188  153.2997 C   0  0  0  0  0  0  0  0  0  0  0  0
  147.6610  131.1338  152.7049 N   0  0  0  0  0  0  0  0  0  0  0  0
  147.9475  132.4520  152.8423 C   0  0  0  0  0  0  0  0  0  0  0  0
  147.0680  133.3625  152.2117 N   0  0  0  0  0  0  0  0  0  0  0  0
  146.1625  132.9105  151.1604 C   0  0  0  0  0  0  0  0  0  0  0  0
  145.1467  134.0380  151.0025 C   0  0  0  0  0  0  0  0  0  0  0  0
  144.9914  134.5389  152.4352 C   0  0  0  0  0  0  0  0  0  0  0  0
  146.3892  134.3572  153.0366 C   0  0  0  0  0  0  0  0  0  0  0  0
  149.4064  139.4896  154.7938 C   0  0  0  0  0  0  0  0  0  0  0  0
  148.7352  140.8211  155.1877 C   0  0  2  0  0  0  0  0  0  0  0  0
  148.4862  141.7534  153.9898 C   0  0  0  0  0  0  0  0  0  0  0  0
  149.4833  141.4699  156.2177 O   0  0  0  0  0  0  0  0  0  0  0  0
  152.5914  142.4485  157.0073 H   0  0  0  0  0  0  0  0  0  0  0  0
  151.4193  141.6448  158.0510 H   0  0  0  0  0  0  0  0  0  0  0  0
  151.0710  143.2451  157.4016 H   0  0  0  0  0  0  0  0  0  0  0  0
  150.9907  142.3272  155.0997 H   0  0  0  0  0  0  0  0  0  0  0  0
  152.5526  140.4259  155.3552 H   0  0  0  0  0  0  0  0  0  0  0  0
  151.4608  139.6286  156.4651 H   0  0  0  0  0  0  0  0  0  0  0  0
  151.2020  138.1273  153.0963 H   0  0  0  0  0  0  0  0  0  0  0  0
  152.5481  138.4984  154.1358 H   0  0  0  0  0  0  0  0  0  0  0  0
  151.9470  136.6546  155.3693 H   0  0  0  0  0  0  0  0  0  0  0  0
  150.5347  137.5367  155.9055 H   0  0  0  0  0  0  0  0  0  0  0  0
  149.6311  136.6033  153.5774 H   0  0  0  0  0  0  0  0  0  0  0  0
  148.9501  134.8666  152.9608 H   0  0  0  0  0  0  0  0  0  0  0  0
  150.7512  132.1960  154.8073 H   0  0  0  0  0  0  0  0  0  0  0  0
  150.1778  129.7989  154.5415 H   0  0  0  0  0  0  0  0  0  0  0  0
  148.1753  129.1838  153.1640 H   0  0  0  0  0  0  0  0  0  0  0  0
  146.6983  132.7134  150.2313 H   0  0  0  0  0  0  0  0  0  0  0  0
  145.6464  131.9973  151.4600 H   0  0  0  0  0  0  0  0  0  0  0  0
  145.5594  134.8282  150.3737 H   0  0  0  0  0  0  0  0  0  0  0  0
  144.2074  133.7053  150.5601 H   0  0  0  0  0  0  0  0  0  0  0  0
  144.6373  135.5686  152.4912 H   0  0  0  0  0  0  0  0  0  0  0  0
  144.2776  133.9086  152.9675 H   0  0  0  0  0  0  0  0  0  0  0  0
  146.3367  134.0577  154.0843 H   0  0  0  0  0  0  0  0  0  0  0  0
  146.9405  135.2957  152.9783 H   0  0  0  0  0  0  0  0  0  0  0  0
  148.8652  139.0585  153.9523 H   0  0  0  0  0  0  0  0  0  0  0  0
  149.3015  138.7851  155.6205 H   0  0  0  0  0  0  0  0  0  0  0  0
  147.7603  140.5902  155.6176 H   0  0  0  0  0  0  0  0  0  0  0  0
  147.8176  141.2850  153.2674 H   0  0  0  0  0  0  0  0  0  0  0  0
  149.4085  142.0017  153.4652 H   0  0  0  0  0  0  0  0  0  0  0  0
  148.0231  142.6860  154.3123 H   0  0  0  0  0  0  0  0  0  0  0  0
  1  2  1  0  0  0  0
  1 26  1  0  0  0  0
  1 27  1  0  0  0  0
  1 28  1  0  0  0  0
  2 25  1  0  0  0  0
  2  3  1  0  0  0  0
  2 29  1  0  0  0  0
  3  4  1  0  0  0  0
  3 30  1  0  0  0  0
  3 31  1  0  0  0  0
  4  5  1  0  0  0  0
  4 22  1  0  0  0  0
  5  6  1  0  0  0  0
  5 32  1  0  0  0  0
  5 33  1  0  0  0  0
  6  7  1  0  0  0  0
  6 34  1  0  0  0  0
  6 35  1  0  0  0  0
  7  8  1  0  0  0  0
  7 36  1  0  0  0  0
  8  9  2  0  0  0  0
  8 10  1  0  0  0  0
 10 11  1  0  0  0  0
 10 37  1  0  0  0  0
 11 16  1  0  0  0  0
 11 12  2  0  0  0  0
 12 13  1  0  0  0  0
 12 38  1  0  0  0  0
 13 14  2  0  0  0  0
 13 39  1  0  0  0  0
 14 15  1  0  0  0  0
 14 40  1  0  0  0  0
 15 16  2  0  0  0  0
 16 17  1  0  0  0  0
 17 21  1  0  0  0  0
 17 18  1  0  0  0  0
 18 19  1  0  0  0  0
 18 41  1  0  0  0  0
 18 42  1  0  0  0  0
 19 20  1  0  0  0  0
 19 43  1  0  0  0  0
 19 44  1  0  0  0  0
 20 21  1  0  0  0  0
 20 45  1  0  0  0  0
 20 46  1  0  0  0  0
 21 47  1  0  0  0  0
 21 48  1  0  0  0  0
 22 23  1  0  0  0  0
 22 49  1  0  0  0  0
 22 50  1  0  0  0  0
 23 24  1  0  0  0  0
 23 25  1  0  0  0  0
 23 51  1  0  0  0  0
 24 52  1  0  0  0  0
 24 53  1  0  0  0  0
 24 54  1  0  0  0  0
M  END
> <s_m_source_file>
AV-unprocessed.smi

> <i_m_source_file_index>
1244

> <i_lp_mmshare_version>
43012

> <i_f3d_flags>
0

> <s_epik_input>
W0NIM11bQ0BASF0xW0NIMl1OKFtDSDJdW0NASF0oTzEpW0NIM10pW0NIMl1bQ0gyXVtOSF1DKD1PKVtOSF1jMltjSF1bY0hdW2NIXW5jMk4zW0NIMl1bQ0gyXVtDSDJdW0NIMl0z

> <s_epik_cmdline>
J2VwaWtfcHl0aG9uJywgJy1waCcsICc3LjAnLCAnLXRuJywgJzgnLCAnLW1hJywgJzIwMCcsICctbWV0YWxfYmluZGluZycsICctaW1hZScsICc8aW5maWxlLm1hZT4nLCAnLW9tYWUnLCAnPG91dGZpbGUubWFlPic=

> <r_lp_tautomer_probability>
1

> <r_epik_Ionization_Penalty>
0.363951

> <r_epik_Ionization_Penalty_Charging>
0

> <r_epik_Ionization_Penalty_Neutral>
0.363951

> <r_epik_State_Penalty>
0.349372

> <r_epik_Charging_Adjusted_Penalty>
0.349372

> <i_epik_Tot_Q>
0

> <i_epik_Tot_abs_Q>
0

> <r_epik_Metal_State_Penalty>
0.333054

> <b_epik_Metal_Only>
0

> <s_lp_Force_Field>
OPLS_2005

> <r_lp_Energy>
51.4551

> <b_lp_Chiralities_Consistent>
1

> <s_lp_Variant>
AV-unprocessed.smi:1244-3

> <Gold.Version>
5.8.1

> <Gold.Id.Protein>
6NUR|6NUR_protein|mol2

> <Gold.PLP.Fitness>
48.2061

> <Gold.PLP.PLP>
-42.8210

> <Gold.PLP.part.hbond>
-3.4041

> <Gold.PLP.part.metal>
0.0000

> <Gold.PLP.part.buried>
-5.5107

> <Gold.PLP.part.nonpolar>
-36.3146

> <Gold.PLP.part.repulsive>
1.8491

> <Gold.PLP.ligand.clash>
0.0000

> <Gold.PLP.ligand.torsion>
0.9994

> <Gold.PLP.Chemscore.Hbond>
2.3300

> <Gold.PLP.Chemscore.CHOScore>
0.0000

> <Gold.PLP.Chemscore.Metal>
0.0000

> <Gold.Chemscore.Hbonds>
donor molecule, donor type, donor heavy atom, donor atom, acceptor molecule, acceptor atom, score
      L1  H     7    36       P1  7948  0.82
      L1  H    10    37       P1  7948  0.75
      P1  H  7989  7998       L1     4  0.25

> <Gold.PLP.Chemscore.Internal.Correction>
0.3939

> <Gold.Rescore>
     Score         DG    S(hbond)    S(metal)    S(lipo)     H(rot)  DE(clash)    DE(int)     intcor
     13.76     -16.27       1.10        0.00      94.58       1.55       0.08       2.44       ----

> <Gold.Chemscore.Fitness>
13.7564

> <Gold.Chemscore.DG>
-16.2682

> <Gold.Chemscore.ZeroCoef>
-5.4800

> <Gold.Chemscore.Hbond>
1.1032

> <Gold.Chemscore.Metal>
0.0000

> <Gold.Chemscore.Lipo>
94.5833

> <Gold.Chemscore.Internal_Hbond>
0.0000

> <Gold.Chemscore.DEClash>
0.0768

> <Gold.Chemscore.DEInternal>
2.4351

> <Gold.Chemscore.Rot>
1.5479

> <Gold.Chemscore.Internal.Correction>
   9.000000E+99

> <Gold.Chemscore.Hbonds>
donor molecule, donor type, donor heavy atom, donor atom, acceptor molecule, acceptor atom, score
      L1  H     7    36       P1  7948  0.49
      L1  H    10    37       P1  7948  0.09

> <Gold.Chemscore.Hbond.Weighted>
-3.6847

> <Gold.Chemscore.Metal.Weighted>
-0.0000

> <Gold.Chemscore.Lipo.Weighted>
-11.0662

> <Gold.Chemscore.Internal_Hbond.Weighted>
0.0000

> <Gold.Chemscore.DEClash.Weighted>
0.0768

> <Gold.Chemscore.DEInternal.Weighted>
2.4351

> <Gold.Chemscore.Rot.Weighted>
3.9627

> <Gold.Chemscore.Internal.Correction.Weighted>
   9.000000E+99

> <Gold.Protein.RotatedTorsions>
[ 6907 6896 6895 6894 ] final  106.91 input  -60.11 | X-H torsion
[ 7974 7965 7964 7962 ] final   -4.94 input  175.53 | X-H torsion
[ 8008 7997 7996 7995 ] final   79.04 input   59.86 | X-H torsion
[ 10167 10162 10161 10158 ] final  160.66 input  -65.29 | X-H torsion
[ 10718 10713 10712 10709 ] final  -44.23 input   66.30 | X-H torsion
[ 10763 10752 10751 10750 ] final  -92.71 input  -60.55 | X-H torsion
[ 11005 11000 10999 10996 ] final -149.47 input  -57.11 | X-H torsion

> <Gold.Protein.ActiveResidues>
 VAL166  LYS551  ARG553  GLY616  TRP617  ASP618  TYR619  PRO620  LYS621  CYS622 
 ASP623  PHE694  ASN695  SER759  ASP760  ASP761  ALA762  ILE779  LEU786  VAL792 
 PHE793  MET794  SER795  GLU796  ALA797  LYS798  CYS799  TRP800  GLU811  SER814 

> <Gold.Protein.RotatedAtoms>
  152.5175  133.9312  159.7581 H   0  0  0  0  0  0  0  0  0  0  0  0  # atno 6907 bound_to 6896
  150.9662  133.6383  159.2752 H   0  0  0  0  0  0  0  0  0  0  0  0  # atno 6908 bound_to 6896
  151.3611  135.0909  159.9487 H   0  0  0  0  0  0  0  0  0  0  0  0  # atno 6909 bound_to 6896
  146.2363  140.1947  142.8333 H   0  0  0  0  0  0  0  0  0  0  0  0  # atno 7974 bound_to 7965
  155.8642  140.3452  155.5777 H   0  0  0  0  0  0  0  0  0  0  0  0  # atno 8008 bound_to 7997
  155.7900  140.0870  157.2033 H   0  0  0  0  0  0  0  0  0  0  0  0  # atno 8009 bound_to 7997
  154.4013  140.1485  156.3139 H   0  0  0  0  0  0  0  0  0  0  0  0  # atno 8010 bound_to 7997
  139.4842  144.4612  151.8702 H   0  0  0  0  0  0  0  0  0  0  0  0  # atno 10167 bound_to 10162
  156.2407  130.4179  149.8764 H   0  0  0  0  0  0  0  0  0  0  0  0  # atno 10718 bound_to 10713
  154.6888  135.5221  153.8363 H   0  0  0  0  0  0  0  0  0  0  0  0  # atno 10763 bound_to 10752
  153.0617  135.6570  154.0457 H   0  0  0  0  0  0  0  0  0  0  0  0  # atno 10764 bound_to 10752
  154.0334  135.2983  155.3345 H   0  0  0  0  0  0  0  0  0  0  0  0  # atno 10765 bound_to 10752
  140.7504  134.3413  157.5127 H   0  0  0  0  0  0  0  0  0  0  0  0  # atno 11005 bound_to 11000
  144.9830  140.8477  143.5386 LP  0  0  0  0  0  0  0  0  0  0  0  0  # atno 17320 bound_to 7965
  145.1942  139.2285  143.5226 LP  0  0  0  0  0  0  0  0  0  0  0  0  # atno 17321 bound_to 7965
  140.4074  144.2413  150.5890 LP  0  0  0  0  0  0  0  0  0  0  0  0  # atno 17342 bound_to 10162
  140.4999  143.2321  151.8694 LP  0  0  0  0  0  0  0  0  0  0  0  0  # atno 17343 bound_to 10162
  156.6346  130.8680  151.3502 LP  0  0  0  0  0  0  0  0  0  0  0  0  # atno 17370 bound_to 10713
  157.7174  130.9514  150.1307 LP  0  0  0  0  0  0  0  0  0  0  0  0  # atno 17371 bound_to 10713
  139.8789  134.9138  156.3092 LP  0  0  0  0  0  0  0  0  0  0  0  0  # atno 17394 bound_to 11000
  140.9756  133.7299  156.0597 LP  0  0  0  0  0  0  0  0  0  0  0  0  # atno 17395 bound_to 11000

$$$$
