AV-unprocessed.smi:1403|AV-procd|sdf|5698|dock9
  -GOLD-   22720 5333D 1   1.00000     0.00000
 Structure written by MMmdl.
 36 37  0  0  0  0  0  0  0  0  1 V2000
  152.9983  144.3910  157.3653 C   0  0  0  0  0  0  0  0  0  0  0  0
  151.5566  144.3635  157.8934 C   0  0  1  0  0  0  0  0  0  0  0  0
  150.7582  143.4944  157.0304 N   0  0  0  0  0  0  0  0  0  0  0  0
  150.8729  142.1608  156.9293 C   0  0  0  0  0  0  0  0  0  0  0  0
  151.7046  141.5030  157.5558 O   0  0  0  0  0  0  0  0  0  0  0  0
  149.9140  141.4773  155.9442 C   0  0  0  0  0  0  0  0  0  0  0  0
  150.2727  140.0788  155.6682 N   0  0  0  0  0  0  0  0  0  0  0  0
  150.4659  139.6491  154.3628 C   0  0  0  0  0  0  0  0  0  0  0  0
  150.8076  138.3795  154.0387 C   0  0  0  0  0  0  0  0  0  0  0  0
  150.9944  137.3756  155.0809 C   0  0  0  0  0  0  0  0  0  0  0  0
  151.3019  136.2016  154.8880 O   0  0  0  0  0  0  0  0  0  0  0  0
  150.7935  137.8471  156.3811 N   0  0  0  0  0  0  0  0  0  0  0  0
  150.4426  139.1543  156.7222 C   0  0  0  0  0  0  0  0  0  0  0  0
  150.2937  139.4663  157.9031 O   0  0  0  0  0  0  0  0  0  0  0  0
  151.4902  143.8802  159.3572 C   0  0  2  0  0  0  0  0  0  0  0  0
  151.8878  144.9233  160.4032 C   0  0  0  0  0  0  0  0  0  0  0  0
  152.2568  144.0486  161.5790 C   0  0  0  0  0  0  0  0  0  0  0  0
  152.9387  142.8670  160.8943 C   0  0  0  0  0  0  0  0  0  0  0  0
  152.4023  142.8068  159.5742 O   0  0  0  0  0  0  0  0  0  0  0  0
  150.9145  137.1880  157.1363 H   0  0  0  0  0  0  0  0  0  0  0  0
  153.6211  145.0649  157.9542 H   0  0  0  0  0  0  0  0  0  0  0  0
  153.0317  144.7364  156.3313 H   0  0  0  0  0  0  0  0  0  0  0  0
  153.4542  143.4010  157.4010 H   0  0  0  0  0  0  0  0  0  0  0  0
  151.1723  145.3841  157.8490 H   0  0  0  0  0  0  0  0  0  0  0  0
  150.0521  143.9466  156.4682 H   0  0  0  0  0  0  0  0  0  0  0  0
  148.8912  141.5342  156.3226 H   0  0  0  0  0  0  0  0  0  0  0  0
  149.9108  142.0566  155.0198 H   0  0  0  0  0  0  0  0  0  0  0  0
  150.3430  140.3599  153.5579 H   0  0  0  0  0  0  0  0  0  0  0  0
  150.9450  138.1051  153.0027 H   0  0  0  0  0  0  0  0  0  0  0  0
  150.4875  143.5147  159.5863 H   0  0  0  0  0  0  0  0  0  0  0  0
  152.7598  145.4892  160.0716 H   0  0  0  0  0  0  0  0  0  0  0  0
  151.0873  145.6276  160.6308 H   0  0  0  0  0  0  0  0  0  0  0  0
  152.8981  144.5499  162.3042 H   0  0  0  0  0  0  0  0  0  0  0  0
  151.3538  143.7158  162.0929 H   0  0  0  0  0  0  0  0  0  0  0  0
  154.0141  143.0329  160.8228 H   0  0  0  0  0  0  0  0  0  0  0  0
  152.7754  141.9321  161.4310 H   0  0  0  0  0  0  0  0  0  0  0  0
  1  2  1  0  0  0  0
  1 21  1  0  0  0  0
  1 22  1  0  0  0  0
  1 23  1  0  0  0  0
  2  3  1  0  0  0  0
  2 15  1  0  0  0  0
  2 24  1  0  0  0  0
  3  4  1  0  0  0  0
  3 25  1  0  0  0  0
  4  5  2  0  0  0  0
  4  6  1  0  0  0  0
  6  7  1  0  0  0  0
  6 26  1  0  0  0  0
  6 27  1  0  0  0  0
  7 13  1  0  0  0  0
  7  8  1  0  0  0  0
  8  9  2  0  0  0  0
  8 28  1  0  0  0  0
  9 10  1  0  0  0  0
  9 29  1  0  0  0  0
 10 11  2  0  0  0  0
 10 12  1  0  0  0  0
 12 20  1  0  0  0  0
 12 13  1  0  0  0  0
 13 14  2  0  0  0  0
 15 19  1  0  0  0  0
 15 16  1  0  0  0  0
 15 30  1  0  0  0  0
 16 17  1  0  0  0  0
 16 31  1  0  0  0  0
 16 32  1  0  0  0  0
 17 18  1  0  0  0  0
 17 33  1  0  0  0  0
 17 34  1  0  0  0  0
 18 19  1  0  0  0  0
 18 35  1  0  0  0  0
 18 36  1  0  0  0  0
M  END
> <s_m_source_file>
AV-unprocessed.smi

> <i_m_source_file_index>
1403

> <i_lp_mmshare_version>
43012

> <i_f3d_flags>
0

> <s_epik_input>
TzFbQ0gyXVtDSDJdW0NIMl1bQ0BIXTFbQ0BIXShbQ0gzXSlbTkhdQyg9TylbQ0gyXW4yW2NIXVtjSF1jKD1PKVtuSF1jMj1P

> <s_epik_cmdline>
J2VwaWtfcHl0aG9uJywgJy1waCcsICc3LjAnLCAnLXRuJywgJzgnLCAnLW1hJywgJzIwMCcsICctbWV0YWxfYmluZGluZycsICctaW1hZScsICc8aW5maWxlLm1hZT4nLCAnLW9tYWUnLCAnPG91dGZpbGUubWFlPic=

> <r_lp_tautomer_probability>
0.999537

> <r_epik_Ionization_Penalty>
0.00331407

> <r_epik_Ionization_Penalty_Charging>
0.00331405

> <r_epik_Ionization_Penalty_Neutral>
2.30132e-08

> <r_epik_State_Penalty>
0.00234266

> <r_epik_Charging_Adjusted_Penalty>
0.00565671

> <i_epik_Tot_Q>
0

> <i_epik_Tot_abs_Q>
0

> <r_epik_Metal_State_Penalty>
0.365604

> <b_epik_Metal_Only>
0

> <s_lp_Force_Field>
OPLS_2005

> <r_lp_Energy>
17.659

> <b_lp_Chiralities_Consistent>
1

> <s_lp_Variant>
AV-unprocessed.smi:1403-2

> <Gold.Version>
5.8.1

> <Gold.Id.Protein>
6NUR|6NUR_protein|mol2

> <Gold.PLP.Fitness>
46.5890

> <Gold.PLP.PLP>
-38.8624

> <Gold.PLP.part.hbond>
-2.0000

> <Gold.PLP.part.metal>
0.0000

> <Gold.PLP.part.buried>
-4.8491

> <Gold.PLP.part.nonpolar>
-32.1831

> <Gold.PLP.part.repulsive>
0.1864

> <Gold.PLP.ligand.clash>
0.0000

> <Gold.PLP.ligand.torsion>
0.5620

> <Gold.PLP.Chemscore.Hbond>
2.0000

> <Gold.PLP.Chemscore.CHOScore>
0.9459

> <Gold.PLP.Chemscore.Metal>
0.0000

> <Gold.Chemscore.Hbonds>
donor molecule, donor type, donor heavy atom, donor atom, acceptor molecule, acceptor atom, score
      L1  H     3    25       P1  8028  1.00
      P1  H 10752 10765       L1    11  1.00
      L1  C     8    28       P1  7957  1.00

> <Gold.PLP.Chemscore.Internal.Correction>
0.0129

> <Gold.Rescore>
     Score         DG    S(hbond)    S(metal)    S(lipo)     H(rot)  DE(clash)    DE(int)     intcor
     11.45     -18.27       1.98        0.00      97.51       2.04       1.09       5.73       ----

> <Gold.Chemscore.Fitness>
11.4474

> <Gold.Chemscore.DG>
-18.2656

> <Gold.Chemscore.ZeroCoef>
-5.4800

> <Gold.Chemscore.Hbond>
1.9754

> <Gold.Chemscore.Metal>
0.0000

> <Gold.Chemscore.Lipo>
97.5124

> <Gold.Chemscore.Internal_Hbond>
0.0000

> <Gold.Chemscore.DEClash>
1.0897

> <Gold.Chemscore.DEInternal>
5.7286

> <Gold.Chemscore.Rot>
2.0395

> <Gold.Chemscore.Internal.Correction>
   9.000000E+99

> <Gold.Chemscore.Hbonds>
donor molecule, donor type, donor heavy atom, donor atom, acceptor molecule, acceptor atom, score
      L1  H     3    25       P1  8028  0.99
      P1  H 10752 10765       L1    11  0.99

> <Gold.Chemscore.Hbond.Weighted>
-6.5977

> <Gold.Chemscore.Metal.Weighted>
-0.0000

> <Gold.Chemscore.Lipo.Weighted>
-11.4090

> <Gold.Chemscore.Internal_Hbond.Weighted>
0.0000

> <Gold.Chemscore.DEClash.Weighted>
1.0897

> <Gold.Chemscore.DEInternal.Weighted>
5.7286

> <Gold.Chemscore.Rot.Weighted>
5.2211

> <Gold.Chemscore.Internal.Correction.Weighted>
   9.000000E+99

> <Gold.Protein.RotatedTorsions>
[ 6907 6896 6895 6894 ] final   97.53 input  -60.11 | X-H torsion
[ 7974 7965 7964 7962 ] final  146.18 input  175.53 | X-H torsion
[ 8008 7997 7996 7995 ] final   14.96 input   59.86 | X-H torsion
[ 10167 10162 10161 10158 ] final  -15.73 input  -65.29 | X-H torsion
[ 10718 10713 10712 10709 ] final -162.06 input   66.30 | X-H torsion
[ 10763 10752 10751 10750 ] final  164.98 input  -60.55 | X-H torsion
[ 11005 11000 10999 10996 ] final -147.91 input  -57.11 | X-H torsion

> <Gold.Protein.ActiveResidues>
 VAL166  LYS551  ARG553  GLY616  TRP617  ASP618  TYR619  PRO620  LYS621  CYS622 
 ASP623  PHE694  ASN695  SER759  ASP760  ASP761  ALA762  ILE779  LEU786  VAL792 
 PHE793  MET794  SER795  GLU796  ALA797  LYS798  CYS799  TRP800  GLU811  SER814 

> <Gold.Protein.RotatedAtoms>
  152.5422  134.0719  159.8197 H   0  0  0  0  0  0  0  0  0  0  0  0  # atno 6907 bound_to 6896
  151.0832  133.5366  159.2626 H   0  0  0  0  0  0  0  0  0  0  0  0  # atno 6908 bound_to 6896
  151.2185  135.0518  159.8994 H   0  0  0  0  0  0  0  0  0  0  0  0  # atno 6909 bound_to 6896
  144.8692  139.5873  143.5894 H   0  0  0  0  0  0  0  0  0  0  0  0  # atno 7974 bound_to 7965
  154.8558  140.2937  155.5569 H   0  0  0  0  0  0  0  0  0  0  0  0  # atno 8008 bound_to 7997
  156.3018  140.2487  156.3457 H   0  0  0  0  0  0  0  0  0  0  0  0  # atno 8009 bound_to 7997
  154.8971  140.0392  157.1861 H   0  0  0  0  0  0  0  0  0  0  0  0  # atno 8010 bound_to 7997
  140.7223  143.5188  150.9658 H   0  0  0  0  0  0  0  0  0  0  0  0  # atno 10167 bound_to 10162
  156.6051  130.8827  151.2923 H   0  0  0  0  0  0  0  0  0  0  0  0  # atno 10718 bound_to 10713
  154.3170  135.2756  155.2538 H   0  0  0  0  0  0  0  0  0  0  0  0  # atno 10763 bound_to 10752
  154.4908  135.5834  153.6461 H   0  0  0  0  0  0  0  0  0  0  0  0  # atno 10764 bound_to 10752
  152.9881  135.6134  154.3352 H   0  0  0  0  0  0  0  0  0  0  0  0  # atno 10765 bound_to 10752
  140.7668  134.3235  157.5086 H   0  0  0  0  0  0  0  0  0  0  0  0  # atno 11005 bound_to 11000
  146.2918  139.7161  142.9155 LP  0  0  0  0  0  0  0  0  0  0  0  0  # atno 17320 bound_to 7965
  145.4163  141.0402  143.2989 LP  0  0  0  0  0  0  0  0  0  0  0  0  # atno 17321 bound_to 7965
  139.8905  143.6959  152.3146 LP  0  0  0  0  0  0  0  0  0  0  0  0  # atno 17342 bound_to 10162
  139.7273  144.7590  151.0858 LP  0  0  0  0  0  0  0  0  0  0  0  0  # atno 17343 bound_to 10162
  157.7269  130.9636  150.1677 LP  0  0  0  0  0  0  0  0  0  0  0  0  # atno 17370 bound_to 10713
  156.2437  130.3693  149.8309 LP  0  0  0  0  0  0  0  0  0  0  0  0  # atno 17371 bound_to 10713
  139.8762  134.9236  156.3329 LP  0  0  0  0  0  0  0  0  0  0  0  0  # atno 17394 bound_to 11000
  140.9612  133.7388  156.0403 LP  0  0  0  0  0  0  0  0  0  0  0  0  # atno 17395 bound_to 11000

$$$$
