AV-unprocessed.smi:1419|AV-procd|sdf|5783|dock1
  -GOLD-   22720 5423D 1   1.00000     0.00000
 Structure written by MMmdl.
 41 42  0  0  0  0  0  0  0  0  1 V2000
  148.5243  141.4653  155.3378 C   0  0  0  0  0  0  0  0  0  0  0  0
  149.8218  141.0108  156.0260 C   0  0  1  0  0  0  0  0  0  0  0  0
  150.9116  140.5599  155.0293 C   0  0  0  0  0  0  0  0  0  0  0  0
  151.0602  139.1182  154.9759 N   0  0  0  0  0  0  0  0  0  0  0  0
  150.4892  138.2469  154.0574 C   0  0  0  0  0  0  0  0  0  0  0  0
  150.9117  136.9824  154.4005 C   0  0  0  0  0  0  0  0  0  0  0  0
  151.7421  137.0522  155.5167 N   0  0  0  0  0  0  0  0  0  0  0  0
  151.7848  138.3481  155.7990 C   0  0  0  0  0  0  0  0  0  0  0  0
  150.3255  142.0982  156.8589 N   0  0  0  0  0  0  0  0  0  0  0  0
  151.4243  142.0508  157.6315 C   0  0  0  0  0  0  0  0  0  0  0  0
  152.1148  141.0355  157.7293 O   0  0  0  0  0  0  0  0  0  0  0  0
  151.6977  143.2019  158.2943 N   0  0  0  0  0  0  0  0  0  0  0  0
  152.9149  143.5119  159.0571 C   0  0  0  0  0  0  0  0  0  0  0  0
  152.5752  143.5212  160.5623 C   0  0  2  0  0  0  0  0  0  0  0  0
  152.2777  142.1270  161.1445 C   0  0  0  0  0  0  0  0  0  0  0  0
  151.4992  144.4325  160.8075 O   0  0  0  0  0  0  0  0  0  0  0  0
  150.3212  144.2305  160.0216 C   0  0  1  0  0  0  0  0  0  0  0  0
  149.3225  145.3378  160.3749 C   0  0  0  0  0  0  0  0  0  0  0  0
  150.6905  144.2389  158.5249 C   0  0  0  0  0  0  0  0  0  0  0  0
  148.0628  140.6525  154.7766 H   0  0  0  0  0  0  0  0  0  0  0  0
  148.7103  142.2860  154.6442 H   0  0  0  0  0  0  0  0  0  0  0  0
  147.7919  141.8077  156.0696 H   0  0  0  0  0  0  0  0  0  0  0  0
  149.5694  140.1677  156.6721 H   0  0  0  0  0  0  0  0  0  0  0  0
  150.6809  140.9214  154.0260 H   0  0  0  0  0  0  0  0  0  0  0  0
  151.8780  140.9879  155.2993 H   0  0  0  0  0  0  0  0  0  0  0  0
  149.8447  138.5882  153.2606 H   0  0  0  0  0  0  0  0  0  0  0  0
  150.6846  136.0357  153.9331 H   0  0  0  0  0  0  0  0  0  0  0  0
  152.3547  138.7471  156.6254 H   0  0  0  0  0  0  0  0  0  0  0  0
  149.8066  142.9639  156.8363 H   0  0  0  0  0  0  0  0  0  0  0  0
  153.7473  142.8343  158.8670 H   0  0  0  0  0  0  0  0  0  0  0  0
  153.2743  144.4975  158.7571 H   0  0  0  0  0  0  0  0  0  0  0  0
  153.4388  143.9154  161.0984 H   0  0  0  0  0  0  0  0  0  0  0  0
  153.1384  141.4681  161.0279 H   0  0  0  0  0  0  0  0  0  0  0  0
  151.4319  141.6429  160.6571 H   0  0  0  0  0  0  0  0  0  0  0  0
  152.0538  142.1921  162.2094 H   0  0  0  0  0  0  0  0  0  0  0  0
  149.8711  143.2719  160.2816 H   0  0  0  0  0  0  0  0  0  0  0  0
  148.3944  145.2226  159.8148 H   0  0  0  0  0  0  0  0  0  0  0  0
  149.7303  146.3235  160.1492 H   0  0  0  0  0  0  0  0  0  0  0  0
  149.0752  145.3153  161.4367 H   0  0  0  0  0  0  0  0  0  0  0  0
  151.0967  145.2100  158.2377 H   0  0  0  0  0  0  0  0  0  0  0  0
  149.7960  144.0979  157.9164 H   0  0  0  0  0  0  0  0  0  0  0  0
  1  2  1  0  0  0  0
  1 20  1  0  0  0  0
  1 21  1  0  0  0  0
  1 22  1  0  0  0  0
  2  3  1  0  0  0  0
  2  9  1  0  0  0  0
  2 23  1  0  0  0  0
  3  4  1  0  0  0  0
  3 24  1  0  0  0  0
  3 25  1  0  0  0  0
  4  8  1  0  0  0  0
  4  5  1  0  0  0  0
  5  6  2  0  0  0  0
  5 26  1  0  0  0  0
  6  7  1  0  0  0  0
  6 27  1  0  0  0  0
  7  8  2  0  0  0  0
  8 28  1  0  0  0  0
  9 10  1  0  0  0  0
  9 29  1  0  0  0  0
 10 11  2  0  0  0  0
 10 12  1  0  0  0  0
 12 19  1  0  0  0  0
 12 13  1  0  0  0  0
 13 14  1  0  0  0  0
 13 30  1  0  0  0  0
 13 31  1  0  0  0  0
 14 15  1  0  0  0  0
 14 16  1  0  0  0  0
 14 32  1  0  0  0  0
 15 33  1  0  0  0  0
 15 34  1  0  0  0  0
 15 35  1  0  0  0  0
 16 17  1  0  0  0  0
 17 18  1  0  0  0  0
 17 19  1  0  0  0  0
 17 36  1  0  0  0  0
 18 37  1  0  0  0  0
 18 38  1  0  0  0  0
 18 39  1  0  0  0  0
 19 40  1  0  0  0  0
 19 41  1  0  0  0  0
M  END
> <s_m_source_file>
AV-unprocessed.smi

> <i_m_source_file_index>
1419

> <i_lp_mmshare_version>
43012

> <i_f3d_flags>
0

> <s_epik_input>
W2NIXTFuW2NIXVtjSF1uMVtDSDJdW0NAQEhdKFtDSDNdKVtOSF1DKD1PKU4yW0NIMl1bQ0BASF0oW0NIM10pT1tDQEBIXShbQ0gzXSlbQ0gyXTI=

> <s_epik_cmdline>
J2VwaWtfcHl0aG9uJywgJy1waCcsICc3LjAnLCAnLXRuJywgJzgnLCAnLW1hJywgJzIwMCcsICctbWV0YWxfYmluZGluZycsICctaW1hZScsICc8aW5maWxlLm1hZT4nLCAnLW9tYWUnLCAnPG91dGZpbGUubWFlPic=

> <r_lp_tautomer_probability>
1

> <r_epik_Ionization_Penalty>
0.625124

> <r_epik_Ionization_Penalty_Charging>
0.625093

> <r_epik_Ionization_Penalty_Neutral>
3.17415e-05

> <r_epik_State_Penalty>
0.641455

> <r_epik_Charging_Adjusted_Penalty>
1.26655

> <i_epik_Tot_Q>
0

> <i_epik_Tot_abs_Q>
0

> <r_epik_Metal_State_Penalty>
0.307717

> <b_epik_Metal_Only>
0

> <s_lp_Force_Field>
OPLS_2005

> <r_lp_Energy>
30.8813

> <b_lp_Chiralities_Consistent>
1

> <s_lp_Variant>
AV-unprocessed.smi:1419-10

> <Gold.Version>
5.8.1

> <Gold.Id.Protein>
6NUR|6NUR_protein|mol2

> <Gold.PLP.Fitness>
39.5578

> <Gold.PLP.PLP>
-33.9584

> <Gold.PLP.part.hbond>
-1.5562

> <Gold.PLP.part.metal>
0.0000

> <Gold.PLP.part.buried>
2.8345

> <Gold.PLP.part.nonpolar>
-34.6707

> <Gold.PLP.part.repulsive>
0.2406

> <Gold.PLP.ligand.clash>
0.4680

> <Gold.PLP.ligand.torsion>
1.0942

> <Gold.PLP.Chemscore.Hbond>
1.0741

> <Gold.PLP.Chemscore.CHOScore>
1.6539

> <Gold.PLP.Chemscore.Metal>
0.0000

> <Gold.Chemscore.Hbonds>
donor molecule, donor type, donor heavy atom, donor atom, acceptor molecule, acceptor atom, score
      L1  H     9    29       P1  8028  0.32
      P1  H 10752 10764       L1     7  0.69
      L1  C     5    26       P1  7948  0.12
      L1  C     5    26       P1  7957  0.95
      L1  C     6    27       P1  7948  0.10
      L1  C     6    27       P1  7949  0.41

> <Gold.PLP.Chemscore.Internal.Correction>
0.0719

> <Gold.Rescore>
     Score         DG    S(hbond)    S(metal)    S(lipo)     H(rot)  DE(clash)    DE(int)     intcor
     13.01     -15.75       1.05        0.00      92.32       1.58       0.49       2.25       ----

> <Gold.Chemscore.Fitness>
13.0133

> <Gold.Chemscore.DG>
-15.7519

> <Gold.Chemscore.ZeroCoef>
-5.4800

> <Gold.Chemscore.Hbond>
1.0500

> <Gold.Chemscore.Metal>
0.0000

> <Gold.Chemscore.Lipo>
92.3228

> <Gold.Chemscore.Internal_Hbond>
0.0000

> <Gold.Chemscore.DEClash>
0.4932

> <Gold.Chemscore.DEInternal>
2.2453

> <Gold.Chemscore.Rot>
1.5769

> <Gold.Chemscore.Internal.Correction>
   9.000000E+99

> <Gold.Chemscore.Hbonds>
donor molecule, donor type, donor heavy atom, donor atom, acceptor molecule, acceptor atom, score
      L1  H     9    29       P1  8028  0.32
      P1  H 10752 10764       L1     7  0.11

> <Gold.Chemscore.Hbond.Weighted>
-3.5070

> <Gold.Chemscore.Metal.Weighted>
-0.0000

> <Gold.Chemscore.Lipo.Weighted>
-10.8018

> <Gold.Chemscore.Internal_Hbond.Weighted>
0.0000

> <Gold.Chemscore.DEClash.Weighted>
0.4932

> <Gold.Chemscore.DEInternal.Weighted>
2.2453

> <Gold.Chemscore.Rot.Weighted>
4.0369

> <Gold.Chemscore.Internal.Correction.Weighted>
   9.000000E+99

> <Gold.Protein.RotatedTorsions>
[ 6907 6896 6895 6894 ] final  159.51 input  -60.11 | X-H torsion
[ 7974 7965 7964 7962 ] final -170.13 input  175.53 | X-H torsion
[ 8008 7997 7996 7995 ] final  -69.22 input   59.86 | X-H torsion
[ 10167 10162 10161 10158 ] final   31.87 input  -65.29 | X-H torsion
[ 10718 10713 10712 10709 ] final  107.58 input   66.30 | X-H torsion
[ 10763 10752 10751 10750 ] final  -37.25 input  -60.55 | X-H torsion
[ 11005 11000 10999 10996 ] final   37.97 input  -57.11 | X-H torsion

> <Gold.Protein.ActiveResidues>
 VAL166  LYS551  ARG553  GLY616  TRP617  ASP618  TYR619  PRO620  LYS621  CYS622 
 ASP623  PHE694  ASN695  SER759  ASP760  ASP761  ALA762  ILE779  LEU786  VAL792 
 PHE793  MET794  SER795  GLU796  ALA797  LYS798  CYS799  TRP800  GLU811  SER814 

> <Gold.Protein.RotatedAtoms>
  151.9845  133.3769  159.4120 H   0  0  0  0  0  0  0  0  0  0  0  0  # atno 6907 bound_to 6896
  150.6930  134.4003  159.5125 H   0  0  0  0  0  0  0  0  0  0  0  0  # atno 6908 bound_to 6896
  152.1727  134.8820  160.0584 H   0  0  0  0  0  0  0  0  0  0  0  0  # atno 6909 bound_to 6896
  144.7174  140.2117  143.6326 H   0  0  0  0  0  0  0  0  0  0  0  0  # atno 7974 bound_to 7965
  154.4923  140.0858  156.7621 H   0  0  0  0  0  0  0  0  0  0  0  0  # atno 8008 bound_to 7997
  155.4201  140.3445  155.4252 H   0  0  0  0  0  0  0  0  0  0  0  0  # atno 8009 bound_to 7997
  156.1346  140.1511  156.9001 H   0  0  0  0  0  0  0  0  0  0  0  0  # atno 8010 bound_to 7997
  140.4550  144.0992  150.6200 H   0  0  0  0  0  0  0  0  0  0  0  0  # atno 10167 bound_to 10162
  157.6622  131.0875  150.6177 H   0  0  0  0  0  0  0  0  0  0  0  0  # atno 10718 bound_to 10713
  153.8931  135.6810  153.4759 H   0  0  0  0  0  0  0  0  0  0  0  0  # atno 10763 bound_to 10752
  153.1170  135.4757  154.9129 H   0  0  0  0  0  0  0  0  0  0  0  0  # atno 10764 bound_to 10752
  154.7612  135.3211  154.8327 H   0  0  0  0  0  0  0  0  0  0  0  0  # atno 10765 bound_to 10752
  140.2172  134.3684  155.8021 H   0  0  0  0  0  0  0  0  0  0  0  0  # atno 11005 bound_to 11000
  145.8584  139.2210  143.1731 LP  0  0  0  0  0  0  0  0  0  0  0  0  # atno 17320 bound_to 7965
  146.0196  140.8360  142.9930 LP  0  0  0  0  0  0  0  0  0  0  0  0  # atno 17321 bound_to 7965
  140.4162  143.2633  151.9772 LP  0  0  0  0  0  0  0  0  0  0  0  0  # atno 17342 bound_to 10162
  139.4800  144.5871  151.7834 LP  0  0  0  0  0  0  0  0  0  0  0  0  # atno 17343 bound_to 10162
  156.6479  130.4477  149.5729 LP  0  0  0  0  0  0  0  0  0  0  0  0  # atno 17370 bound_to 10713
  156.2159  130.6708  151.1318 LP  0  0  0  0  0  0  0  0  0  0  0  0  # atno 17371 bound_to 10713
  141.2224  133.7174  156.8516 LP  0  0  0  0  0  0  0  0  0  0  0  0  # atno 17394 bound_to 11000
  140.1888  134.8981  157.3035 LP  0  0  0  0  0  0  0  0  0  0  0  0  # atno 17395 bound_to 11000

$$$$
