AV-unprocessed.smi:1112|AV-procd|sdf|4797|dock9
  -GOLD-   22720 3343D 1   1.00000     0.00000
 Structure written by MMmdl.
 50 52  0  0  0  0  0  0  0  0  2 V2000
  146.7243  136.1757  155.8189 O   0  0  0  0  0  0  0  0  0  0  0  0
  147.3029  135.9729  154.7519 C   0  0  0  0  0  0  0  0  0  0  0  0
  148.6266  136.1021  154.5849 N   0  0  0  0  0  0  0  0  0  0  0  0
  149.5907  136.4677  155.6217 C   0  0  0  0  0  0  0  0  0  0  0  0
  150.9051  137.0525  155.0397 C   0  0  0  0  0  0  0  0  0  0  0  0
  151.4239  136.0722  154.1602 O   0  0  0  0  0  0  0  0  0  0  0  0
  150.6322  138.3056  154.1737 C   0  0  0  0  0  0  0  0  0  0  0  0
  150.2835  139.5481  155.0148 C   0  0  0  0  0  0  0  0  0  0  0  0
  151.3619  139.8324  156.0720 C   0  0  0  0  0  0  0  0  0  0  0  0
  151.6221  138.5999  156.9516 C   0  0  0  0  0  0  0  0  0  0  0  0
  151.9923  137.3771  156.0948 C   0  0  0  0  0  0  0  0  0  0  0  0
  146.7053  135.6087  153.6050 N   0  0  0  0  0  0  0  0  0  0  0  0
  145.3202  135.3821  153.3578 C   0  0  0  0  0  0  0  0  0  0  0  0
  144.3041  136.1983  153.9189 C   0  0  0  0  0  0  0  0  0  0  0  0
  142.9512  135.9240  153.6402 C   0  0  0  0  0  0  0  0  0  0  0  0
  142.6318  134.8327  152.8133 C   0  0  0  0  0  0  0  0  0  0  0  0
  143.6196  134.0641  152.3100 N   0  3  0  0  0  0  0  0  0  0  0  0
  144.9380  134.2809  152.5432 C   0  0  0  0  0  0  0  0  0  0  0  0
  145.8835  133.3897  151.9931 N   0  0  0  0  0  0  0  0  0  0  0  0
  145.7340  132.0127  152.4589 C   0  0  0  0  0  0  0  0  0  0  0  0
  146.0058  131.1106  151.2525 C   0  0  0  0  0  0  0  0  0  0  0  0
  145.6582  132.0007  150.0655 C   0  0  0  0  0  0  0  0  0  0  0  0
  146.1065  133.3786  150.5483 C   0  0  0  0  0  0  0  0  0  0  0  0
  149.0099  135.9159  153.6698 H   0  0  0  0  0  0  0  0  0  0  0  0
  149.1171  137.1946  156.2827 H   0  0  0  0  0  0  0  0  0  0  0  0
  149.8069  135.6041  156.2506 H   0  0  0  0  0  0  0  0  0  0  0  0
  151.2953  136.3679  153.2718 H   0  0  0  0  0  0  0  0  0  0  0  0
  151.5174  138.5362  153.5784 H   0  0  0  0  0  0  0  0  0  0  0  0
  149.8326  138.1073  153.4585 H   0  0  0  0  0  0  0  0  0  0  0  0
  150.1729  140.4141  154.3616 H   0  0  0  0  0  0  0  0  0  0  0  0
  149.3177  139.4146  155.5023 H   0  0  0  0  0  0  0  0  0  0  0  0
  152.2880  140.1280  155.5772 H   0  0  0  0  0  0  0  0  0  0  0  0
  151.0610  140.6767  156.6927 H   0  0  0  0  0  0  0  0  0  0  0  0
  152.4257  138.8132  157.6568 H   0  0  0  0  0  0  0  0  0  0  0  0
  150.7381  138.3836  157.5514 H   0  0  0  0  0  0  0  0  0  0  0  0
  152.1946  136.5184  156.7349 H   0  0  0  0  0  0  0  0  0  0  0  0
  152.9347  137.5897  155.5872 H   0  0  0  0  0  0  0  0  0  0  0  0
  147.3028  135.5674  152.7925 H   0  0  0  0  0  0  0  0  0  0  0  0
  144.5356  137.0256  154.5718 H   0  0  0  0  0  0  0  0  0  0  0  0
  142.1698  136.5405  154.0603 H   0  0  0  0  0  0  0  0  0  0  0  0
  141.6240  134.5459  152.5496 H   0  0  0  0  0  0  0  0  0  0  0  0
  146.4229  131.7972  153.2762 H   0  0  0  0  0  0  0  0  0  0  0  0
  144.7195  131.8464  152.8256 H   0  0  0  0  0  0  0  0  0  0  0  0
  147.0643  130.8480  151.2171 H   0  0  0  0  0  0  0  0  0  0  0  0
  145.4296  130.1852  151.2764 H   0  0  0  0  0  0  0  0  0  0  0  0
  146.1481  131.6931  149.1414 H   0  0  0  0  0  0  0  0  0  0  0  0
  144.5801  131.9952  149.8984 H   0  0  0  0  0  0  0  0  0  0  0  0
  145.6081  134.1822  150.0057 H   0  0  0  0  0  0  0  0  0  0  0  0
  147.1767  133.5011  150.3782 H   0  0  0  0  0  0  0  0  0  0  0  0
  143.3583  133.2704  151.7246 H   0  0  0  0  0  0  0  0  0  0  0  0
  1  2  2  0  0  0  0
  2  3  1  0  0  0  0
  2 12  1  0  0  0  0
  3  4  1  0  0  0  0
  3 24  1  0  0  0  0
  4  5  1  0  0  0  0
  4 25  1  0  0  0  0
  4 26  1  0  0  0  0
  5 11  1  0  0  0  0
  5  6  1  0  0  0  0
  5  7  1  0  0  0  0
  6 27  1  0  0  0  0
  7  8  1  0  0  0  0
  7 28  1  0  0  0  0
  7 29  1  0  0  0  0
  8  9  1  0  0  0  0
  8 30  1  0  0  0  0
  8 31  1  0  0  0  0
  9 10  1  0  0  0  0
  9 32  1  0  0  0  0
  9 33  1  0  0  0  0
 10 11  1  0  0  0  0
 10 34  1  0  0  0  0
 10 35  1  0  0  0  0
 11 36  1  0  0  0  0
 11 37  1  0  0  0  0
 12 13  1  0  0  0  0
 12 38  1  0  0  0  0
 13 18  1  0  0  0  0
 13 14  2  0  0  0  0
 14 15  1  0  0  0  0
 14 39  1  0  0  0  0
 15 16  2  0  0  0  0
 15 40  1  0  0  0  0
 16 17  1  0  0  0  0
 16 41  1  0  0  0  0
 17 18  2  0  0  0  0
 17 50  1  0  0  0  0
 18 19  1  0  0  0  0
 19 23  1  0  0  0  0
 19 20  1  0  0  0  0
 20 21  1  0  0  0  0
 20 42  1  0  0  0  0
 20 43  1  0  0  0  0
 21 22  1  0  0  0  0
 21 44  1  0  0  0  0
 21 45  1  0  0  0  0
 22 23  1  0  0  0  0
 22 46  1  0  0  0  0
 22 47  1  0  0  0  0
 23 48  1  0  0  0  0
 23 49  1  0  0  0  0
M  CHG  1  17   1
M  END
> <s_m_source_file>
AV-unprocessed.smi

> <i_m_source_file_index>
1112

> <i_lp_mmshare_version>
43012

> <i_f3d_flags>
0

> <s_epik_input>
W0NIMl0xW0NIMl1bQ0gyXVtDSDJdW0NIMl1DMShbT0hdKVtDSDJdW05IXUMoPU8pW05IXWMyW2NIXVtjSF1bY0hdbmMyTjNbQ0gyXVtDSDJdW0NIMl1bQ0gyXTM=

> <s_epik_cmdline>
J2VwaWtfcHl0aG9uJywgJy1waCcsICc3LjAnLCAnLXRuJywgJzgnLCAnLW1hJywgJzIwMCcsICctbWV0YWxfYmluZGluZycsICctaW1hZScsICc8aW5maWxlLm1hZT4nLCAnLW9tYWUnLCAnPG91dGZpbGUubWFlPic=

> <r_lp_tautomer_probability>
0.999994

> <r_epik_Ionization_Penalty>
1.10443

> <r_epik_Ionization_Penalty_Charging>
1.1044

> <r_epik_Ionization_Penalty_Neutral>
2.27493e-05

> <r_epik_State_Penalty>
1.16183

> <r_epik_Charging_Adjusted_Penalty>
2.26623

> <i_epik_Tot_Q>
1

> <i_epik_Tot_abs_Q>
1

> <r_epik_Metal_State_Penalty>
1.24855

> <b_epik_Metal_Only>
0

> <s_lp_Force_Field>
OPLS_2005

> <r_lp_Energy>
50.1983

> <b_lp_Chiralities_Consistent>
1

> <s_lp_Variant>
AV-unprocessed.smi:1112-2

> <Gold.Version>
5.8.1

> <Gold.Id.Protein>
6NUR|6NUR_protein|mol2

> <Gold.PLP.Fitness>
43.2649

> <Gold.PLP.PLP>
-32.4054

> <Gold.PLP.part.hbond>
-4.2884

> <Gold.PLP.part.metal>
0.0000

> <Gold.PLP.part.buried>
-4.3867

> <Gold.PLP.part.nonpolar>
-23.9926

> <Gold.PLP.part.repulsive>
0.1279

> <Gold.PLP.ligand.clash>
0.0000

> <Gold.PLP.ligand.torsion>
0.5582

> <Gold.PLP.Chemscore.Hbond>
3.9436

> <Gold.PLP.Chemscore.CHOScore>
0.0000

> <Gold.PLP.Chemscore.Metal>
0.0000

> <Gold.Chemscore.Hbonds>
donor molecule, donor type, donor heavy atom, donor atom, acceptor molecule, acceptor atom, score
      L1  H     3    24       P1  7948  0.99
      L1  H     6    27       P1  7949  0.98
      L1  H    12    38       P1  7948  0.98
      P1  H 10752 10765       L1     6  1.00

> <Gold.PLP.Chemscore.Internal.Correction>
0.1452

> <Gold.Rescore>
     Score         DG    S(hbond)    S(metal)    S(lipo)     H(rot)  DE(clash)    DE(int)     intcor
     20.83     -22.10       3.39        0.00      87.10       1.92       0.02       1.25       ----

> <Gold.Chemscore.Fitness>
20.8273

> <Gold.Chemscore.DG>
-22.0978

> <Gold.Chemscore.ZeroCoef>
-5.4800

> <Gold.Chemscore.Hbond>
3.3937

> <Gold.Chemscore.Metal>
0.0000

> <Gold.Chemscore.Lipo>
87.1046

> <Gold.Chemscore.Internal_Hbond>
0.0000

> <Gold.Chemscore.DEClash>
0.0158

> <Gold.Chemscore.DEInternal>
1.2548

> <Gold.Chemscore.Rot>
1.9173

> <Gold.Chemscore.Internal.Correction>
   9.000000E+99

> <Gold.Chemscore.Hbonds>
donor molecule, donor type, donor heavy atom, donor atom, acceptor molecule, acceptor atom, score
      L1  H     3    24       P1  7948  0.89
      L1  H     6    27       P1  7949  0.61
      L1  H    12    38       P1  7948  0.90
      P1  H 10752 10765       L1     6  0.78

> <Gold.Chemscore.Hbond.Weighted>
-11.3350

> <Gold.Chemscore.Metal.Weighted>
-0.0000

> <Gold.Chemscore.Lipo.Weighted>
-10.1912

> <Gold.Chemscore.Internal_Hbond.Weighted>
0.0000

> <Gold.Chemscore.DEClash.Weighted>
0.0158

> <Gold.Chemscore.DEInternal.Weighted>
1.2548

> <Gold.Chemscore.Rot.Weighted>
4.9084

> <Gold.Chemscore.Internal.Correction.Weighted>
   9.000000E+99

> <Gold.Protein.RotatedTorsions>
[ 6907 6896 6895 6894 ] final -129.42 input  -60.11 | X-H torsion
[ 7974 7965 7964 7962 ] final  -24.57 input  175.53 | X-H torsion
[ 8008 7997 7996 7995 ] final  175.60 input   59.86 | X-H torsion
[ 10167 10162 10161 10158 ] final   88.06 input  -65.29 | X-H torsion
[ 10718 10713 10712 10709 ] final  -68.87 input   66.30 | X-H torsion
[ 10763 10752 10751 10750 ] final  176.92 input  -60.55 | X-H torsion
[ 11005 11000 10999 10996 ] final  -59.61 input  -57.11 | X-H torsion

> <Gold.Protein.ActiveResidues>
 VAL166  LYS551  ARG553  GLY616  TRP617  ASP618  TYR619  PRO620  LYS621  CYS622 
 ASP623  PHE694  ASN695  SER759  ASP760  ASP761  ALA762  ILE779  LEU786  VAL792 
 PHE793  MET794  SER795  GLU796  ALA797  LYS798  CYS799  TRP800  GLU811  SER814 

> <Gold.Protein.RotatedAtoms>
  150.9286  133.6794  159.2815 H   0  0  0  0  0  0  0  0  0  0  0  0  # atno 6907 bound_to 6896
  151.4224  135.0998  159.9627 H   0  0  0  0  0  0  0  0  0  0  0  0  # atno 6908 bound_to 6896
  152.5015  133.8734  159.7365 H   0  0  0  0  0  0  0  0  0  0  0  0  # atno 6909 bound_to 6896
  146.1546  140.4769  142.8597 H   0  0  0  0  0  0  0  0  0  0  0  0  # atno 7974 bound_to 7965
  156.0853  140.1405  156.9660 H   0  0  0  0  0  0  0  0  0  0  0  0  # atno 8008 bound_to 7997
  154.4609  140.0943  156.6939 H   0  0  0  0  0  0  0  0  0  0  0  0  # atno 8009 bound_to 7997
  155.5008  140.3451  155.4373 H   0  0  0  0  0  0  0  0  0  0  0  0  # atno 8010 bound_to 7997
  139.8711  144.6492  150.8949 H   0  0  0  0  0  0  0  0  0  0  0  0  # atno 10167 bound_to 10162
  156.0483  130.4302  150.2065 H   0  0  0  0  0  0  0  0  0  0  0  0  # atno 10718 bound_to 10713
  154.4876  135.2777  155.1522 H   0  0  0  0  0  0  0  0  0  0  0  0  # atno 10763 bound_to 10752
  154.3206  135.6210  153.5510 H   0  0  0  0  0  0  0  0  0  0  0  0  # atno 10764 bound_to 10752
  152.9883  135.5742  154.5291 H   0  0  0  0  0  0  0  0  0  0  0  0  # atno 10765 bound_to 10752
  141.1255  133.6617  156.5098 H   0  0  0  0  0  0  0  0  0  0  0  0  # atno 11005 bound_to 11000
  144.7947  140.6100  143.6518 LP  0  0  0  0  0  0  0  0  0  0  0  0  # atno 17320 bound_to 7965
  145.4739  139.1501  143.3799 LP  0  0  0  0  0  0  0  0  0  0  0  0  # atno 17321 bound_to 7965
  140.7760  143.3663  151.1732 LP  0  0  0  0  0  0  0  0  0  0  0  0  # atno 17342 bound_to 10162
  139.7283  143.9113  152.3010 LP  0  0  0  0  0  0  0  0  0  0  0  0  # atno 17343 bound_to 10162
  157.0151  130.9963  151.3355 LP  0  0  0  0  0  0  0  0  0  0  0  0  # atno 17370 bound_to 10713
  157.5383  130.8103  149.7998 LP  0  0  0  0  0  0  0  0  0  0  0  0  # atno 17371 bound_to 10713
  140.4378  134.7043  157.4976 LP  0  0  0  0  0  0  0  0  0  0  0  0  # atno 17394 bound_to 11000
  140.0249  134.6491  155.9186 LP  0  0  0  0  0  0  0  0  0  0  0  0  # atno 17395 bound_to 11000

$$$$
