#       Name:                AV-unprocessed.smi:191
#       Creating user name   scv26
#       Creation time:       Thu Mar 26 19:31:46 2020


#       File generated by GOLD software.
#

@<TRIPOS>MOLECULE
AV-unprocessed.smi:191
    54    56     1
SMALL
NO_CHARGES


@<TRIPOS>ATOM
      1 ****        -3.2159  -3.2518   1.8168 C.3            1 S1                 0.0000
      2 ****        -2.9739  -2.9518   0.3295 C.3            1 S1                 0.0000
      3 ****        -2.3100  -1.6635   0.1089 N.pl3          1 S1                 0.0000
      4 ****        -3.1228  -0.4484   0.1815 C.3            1 S1                 0.0000
      5 ****        -4.0196  -0.2532  -1.0564 C.3            1 S1                 0.0000
      6 ****        -4.8744   1.0131  -0.9278 C.3            1 S1                 0.0000
      7 ****        -3.2603  -0.2437  -2.3181 C.1            1 S1                 0.0000
      8 ****        -2.6662  -0.2379  -3.3112 N.1            1 S1                 0.0000
      9 ****        -0.9453  -1.5929   0.0826 C.ar           1 S1                 0.0000
     10 ****        -0.2360  -2.6511   0.5618 N.ar           1 S1                 0.0000
     11 ****         1.0986  -2.6453   0.5625 C.ar           1 S1                 0.0000
     12 ****         1.9261  -1.6951   0.1307 N.ar           1 S1                 0.0000
     13 ****         1.2352  -0.6289  -0.3620 C.ar           1 S1                 0.0000
     14 ****        -0.1838  -0.4925  -0.4246 C.ar           1 S1                 0.0000
     15 ****        -0.4961   0.7323  -1.0071 N.2            1 S1                 0.0000
     16 ****         0.6572   1.2829  -1.2644 C.2            1 S1                 0.0000
     17 ****         1.7529   0.5370  -0.9004 N.pl3          1 S1                 0.0000
     18 ****         3.1515   0.8998  -1.0750 C.3            1 S1                 0.0000
     19 ****         3.7037   1.8135   0.0351 C.3            1 S1                 0.0000
     20 ****         3.6342   1.0542   1.3754 C.3            1 S1                 0.0000
     21 ****         4.2247   1.7766   2.4378 O.3            1 S1                 0.0000
     22 ****         5.0403   2.4945  -0.2939 C.3            1 S1                 0.0000
     23 ****         4.5146   3.8059   0.0085 O.3            1 S1                 0.0000
     24 ****         3.1789   3.2566   0.0522 C.3            1 S1                 0.0000
     25 ****        -3.7114  -4.2152   1.9378 H              1 S1                 0.0000
     26 ****        -3.8503  -2.4967   2.2806 H              1 S1                 0.0000
     27 ****        -2.2804  -3.2905   2.3747 H              1 S1                 0.0000
     28 ****        -2.4050  -3.7599  -0.1316 H              1 S1                 0.0000
     29 ****        -3.9323  -2.9465  -0.1886 H              1 S1                 0.0000
     30 ****        -3.7625  -0.5289   1.0601 H              1 S1                 0.0000
     31 ****        -2.5208   0.4379   0.3682 H              1 S1                 0.0000
     32 ****        -4.6984  -1.1022  -1.1333 H              1 S1                 0.0000
     33 ****        -5.5389   1.1234  -1.7853 H              1 S1                 0.0000
     34 ****        -4.2509   1.9061  -0.8728 H              1 S1                 0.0000
     35 ****        -5.4939   0.9805  -0.0312 H              1 S1                 0.0000
     36 ****         1.5700  -3.5292   0.9663 H              1 S1                 0.0000
     37 ****         0.7373   2.2527  -1.7334 H              1 S1                 0.0000
     38 ****         3.7405  -0.0153  -1.1452 H              1 S1                 0.0000
     39 ****         3.2447   1.3829  -2.0486 H              1 S1                 0.0000
     40 ****         2.6016   0.8521   1.6596 H              1 S1                 0.0000
     41 ****         4.1374   0.0896   1.3019 H              1 S1                 0.0000
     42 ****         4.1504   1.2638   3.2281 H              1 S1                 0.0000
     43 ****         5.8663   2.2113   0.3595 H              1 S1                 0.0000
     44 ****         5.3346   2.4111  -1.3412 H              1 S1                 0.0000
     45 ****         2.6051   3.5346  -0.8323 H              1 S1                 0.0000
     46 ****         2.6430   3.5265   0.9628 H              1 S1                 0.0000
     47 ****        -2.1528  -0.2329  -4.1693 LP             1 S1                 0.0000
     48 ****        -0.7237  -3.4473   0.9199 LP             1 S1                 0.0000
     49 ****         2.9237  -1.7561   0.1638 LP             1 S1                 0.0000
     50 ****        -1.4052   1.1075  -1.1883 LP             1 S1                 0.0000
     51 ****         3.7509   2.6493   2.5564 LP             1 S1                 0.0000
     52 ****         5.1892   1.9459   2.2353 LP             1 S1                 0.0000
     53 ****         4.6558   4.4801  -0.7165 LP             1 S1                 0.0000
     54 ****         4.8306   4.1821   0.8796 LP             1 S1                 0.0000
@<TRIPOS>BOND
    1    1    2 1     
    2    1   25 1     
    3    1   26 1     
    4    1   27 1     
    5    2    3 1     
    6    2   28 1     
    7    2   29 1     
    8    3    4 1     
    9    3    9 1     
   10    4    5 1     
   11    4   30 1     
   12    4   31 1     
   13    5    6 1     
   14    5    7 1     
   15    5   32 1     
   16    6   33 1     
   17    6   34 1     
   18    6   35 1     
   19    7    8 3     
   20    9   14 ar    
   21    9   10 ar    
   22   10   11 ar    
   23   11   12 ar    
   24   11   36 1     
   25   12   13 ar    
   26   13   17 1     
   27   13   14 ar    
   28   14   15 1     
   29   15   16 2     
   30   16   17 1     
   31   16   37 1     
   32   17   18 1     
   33   18   19 1     
   34   18   38 1     
   35   18   39 1     
   36   19   24 1     
   37   19   20 1     
   38   19   22 1     
   39   20   21 1     
   40   20   40 1     
   41   20   41 1     
   42   21   42 1     
   43   22   23 1     
   44   22   43 1     
   45   22   44 1     
   46   23   24 1     
   47   24   45 1     
   48   24   46 1     
   49    8   47 1     
   50   10   48 1     
   51   12   49 1     
   52   15   50 1     
   53   21   51 1     
   54   21   52 1     
   55   23   53 1     
   56   23   54 1     
@<TRIPOS>SUBSTRUCTURE
      1 S1             1
@<TRIPOS>SET
LONE_PAIRS      STATIC     ATOMS    <user>   **** ""
8 47 48 49 50 51 52 53 54
DONOR_HYDROGENS      STATIC     ATOMS    <user>   **** ""
1 42
ATOM$BLUE        STATIC     ATOMS    COLORGROUP SYSTEM
8 47 48 49 50 51 52 53 54
ATOM$RED        STATIC     ATOMS    COLORGROUP SYSTEM
1 42
