AV-unprocessed.smi:2140|AV-procd|sdf|8716|dock6
  -GOLD-   2272011483D 1   1.00000     0.00000
 Structure written by MMmdl.
 40 41  0  0  0  0  0  0  0  0  2 V2000
  146.4205  142.3501  154.2060 C   0  0  0  0  0  0  0  0  0  0  0  0
  147.0990  140.9582  154.2023 C   0  0  2  0  0  0  0  0  0  0  0  0
  148.6365  141.1169  154.0547 C   0  0  0  0  0  0  0  0  0  0  0  0
  149.2016  142.0997  154.9752 N   0  0  0  0  0  0  0  0  0  0  0  0
  150.0459  141.8123  155.9762 C   0  0  0  0  0  0  0  0  0  0  0  0
  150.4397  140.6719  156.2186 O   0  0  0  0  0  0  0  0  0  0  0  0
  150.3728  142.9171  156.6682 N   0  0  0  0  0  0  0  0  0  0  0  0
  151.2121  143.0404  157.8091 C   0  0  0  0  0  0  0  0  0  0  0  0
  151.6497  141.9551  158.6074 C   0  0  0  0  0  0  0  0  0  0  0  0
  152.4922  142.2151  159.7055 C   0  0  0  0  0  0  0  0  0  0  0  0
  152.8730  143.5464  159.9619 C   0  0  0  0  0  0  0  0  0  0  0  0
  152.4736  144.5887  159.2036 N   0  0  0  0  0  0  0  0  0  0  0  0
  151.6658  144.3319  158.1528 C   0  0  0  0  0  0  0  0  0  0  0  0
  146.5629  140.0365  153.1473 N   0  3  0  0  0  0  0  0  0  0  0  0
  147.1769  140.2794  151.8127 C   0  0  0  0  0  0  0  0  0  0  0  0
  146.5435  139.3803  150.7390 C   0  0  0  0  0  0  0  0  0  0  0  0
  146.7027  138.0193  151.1099 O   0  0  0  0  0  0  0  0  0  0  0  0
  146.0408  137.7328  152.3327 C   0  0  0  0  0  0  0  0  0  0  0  0
  146.6381  138.5838  153.4671 C   0  0  0  0  0  0  0  0  0  0  0  0
  146.8529  143.0089  154.9586 H   0  0  0  0  0  0  0  0  0  0  0  0
  145.3596  142.2877  154.4481 H   0  0  0  0  0  0  0  0  0  0  0  0
  146.5237  142.8468  153.2408 H   0  0  0  0  0  0  0  0  0  0  0  0
  146.8817  140.5023  155.1695 H   0  0  0  0  0  0  0  0  0  0  0  0
  149.1645  140.1769  154.2082 H   0  0  0  0  0  0  0  0  0  0  0  0
  148.8770  141.4338  153.0395 H   0  0  0  0  0  0  0  0  0  0  0  0
  148.9248  143.0620  154.8446 H   0  0  0  0  0  0  0  0  0  0  0  0
  149.9186  143.7705  156.3775 H   0  0  0  0  0  0  0  0  0  0  0  0
  151.3717  140.9343  158.3983 H   0  0  0  0  0  0  0  0  0  0  0  0
  152.8425  141.4105  160.3349 H   0  0  0  0  0  0  0  0  0  0  0  0
  153.5193  143.7794  160.7951 H   0  0  0  0  0  0  0  0  0  0  0  0
  151.3687  145.1900  157.5676 H   0  0  0  0  0  0  0  0  0  0  0  0
  147.0597  141.3161  151.5042 H   0  0  0  0  0  0  0  0  0  0  0  0
  148.2499  140.0872  151.8649 H   0  0  0  0  0  0  0  0  0  0  0  0
  145.4869  139.6169  150.6028 H   0  0  0  0  0  0  0  0  0  0  0  0
  147.0324  139.5422  149.7781 H   0  0  0  0  0  0  0  0  0  0  0  0
  144.9696  137.9150  152.2320 H   0  0  0  0  0  0  0  0  0  0  0  0
  146.1617  136.6728  152.5566 H   0  0  0  0  0  0  0  0  0  0  0  0
  147.6775  138.3002  153.6408 H   0  0  0  0  0  0  0  0  0  0  0  0
  146.0789  138.3544  154.3737 H   0  0  0  0  0  0  0  0  0  0  0  0
  145.5789  140.2472  153.0614 H   0  0  0  0  0  0  0  0  0  0  0  0
  1  2  1  0  0  0  0
  1 20  1  0  0  0  0
  1 21  1  0  0  0  0
  1 22  1  0  0  0  0
  2  3  1  0  0  0  0
  2 14  1  0  0  0  0
  2 23  1  0  0  0  0
  3  4  1  0  0  0  0
  3 24  1  0  0  0  0
  3 25  1  0  0  0  0
  4  5  1  0  0  0  0
  4 26  1  0  0  0  0
  5  6  2  0  0  0  0
  5  7  1  0  0  0  0
  7  8  1  0  0  0  0
  7 27  1  0  0  0  0
  8 13  1  0  0  0  0
  8  9  2  0  0  0  0
  9 10  1  0  0  0  0
  9 28  1  0  0  0  0
 10 11  2  0  0  0  0
 10 29  1  0  0  0  0
 11 12  1  0  0  0  0
 11 30  1  0  0  0  0
 12 13  2  0  0  0  0
 13 31  1  0  0  0  0
 14 19  1  0  0  0  0
 14 15  1  0  0  0  0
 14 40  1  0  0  0  0
 15 16  1  0  0  0  0
 15 32  1  0  0  0  0
 15 33  1  0  0  0  0
 16 17  1  0  0  0  0
 16 34  1  0  0  0  0
 16 35  1  0  0  0  0
 17 18  1  0  0  0  0
 18 19  1  0  0  0  0
 18 36  1  0  0  0  0
 18 37  1  0  0  0  0
 19 38  1  0  0  0  0
 19 39  1  0  0  0  0
M  CHG  1  14   1
M  END
> <s_m_source_file>
AV-unprocessed.smi

> <i_m_source_file_index>
2140

> <i_lp_mmshare_version>
43012

> <i_f3d_flags>
0

> <s_epik_input>
W0NIMl0xW0NIMl1PW0NIMl1bQ0gyXU4xW0NASF0oW0NIM10pW0NIMl1bTkhdQyg9TylbTkhdYzJbY0hdW2NIXVtjSF1uW2NIXTI=

> <s_epik_cmdline>
J2VwaWtfcHl0aG9uJywgJy1waCcsICc3LjAnLCAnLXRuJywgJzgnLCAnLW1hJywgJzIwMCcsICctbWV0YWxfYmluZGluZycsICctaW1hZScsICc8aW5maWxlLm1hZT4nLCAnLW9tYWUnLCAnPG91dGZpbGUubWFlPic=

> <r_epik_Ionization_Penalty>
0.60672

> <r_epik_Ionization_Penalty_Charging>
0.602531

> <r_epik_Ionization_Penalty_Neutral>
0.00418997

> <r_epik_State_Penalty>
0.607459

> <r_epik_Charging_Adjusted_Penalty>
1.20999

> <i_epik_Tot_Q>
1

> <i_epik_Tot_abs_Q>
1

> <r_epik_Metal_State_Penalty>
0.604586

> <b_epik_Metal_Only>
0

> <s_lp_Force_Field>
OPLS_2005

> <r_lp_Energy>
23.5262

> <b_lp_Chiralities_Consistent>
1

> <s_lp_Variant>
AV-unprocessed.smi:2140-3

> <Gold.Version>
5.8.1

> <Gold.Id.Protein>
6NUR|6NUR_protein|mol2

> <Gold.PLP.Fitness>
47.6336

> <Gold.PLP.PLP>
-33.9952

> <Gold.PLP.part.hbond>
-4.0000

> <Gold.PLP.part.metal>
0.0000

> <Gold.PLP.part.buried>
0.7353

> <Gold.PLP.part.nonpolar>
-32.7171

> <Gold.PLP.part.repulsive>
1.5160

> <Gold.PLP.ligand.clash>
0.0000

> <Gold.PLP.ligand.torsion>
0.6055

> <Gold.PLP.Chemscore.Hbond>
4.9325

> <Gold.PLP.Chemscore.CHOScore>
0.0000

> <Gold.PLP.Chemscore.Metal>
0.0000

> <Gold.Chemscore.Hbonds>
donor molecule, donor type, donor heavy atom, donor atom, acceptor molecule, acceptor atom, score
      L1  H     4    26       P1  8028  0.90
      L1  H     7    27       P1  8028  1.00
      L1  H    14    40       P1 10175  2.00
      P1  H  7954  7966       L1    17  0.50

> <Gold.PLP.Chemscore.Internal.Correction>
0.0520

> <Gold.Rescore>
     Score         DG    S(hbond)    S(metal)    S(lipo)     H(rot)  DE(clash)    DE(int)     intcor
     18.78     -24.02       2.90        0.00     108.77       1.52       3.28       1.96       ----

> <Gold.Chemscore.Fitness>
18.7819

> <Gold.Chemscore.DG>
-24.0196

> <Gold.Chemscore.ZeroCoef>
-5.4800

> <Gold.Chemscore.Hbond>
2.9040

> <Gold.Chemscore.Metal>
0.0000

> <Gold.Chemscore.Lipo>
108.7691

> <Gold.Chemscore.Internal_Hbond>
0.0000

> <Gold.Chemscore.DEClash>
3.2790

> <Gold.Chemscore.DEInternal>
1.9586

> <Gold.Chemscore.Rot>
1.5179

> <Gold.Chemscore.Internal.Correction>
   9.000000E+99

> <Gold.Chemscore.Hbonds>
donor molecule, donor type, donor heavy atom, donor atom, acceptor molecule, acceptor atom, score
      L1  H     4    26       P1  8028  0.88
      L1  H     7    27       P1  8028  0.96
      L1  H    14    40       P1 10175  0.95
      P1  H  7954  7966       L1    17  0.02

> <Gold.Chemscore.Hbond.Weighted>
-9.6995

> <Gold.Chemscore.Metal.Weighted>
-0.0000

> <Gold.Chemscore.Lipo.Weighted>
-12.7260

> <Gold.Chemscore.Internal_Hbond.Weighted>
0.0000

> <Gold.Chemscore.DEClash.Weighted>
3.2790

> <Gold.Chemscore.DEInternal.Weighted>
1.9586

> <Gold.Chemscore.Rot.Weighted>
3.8859

> <Gold.Chemscore.Internal.Correction.Weighted>
   9.000000E+99

> <Gold.Protein.RotatedTorsions>
[ 6907 6896 6895 6894 ] final -110.07 input  -60.11 | X-H torsion
[ 7974 7965 7964 7962 ] final  164.71 input  175.53 | X-H torsion
[ 8008 7997 7996 7995 ] final  -12.75 input   59.86 | X-H torsion
[ 10167 10162 10161 10158 ] final  169.70 input  -65.29 | X-H torsion
[ 10718 10713 10712 10709 ] final  111.43 input   66.30 | X-H torsion
[ 10763 10752 10751 10750 ] final  162.63 input  -60.55 | X-H torsion
[ 11005 11000 10999 10996 ] final  143.12 input  -57.11 | X-H torsion

> <Gold.Protein.ActiveResidues>
 VAL166  LYS551  ARG553  GLY616  TRP617  ASP618  TYR619  PRO620  LYS621  CYS622 
 ASP623  PHE694  ASN695  SER759  ASP760  ASP761  ALA762  ILE779  LEU786  VAL792 
 PHE793  MET794  SER795  GLU796  ALA797  LYS798  CYS799  TRP800  GLU811  SER814 

> <Gold.Protein.RotatedAtoms>
  150.7602  133.9435  159.3463 H   0  0  0  0  0  0  0  0  0  0  0  0  # atno 6907 bound_to 6896
  151.7346  135.0865  160.0315 H   0  0  0  0  0  0  0  0  0  0  0  0  # atno 6908 bound_to 6896
  152.3568  133.6209  159.6021 H   0  0  0  0  0  0  0  0  0  0  0  0  # atno 6909 bound_to 6896
  144.7533  139.8365  143.6358 H   0  0  0  0  0  0  0  0  0  0  0  0  # atno 7974 bound_to 7965
  154.5351  140.2268  155.8737 H   0  0  0  0  0  0  0  0  0  0  0  0  # atno 8008 bound_to 7997
  156.1803  140.3101  155.9099 H   0  0  0  0  0  0  0  0  0  0  0  0  # atno 8009 bound_to 7997
  155.3372  140.0448  157.3034 H   0  0  0  0  0  0  0  0  0  0  0  0  # atno 8010 bound_to 7997
  139.4999  144.3677  151.9758 H   0  0  0  0  0  0  0  0  0  0  0  0  # atno 10167 bound_to 10162
  157.6445  131.0950  150.6748 H   0  0  0  0  0  0  0  0  0  0  0  0  # atno 10718 bound_to 10713
  154.2814  135.2763  155.2695 H   0  0  0  0  0  0  0  0  0  0  0  0  # atno 10763 bound_to 10752
  154.5215  135.5755  153.6688 H   0  0  0  0  0  0  0  0  0  0  0  0  # atno 10764 bound_to 10752
  152.9928  135.6205  154.2973 H   0  0  0  0  0  0  0  0  0  0  0  0  # atno 10765 bound_to 10752
  140.0529  134.9246  157.1049 H   0  0  0  0  0  0  0  0  0  0  0  0  # atno 11005 bound_to 11000
  146.1512  139.4596  143.0047 LP  0  0  0  0  0  0  0  0  0  0  0  0  # atno 17320 bound_to 7965
  145.6866  141.0176  143.1578 LP  0  0  0  0  0  0  0  0  0  0  0  0  # atno 17321 bound_to 7965
  140.3113  144.3535  150.6033 LP  0  0  0  0  0  0  0  0  0  0  0  0  # atno 17342 bound_to 10162
  140.5796  143.2174  151.7452 LP  0  0  0  0  0  0  0  0  0  0  0  0  # atno 17343 bound_to 10162
  156.7067  130.4639  149.5558 LP  0  0  0  0  0  0  0  0  0  0  0  0  # atno 17370 bound_to 10713
  156.1758  130.6467  151.0892 LP  0  0  0  0  0  0  0  0  0  0  0  0  # atno 17371 bound_to 10713
  140.3889  134.2206  155.7167 LP  0  0  0  0  0  0  0  0  0  0  0  0  # atno 17394 bound_to 11000
  141.1938  133.8141  157.0781 LP  0  0  0  0  0  0  0  0  0  0  0  0  # atno 17395 bound_to 11000

$$$$
