AV-unprocessed.smi:2775|AV-procd|sdf|10698|dock2
  -GOLD-   2272015133D 1   1.00000     0.00000
 Structure written by MMmdl.
 43 46  0  0  0  0  0  0  0  0  2 V2000
  147.4516  139.3966  153.1218 C   0  0  0  0  0  0  0  0  0  0  0  0
  148.8015  139.3793  153.8129 C   0  0  0  0  0  0  0  0  0  0  0  0
  149.6625  138.3905  153.4863 N   0  3  0  0  0  0  0  0  0  0  0  0
  150.8872  138.2699  154.0390 C   0  0  0  0  0  0  0  0  0  0  0  0
  151.3207  139.2047  154.9992 C   0  0  0  0  0  0  0  0  0  0  0  0
  150.4630  140.2720  155.3688 C   0  0  0  0  0  0  0  0  0  0  0  0
  150.8043  141.2572  156.3363 N   0  0  0  0  0  0  0  0  0  0  0  0
  151.6807  141.1935  157.3573 C   0  0  0  0  0  0  0  0  0  0  0  0
  152.3623  140.2110  157.6398 O   0  0  0  0  0  0  0  0  0  0  0  0
  151.7666  142.3310  158.0687 N   0  0  0  0  0  0  0  0  0  0  0  0
  152.6185  142.5872  159.2313 C   0  0  2  0  0  0  0  0  0  0  0  0
  152.5294  141.4662  160.2838 C   0  0  1  0  0  0  0  0  0  0  0  0
  153.7492  140.6466  160.6086 C   0  0  0  0  0  0  0  0  0  0  0  0
  154.2884  141.3220  161.8725 C   0  0  0  0  0  0  0  0  0  0  0  0
  153.7567  142.6441  161.8279 O   0  0  0  0  0  0  0  0  0  0  0  0
  152.4183  142.5512  161.3493 C   0  0  1  0  0  0  0  0  0  0  0  0
  152.0270  143.5658  160.2681 C   0  0  0  0  0  0  0  0  0  0  0  0
  150.5806  144.0918  160.1967 C   0  0  0  0  0  0  0  0  0  0  0  0
  151.1372  145.4549  159.7766 C   0  0  0  0  0  0  0  0  0  0  0  0
  152.4941  145.0263  160.3431 C   0  0  0  0  0  0  0  0  0  0  0  0
  149.1798  140.3476  154.7724 C   0  0  0  0  0  0  0  0  0  0  0  0
  148.0816  141.6148  155.2074 Cl  0  0  0  0  0  0  0  0  0  0  0  0
  147.3089  140.3386  152.5913 H   0  0  0  0  0  0  0  0  0  0  0  0
  146.6500  139.2876  153.8529 H   0  0  0  0  0  0  0  0  0  0  0  0
  147.3633  138.5851  152.3983 H   0  0  0  0  0  0  0  0  0  0  0  0
  151.4794  137.4315  153.7021 H   0  0  0  0  0  0  0  0  0  0  0  0
  152.2974  139.0746  155.4380 H   0  0  0  0  0  0  0  0  0  0  0  0
  150.3650  142.1564  156.2008 H   0  0  0  0  0  0  0  0  0  0  0  0
  151.1729  143.0950  157.7788 H   0  0  0  0  0  0  0  0  0  0  0  0
  153.6577  142.8221  158.9908 H   0  0  0  0  0  0  0  0  0  0  0  0
  151.6037  140.8927  160.2077 H   0  0  0  0  0  0  0  0  0  0  0  0
  153.5160  139.5958  160.7829 H   0  0  0  0  0  0  0  0  0  0  0  0
  154.4796  140.6981  159.8006 H   0  0  0  0  0  0  0  0  0  0  0  0
  153.9133  140.8190  162.7650 H   0  0  0  0  0  0  0  0  0  0  0  0
  155.3775  141.3273  161.9156 H   0  0  0  0  0  0  0  0  0  0  0  0
  151.6758  142.3483  162.1223 H   0  0  0  0  0  0  0  0  0  0  0  0
  149.9320  143.6191  159.4594 H   0  0  0  0  0  0  0  0  0  0  0  0
  150.1007  144.1278  161.1758 H   0  0  0  0  0  0  0  0  0  0  0  0
  151.1518  145.5913  158.6949 H   0  0  0  0  0  0  0  0  0  0  0  0
  150.6823  146.3061  160.2839 H   0  0  0  0  0  0  0  0  0  0  0  0
  152.6472  145.3663  161.3684 H   0  0  0  0  0  0  0  0  0  0  0  0
  153.3466  145.2670  159.7076 H   0  0  0  0  0  0  0  0  0  0  0  0
  149.3716  137.7007  152.7932 H   0  0  0  0  0  0  0  0  0  0  0  0
  1  2  1  0  0  0  0
  1 23  1  0  0  0  0
  1 24  1  0  0  0  0
  1 25  1  0  0  0  0
  2 21  1  0  0  0  0
  2  3  2  0  0  0  0
  3  4  1  0  0  0  0
  3 43  1  0  0  0  0
  4  5  2  0  0  0  0
  4 26  1  0  0  0  0
  5  6  1  0  0  0  0
  5 27  1  0  0  0  0
  6  7  1  0  0  0  0
  6 21  2  0  0  0  0
  7  8  1  0  0  0  0
  7 28  1  0  0  0  0
  8  9  2  0  0  0  0
  8 10  1  0  0  0  0
 10 11  1  0  0  0  0
 10 29  1  0  0  0  0
 11 17  1  0  0  0  0
 11 12  1  0  0  0  0
 11 30  1  0  0  0  0
 12 16  1  0  0  0  0
 12 13  1  0  0  0  0
 12 31  1  0  0  0  0
 13 14  1  0  0  0  0
 13 32  1  0  0  0  0
 13 33  1  0  0  0  0
 14 15  1  0  0  0  0
 14 34  1  0  0  0  0
 14 35  1  0  0  0  0
 15 16  1  0  0  0  0
 16 17  1  0  0  0  0
 16 36  1  0  0  0  0
 17 20  1  0  0  0  0
 17 18  1  0  0  0  0
 18 19  1  0  0  0  0
 18 37  1  0  0  0  0
 18 38  1  0  0  0  0
 19 20  1  0  0  0  0
 19 39  1  0  0  0  0
 19 40  1  0  0  0  0
 20 41  1  0  0  0  0
 20 42  1  0  0  0  0
 21 22  1  0  0  0  0
M  CHG  1   3   1
M  END
> <s_m_source_file>
AV-unprocessed.smi

> <i_m_source_file_index>
2775

> <i_lp_mmshare_version>
43012

> <i_f3d_flags>
0

> <s_epik_input>
W0NIM11jMW5bY0hdW2NIXWMoYzFDbClbTkhdQyg9TylbTkhdW0NAQEhdMltDQEhdKFtDSDJdW0NIMl1PMylbQ0BASF0zQzI0W0NIMl1bQ0gyXVtDSDJdNA==

> <s_epik_cmdline>
J2VwaWtfcHl0aG9uJywgJy1waCcsICc3LjAnLCAnLXRuJywgJzgnLCAnLW1hJywgJzIwMCcsICctbWV0YWxfYmluZGluZycsICctaW1hZScsICc8aW5maWxlLm1hZT4nLCAnLW9tYWUnLCAnPG91dGZpbGUubWFlPic=

> <r_epik_Ionization_Penalty>
2.4104

> <r_epik_Ionization_Penalty_Charging>
2.41038

> <r_epik_Ionization_Penalty_Neutral>
1.9872e-05

> <r_epik_State_Penalty>
2.56896

> <r_epik_Charging_Adjusted_Penalty>
4.97934

> <i_epik_Tot_Q>
1

> <i_epik_Tot_abs_Q>
1

> <r_epik_Metal_State_Penalty>
2.57906

> <b_epik_Metal_Only>
0

> <s_lp_Force_Field>
OPLS_2005

> <r_lp_Energy>
60.4392

> <b_lp_Chiralities_Consistent>
1

> <s_lp_Variant>
AV-unprocessed.smi:2775-11

> <Gold.Version>
5.8.1

> <Gold.Id.Protein>
6NUR|6NUR_protein|mol2

> <Gold.PLP.Fitness>
48.8550

> <Gold.PLP.PLP>
-41.9603

> <Gold.PLP.part.hbond>
-3.4149

> <Gold.PLP.part.metal>
0.0000

> <Gold.PLP.part.buried>
3.7783

> <Gold.PLP.part.nonpolar>
-40.9632

> <Gold.PLP.part.repulsive>
0.2570

> <Gold.PLP.ligand.clash>
0.0000

> <Gold.PLP.ligand.torsion>
0.3806

> <Gold.PLP.Chemscore.Hbond>
2.4875

> <Gold.PLP.Chemscore.CHOScore>
0.0000

> <Gold.PLP.Chemscore.Metal>
0.0000

> <Gold.Chemscore.Hbonds>
donor molecule, donor type, donor heavy atom, donor atom, acceptor molecule, acceptor atom, score
      L1  H     3    43       P1  7948  2.00
      P1  H  7997  8008       L1     9  0.49

> <Gold.PLP.Chemscore.Internal.Correction>
0.1934

> <Gold.Rescore>
     Score         DG    S(hbond)    S(metal)    S(lipo)     H(rot)  DE(clash)    DE(int)     intcor
     19.04     -23.11       1.20        0.00     138.23       1.00       1.50       2.57       ----

> <Gold.Chemscore.Fitness>
19.0432

> <Gold.Chemscore.DG>
-23.1118

> <Gold.Chemscore.ZeroCoef>
-5.4800

> <Gold.Chemscore.Hbond>
1.2033

> <Gold.Chemscore.Metal>
0.0000

> <Gold.Chemscore.Lipo>
138.2296

> <Gold.Chemscore.Internal_Hbond>
0.0000

> <Gold.Chemscore.DEClash>
1.5017

> <Gold.Chemscore.DEInternal>
2.5669

> <Gold.Chemscore.Rot>
1.0000

> <Gold.Chemscore.Internal.Correction>
   9.000000E+99

> <Gold.Chemscore.Hbonds>
donor molecule, donor type, donor heavy atom, donor atom, acceptor molecule, acceptor atom, score
      L1  H     3    43       P1  7948  0.91
      P1  H  7997  8008       L1     9  0.44

> <Gold.Chemscore.Hbond.Weighted>
-4.0189

> <Gold.Chemscore.Metal.Weighted>
-0.0000

> <Gold.Chemscore.Lipo.Weighted>
-16.1729

> <Gold.Chemscore.Internal_Hbond.Weighted>
0.0000

> <Gold.Chemscore.DEClash.Weighted>
1.5017

> <Gold.Chemscore.DEInternal.Weighted>
2.5669

> <Gold.Chemscore.Rot.Weighted>
2.5600

> <Gold.Chemscore.Internal.Correction.Weighted>
   9.000000E+99

> <Gold.Protein.RotatedTorsions>
[ 6907 6896 6895 6894 ] final   14.10 input  -60.11 | X-H torsion
[ 7974 7965 7964 7962 ] final -175.48 input  175.53 | X-H torsion
[ 8008 7997 7996 7995 ] final  -68.75 input   59.86 | X-H torsion
[ 10167 10162 10161 10158 ] final  -71.26 input  -65.29 | X-H torsion
[ 10718 10713 10712 10709 ] final -168.61 input   66.30 | X-H torsion
[ 10763 10752 10751 10750 ] final  -41.94 input  -60.55 | X-H torsion
[ 11005 11000 10999 10996 ] final -142.63 input  -57.11 | X-H torsion

> <Gold.Protein.ActiveResidues>
 VAL166  LYS551  ARG553  GLY616  TRP617  ASP618  TYR619  PRO620  LYS621  CYS622 
 ASP623  PHE694  ASN695  SER759  ASP760  ASP761  ALA762  ILE779  LEU786  VAL792 
 PHE793  MET794  SER795  GLU796  ALA797  LYS798  CYS799  TRP800  GLU811  SER814 

> <Gold.Protein.RotatedAtoms>
  151.7969  135.0720  160.0394 H   0  0  0  0  0  0  0  0  0  0  0  0  # atno 6907 bound_to 6896
  152.3116  133.5755  159.5693 H   0  0  0  0  0  0  0  0  0  0  0  0  # atno 6908 bound_to 6896
  150.7323  134.0059  159.3695 H   0  0  0  0  0  0  0  0  0  0  0  0  # atno 6909 bound_to 6896
  144.7128  140.1314  143.6398 H   0  0  0  0  0  0  0  0  0  0  0  0  # atno 7974 bound_to 7965
  154.4890  140.0867  156.7551 H   0  0  0  0  0  0  0  0  0  0  0  0  # atno 8008 bound_to 7997
  155.4279  140.3448  155.4259 H   0  0  0  0  0  0  0  0  0  0  0  0  # atno 8009 bound_to 7997
  156.1302  140.1499  156.9064 H   0  0  0  0  0  0  0  0  0  0  0  0  # atno 8010 bound_to 7997
  140.5287  143.2324  151.7301 H   0  0  0  0  0  0  0  0  0  0  0  0  # atno 10167 bound_to 10162
  156.6994  130.9190  151.3078 H   0  0  0  0  0  0  0  0  0  0  0  0  # atno 10718 bound_to 10713
  153.9708  135.6728  153.4747 H   0  0  0  0  0  0  0  0  0  0  0  0  # atno 10763 bound_to 10752
  153.0794  135.4931  154.8467 H   0  0  0  0  0  0  0  0  0  0  0  0  # atno 10764 bound_to 10752
  154.7220  135.3119  154.8993 H   0  0  0  0  0  0  0  0  0  0  0  0  # atno 10765 bound_to 10752
  140.8206  134.2636  157.4902 H   0  0  0  0  0  0  0  0  0  0  0  0  # atno 11005 bound_to 11000
  145.9283  139.2590  143.1340 LP  0  0  0  0  0  0  0  0  0  0  0  0  # atno 17320 bound_to 7965
  145.9549  140.8880  143.0240 LP  0  0  0  0  0  0  0  0  0  0  0  0  # atno 17321 bound_to 7965
  139.4947  144.4147  152.0043 LP  0  0  0  0  0  0  0  0  0  0  0  0  # atno 17342 bound_to 10162
  140.3248  144.3386  150.6001 LP  0  0  0  0  0  0  0  0  0  0  0  0  # atno 17343 bound_to 10162
  157.6979  130.9301  150.0697 LP  0  0  0  0  0  0  0  0  0  0  0  0  # atno 17370 bound_to 10713
  156.1740  130.3647  149.9126 LP  0  0  0  0  0  0  0  0  0  0  0  0  # atno 17371 bound_to 10713
  139.8709  134.9533  156.4141 LP  0  0  0  0  0  0  0  0  0  0  0  0  # atno 17394 bound_to 11000
  140.9103  133.7716  155.9784 LP  0  0  0  0  0  0  0  0  0  0  0  0  # atno 17395 bound_to 11000

$$$$
