AV-unprocessed.smi:1514|AV-procd|sdf|6115|dock2
  -GOLD-   22720 6253D 1   1.00000     0.00000
 Structure written by MMmdl.
 48 49  0  0  0  0  0  0  0  0  2 V2000
  150.6634  141.5516  156.0345 C   0  0  0  0  0  0  0  0  0  0  0  0
  151.2519  140.1514  155.8086 C   0  0  0  0  0  0  0  0  0  0  0  0
  150.9483  139.6374  154.4709 N   0  0  0  0  0  0  0  0  0  0  0  0
  151.7254  138.4399  154.1432 C   0  0  0  0  0  0  0  0  0  0  0  0
  151.2569  137.2072  154.9451 C   0  0  0  0  0  0  0  0  0  0  0  0
  149.8189  136.9396  154.7008 N   0  3  0  0  0  0  0  0  0  0  0  0
  149.3464  135.7153  155.3933 C   0  0  0  0  0  0  0  0  0  0  0  0
  147.8491  135.4423  155.1518 C   0  0  0  0  0  0  0  0  0  0  0  0
  147.5644  135.2287  153.7375 N   0  0  0  0  0  0  0  0  0  0  0  0
  146.6332  134.3884  153.2631 C   0  0  0  0  0  0  0  0  0  0  0  0
  145.9207  133.6939  153.9883 O   0  0  0  0  0  0  0  0  0  0  0  0
  146.5940  134.4123  151.9193 N   0  0  0  0  0  0  0  0  0  0  0  0
  145.7935  133.7024  151.0804 C   0  0  0  0  0  0  0  0  0  0  0  0
  145.0360  134.1471  150.0314 C   0  0  0  0  0  0  0  0  0  0  0  0
  144.4321  132.9489  149.5506 C   0  0  0  0  0  0  0  0  0  0  0  0
  143.4819  132.7906  148.4006 C   0  0  0  0  0  0  0  0  0  0  0  0
  144.7929  131.8774  150.2481 N   0  0  0  0  0  0  0  0  0  0  0  0
  145.6365  132.3390  151.1963 N   0  0  0  0  0  0  0  0  0  0  0  0
  146.2305  131.4211  152.1488 C   0  0  0  0  0  0  0  0  0  0  0  0
  149.0162  138.1480  155.0174 C   0  0  0  0  0  0  0  0  0  0  0  0
  149.5294  139.3644  154.2181 C   0  0  0  0  0  0  0  0  0  0  0  0
  151.0140  141.9624  156.9812 H   0  0  0  0  0  0  0  0  0  0  0  0
  149.5748  141.5379  156.0753 H   0  0  0  0  0  0  0  0  0  0  0  0
  150.9658  142.2406  155.2451 H   0  0  0  0  0  0  0  0  0  0  0  0
  152.3355  140.2234  155.9103 H   0  0  0  0  0  0  0  0  0  0  0  0
  150.9141  139.4711  156.5894 H   0  0  0  0  0  0  0  0  0  0  0  0
  151.6251  138.2402  153.0754 H   0  0  0  0  0  0  0  0  0  0  0  0
  152.7851  138.6280  154.3202 H   0  0  0  0  0  0  0  0  0  0  0  0
  151.8435  136.3416  154.6355 H   0  0  0  0  0  0  0  0  0  0  0  0
  151.4379  137.3393  156.0128 H   0  0  0  0  0  0  0  0  0  0  0  0
  149.9096  134.8566  155.0245 H   0  0  0  0  0  0  0  0  0  0  0  0
  149.5674  135.7927  156.4591 H   0  0  0  0  0  0  0  0  0  0  0  0
  147.5028  134.5769  155.7176 H   0  0  0  0  0  0  0  0  0  0  0  0
  147.2568  136.2922  155.4920 H   0  0  0  0  0  0  0  0  0  0  0  0
  148.1059  135.7650  153.0749 H   0  0  0  0  0  0  0  0  0  0  0  0
  147.2436  135.0370  151.4651 H   0  0  0  0  0  0  0  0  0  0  0  0
  144.9184  135.1515  149.6539 H   0  0  0  0  0  0  0  0  0  0  0  0
  143.3795  133.7219  147.8433 H   0  0  0  0  0  0  0  0  0  0  0  0
  142.4902  132.5018  148.7494 H   0  0  0  0  0  0  0  0  0  0  0  0
  143.8284  132.0254  147.7055 H   0  0  0  0  0  0  0  0  0  0  0  0
  145.9481  131.7105  153.1612 H   0  0  0  0  0  0  0  0  0  0  0  0
  147.3165  131.4511  152.0581 H   0  0  0  0  0  0  0  0  0  0  0  0
  145.8889  130.4014  151.9648 H   0  0  0  0  0  0  0  0  0  0  0  0
  147.9718  137.9802  154.7570 H   0  0  0  0  0  0  0  0  0  0  0  0
  149.0373  138.3450  156.0899 H   0  0  0  0  0  0  0  0  0  0  0  0
  148.9249  140.2439  154.4358 H   0  0  0  0  0  0  0  0  0  0  0  0
  149.4022  139.1734  153.1517 H   0  0  0  0  0  0  0  0  0  0  0  0
  149.7262  136.7714  153.7093 H   0  0  0  0  0  0  0  0  0  0  0  0
  1  2  1  0  0  0  0
  1 22  1  0  0  0  0
  1 23  1  0  0  0  0
  1 24  1  0  0  0  0
  2  3  1  0  0  0  0
  2 25  1  0  0  0  0
  2 26  1  0  0  0  0
  3 21  1  0  0  0  0
  3  4  1  0  0  0  0
  4  5  1  0  0  0  0
  4 27  1  0  0  0  0
  4 28  1  0  0  0  0
  5  6  1  0  0  0  0
  5 29  1  0  0  0  0
  5 30  1  0  0  0  0
  6  7  1  0  0  0  0
  6 20  1  0  0  0  0
  6 48  1  0  0  0  0
  7  8  1  0  0  0  0
  7 31  1  0  0  0  0
  7 32  1  0  0  0  0
  8  9  1  0  0  0  0
  8 33  1  0  0  0  0
  8 34  1  0  0  0  0
  9 10  1  0  0  0  0
  9 35  1  0  0  0  0
 10 11  2  0  0  0  0
 10 12  1  0  0  0  0
 12 13  1  0  0  0  0
 12 36  1  0  0  0  0
 13 18  1  0  0  0  0
 13 14  2  0  0  0  0
 14 15  1  0  0  0  0
 14 37  1  0  0  0  0
 15 16  1  0  0  0  0
 15 17  2  0  0  0  0
 16 38  1  0  0  0  0
 16 39  1  0  0  0  0
 16 40  1  0  0  0  0
 17 18  1  0  0  0  0
 18 19  1  0  0  0  0
 19 41  1  0  0  0  0
 19 42  1  0  0  0  0
 19 43  1  0  0  0  0
 20 21  1  0  0  0  0
 20 44  1  0  0  0  0
 20 45  1  0  0  0  0
 21 46  1  0  0  0  0
 21 47  1  0  0  0  0
M  CHG  1   6   1
M  END
> <s_m_source_file>
AV-unprocessed.smi

> <i_m_source_file_index>
1514

> <i_lp_mmshare_version>
43012

> <i_f3d_flags>
0

> <s_epik_input>
W0NIM11bQ0gyXU4xW0NIMl1bQ0gyXU4oW0NIMl1bQ0gyXTEpW0NIMl1bQ0gyXVtOSF1DKD1PKVtOSF1jMltjSF1jKFtDSDNdKW5uMltDSDNd

> <s_epik_cmdline>
J2VwaWtfcHl0aG9uJywgJy1waCcsICc3LjAnLCAnLXRuJywgJzgnLCAnLW1hJywgJzIwMCcsICctbWV0YWxfYmluZGluZycsICctaW1hZScsICc8aW5maWxlLm1hZT4nLCAnLW9tYWUnLCAnPG91dGZpbGUubWFlPic=

> <r_epik_Ionization_Penalty>
0.237948

> <r_epik_Ionization_Penalty_Charging>
0.236594

> <r_epik_Ionization_Penalty_Neutral>
0.00135429

> <r_epik_State_Penalty>
1.1865

> <r_epik_Charging_Adjusted_Penalty>
1.42309

> <i_epik_Tot_Q>
1

> <i_epik_Tot_abs_Q>
1

> <r_epik_Metal_State_Penalty>
1.18651

> <b_epik_Metal_Only>
0

> <s_lp_Force_Field>
OPLS_2005

> <r_lp_Energy>
18.1448

> <b_lp_Chiralities_Consistent>
1

> <s_lp_Variant>
AV-unprocessed.smi:1514-2

> <Gold.Version>
5.8.1

> <Gold.Id.Protein>
6NUR|6NUR_protein|mol2

> <Gold.PLP.Fitness>
48.1478

> <Gold.PLP.PLP>
-35.1656

> <Gold.PLP.part.hbond>
-4.0000

> <Gold.PLP.part.metal>
0.0000

> <Gold.PLP.part.buried>
-1.0774

> <Gold.PLP.part.nonpolar>
-29.4421

> <Gold.PLP.part.repulsive>
0.3931

> <Gold.PLP.ligand.clash>
0.0000

> <Gold.PLP.ligand.torsion>
0.6671

> <Gold.PLP.Chemscore.Hbond>
4.7547

> <Gold.PLP.Chemscore.CHOScore>
0.0000

> <Gold.PLP.Chemscore.Metal>
0.0000

> <Gold.Chemscore.Hbonds>
donor molecule, donor type, donor heavy atom, donor atom, acceptor molecule, acceptor atom, score
      L1  H     6    48       P1  7948  1.95
      L1  H     9    35       P1  7948  1.00
      L1  H    12    36       P1  7948  0.76
      P1  H  7989  7998       L1     3  1.00

> <Gold.PLP.Chemscore.Internal.Correction>
0.0524

> <Gold.Rescore>
     Score         DG    S(hbond)    S(metal)    S(lipo)     H(rot)  DE(clash)    DE(int)     intcor
     16.29     -18.62       2.30        0.00      83.78       1.69       0.83       1.50       ----

> <Gold.Chemscore.Fitness>
16.2885

> <Gold.Chemscore.DG>
-18.6197

> <Gold.Chemscore.ZeroCoef>
-5.4800

> <Gold.Chemscore.Hbond>
2.2955

> <Gold.Chemscore.Metal>
0.0000

> <Gold.Chemscore.Lipo>
83.7832

> <Gold.Chemscore.Internal_Hbond>
0.0000

> <Gold.Chemscore.DEClash>
0.8287

> <Gold.Chemscore.DEInternal>
1.5025

> <Gold.Chemscore.Rot>
1.6914

> <Gold.Chemscore.Internal.Correction>
   9.000000E+99

> <Gold.Chemscore.Hbonds>
donor molecule, donor type, donor heavy atom, donor atom, acceptor molecule, acceptor atom, score
      L1  H     6    48       P1  7948  0.55
      L1  H     9    35       P1  7948  0.94
      L1  H    12    36       P1  7948  0.55
      P1  H  7989  7998       L1     3  0.12

> <Gold.Chemscore.Hbond.Weighted>
-7.6670

> <Gold.Chemscore.Metal.Weighted>
-0.0000

> <Gold.Chemscore.Lipo.Weighted>
-9.8026

> <Gold.Chemscore.Internal_Hbond.Weighted>
0.0000

> <Gold.Chemscore.DEClash.Weighted>
0.8287

> <Gold.Chemscore.DEInternal.Weighted>
1.5025

> <Gold.Chemscore.Rot.Weighted>
4.3299

> <Gold.Chemscore.Internal.Correction.Weighted>
   9.000000E+99

> <Gold.Protein.RotatedTorsions>
[ 6907 6896 6895 6894 ] final   50.86 input  -60.11 | X-H torsion
[ 7974 7965 7964 7962 ] final   29.16 input  175.53 | X-H torsion
[ 8008 7997 7996 7995 ] final   65.19 input   59.86 | X-H torsion
[ 10167 10162 10161 10158 ] final  119.52 input  -65.29 | X-H torsion
[ 10718 10713 10712 10709 ] final  -65.57 input   66.30 | X-H torsion
[ 10763 10752 10751 10750 ] final  -10.61 input  -60.55 | X-H torsion
[ 11005 11000 10999 10996 ] final -176.81 input  -57.11 | X-H torsion

> <Gold.Protein.ActiveResidues>
 VAL166  LYS551  ARG553  GLY616  TRP617  ASP618  TYR619  PRO620  LYS621  CYS622 
 ASP623  PHE694  ASN695  SER759  ASP760  ASP761  ALA762  ILE779  LEU786  VAL792 
 PHE793  MET794  SER795  GLU796  ALA797  LYS798  CYS799  TRP800  GLU811  SER814 

> <Gold.Protein.RotatedAtoms>
  152.3064  134.7549  160.0346 H   0  0  0  0  0  0  0  0  0  0  0  0  # atno 6907 bound_to 6896
  151.8045  133.3369  159.3545 H   0  0  0  0  0  0  0  0  0  0  0  0  # atno 6908 bound_to 6896
  150.7299  134.5652  159.5907 H   0  0  0  0  0  0  0  0  0  0  0  0  # atno 6909 bound_to 6896
  146.1687  139.6959  142.8982 H   0  0  0  0  0  0  0  0  0  0  0  0  # atno 7974 bound_to 7965
  155.6578  140.3497  155.4771 H   0  0  0  0  0  0  0  0  0  0  0  0  # atno 8008 bound_to 7997
  155.9794  140.1171  157.0764 H   0  0  0  0  0  0  0  0  0  0  0  0  # atno 8009 bound_to 7997
  154.4187  140.1141  156.5400 H   0  0  0  0  0  0  0  0  0  0  0  0  # atno 8010 bound_to 7997
  139.6040  144.7065  151.2995 H   0  0  0  0  0  0  0  0  0  0  0  0  # atno 10167 bound_to 10162
  156.0662  130.4249  150.1583 H   0  0  0  0  0  0  0  0  0  0  0  0  # atno 10718 bound_to 10713
  153.4717  135.7017  153.5990 H   0  0  0  0  0  0  0  0  0  0  0  0  # atno 10763 bound_to 10752
  153.4241  135.3818  155.2130 H   0  0  0  0  0  0  0  0  0  0  0  0  # atno 10764 bound_to 10752
  154.8725  135.3935  154.4155 H   0  0  0  0  0  0  0  0  0  0  0  0  # atno 10765 bound_to 10752
  140.4479  134.6370  157.4788 H   0  0  0  0  0  0  0  0  0  0  0  0  # atno 11005 bound_to 11000
  145.4397  141.0421  143.2864 LP  0  0  0  0  0  0  0  0  0  0  0  0  # atno 17320 bound_to 7965
  144.8131  139.5925  143.7020 LP  0  0  0  0  0  0  0  0  0  0  0  0  # atno 17321 bound_to 7965
  140.7271  143.6971  150.7875 LP  0  0  0  0  0  0  0  0  0  0  0  0  # atno 17342 bound_to 10162
  140.0553  143.5208  152.2654 LP  0  0  0  0  0  0  0  0  0  0  0  0  # atno 17343 bound_to 10162
  156.9642  130.9814  151.3472 LP  0  0  0  0  0  0  0  0  0  0  0  0  # atno 17370 bound_to 10713
  157.5705  130.8307  149.8385 LP  0  0  0  0  0  0  0  0  0  0  0  0  # atno 17371 bound_to 10713
  140.0026  134.6813  155.9506 LP  0  0  0  0  0  0  0  0  0  0  0  0  # atno 17394 bound_to 11000
  141.1677  133.6537  156.4538 LP  0  0  0  0  0  0  0  0  0  0  0  0  # atno 17395 bound_to 11000

$$$$
