#       Name:                AV-unprocessed.smi:3068
#       Creating user name   scv26
#       Creation time:       Fri Mar 27 17:11:15 2020


#       File generated by GOLD software.
#

@<TRIPOS>MOLECULE
AV-unprocessed.smi:3068
    45    47     1
SMALL
NO_CHARGES


@<TRIPOS>ATOM
      1 ****        -2.6630  -5.1952  -0.7783 N.1            1 S1                 0.0000
      2 ****        -3.1826  -4.1624  -0.7283 C.1            1 S1                 0.0000
      3 ****        -3.8367  -2.8614  -0.6656 C.ar           1 S1                 0.0000
      4 ****        -5.1719  -2.8635  -0.4450 N.ar           1 S1                 0.0000
      5 ****        -5.7904  -1.6652  -0.3838 C.ar           1 S1                 0.0000
      6 ****        -5.0799  -0.4598  -0.5425 C.ar           1 S1                 0.0000
      7 ****        -3.7487  -0.4485  -0.7642 N.ar           1 S1                 0.0000
      8 ****        -3.1133  -1.6457  -0.8261 C.ar           1 S1                 0.0000
      9 ****        -1.7254  -1.6509  -1.0596 N.pl3          1 S1                 0.0000
     10 ****        -0.9327  -0.4281  -1.0041 C.3            1 S1                 0.0000
     11 ****        -0.6571   0.0310   0.4440 C.3            1 S1                 0.0000
     12 ****         0.0391   1.4034   0.5124 C.3            1 S1                 0.0000
     13 ****         1.4347   1.3513   0.0940 N.3            1 S1                 0.0000
     14 ****         2.0625   2.6684   0.1925 C.3            1 S1                 0.0000
     15 ****         3.5270   2.6574  -0.2719 C.3            1 S1                 0.0000
     16 ****         4.3311   1.6270   0.5329 C.3            1 S1                 0.0000
     17 ****         3.6414   0.2558   0.4685 C.3            1 S1                 0.0000
     18 ****         2.1606   0.3587   0.8912 C.3            1 S1                 0.0000
     19 ****         1.4808  -1.0220   0.8046 C.3            1 S1                 0.0000
     20 ****         0.1080  -0.9281   1.1769 O.3            1 S1                 0.0000
     21 ****        -6.8559  -1.6677  -0.2081 H              1 S1                 0.0000
     22 ****        -5.5799   0.4961  -0.4921 H              1 S1                 0.0000
     23 ****        -1.2339  -2.5333  -1.0655 H              1 S1                 0.0000
     24 ****         0.0005  -0.5998  -1.5392 H              1 S1                 0.0000
     25 ****        -1.4427   0.3616  -1.5565 H              1 S1                 0.0000
     26 ****        -1.6138   0.1271   0.9579 H              1 S1                 0.0000
     27 ****        -0.5069   2.1214  -0.1007 H              1 S1                 0.0000
     28 ****        -0.0167   1.7724   1.5378 H              1 S1                 0.0000
     29 ****         1.5047   3.3858  -0.4106 H              1 S1                 0.0000
     30 ****         2.0119   3.0265   1.2219 H              1 S1                 0.0000
     31 ****         3.5726   2.4141  -1.3342 H              1 S1                 0.0000
     32 ****         3.9656   3.6491  -0.1589 H              1 S1                 0.0000
     33 ****         5.3502   1.5582   0.1512 H              1 S1                 0.0000
     34 ****         4.4061   1.9506   1.5719 H              1 S1                 0.0000
     35 ****         3.7087  -0.1358  -0.5476 H              1 S1                 0.0000
     36 ****         4.1686  -0.4521   1.1089 H              1 S1                 0.0000
     37 ****         2.1353   0.6709   1.9369 H              1 S1                 0.0000
     38 ****         1.5706  -1.4394  -0.1987 H              1 S1                 0.0000
     39 ****         1.9708  -1.7264   1.4771 H              1 S1                 0.0000
     40 ****        -2.2140  -6.0877  -0.8215 LP             1 S1                 0.0000
     41 ****        -5.6795  -3.7177  -0.3319 LP             1 S1                 0.0000
     42 ****        -3.2492   0.4102  -0.8786 LP             1 S1                 0.0000
     43 ****         1.4696   1.0743  -0.8662 LP             1 S1                 0.0000
     44 ****        -0.3111  -1.8261   1.0425 LP             1 S1                 0.0000
     45 ****         0.0662  -0.6824   2.1454 LP             1 S1                 0.0000
@<TRIPOS>BOND
    1    1    2 3     
    2    2    3 1     
    3    3    8 ar    
    4    3    4 ar    
    5    4    5 ar    
    6    5    6 ar    
    7    5   21 1     
    8    6    7 ar    
    9    6   22 1     
   10    7    8 ar    
   11    8    9 1     
   12    9   10 1     
   13    9   23 1     
   14   10   11 1     
   15   10   24 1     
   16   10   25 1     
   17   11   20 1     
   18   11   12 1     
   19   11   26 1     
   20   12   13 1     
   21   12   27 1     
   22   12   28 1     
   23   13   18 1     
   24   13   14 1     
   25   14   15 1     
   26   14   29 1     
   27   14   30 1     
   28   15   16 1     
   29   15   31 1     
   30   15   32 1     
   31   16   17 1     
   32   16   33 1     
   33   16   34 1     
   34   17   18 1     
   35   17   35 1     
   36   17   36 1     
   37   18   19 1     
   38   18   37 1     
   39   19   20 1     
   40   19   38 1     
   41   19   39 1     
   42    1   40 1     
   43    4   41 1     
   44    7   42 1     
   45   13   43 1     
   46   20   44 1     
   47   20   45 1     
@<TRIPOS>SUBSTRUCTURE
      1 S1             1
@<TRIPOS>SET
LONE_PAIRS      STATIC     ATOMS    <user>   **** ""
6 40 41 42 43 44 45
DONOR_HYDROGENS      STATIC     ATOMS    <user>   **** ""
1 23
ATOM$BLUE        STATIC     ATOMS    COLORGROUP SYSTEM
6 40 41 42 43 44 45
ATOM$RED        STATIC     ATOMS    COLORGROUP SYSTEM
1 23
