AV-unprocessed.smi:2415|AV-procd|sdf|9542|dock3
  -GOLD-   2272013173D 1   1.00000     0.00000
 Structure written by MMmdl.
 33 34  0  0  0  0  0  0  0  0  1 V2000
  154.8735  139.7857  160.2161 C   0  0  0  0  0  0  0  0  0  0  0  0
  153.7970  140.6444  159.5878 C   0  0  0  0  0  0  0  0  0  0  0  0
  153.4861  141.9242  160.0917 C   0  0  0  0  0  0  0  0  0  0  0  0
  152.4653  142.6238  159.4164 C   0  0  0  0  0  0  0  0  0  0  0  0
  152.0326  144.0077  159.8505 C   0  0  0  0  0  0  0  0  0  0  0  0
  151.8261  142.0962  158.3500 N   0  0  0  0  0  0  0  0  0  0  0  0
  152.1909  140.8664  157.9616 C   0  0  0  0  0  0  0  0  0  0  0  0
  151.5479  140.3094  156.8572 N   0  0  0  0  0  0  0  0  0  0  0  0
  152.4517  139.7048  155.8788 C   0  0  0  0  0  0  0  0  0  0  0  0
  151.6889  138.8091  154.8942 C   0  0  0  0  0  0  0  0  0  0  0  0
  150.6736  139.5762  154.2654 O   0  0  0  0  0  0  0  0  0  0  0  0
  149.7167  140.0346  155.2107 C   0  0  0  0  0  0  0  0  0  0  0  0
  150.3755  140.9680  156.2549 C   0  0  1  0  0  0  0  0  0  0  0  0
  149.2833  141.3923  157.2555 C   0  0  0  0  0  0  0  0  0  0  0  0
  148.9456  142.6842  157.2734 N   0  0  0  0  0  0  0  0  0  0  0  0
  148.7438  140.5661  157.9899 O   0  0  0  0  0  0  0  0  0  0  0  0
  153.1505  140.1218  158.5229 N   0  0  0  0  0  0  0  0  0  0  0  0
  155.4122  140.3338  160.9894 H   0  0  0  0  0  0  0  0  0  0  0  0
  155.5931  139.4649  159.4624 H   0  0  0  0  0  0  0  0  0  0  0  0
  154.4316  138.8987  160.6707 H   0  0  0  0  0  0  0  0  0  0  0  0
  153.9997  142.3441  160.9442 H   0  0  0  0  0  0  0  0  0  0  0  0
  152.4464  144.2597  160.8272 H   0  0  0  0  0  0  0  0  0  0  0  0
  150.9456  144.0647  159.9167 H   0  0  0  0  0  0  0  0  0  0  0  0
  152.3738  144.7522  159.1309 H   0  0  0  0  0  0  0  0  0  0  0  0
  152.9668  140.4994  155.3368 H   0  0  0  0  0  0  0  0  0  0  0  0
  153.2223  139.1117  156.3728 H   0  0  0  0  0  0  0  0  0  0  0  0
  152.3672  138.4258  154.1319 H   0  0  0  0  0  0  0  0  0  0  0  0
  151.2567  137.9449  155.4015 H   0  0  0  0  0  0  0  0  0  0  0  0
  148.9328  140.5652  154.6688 H   0  0  0  0  0  0  0  0  0  0  0  0
  149.2401  139.1767  155.6897 H   0  0  0  0  0  0  0  0  0  0  0  0
  150.7365  141.8588  155.7371 H   0  0  0  0  0  0  0  0  0  0  0  0
  148.2296  143.0092  157.9066 H   0  0  0  0  0  0  0  0  0  0  0  0
  149.4038  143.3299  156.6469 H   0  0  0  0  0  0  0  0  0  0  0  0
  1  2  1  0  0  0  0
  1 18  1  0  0  0  0
  1 19  1  0  0  0  0
  1 20  1  0  0  0  0
  2 17  1  0  0  0  0
  2  3  2  0  0  0  0
  3  4  1  0  0  0  0
  3 21  1  0  0  0  0
  4  5  1  0  0  0  0
  4  6  2  0  0  0  0
  5 22  1  0  0  0  0
  5 23  1  0  0  0  0
  5 24  1  0  0  0  0
  6  7  1  0  0  0  0
  7  8  1  0  0  0  0
  7 17  2  0  0  0  0
  8 13  1  0  0  0  0
  8  9  1  0  0  0  0
  9 10  1  0  0  0  0
  9 25  1  0  0  0  0
  9 26  1  0  0  0  0
 10 11  1  0  0  0  0
 10 27  1  0  0  0  0
 10 28  1  0  0  0  0
 11 12  1  0  0  0  0
 12 13  1  0  0  0  0
 12 29  1  0  0  0  0
 12 30  1  0  0  0  0
 13 14  1  0  0  0  0
 13 31  1  0  0  0  0
 14 15  1  0  0  0  0
 14 16  2  0  0  0  0
 15 32  1  0  0  0  0
 15 33  1  0  0  0  0
M  END
> <s_m_source_file>
AV-unprocessed.smi

> <i_m_source_file_index>
2415

> <i_lp_mmshare_version>
43012

> <i_f3d_flags>
0

> <s_epik_input>
W0NIM11jMVtjSF1jKFtDSDNdKW5jKG4xKU4yW0NIMl1bQ0gyXU9bQ0gyXVtDQEhdMkMoPU8pW05IMl0=

> <s_epik_cmdline>
J2VwaWtfcHl0aG9uJywgJy1waCcsICc3LjAnLCAnLXRuJywgJzgnLCAnLW1hJywgJzIwMCcsICctbWV0YWxfYmluZGluZycsICctaW1hZScsICc8aW5maWxlLm1hZT4nLCAnLW9tYWUnLCAnPG91dGZpbGUubWFlPic=

> <r_lp_tautomer_probability>
1

> <r_epik_Ionization_Penalty>
2.01639e-05

> <r_epik_Ionization_Penalty_Charging>
0

> <r_epik_Ionization_Penalty_Neutral>
2.01639e-05

> <r_epik_State_Penalty>
-0

> <r_epik_Charging_Adjusted_Penalty>
0

> <i_epik_Tot_Q>
0

> <i_epik_Tot_abs_Q>
0

> <r_epik_Metal_State_Penalty>
-0

> <b_epik_Metal_Only>
0

> <s_lp_Force_Field>
OPLS_2005

> <r_lp_Energy>
9.24332

> <b_lp_Chiralities_Consistent>
1

> <s_lp_Variant>
AV-unprocessed.smi:2415-1

> <Gold.Version>
5.8.1

> <Gold.Id.Protein>
6NUR|6NUR_protein|mol2

> <Gold.PLP.Fitness>
39.1506

> <Gold.PLP.PLP>
-30.8755

> <Gold.PLP.part.hbond>
-3.2186

> <Gold.PLP.part.metal>
0.0000

> <Gold.PLP.part.buried>
-2.1749

> <Gold.PLP.part.nonpolar>
-25.1935

> <Gold.PLP.part.repulsive>
0.2041

> <Gold.PLP.ligand.clash>
0.0000

> <Gold.PLP.ligand.torsion>
0.2569

> <Gold.PLP.Chemscore.Hbond>
2.7833

> <Gold.PLP.Chemscore.CHOScore>
0.0000

> <Gold.PLP.Chemscore.Metal>
0.0000

> <Gold.Chemscore.Hbonds>
donor molecule, donor type, donor heavy atom, donor atom, acceptor molecule, acceptor atom, score
      L1  H    15    33       P1  8028  0.70
      P1  H  7989  7998       L1    11  1.00
      P1  H  7997  8010       L1    17  0.89

> <Gold.PLP.Chemscore.Internal.Correction>
0.4389

> <Gold.Rescore>
     Score         DG    S(hbond)    S(metal)    S(lipo)     H(rot)  DE(clash)    DE(int)     intcor
     14.25     -17.53       2.07        0.00      75.59       1.44       1.36       1.92       ----

> <Gold.Chemscore.Fitness>
14.2541

> <Gold.Chemscore.DG>
-17.5303

> <Gold.Chemscore.ZeroCoef>
-5.4800

> <Gold.Chemscore.Hbond>
2.0651

> <Gold.Chemscore.Metal>
0.0000

> <Gold.Chemscore.Lipo>
75.5903

> <Gold.Chemscore.Internal_Hbond>
0.0000

> <Gold.Chemscore.DEClash>
1.3588

> <Gold.Chemscore.DEInternal>
1.9174

> <Gold.Chemscore.Rot>
1.4419

> <Gold.Chemscore.Internal.Correction>
   9.000000E+99

> <Gold.Chemscore.Hbonds>
donor molecule, donor type, donor heavy atom, donor atom, acceptor molecule, acceptor atom, score
      L1  H    15    33       P1  8028  0.70
      P1  H  7989  7998       L1    11  0.31
      P1  H  7997  8010       L1    17  0.14

> <Gold.Chemscore.Hbond.Weighted>
-6.8974

> <Gold.Chemscore.Metal.Weighted>
-0.0000

> <Gold.Chemscore.Lipo.Weighted>
-8.8441

> <Gold.Chemscore.Internal_Hbond.Weighted>
0.0000

> <Gold.Chemscore.DEClash.Weighted>
1.3588

> <Gold.Chemscore.DEInternal.Weighted>
1.9174

> <Gold.Chemscore.Rot.Weighted>
3.6912

> <Gold.Chemscore.Internal.Correction.Weighted>
   9.000000E+99

> <Gold.Protein.RotatedTorsions>
[ 6907 6896 6895 6894 ] final  -23.98 input  -60.11 | X-H torsion
[ 7974 7965 7964 7962 ] final  142.08 input  175.53 | X-H torsion
[ 8008 7997 7996 7995 ] final   28.43 input   59.86 | X-H torsion
[ 10167 10162 10161 10158 ] final -122.29 input  -65.29 | X-H torsion
[ 10718 10713 10712 10709 ] final  142.27 input   66.30 | X-H torsion
[ 10763 10752 10751 10750 ] final   12.80 input  -60.55 | X-H torsion
[ 11005 11000 10999 10996 ] final   60.77 input  -57.11 | X-H torsion

> <Gold.Protein.ActiveResidues>
 VAL166  LYS551  ARG553  GLY616  TRP617  ASP618  TYR619  PRO620  LYS621  CYS622 
 ASP623  PHE694  ASN695  SER759  ASP760  ASP761  ALA762  ILE779  LEU786  VAL792 
 PHE793  MET794  SER795  GLU796  ALA797  LYS798  CYS799  TRP800  GLU811  SER814 

> <Gold.Protein.RotatedAtoms>
  151.1961  135.0423  159.8852 H   0  0  0  0  0  0  0  0  0  0  0  0  # atno 6907 bound_to 6896
  152.5436  134.0902  159.8283 H   0  0  0  0  0  0  0  0  0  0  0  0  # atno 6908 bound_to 6896
  151.1037  133.5177  159.2641 H   0  0  0  0  0  0  0  0  0  0  0  0  # atno 6909 bound_to 6896
  144.9040  139.5384  143.5740 H   0  0  0  0  0  0  0  0  0  0  0  0  # atno 7974 bound_to 7965
  155.0586  140.3187  155.4668 H   0  0  0  0  0  0  0  0  0  0  0  0  # atno 8008 bound_to 7997
  156.2818  140.2133  156.5657 H   0  0  0  0  0  0  0  0  0  0  0  0  # atno 8009 bound_to 7997
  154.7151  140.0494  157.0574 H   0  0  0  0  0  0  0  0  0  0  0  0  # atno 8010 bound_to 7997
  140.0159  143.5394  152.2242 H   0  0  0  0  0  0  0  0  0  0  0  0  # atno 10167 bound_to 10162
  157.3825  131.0994  151.0725 H   0  0  0  0  0  0  0  0  0  0  0  0  # atno 10718 bound_to 10713
  153.1786  135.6824  153.8509 H   0  0  0  0  0  0  0  0  0  0  0  0  # atno 10763 bound_to 10752
  153.7849  135.3177  155.3372 H   0  0  0  0  0  0  0  0  0  0  0  0  # atno 10764 bound_to 10752
  154.8045  135.4757  154.0452 H   0  0  0  0  0  0  0  0  0  0  0  0  # atno 10765 bound_to 10752
  140.0208  134.6156  155.9643 H   0  0  0  0  0  0  0  0  0  0  0  0  # atno 11005 bound_to 11000
  146.3123  139.7792  142.9010 LP  0  0  0  0  0  0  0  0  0  0  0  0  # atno 17320 bound_to 7965
  145.3568  141.0318  143.3307 LP  0  0  0  0  0  0  0  0  0  0  0  0  # atno 17321 bound_to 7965
  139.6173  144.7622  151.2818 LP  0  0  0  0  0  0  0  0  0  0  0  0  # atno 17342 bound_to 10162
  140.7362  143.6713  150.8079 LP  0  0  0  0  0  0  0  0  0  0  0  0  # atno 17343 bound_to 10162
  157.1788  130.6300  149.5665 LP  0  0  0  0  0  0  0  0  0  0  0  0  # atno 17370 bound_to 10713
  155.9779  130.4760  150.6622 LP  0  0  0  0  0  0  0  0  0  0  0  0  # atno 17371 bound_to 10713
  141.1772  133.6542  156.4876 LP  0  0  0  0  0  0  0  0  0  0  0  0  # atno 17394 bound_to 11000
  140.4391  134.7032  157.4982 LP  0  0  0  0  0  0  0  0  0  0  0  0  # atno 17395 bound_to 11000

$$$$
