AV-unprocessed.smi:1322|AV-procd|sdf|5464|dock3
  -GOLD-   22720 5 33D 1   1.00000     0.00000
 Structure written by MMmdl.
 32 33  0  0  0  0  0  0  0  0  1 V2000
  149.0639  141.8184  157.4865 C   0  0  0  0  0  0  0  0  0  0  0  0
  150.4426  141.1325  157.4967 C   0  0  1  0  0  0  0  0  0  0  0  0
  151.1493  141.1676  156.1271 C   0  0  0  0  0  0  0  0  0  0  0  0
  151.3637  139.8433  155.5713 N   0  0  0  0  0  0  0  0  0  0  0  0
  152.0146  138.7716  156.1453 C   0  0  0  0  0  0  0  0  0  0  0  0
  151.9659  137.7404  155.2516 C   0  0  0  0  0  0  0  0  0  0  0  0
  151.2576  138.2861  154.1446 C   0  0  0  0  0  0  0  0  0  0  0  0
  150.9006  139.5456  154.3379 N   0  0  0  0  0  0  0  0  0  0  0  0
  151.3069  141.7559  158.4954 N   0  0  0  0  0  0  0  0  0  0  0  0
  152.5295  141.3274  158.8451 C   0  0  0  0  0  0  0  0  0  0  0  0
  153.0644  140.3341  158.3507 O   0  0  0  0  0  0  0  0  0  0  0  0
  153.2496  142.1547  159.9181 C   0  0  0  0  0  0  0  0  0  0  0  0
  153.4941  141.4129  161.2443 C   0  0  0  0  0  0  0  0  0  0  0  0
  153.0347  142.6717  161.9858 C   0  0  0  0  0  0  0  0  0  0  0  0
  152.3399  143.1210  160.6971 C   0  0  0  0  0  0  0  0  0  0  0  0
  148.3772  141.3254  156.7984 H   0  0  0  0  0  0  0  0  0  0  0  0
  149.1442  142.8633  157.1850 H   0  0  0  0  0  0  0  0  0  0  0  0
  148.6018  141.7915  158.4738 H   0  0  0  0  0  0  0  0  0  0  0  0
  150.2984  140.0843  157.7662 H   0  0  0  0  0  0  0  0  0  0  0  0
  150.5711  141.7607  155.4162 H   0  0  0  0  0  0  0  0  0  0  0  0
  152.1215  141.6541  156.2186 H   0  0  0  0  0  0  0  0  0  0  0  0
  152.4509  138.8318  157.1315 H   0  0  0  0  0  0  0  0  0  0  0  0
  152.3742  136.7478  155.3705 H   0  0  0  0  0  0  0  0  0  0  0  0
  150.9946  137.8079  153.2126 H   0  0  0  0  0  0  0  0  0  0  0  0
  150.9471  142.5793  158.9561 H   0  0  0  0  0  0  0  0  0  0  0  0
  154.1533  142.6484  159.5547 H   0  0  0  0  0  0  0  0  0  0  0  0
  152.8329  140.5610  161.4129 H   0  0  0  0  0  0  0  0  0  0  0  0
  154.5360  141.1476  161.4254 H   0  0  0  0  0  0  0  0  0  0  0  0
  152.3629  142.4864  162.8243 H   0  0  0  0  0  0  0  0  0  0  0  0
  153.8647  143.3220  162.2665 H   0  0  0  0  0  0  0  0  0  0  0  0
  152.4916  144.1733  160.4558 H   0  0  0  0  0  0  0  0  0  0  0  0
  151.2808  142.8575  160.6761 H   0  0  0  0  0  0  0  0  0  0  0  0
  1  2  1  0  0  0  0
  1 16  1  0  0  0  0
  1 17  1  0  0  0  0
  1 18  1  0  0  0  0
  2  3  1  0  0  0  0
  2  9  1  0  0  0  0
  2 19  1  0  0  0  0
  3  4  1  0  0  0  0
  3 20  1  0  0  0  0
  3 21  1  0  0  0  0
  4  8  1  0  0  0  0
  4  5  1  0  0  0  0
  5  6  2  0  0  0  0
  5 22  1  0  0  0  0
  6  7  1  0  0  0  0
  6 23  1  0  0  0  0
  7  8  2  0  0  0  0
  7 24  1  0  0  0  0
  9 10  1  0  0  0  0
  9 25  1  0  0  0  0
 10 11  2  0  0  0  0
 10 12  1  0  0  0  0
 12 15  1  0  0  0  0
 12 13  1  0  0  0  0
 12 26  1  0  0  0  0
 13 14  1  0  0  0  0
 13 27  1  0  0  0  0
 13 28  1  0  0  0  0
 14 15  1  0  0  0  0
 14 29  1  0  0  0  0
 14 30  1  0  0  0  0
 15 31  1  0  0  0  0
 15 32  1  0  0  0  0
M  END
> <s_m_source_file>
AV-unprocessed.smi

> <i_m_source_file_index>
1322

> <i_lp_mmshare_version>
43012

> <i_f3d_flags>
0

> <s_epik_input>
W0NIMl0xW0NIMl1bQ0gyXVtDSF0xQyg9TylbTkhdW0NASF0oW0NIM10pW0NIMl1uMltjSF1bY0hdW2NIXW4y

> <s_epik_cmdline>
J2VwaWtfcHl0aG9uJywgJy1waCcsICc3LjAnLCAnLXRuJywgJzgnLCAnLW1hJywgJzIwMCcsICctbWV0YWxfYmluZGluZycsICctaW1hZScsICc8aW5maWxlLm1hZT4nLCAnLW9tYWUnLCAnPG91dGZpbGUubWFlPic=

> <r_lp_tautomer_probability>
1

> <r_epik_Ionization_Penalty>
0.000326653

> <r_epik_Ionization_Penalty_Charging>
0

> <r_epik_Ionization_Penalty_Neutral>
0.000326653

> <r_epik_State_Penalty>
-0

> <r_epik_Charging_Adjusted_Penalty>
0

> <i_epik_Tot_Q>
0

> <i_epik_Tot_abs_Q>
0

> <r_epik_Metal_State_Penalty>
-0

> <b_epik_Metal_Only>
0

> <s_lp_Force_Field>
OPLS_2005

> <r_lp_Energy>
10.775

> <b_lp_Chiralities_Consistent>
1

> <s_lp_Variant>
AV-unprocessed.smi:1322-2

> <Gold.Version>
5.8.1

> <Gold.Id.Protein>
6NUR|6NUR_protein|mol2

> <Gold.PLP.Fitness>
42.1866

> <Gold.PLP.PLP>
-35.1162

> <Gold.PLP.part.hbond>
-2.0000

> <Gold.PLP.part.metal>
0.0000

> <Gold.PLP.part.buried>
-3.6418

> <Gold.PLP.part.nonpolar>
-28.8471

> <Gold.PLP.part.repulsive>
0.2400

> <Gold.PLP.ligand.clash>
0.0000

> <Gold.PLP.ligand.torsion>
1.0121

> <Gold.PLP.Chemscore.Hbond>
1.8120

> <Gold.PLP.Chemscore.CHOScore>
1.0801

> <Gold.PLP.Chemscore.Metal>
0.0000

> <Gold.Chemscore.Hbonds>
donor molecule, donor type, donor heavy atom, donor atom, acceptor molecule, acceptor atom, score
      P1  H  7989  7998       L1     8  0.90
      P1  H  7997  8009       L1    11  0.89
      L1  C     7    24       P1  7948  0.06
      L1  C     7    24       P1  7949  1.00

> <Gold.PLP.Chemscore.Internal.Correction>
0.4184

> <Gold.Rescore>
     Score         DG    S(hbond)    S(metal)    S(lipo)     H(rot)  DE(clash)    DE(int)     intcor
     13.22     -14.37       0.92        0.00      83.53       1.55       0.15       1.00       ----

> <Gold.Chemscore.Fitness>
13.2226

> <Gold.Chemscore.DG>
-14.3724

> <Gold.Chemscore.ZeroCoef>
-5.4800

> <Gold.Chemscore.Hbond>
0.9220

> <Gold.Chemscore.Metal>
0.0000

> <Gold.Chemscore.Lipo>
83.5346

> <Gold.Chemscore.Internal_Hbond>
0.0000

> <Gold.Chemscore.DEClash>
0.1540

> <Gold.Chemscore.DEInternal>
0.9957

> <Gold.Chemscore.Rot>
1.5471

> <Gold.Chemscore.Internal.Correction>
   9.000000E+99

> <Gold.Chemscore.Hbonds>
donor molecule, donor type, donor heavy atom, donor atom, acceptor molecule, acceptor atom, score
      P1  H  7989  7998       L1     8  0.18
      P1  H  7997  8009       L1    11  0.81

> <Gold.Chemscore.Hbond.Weighted>
-3.0794

> <Gold.Chemscore.Metal.Weighted>
-0.0000

> <Gold.Chemscore.Lipo.Weighted>
-9.7736

> <Gold.Chemscore.Internal_Hbond.Weighted>
0.0000

> <Gold.Chemscore.DEClash.Weighted>
0.1540

> <Gold.Chemscore.DEInternal.Weighted>
0.9957

> <Gold.Chemscore.Rot.Weighted>
3.9606

> <Gold.Chemscore.Internal.Correction.Weighted>
   9.000000E+99

> <Gold.Protein.RotatedTorsions>
[ 6907 6896 6895 6894 ] final -117.97 input  -60.11 | X-H torsion
[ 7974 7965 7964 7962 ] final  -66.37 input  175.53 | X-H torsion
[ 8008 7997 7996 7995 ] final  157.26 input   59.86 | X-H torsion
[ 10167 10162 10161 10158 ] final -136.09 input  -65.29 | X-H torsion
[ 10718 10713 10712 10709 ] final -179.00 input   66.30 | X-H torsion
[ 10763 10752 10751 10750 ] final -101.70 input  -60.55 | X-H torsion
[ 11005 11000 10999 10996 ] final -165.44 input  -57.11 | X-H torsion

> <Gold.Protein.ActiveResidues>
 VAL166  LYS551  ARG553  GLY616  TRP617  ASP618  TYR619  PRO620  LYS621  CYS622 
 ASP623  PHE694  ASN695  SER759  ASP760  ASP761  ALA762  ILE779  LEU786  VAL792 
 PHE793  MET794  SER795  GLU796  ALA797  LYS798  CYS799  TRP800  GLU811  SER814 

> <Gold.Protein.RotatedAtoms>
  150.8180  133.8302  159.3151 H   0  0  0  0  0  0  0  0  0  0  0  0  # atno 6907 bound_to 6896
  151.6069  135.1041  160.0082 H   0  0  0  0  0  0  0  0  0  0  0  0  # atno 6908 bound_to 6896
  152.4271  133.7173  159.6569 H   0  0  0  0  0  0  0  0  0  0  0  0  # atno 6909 bound_to 6896
  145.7426  140.8946  143.0522 H   0  0  0  0  0  0  0  0  0  0  0  0  # atno 7974 bound_to 7965
  156.2374  140.1890  156.7081 H   0  0  0  0  0  0  0  0  0  0  0  0  # atno 8008 bound_to 7997
  154.6133  140.0619  156.9548 H   0  0  0  0  0  0  0  0  0  0  0  0  # atno 8009 bound_to 7997
  155.1981  140.3290  155.4350 H   0  0  0  0  0  0  0  0  0  0  0  0  # atno 8010 bound_to 7997
  139.8713  143.6954  152.2639 H   0  0  0  0  0  0  0  0  0  0  0  0  # atno 10167 bound_to 10162
  156.8526  130.9724  151.3091 H   0  0  0  0  0  0  0  0  0  0  0  0  # atno 10718 bound_to 10713
  154.7678  135.4888  153.9589 H   0  0  0  0  0  0  0  0  0  0  0  0  # atno 10763 bound_to 10752
  153.1329  135.6757  153.9156 H   0  0  0  0  0  0  0  0  0  0  0  0  # atno 10764 bound_to 10752
  153.8854  135.3127  155.3425 H   0  0  0  0  0  0  0  0  0  0  0  0  # atno 10765 bound_to 10752
  140.5756  134.5193  157.5169 H   0  0  0  0  0  0  0  0  0  0  0  0  # atno 11005 bound_to 11000
  144.6867  139.9481  143.7477 LP  0  0  0  0  0  0  0  0  0  0  0  0  # atno 17320 bound_to 7965
  146.0434  139.3442  143.0684 LP  0  0  0  0  0  0  0  0  0  0  0  0  # atno 17321 bound_to 7965
  139.7281  144.7588  151.0846 LP  0  0  0  0  0  0  0  0  0  0  0  0  # atno 17342 bound_to 10162
  140.7760  143.5122  150.9638 LP  0  0  0  0  0  0  0  0  0  0  0  0  # atno 17343 bound_to 10162
  157.6295  130.8718  149.9248 LP  0  0  0  0  0  0  0  0  0  0  0  0  # atno 17370 bound_to 10713
  156.0820  130.3672  150.0562 LP  0  0  0  0  0  0  0  0  0  0  0  0  # atno 17371 bound_to 10713
  139.9341  134.7908  156.0851 LP  0  0  0  0  0  0  0  0  0  0  0  0  # atno 17394 bound_to 11000
  141.1028  133.6671  156.2794 LP  0  0  0  0  0  0  0  0  0  0  0  0  # atno 17395 bound_to 11000

$$$$
