AV-unprocessed.smi:240|AV-procd|sdf|1825|dock6
  -GOLD-   2262020423D 1   1.00000     0.00000
 Structure written by MMmdl.
 55 59  0  0  0  0  0  0  0  0  1 V2000
  155.4841  139.7122  159.2587 O   0  0  0  0  0  0  0  0  0  0  0  0
  154.6790  138.5936  159.5707 C   0  0  1  0  0  0  0  0  0  0  0  0
  154.3432  138.4897  161.0569 C   0  0  0  0  0  0  0  0  0  0  0  0
  153.1848  137.4945  161.0834 C   0  0  0  0  0  0  0  0  0  0  0  0
  152.3915  137.7528  159.7946 C   0  0  0  0  0  0  0  0  0  0  0  0
  153.3235  138.5272  158.8325 C   0  0  1  0  0  0  0  0  0  0  0  0
  152.7282  139.8872  158.3344 C   0  0  2  0  0  0  0  0  0  0  0  0
  152.5171  140.9260  159.4690 C   0  0  0  0  0  0  0  0  0  0  0  0
  151.9706  142.1323  158.9485 O   0  0  0  0  0  0  0  0  0  0  0  0
  150.6972  141.9233  158.3545 C   0  0  0  0  0  0  0  0  0  0  0  0
  150.8606  140.9696  157.1649 C   0  0  0  0  0  0  0  0  0  0  0  0
  151.4653  139.7155  157.6004 N   0  0  0  0  0  0  0  0  0  0  0  0
  151.4764  138.8094  156.5968 C   0  0  0  0  0  0  0  0  0  0  0  0
  152.0729  139.1091  155.4126 N   0  0  0  0  0  0  0  0  0  0  0  0
  152.0977  138.2008  154.4325 C   0  0  0  0  0  0  0  0  0  0  0  0
  151.6008  136.9613  154.4289 N   0  0  0  0  0  0  0  0  0  0  0  0
  150.9970  136.6644  155.6160 C   0  0  0  0  0  0  0  0  0  0  0  0
  150.8899  137.5259  156.7424 C   0  0  0  0  0  0  0  0  0  0  0  0
  150.2199  136.8836  157.7750 N   0  0  0  0  0  0  0  0  0  0  0  0
  149.9475  135.7040  157.2869 C   0  0  0  0  0  0  0  0  0  0  0  0
  150.3722  135.4883  155.9941 N   0  0  0  0  0  0  0  0  0  0  0  0
  150.2116  134.2717  155.2121 C   0  0  0  0  0  0  0  0  0  0  0  0
  148.8606  134.1836  154.4606 C   0  0  1  0  0  0  0  0  0  0  0  0
  148.4440  135.4890  154.1024 O   0  0  0  0  0  0  0  0  0  0  0  0
  148.9571  133.3258  153.1976 C   0  0  0  0  0  0  0  0  0  0  0  0
  148.2445  132.0374  153.5881 C   0  0  0  0  0  0  0  0  0  0  0  0
  147.1943  132.5071  154.4133 O   0  0  0  0  0  0  0  0  0  0  0  0
  147.7449  133.4946  155.2740 C   0  0  0  0  0  0  0  0  0  0  0  0
  156.0247  139.9122  160.0077 H   0  0  0  0  0  0  0  0  0  0  0  0
  155.2546  137.7063  159.3015 H   0  0  0  0  0  0  0  0  0  0  0  0
  155.1918  138.1591  161.6565 H   0  0  0  0  0  0  0  0  0  0  0  0
  154.0144  139.4518  161.4500 H   0  0  0  0  0  0  0  0  0  0  0  0
  153.5799  136.4779  161.0694 H   0  0  0  0  0  0  0  0  0  0  0  0
  152.5705  137.5956  161.9783 H   0  0  0  0  0  0  0  0  0  0  0  0
  152.0628  136.8125  159.3506 H   0  0  0  0  0  0  0  0  0  0  0  0
  151.4861  138.3159  160.0190 H   0  0  0  0  0  0  0  0  0  0  0  0
  153.5026  137.9025  157.9568 H   0  0  0  0  0  0  0  0  0  0  0  0
  153.4404  140.3223  157.6316 H   0  0  0  0  0  0  0  0  0  0  0  0
  151.8631  140.5448  160.2535 H   0  0  0  0  0  0  0  0  0  0  0  0
  153.4613  141.1811  159.9467 H   0  0  0  0  0  0  0  0  0  0  0  0
  149.9952  141.5217  159.0873 H   0  0  0  0  0  0  0  0  0  0  0  0
  150.2988  142.8806  158.0184 H   0  0  0  0  0  0  0  0  0  0  0  0
  149.8876  140.7765  156.7108 H   0  0  0  0  0  0  0  0  0  0  0  0
  151.4863  141.4364  156.4025 H   0  0  0  0  0  0  0  0  0  0  0  0
  152.5871  138.5109  153.5211 H   0  0  0  0  0  0  0  0  0  0  0  0
  149.4267  134.9536  157.8638 H   0  0  0  0  0  0  0  0  0  0  0  0
  151.0404  134.2112  154.5052 H   0  0  0  0  0  0  0  0  0  0  0  0
  150.3234  133.4189  155.8831 H   0  0  0  0  0  0  0  0  0  0  0  0
  148.9496  135.7724  153.3559 H   0  0  0  0  0  0  0  0  0  0  0  0
  148.4170  133.7879  152.3692 H   0  0  0  0  0  0  0  0  0  0  0  0
  149.9807  133.1520  152.8642 H   0  0  0  0  0  0  0  0  0  0  0  0
  147.8668  131.4845  152.7279 H   0  0  0  0  0  0  0  0  0  0  0  0
  148.9018  131.3820  154.1622 H   0  0  0  0  0  0  0  0  0  0  0  0
  148.1511  132.9787  156.1440 H   0  0  0  0  0  0  0  0  0  0  0  0
  146.9754  134.1812  155.6290 H   0  0  0  0  0  0  0  0  0  0  0  0
  1  2  1  0  0  0  0
  1 29  1  0  0  0  0
  2  6  1  0  0  0  0
  2  3  1  0  0  0  0
  2 30  1  0  0  0  0
  3  4  1  0  0  0  0
  3 31  1  0  0  0  0
  3 32  1  0  0  0  0
  4  5  1  0  0  0  0
  4 33  1  0  0  0  0
  4 34  1  0  0  0  0
  5  6  1  0  0  0  0
  5 35  1  0  0  0  0
  5 36  1  0  0  0  0
  6  7  1  0  0  0  0
  6 37  1  0  0  0  0
  7 12  1  0  0  0  0
  7  8  1  0  0  0  0
  7 38  1  0  0  0  0
  8  9  1  0  0  0  0
  8 39  1  0  0  0  0
  8 40  1  0  0  0  0
  9 10  1  0  0  0  0
 10 11  1  0  0  0  0
 10 41  1  0  0  0  0
 10 42  1  0  0  0  0
 11 12  1  0  0  0  0
 11 43  1  0  0  0  0
 11 44  1  0  0  0  0
 12 13  1  0  0  0  0
 13 18  1  0  0  0  0
 13 14  2  0  0  0  0
 14 15  1  0  0  0  0
 15 16  2  0  0  0  0
 15 45  1  0  0  0  0
 16 17  1  0  0  0  0
 17 21  1  0  0  0  0
 17 18  2  0  0  0  0
 18 19  1  0  0  0  0
 19 20  2  0  0  0  0
 20 21  1  0  0  0  0
 20 46  1  0  0  0  0
 21 22  1  0  0  0  0
 22 23  1  0  0  0  0
 22 47  1  0  0  0  0
 22 48  1  0  0  0  0
 23 28  1  0  0  0  0
 23 24  1  0  0  0  0
 23 25  1  0  0  0  0
 24 49  1  0  0  0  0
 25 26  1  0  0  0  0
 25 50  1  0  0  0  0
 25 51  1  0  0  0  0
 26 27  1  0  0  0  0
 26 52  1  0  0  0  0
 26 53  1  0  0  0  0
 27 28  1  0  0  0  0
 28 54  1  0  0  0  0
 28 55  1  0  0  0  0
M  END
> <s_m_source_file>
AV-unprocessed.smi

> <i_m_source_file_index>
240

> <i_lp_mmshare_version>
43012

> <i_f3d_flags>
0

> <s_epik_input>
W09IXVtDQEBIXTFbQ0gyXVtDSDJdW0NIMl1bQ0BIXTFbQ0BASF0yW0NIMl1PW0NIMl1bQ0gyXU4yYyhuW2NIXW4zKWMoYzM0KW5bY0hdbjRbQ0gyXVtDQEBdNShbT0hdKVtDSDJdW0NIMl1PW0NIMl01

> <s_epik_cmdline>
J2VwaWtfcHl0aG9uJywgJy1waCcsICc3LjAnLCAnLXRuJywgJzgnLCAnLW1hJywgJzIwMCcsICctbWV0YWxfYmluZGluZycsICctaW1hZScsICc8aW5maWxlLm1hZT4nLCAnLW9tYWUnLCAnPG91dGZpbGUubWFlPic=

> <r_lp_tautomer_probability>
1

> <r_epik_Ionization_Penalty>
0.000130618

> <r_epik_Ionization_Penalty_Charging>
0

> <r_epik_Ionization_Penalty_Neutral>
0.000130618

> <r_epik_State_Penalty>
-0

> <r_epik_Charging_Adjusted_Penalty>
0

> <i_epik_Tot_Q>
0

> <i_epik_Tot_abs_Q>
0

> <r_epik_Metal_State_Penalty>
-0

> <b_epik_Metal_Only>
0

> <s_lp_Force_Field>
OPLS_2005

> <r_lp_Energy>
64.9026

> <b_lp_Chiralities_Consistent>
1

> <s_lp_Variant>
AV-unprocessed.smi:240-2

> <Gold.Version>
5.8.1

> <Gold.Id.Protein>
6NUR|6NUR_protein|mol2

> <Gold.PLP.Fitness>
43.7219

> <Gold.PLP.PLP>
-36.7724

> <Gold.PLP.part.hbond>
-2.7121

> <Gold.PLP.part.metal>
0.0000

> <Gold.PLP.part.buried>
-5.4344

> <Gold.PLP.part.nonpolar>
-27.5960

> <Gold.PLP.part.repulsive>
0.3752

> <Gold.PLP.ligand.clash>
0.0000

> <Gold.PLP.ligand.torsion>
1.1149

> <Gold.PLP.Chemscore.Hbond>
3.0000

> <Gold.PLP.Chemscore.CHOScore>
0.0000

> <Gold.PLP.Chemscore.Metal>
0.0000

> <Gold.Chemscore.Hbonds>
donor molecule, donor type, donor heavy atom, donor atom, acceptor molecule, acceptor atom, score
      L1  H    24    49       P1  7948  0.98
      P1  H  7997  8008       L1     1  0.98
      P1  H 10752 10765       L1    16  1.00

> <Gold.PLP.Chemscore.Internal.Correction>
0.1793

> <Gold.Rescore>
     Score         DG    S(hbond)    S(metal)    S(lipo)     H(rot)  DE(clash)    DE(int)     intcor
     14.39     -15.55       2.48        0.00      80.87       3.00       0.01       1.15       ----

> <Gold.Chemscore.Fitness>
14.3949

> <Gold.Chemscore.DG>
-15.5514

> <Gold.Chemscore.ZeroCoef>
-5.4800

> <Gold.Chemscore.Hbond>
2.4849

> <Gold.Chemscore.Metal>
0.0000

> <Gold.Chemscore.Lipo>
80.8687

> <Gold.Chemscore.Internal_Hbond>
0.0000

> <Gold.Chemscore.DEClash>
0.0089

> <Gold.Chemscore.DEInternal>
1.1477

> <Gold.Chemscore.Rot>
3.0039

> <Gold.Chemscore.Internal.Correction>
   9.000000E+99

> <Gold.Chemscore.Hbonds>
donor molecule, donor type, donor heavy atom, donor atom, acceptor molecule, acceptor atom, score
      L1  H    24    49       P1  7948  0.80
      P1  H  7997  8008       L1     1  0.81
      P1  H 10752 10765       L1    16  0.37

> <Gold.Chemscore.Hbond.Weighted>
-8.2997

> <Gold.Chemscore.Metal.Weighted>
-0.0000

> <Gold.Chemscore.Lipo.Weighted>
-9.4616

> <Gold.Chemscore.Internal_Hbond.Weighted>
0.0000

> <Gold.Chemscore.DEClash.Weighted>
0.0089

> <Gold.Chemscore.DEInternal.Weighted>
1.1477

> <Gold.Chemscore.Rot.Weighted>
7.6899

> <Gold.Chemscore.Internal.Correction.Weighted>
   9.000000E+99

> <Gold.Protein.RotatedTorsions>
[ 6907 6896 6895 6894 ] final -136.99 input  -60.11 | X-H torsion
[ 7974 7965 7964 7962 ] final  -80.94 input  175.53 | X-H torsion
[ 8008 7997 7996 7995 ] final -153.74 input   59.86 | X-H torsion
[ 10167 10162 10161 10158 ] final  162.72 input  -65.29 | X-H torsion
[ 10718 10713 10712 10709 ] final  170.73 input   66.30 | X-H torsion
[ 10763 10752 10751 10750 ] final  160.54 input  -60.55 | X-H torsion
[ 11005 11000 10999 10996 ] final   22.25 input  -57.11 | X-H torsion

> <Gold.Protein.ActiveResidues>
 VAL166  LYS551  ARG553  GLY616  TRP617  ASP618  TYR619  PRO620  LYS621  CYS622 
 ASP623  PHE694  ASN695  SER759  ASP760  ASP761  ALA762  ILE779  LEU786  VAL792 
 PHE793  MET794  SER795  GLU796  ALA797  LYS798  CYS799  TRP800  GLU811  SER814 

> <Gold.Protein.RotatedAtoms>
  151.0169  133.5912  159.2675 H   0  0  0  0  0  0  0  0  0  0  0  0  # atno 6907 bound_to 6896
  151.3043  135.0776  159.9259 H   0  0  0  0  0  0  0  0  0  0  0  0  # atno 6908 bound_to 6896
  152.5314  133.9845  159.7876 H   0  0  0  0  0  0  0  0  0  0  0  0  # atno 6909 bound_to 6896
  145.5532  140.9493  143.1488 H   0  0  0  0  0  0  0  0  0  0  0  0  # atno 7974 bound_to 7965
  155.6755  140.0738  157.2504 H   0  0  0  0  0  0  0  0  0  0  0  0  # atno 8008 bound_to 7997
  154.4115  140.1691  156.1977 H   0  0  0  0  0  0  0  0  0  0  0  0  # atno 8009 bound_to 7997
  155.9580  140.3372  155.6468 H   0  0  0  0  0  0  0  0  0  0  0  0  # atno 8010 bound_to 7997
  139.4864  144.4409  151.8953 H   0  0  0  0  0  0  0  0  0  0  0  0  # atno 10167 bound_to 10162
  157.0039  131.0184  151.2823 H   0  0  0  0  0  0  0  0  0  0  0  0  # atno 10718 bound_to 10713
  154.2490  135.2772  155.2824 H   0  0  0  0  0  0  0  0  0  0  0  0  # atno 10763 bound_to 10752
  154.5481  135.5683  153.6901 H   0  0  0  0  0  0  0  0  0  0  0  0  # atno 10764 bound_to 10752
  152.9984  135.6267  154.2636 H   0  0  0  0  0  0  0  0  0  0  0  0  # atno 10765 bound_to 10752
  140.3826  134.1904  155.7663 H   0  0  0  0  0  0  0  0  0  0  0  0  # atno 11005 bound_to 11000
  144.7519  139.7172  143.7269 LP  0  0  0  0  0  0  0  0  0  0  0  0  # atno 17320 bound_to 7965
  146.1902  139.5139  142.9810 LP  0  0  0  0  0  0  0  0  0  0  0  0  # atno 17321 bound_to 7965
  140.3861  144.2675  150.5904 LP  0  0  0  0  0  0  0  0  0  0  0  0  # atno 17342 bound_to 10162
  140.5189  143.2271  151.8419 LP  0  0  0  0  0  0  0  0  0  0  0  0  # atno 17343 bound_to 10162
  157.5370  130.8095  149.7984 LP  0  0  0  0  0  0  0  0  0  0  0  0  # atno 17370 bound_to 10713
  156.0161  130.3813  150.2107 LP  0  0  0  0  0  0  0  0  0  0  0  0  # atno 17371 bound_to 10713
  141.1918  133.8187  157.0864 LP  0  0  0  0  0  0  0  0  0  0  0  0  # atno 17394 bound_to 11000
  140.0467  134.9827  157.1061 LP  0  0  0  0  0  0  0  0  0  0  0  0  # atno 17395 bound_to 11000

$$$$
