#       Name:                AV-unprocessed.smi:1702
#       Creating user name   scv26
#       Creation time:       Fri Mar 27 08:02:50 2020


#       File generated by GOLD software.
#

@<TRIPOS>MOLECULE
AV-unprocessed.smi:1702
    47    49     1
SMALL
NO_CHARGES


@<TRIPOS>ATOM
      1 ****        -4.4640   2.5333  -2.2813 C.3            1 S1                 0.0000
      2 ****        -3.4228   3.0449  -1.2699 C.3            1 S1                 0.0000
      3 ****        -1.9754   2.8810  -1.7684 C.3            1 S1                 0.0000
      4 ****        -1.5049   1.4161  -1.7217 C.3            1 S1                 0.0000
      5 ****        -1.6530   0.8476  -0.3554 N.4            1 S1                 1.0000
      6 ****        -1.0956  -0.5238  -0.2253 C.3            1 S1                 0.0000
      7 ****         0.4406  -0.5291  -0.0959 C.3            1 S1                 0.0000
      8 ****         0.7972   0.1104   1.1152 O.3            1 S1                 0.0000
      9 ****         1.0114  -1.9604  -0.1079 C.3            1 S1                 0.0000
     10 ****         2.4596  -1.9822  -0.0022 N.pl3          1 S1                 0.0000
     11 ****         3.3456  -1.8051  -1.0011 C.2            1 S1                 0.0000
     12 ****         4.6366  -1.8605  -0.6880 N.2            1 S1                 0.0000
     13 ****         4.5843  -2.1035   0.6738 C.ar           1 S1                 0.0000
     14 ****         5.6241  -2.2704   1.6161 C.ar           1 S1                 0.0000
     15 ****         5.3268  -2.5108   2.9737 C.ar           1 S1                 0.0000
     16 ****         6.3355  -2.6675   3.8636 F              1 S1                 0.0000
     17 ****         3.9870  -2.5882   3.4088 C.ar           1 S1                 0.0000
     18 ****         3.7101  -2.8177   4.7142 F              1 S1                 0.0000
     19 ****         2.9340  -2.4263   2.4880 C.ar           1 S1                 0.0000
     20 ****         3.2354  -2.1863   1.1345 C.ar           1 S1                 0.0000
     21 ****        -3.0573   0.9326   0.1223 C.3            1 S1                 0.0000
     22 ****        -3.5633   2.3863   0.1143 C.3            1 S1                 0.0000
     23 ****        -4.3596   1.4665  -2.4776 H              1 S1                 0.0000
     24 ****        -4.3701   3.0540  -3.2347 H              1 S1                 0.0000
     25 ****        -5.4777   2.7023  -1.9167 H              1 S1                 0.0000
     26 ****        -3.6109   4.1124  -1.1475 H              1 S1                 0.0000
     27 ****        -1.8771   3.2748  -2.7808 H              1 S1                 0.0000
     28 ****        -1.3128   3.4835  -1.1454 H              1 S1                 0.0000
     29 ****        -2.0680   0.8117  -2.4341 H              1 S1                 0.0000
     30 ****        -0.4634   1.3754  -2.0381 H              1 S1                 0.0000
     31 ****        -1.5158  -1.0138   0.6547 H              1 S1                 0.0000
     32 ****        -1.4116  -1.1209  -1.0821 H              1 S1                 0.0000
     33 ****         0.8927   0.0275  -0.9162 H              1 S1                 0.0000
     34 ****         0.4948  -0.4174   1.8389 H              1 S1                 0.0000
     35 ****         0.5916  -2.5503   0.7079 H              1 S1                 0.0000
     36 ****         0.7324  -2.4677  -1.0325 H              1 S1                 0.0000
     37 ****         3.0236  -1.6226  -2.0161 H              1 S1                 0.0000
     38 ****         6.6536  -2.2129   1.2950 H              1 S1                 0.0000
     39 ****         1.9087  -2.4851   2.8204 H              1 S1                 0.0000
     40 ****        -3.6950   0.3005  -0.4971 H              1 S1                 0.0000
     41 ****        -3.1229   0.5435   1.1391 H              1 S1                 0.0000
     42 ****        -2.9923   2.9629   0.8434 H              1 S1                 0.0000
     43 ****        -4.6013   2.4239   0.4470 H              1 S1                 0.0000
     44 ****        -1.1102   1.4304   0.2665 H              1 S1                 0.0000
     45 ****         0.3704   1.0138   1.1566 LP             1 S1                 0.0000
     46 ****         1.7912   0.2089   1.1633 LP             1 S1                 0.0000
     47 ****         5.4352  -1.7545  -1.2804 LP             1 S1                 0.0000
@<TRIPOS>BOND
    1    1    2 1     
    2    1   23 1     
    3    1   24 1     
    4    1   25 1     
    5    2   22 1     
    6    2    3 1     
    7    2   26 1     
    8    3    4 1     
    9    3   27 1     
   10    3   28 1     
   11    4    5 1     
   12    4   29 1     
   13    4   30 1     
   14    5    6 1     
   15    5   21 1     
   16    5   44 1     
   17    6    7 1     
   18    6   31 1     
   19    6   32 1     
   20    7    8 1     
   21    7    9 1     
   22    7   33 1     
   23    8   34 1     
   24    9   10 1     
   25    9   35 1     
   26    9   36 1     
   27   10   20 1     
   28   10   11 1     
   29   11   12 2     
   30   11   37 1     
   31   12   13 1     
   32   13   20 ar    
   33   13   14 ar    
   34   14   15 ar    
   35   14   38 1     
   36   15   16 1     
   37   15   17 ar    
   38   17   18 1     
   39   17   19 ar    
   40   19   20 ar    
   41   19   39 1     
   42   21   22 1     
   43   21   40 1     
   44   21   41 1     
   45   22   42 1     
   46   22   43 1     
   47    8   45 1     
   48    8   46 1     
   49   12   47 1     
@<TRIPOS>SUBSTRUCTURE
      1 S1             1
@<TRIPOS>SET
LONE_PAIRS      STATIC     ATOMS    <user>   **** ""
3 45 46 47
DONOR_HYDROGENS      STATIC     ATOMS    <user>   **** ""
2 44 34
ATOM$BLUE        STATIC     ATOMS    COLORGROUP SYSTEM
3 45 46 47
ATOM$RED        STATIC     ATOMS    COLORGROUP SYSTEM
2 44 34
