AV-unprocessed.smi:2391|AV-procd|sdf|9481|dock8
  -GOLD-   2272013113D 1   1.00000     0.00000
 Structure written by MMmdl.
 35 36  0  0  0  0  0  0  0  0  1 V2000
  149.7797  135.6867  156.4242 O   0  0  0  0  0  0  0  0  0  0  0  0
  149.5672  135.8608  155.2242 C   0  0  0  0  0  0  0  0  0  0  0  0
  149.3008  134.8885  154.3345 N   0  0  0  0  0  0  0  0  0  0  0  0
  149.2041  133.4910  154.5664 C   0  0  0  0  0  0  0  0  0  0  0  0
  148.7190  132.7303  153.4810 C   0  0  0  0  0  0  0  0  0  0  0  0
  148.5966  131.3397  153.6429 C   0  0  0  0  0  0  0  0  0  0  0  0
  148.9702  130.8014  154.8861 C   0  0  0  0  0  0  0  0  0  0  0  0
  149.4306  131.5679  155.8984 N   0  0  0  0  0  0  0  0  0  0  0  0
  149.5441  132.8909  155.7371 N   0  0  0  0  0  0  0  0  0  0  0  0
  149.5722  137.0654  154.6347 N   0  0  0  0  0  0  0  0  0  0  0  0
  149.8430  138.3468  155.2905 C   0  0  2  0  0  0  0  0  0  0  0  0
  149.3179  139.4995  154.3963 C   0  0  0  0  0  0  0  0  0  0  0  0
  149.0587  140.8251  155.1213 C   0  0  0  0  0  0  0  0  0  0  0  0
  148.1387  141.6165  154.1877 C   0  0  0  0  0  0  0  0  0  0  0  0
  147.3816  140.5760  153.3518 C   0  0  0  0  0  0  0  0  0  0  0  0
  147.9621  139.2099  153.7352 C   0  0  0  0  0  0  0  0  0  0  0  0
  151.3536  138.4322  155.6074 C   0  0  0  0  0  0  0  0  0  0  0  0
  151.6502  139.6477  156.0693 F   0  0  0  0  0  0  0  0  0  0  0  0
  151.6902  137.5312  156.5314 F   0  0  0  0  0  0  0  0  0  0  0  0
  152.0855  138.2253  154.5135 F   0  0  0  0  0  0  0  0  0  0  0  0
  149.1490  135.1816  153.3808 H   0  0  0  0  0  0  0  0  0  0  0  0
  148.4461  133.1980  152.5460 H   0  0  0  0  0  0  0  0  0  0  0  0
  148.2305  130.7100  152.8456 H   0  0  0  0  0  0  0  0  0  0  0  0
  148.8989  129.7402  155.0732 H   0  0  0  0  0  0  0  0  0  0  0  0
  149.3877  137.1044  153.6431 H   0  0  0  0  0  0  0  0  0  0  0  0
  149.3094  138.3925  156.2416 H   0  0  0  0  0  0  0  0  0  0  0  0
  150.0416  139.6887  153.6017 H   0  0  0  0  0  0  0  0  0  0  0  0
  148.5469  140.6397  156.0668 H   0  0  0  0  0  0  0  0  0  0  0  0
  149.9755  141.3727  155.3404 H   0  0  0  0  0  0  0  0  0  0  0  0
  147.4648  142.2696  154.7430 H   0  0  0  0  0  0  0  0  0  0  0  0
  148.7359  142.2489  153.5294 H   0  0  0  0  0  0  0  0  0  0  0  0
  146.3081  140.6109  153.5412 H   0  0  0  0  0  0  0  0  0  0  0  0
  147.5308  140.7712  152.2893 H   0  0  0  0  0  0  0  0  0  0  0  0
  148.0499  138.5458  152.8747 H   0  0  0  0  0  0  0  0  0  0  0  0
  147.2976  138.7264  154.4531 H   0  0  0  0  0  0  0  0  0  0  0  0
  1  2  2  0  0  0  0
  2  3  1  0  0  0  0
  2 10  1  0  0  0  0
  3  4  1  0  0  0  0
  3 21  1  0  0  0  0
  4  9  1  0  0  0  0
  4  5  2  0  0  0  0
  5  6  1  0  0  0  0
  5 22  1  0  0  0  0
  6  7  2  0  0  0  0
  6 23  1  0  0  0  0
  7  8  1  0  0  0  0
  7 24  1  0  0  0  0
  8  9  2  0  0  0  0
 10 11  1  0  0  0  0
 10 25  1  0  0  0  0
 11 12  1  0  0  0  0
 11 17  1  0  0  0  0
 11 26  1  0  0  0  0
 12 16  1  0  0  0  0
 12 13  1  0  0  0  0
 12 27  1  0  0  0  0
 13 14  1  0  0  0  0
 13 28  1  0  0  0  0
 13 29  1  0  0  0  0
 14 15  1  0  0  0  0
 14 30  1  0  0  0  0
 14 31  1  0  0  0  0
 15 16  1  0  0  0  0
 15 32  1  0  0  0  0
 15 33  1  0  0  0  0
 16 34  1  0  0  0  0
 16 35  1  0  0  0  0
 17 18  1  0  0  0  0
 17 19  1  0  0  0  0
 17 20  1  0  0  0  0
M  END
> <s_m_source_file>
AV-unprocessed.smi

> <i_m_source_file_index>
2391

> <i_lp_mmshare_version>
43012

> <i_f3d_flags>
0

> <s_epik_input>
W0NIMl0xW0NIMl1bQ0gyXVtDSDJdW0NIXTFbQ0BIXShDKEYpKEYpRilbTkhdQyg9TylbTkhdYzJbY0hdW2NIXVtjSF1ubjI=

> <s_epik_cmdline>
J2VwaWtfcHl0aG9uJywgJy1waCcsICc3LjAnLCAnLXRuJywgJzgnLCAnLW1hJywgJzIwMCcsICctbWV0YWxfYmluZGluZycsICctaW1hZScsICc8aW5maWxlLm1hZT4nLCAnLW9tYWUnLCAnPG91dGZpbGUubWFlPic=

> <r_lp_tautomer_probability>
1

> <r_epik_Ionization_Penalty>
0.00359591

> <r_epik_Ionization_Penalty_Charging>
0

> <r_epik_Ionization_Penalty_Neutral>
0.00359591

> <r_epik_State_Penalty>
0.0123658

> <r_epik_Charging_Adjusted_Penalty>
0.0123658

> <i_epik_Tot_Q>
0

> <i_epik_Tot_abs_Q>
0

> <r_epik_Metal_State_Penalty>
0.0410426

> <b_epik_Metal_Only>
0

> <s_lp_Force_Field>
OPLS_2005

> <r_lp_Energy>
31.4517

> <b_lp_Chiralities_Consistent>
1

> <s_lp_Variant>
AV-unprocessed.smi:2391-1

> <Gold.Version>
5.8.1

> <Gold.Id.Protein>
6NUR|6NUR_protein|mol2

> <Gold.PLP.Fitness>
40.5433

> <Gold.PLP.PLP>
-35.8600

> <Gold.PLP.part.hbond>
-2.0000

> <Gold.PLP.part.metal>
0.0000

> <Gold.PLP.part.buried>
-3.2460

> <Gold.PLP.part.nonpolar>
-30.5784

> <Gold.PLP.part.repulsive>
0.0802

> <Gold.PLP.ligand.clash>
0.0000

> <Gold.PLP.ligand.torsion>
0.6607

> <Gold.PLP.Chemscore.Hbond>
1.9000

> <Gold.PLP.Chemscore.CHOScore>
0.0000

> <Gold.PLP.Chemscore.Metal>
0.0000

> <Gold.Chemscore.Hbonds>
donor molecule, donor type, donor heavy atom, donor atom, acceptor molecule, acceptor atom, score
      L1  H     3    21       P1  7948  1.00
      L1  H    10    25       P1  7948  1.00

> <Gold.PLP.Chemscore.Internal.Correction>
0.3048

> <Gold.Rescore>
     Score         DG    S(hbond)    S(metal)    S(lipo)     H(rot)  DE(clash)    DE(int)     intcor
      9.19     -13.91       1.62        0.00      54.92       1.33       0.04       4.68       ----

> <Gold.Chemscore.Fitness>
9.1872

> <Gold.Chemscore.DG>
-13.9071

> <Gold.Chemscore.ZeroCoef>
-5.4800

> <Gold.Chemscore.Hbond>
1.6189

> <Gold.Chemscore.Metal>
0.0000

> <Gold.Chemscore.Lipo>
54.9206

> <Gold.Chemscore.Internal_Hbond>
0.0000

> <Gold.Chemscore.DEClash>
0.0364

> <Gold.Chemscore.DEInternal>
4.6836

> <Gold.Chemscore.Rot>
1.3304

> <Gold.Chemscore.Internal.Correction>
   9.000000E+99

> <Gold.Chemscore.Hbonds>
donor molecule, donor type, donor heavy atom, donor atom, acceptor molecule, acceptor atom, score
      L1  H     3    21       P1  7948  0.26
      L1  H    10    25       P1  7948  0.89

> <Gold.Chemscore.Hbond.Weighted>
-5.4071

> <Gold.Chemscore.Metal.Weighted>
-0.0000

> <Gold.Chemscore.Lipo.Weighted>
-6.4257

> <Gold.Chemscore.Internal_Hbond.Weighted>
0.0000

> <Gold.Chemscore.DEClash.Weighted>
0.0364

> <Gold.Chemscore.DEInternal.Weighted>
4.6836

> <Gold.Chemscore.Rot.Weighted>
3.4057

> <Gold.Chemscore.Internal.Correction.Weighted>
   9.000000E+99

> <Gold.Protein.RotatedTorsions>
[ 6907 6896 6895 6894 ] final  -77.77 input  -60.11 | X-H torsion
[ 7974 7965 7964 7962 ] final  151.44 input  175.53 | X-H torsion
[ 8008 7997 7996 7995 ] final  171.04 input   59.86 | X-H torsion
[ 10167 10162 10161 10158 ] final  -42.42 input  -65.29 | X-H torsion
[ 10718 10713 10712 10709 ] final   29.34 input   66.30 | X-H torsion
[ 10763 10752 10751 10750 ] final   19.79 input  -60.55 | X-H torsion
[ 11005 11000 10999 10996 ] final -103.15 input  -57.11 | X-H torsion

> <Gold.Protein.ActiveResidues>
 VAL166  LYS551  ARG553  GLY616  TRP617  ASP618  TYR619  PRO620  LYS621  CYS622 
 ASP623  PHE694  ASN695  SER759  ASP760  ASP761  ALA762  ILE779  LEU786  VAL792 
 PHE793  MET794  SER795  GLU796  ALA797  LYS798  CYS799  TRP800  GLU811  SER814 

> <Gold.Protein.RotatedAtoms>
  150.6990  134.4372  159.5275 H   0  0  0  0  0  0  0  0  0  0  0  0  # atno 6907 bound_to 6896
  152.2088  134.8518  160.0509 H   0  0  0  0  0  0  0  0  0  0  0  0  # atno 6908 bound_to 6896
  151.9411  133.3603  159.4002 H   0  0  0  0  0  0  0  0  0  0  0  0  # atno 6909 bound_to 6896
  144.8292  139.6538  143.6066 H   0  0  0  0  0  0  0  0  0  0  0  0  # atno 7974 bound_to 7965
  156.1308  140.1522  156.9067 H   0  0  0  0  0  0  0  0  0  0  0  0  # atno 8008 bound_to 7997
  154.4908  140.0852  156.7629 H   0  0  0  0  0  0  0  0  0  0  0  0  # atno 8009 bound_to 7997
  155.4259  140.3425  155.4278 H   0  0  0  0  0  0  0  0  0  0  0  0  # atno 8010 bound_to 7997
  140.6970  143.3039  151.3206 H   0  0  0  0  0  0  0  0  0  0  0  0  # atno 10167 bound_to 10162
  157.2453  130.7089  149.6378 H   0  0  0  0  0  0  0  0  0  0  0  0  # atno 10718 bound_to 10713
  153.1132  135.6702  153.9463 H   0  0  0  0  0  0  0  0  0  0  0  0  # atno 10763 bound_to 10752
  153.9000  135.3037  155.3450 H   0  0  0  0  0  0  0  0  0  0  0  0  # atno 10764 bound_to 10752
  154.7550  135.5016  153.9436 H   0  0  0  0  0  0  0  0  0  0  0  0  # atno 10765 bound_to 10752
  141.1158  133.8617  157.1450 H   0  0  0  0  0  0  0  0  0  0  0  0  # atno 11005 bound_to 11000
  146.2596  139.6380  142.9371 LP  0  0  0  0  0  0  0  0  0  0  0  0  # atno 17320 bound_to 7965
  145.4932  141.0438  143.2581 LP  0  0  0  0  0  0  0  0  0  0  0  0  # atno 17321 bound_to 7965
  139.6437  144.0491  152.2574 LP  0  0  0  0  0  0  0  0  0  0  0  0  # atno 17342 bound_to 10162
  140.0005  144.6297  150.7734 LP  0  0  0  0  0  0  0  0  0  0  0  0  # atno 17343 bound_to 10162
  155.9668  130.4445  150.5463 LP  0  0  0  0  0  0  0  0  0  0  0  0  # atno 17370 bound_to 10713
  157.3335  131.0704  151.1843 LP  0  0  0  0  0  0  0  0  0  0  0  0  # atno 17371 bound_to 10713
  140.0080  135.0000  157.0334 LP  0  0  0  0  0  0  0  0  0  0  0  0  # atno 17394 bound_to 11000
  140.4649  134.1446  155.7195 LP  0  0  0  0  0  0  0  0  0  0  0  0  # atno 17395 bound_to 11000

$$$$
