AV-unprocessed.smi:1644|AV-procd|sdf|6596|dock5
  -GOLD-   22720 7293D 1   1.00000     0.00000
 Structure written by MMmdl.
 49 51  0  0  0  0  0  0  0  0  3 V2000
  151.8327  144.3952  158.1212 C   0  0  0  0  0  0  0  0  0  0  0  0
  151.2627  143.0465  157.6698 C   0  0  0  0  0  0  0  0  0  0  0  0
  151.8788  141.8601  158.4423 C   0  0  0  0  0  0  0  0  0  0  0  0
  151.6471  140.4549  157.8348 C   0  0  2  0  0  0  0  0  0  0  0  0
  152.3532  140.2869  156.5815 N   0  5  0  0  0  0  0  0  0  0  0  0
  151.4545  139.9475  155.6275 C   0  0  0  0  0  0  0  0  0  0  0  0
  151.6885  139.7405  154.4369 O   0  0  0  0  0  0  0  0  0  0  0  0
  150.2088  139.8746  156.1369 N   0  0  0  0  0  0  0  0  0  0  0  0
  149.0001  139.5773  155.3628 C   0  0  0  0  0  0  0  0  0  0  0  0
  149.1400  138.2500  154.5889 C   0  0  2  0  0  0  0  0  0  0  0  0
  149.1444  138.5185  153.2001 O   0  0  0  0  0  0  0  0  0  0  0  0
  147.9806  137.2805  154.8898 C   0  0  0  0  0  0  0  0  0  0  0  0
  146.8545  137.4517  153.9641 N   0  0  0  0  0  0  0  0  0  0  0  0
  146.1088  138.5523  153.6755 C   0  0  0  0  0  0  0  0  0  0  0  0
  145.1872  138.1885  152.7405 N   0  3  0  0  0  0  0  0  0  0  0  0
  145.3512  136.8371  152.4251 C   0  0  0  0  0  0  0  0  0  0  0  0
  144.6680  136.0177  151.5340 C   0  0  0  0  0  0  0  0  0  0  0  0
  145.0905  134.6719  151.4413 C   0  0  0  0  0  0  0  0  0  0  0  0
  144.3714  133.7514  150.4702 C   0  0  0  0  0  0  0  0  0  0  0  0
  146.1627  134.1863  152.2344 C   0  0  0  0  0  0  0  0  0  0  0  0
  146.6100  132.7385  152.1277 C   0  0  0  0  0  0  0  0  0  0  0  0
  146.8418  135.0342  153.1374 C   0  0  0  0  0  0  0  0  0  0  0  0
  146.4169  136.3584  153.2104 C   0  0  0  0  0  0  0  0  0  0  0  0
  150.2115  140.1754  157.4386 C   0  0  0  0  0  0  0  0  0  0  0  0
  149.2478  140.2367  158.2028 O   0  0  0  0  0  0  0  0  0  0  0  0
  151.3887  145.2135  157.5543 H   0  0  0  0  0  0  0  0  0  0  0  0
  152.9123  144.4354  157.9738 H   0  0  0  0  0  0  0  0  0  0  0  0
  151.6308  144.5732  159.1776 H   0  0  0  0  0  0  0  0  0  0  0  0
  150.1806  143.0631  157.8008 H   0  0  0  0  0  0  0  0  0  0  0  0
  151.4419  142.9274  156.6010 H   0  0  0  0  0  0  0  0  0  0  0  0
  152.9528  142.0227  158.5425 H   0  0  0  0  0  0  0  0  0  0  0  0
  151.4878  141.8658  159.4606 H   0  0  0  0  0  0  0  0  0  0  0  0
  151.9478  139.7020  158.5646 H   0  0  0  0  0  0  0  0  0  0  0  0
  148.1680  139.5109  156.0658 H   0  0  0  0  0  0  0  0  0  0  0  0
  148.7385  140.3999  154.6944 H   0  0  0  0  0  0  0  0  0  0  0  0
  150.0829  137.7653  154.8440 H   0  0  0  0  0  0  0  0  0  0  0  0
  149.1743  137.6961  152.7359 H   0  0  0  0  0  0  0  0  0  0  0  0
  148.3121  136.2434  154.8229 H   0  0  0  0  0  0  0  0  0  0  0  0
  147.6086  137.4230  155.9053 H   0  0  0  0  0  0  0  0  0  0  0  0
  146.2301  139.5359  154.1056 H   0  0  0  0  0  0  0  0  0  0  0  0
  143.8524  136.3936  150.9336 H   0  0  0  0  0  0  0  0  0  0  0  0
  145.0737  133.3282  149.7513 H   0  0  0  0  0  0  0  0  0  0  0  0
  143.6026  134.2841  149.9095 H   0  0  0  0  0  0  0  0  0  0  0  0
  143.8885  132.9339  151.0061 H   0  0  0  0  0  0  0  0  0  0  0  0
  147.4121  132.5161  152.8325 H   0  0  0  0  0  0  0  0  0  0  0  0
  146.9799  132.5265  151.1243 H   0  0  0  0  0  0  0  0  0  0  0  0
  145.7818  132.0632  152.3432 H   0  0  0  0  0  0  0  0  0  0  0  0
  147.6624  134.6674  153.7375 H   0  0  0  0  0  0  0  0  0  0  0  0
  144.5014  138.8192  152.3454 H   0  0  0  0  0  0  0  0  0  0  0  0
  1  2  1  0  0  0  0
  1 26  1  0  0  0  0
  1 27  1  0  0  0  0
  1 28  1  0  0  0  0
  2  3  1  0  0  0  0
  2 29  1  0  0  0  0
  2 30  1  0  0  0  0
  3  4  1  0  0  0  0
  3 31  1  0  0  0  0
  3 32  1  0  0  0  0
  4 24  1  0  0  0  0
  4  5  1  0  0  0  0
  4 33  1  0  0  0  0
  5  6  1  0  0  0  0
  6  7  2  0  0  0  0
  6  8  1  0  0  0  0
  8  9  1  0  0  0  0
  8 24  1  0  0  0  0
  9 10  1  0  0  0  0
  9 34  1  0  0  0  0
  9 35  1  0  0  0  0
 10 11  1  0  0  0  0
 10 12  1  0  0  0  0
 10 36  1  0  0  0  0
 11 37  1  0  0  0  0
 12 13  1  0  0  0  0
 12 38  1  0  0  0  0
 12 39  1  0  0  0  0
 13 23  1  0  0  0  0
 13 14  1  0  0  0  0
 14 15  2  0  0  0  0
 14 40  1  0  0  0  0
 15 16  1  0  0  0  0
 15 49  1  0  0  0  0
 16 23  2  0  0  0  0
 16 17  1  0  0  0  0
 17 18  2  0  0  0  0
 17 41  1  0  0  0  0
 18 19  1  0  0  0  0
 18 20  1  0  0  0  0
 19 42  1  0  0  0  0
 19 43  1  0  0  0  0
 19 44  1  0  0  0  0
 20 21  1  0  0  0  0
 20 22  2  0  0  0  0
 21 45  1  0  0  0  0
 21 46  1  0  0  0  0
 21 47  1  0  0  0  0
 22 23  1  0  0  0  0
 22 48  1  0  0  0  0
 24 25  2  0  0  0  0
M  CHG  1   5  -1
M  CHG  1  15   1
M  END
> <s_m_source_file>
AV-unprocessed.smi

> <i_m_source_file_index>
1644

> <i_lp_mmshare_version>
43012

> <i_f3d_flags>
0

> <s_epik_input>
W0NIM11bQ0gyXVtDSDJdW0NAQEhdMVtOSF1DKD1PKU4oQzE9TylbQ0gyXVtDQEhdKFtPSF0pW0NIMl1uKFtjSF1uMiljKGMyMylbY0hdYyhbQ0gzXSljKFtjSF0zKVtDSDNd

> <s_epik_cmdline>
J2VwaWtfcHl0aG9uJywgJy1waCcsICc3LjAnLCAnLXRuJywgJzgnLCAnLW1hJywgJzIwMCcsICctbWV0YWxfYmluZGluZycsICctaW1hZScsICc8aW5maWxlLm1hZT4nLCAnLW9tYWUnLCAnPG91dGZpbGUubWFlPic=

> <r_lp_tautomer_probability>
1

> <r_epik_Ionization_Penalty>
6.86868

> <r_epik_Ionization_Penalty_Charging>
6.86868

> <r_epik_Ionization_Penalty_Neutral>
5.84798e-07

> <r_epik_State_Penalty>
6.92818

> <r_epik_Charging_Adjusted_Penalty>
13.7969

> <i_epik_Tot_Q>
0

> <i_epik_Tot_abs_Q>
2

> <r_epik_Metal_State_Penalty>
2.98017

> <b_epik_Metal_Only>
1

> <s_lp_Force_Field>
OPLS_2005

> <r_lp_Energy>
22.7735

> <b_lp_Chiralities_Consistent>
1

> <s_lp_Variant>
AV-unprocessed.smi:1644-13

> <Gold.Version>
5.8.1

> <Gold.Id.Protein>
6NUR|6NUR_protein|mol2

> <Gold.PLP.Fitness>
50.8519

> <Gold.PLP.PLP>
-35.4407

> <Gold.PLP.part.hbond>
-5.4207

> <Gold.PLP.part.metal>
0.0000

> <Gold.PLP.part.buried>
-3.1606

> <Gold.PLP.part.nonpolar>
-27.1235

> <Gold.PLP.part.repulsive>
0.0849

> <Gold.PLP.ligand.clash>
0.0000

> <Gold.PLP.ligand.torsion>
1.2639

> <Gold.PLP.Chemscore.Hbond>
5.9520

> <Gold.PLP.Chemscore.CHOScore>
0.0000

> <Gold.PLP.Chemscore.Metal>
0.0000

> <Gold.Chemscore.Hbonds>
donor molecule, donor type, donor heavy atom, donor atom, acceptor molecule, acceptor atom, score
      L1  H    11    37       P1  7948  1.00
      L1  H    15    49       P1 10175  1.92
      P1  H  7989  7998       L1     7  0.81
      P1  H  7997  8009       L1     5  2.00

> <Gold.PLP.Chemscore.Internal.Correction>
0.0831

> <Gold.Rescore>
     Score         DG    S(hbond)    S(metal)    S(lipo)     H(rot)  DE(clash)    DE(int)     intcor
     18.38     -20.93       3.94        0.00      79.22       2.72       0.41       2.14       ----

> <Gold.Chemscore.Fitness>
18.3783

> <Gold.Chemscore.DG>
-20.9255

> <Gold.Chemscore.ZeroCoef>
-5.4800

> <Gold.Chemscore.Hbond>
3.9375

> <Gold.Chemscore.Metal>
0.0000

> <Gold.Chemscore.Lipo>
79.2224

> <Gold.Chemscore.Internal_Hbond>
0.0000

> <Gold.Chemscore.DEClash>
0.4057

> <Gold.Chemscore.DEInternal>
2.1415

> <Gold.Chemscore.Rot>
2.7245

> <Gold.Chemscore.Internal.Correction>
   9.000000E+99

> <Gold.Chemscore.Hbonds>
donor molecule, donor type, donor heavy atom, donor atom, acceptor molecule, acceptor atom, score
      L1  H    11    37       P1  7948  0.98
      L1  H    15    49       P1 10175  0.92
      P1  H  7989  7998       L1     7  0.77
      P1  H  7997  8009       L1     5  0.93

> <Gold.Chemscore.Hbond.Weighted>
-13.1512

> <Gold.Chemscore.Metal.Weighted>
-0.0000

> <Gold.Chemscore.Lipo.Weighted>
-9.2690

> <Gold.Chemscore.Internal_Hbond.Weighted>
0.0000

> <Gold.Chemscore.DEClash.Weighted>
0.4057

> <Gold.Chemscore.DEInternal.Weighted>
2.1415

> <Gold.Chemscore.Rot.Weighted>
6.9748

> <Gold.Chemscore.Internal.Correction.Weighted>
   9.000000E+99

> <Gold.Protein.RotatedTorsions>
[ 6907 6896 6895 6894 ] final  -11.65 input  -60.11 | X-H torsion
[ 7974 7965 7964 7962 ] final  143.46 input  175.53 | X-H torsion
[ 8008 7997 7996 7995 ] final -165.74 input   59.86 | X-H torsion
[ 10167 10162 10161 10158 ] final   62.26 input  -65.29 | X-H torsion
[ 10718 10713 10712 10709 ] final  162.41 input   66.30 | X-H torsion
[ 10763 10752 10751 10750 ] final   -4.29 input  -60.55 | X-H torsion
[ 11005 11000 10999 10996 ] final   67.48 input  -57.11 | X-H torsion

> <Gold.Protein.ActiveResidues>
 VAL166  LYS551  ARG553  GLY616  TRP617  ASP618  TYR619  PRO620  LYS621  CYS622 
 ASP623  PHE694  ASN695  SER759  ASP760  ASP761  ALA762  ILE779  LEU786  VAL792 
 PHE793  MET794  SER795  GLU796  ALA797  LYS798  CYS799  TRP800  GLU811  SER814 

> <Gold.Protein.RotatedAtoms>
  151.3828  135.0943  159.9501 H   0  0  0  0  0  0  0  0  0  0  0  0  # atno 6907 bound_to 6896
  152.5103  133.9055  159.7472 H   0  0  0  0  0  0  0  0  0  0  0  0  # atno 6908 bound_to 6896
  150.9492  133.6513  159.2804 H   0  0  0  0  0  0  0  0  0  0  0  0  # atno 6909 bound_to 6896
  144.8919  139.5546  143.5794 H   0  0  0  0  0  0  0  0  0  0  0  0  # atno 7974 bound_to 7965
  155.8540  140.0967  157.1656 H   0  0  0  0  0  0  0  0  0  0  0  0  # atno 8008 bound_to 7997
  154.3987  140.1377  156.3941 H   0  0  0  0  0  0  0  0  0  0  0  0  # atno 8009 bound_to 7997
  155.7930  140.3455  155.5362 H   0  0  0  0  0  0  0  0  0  0  0  0  # atno 8010 bound_to 7997
  140.1458  144.4509  150.6786 H   0  0  0  0  0  0  0  0  0  0  0  0  # atno 10167 bound_to 10162
  157.1229  131.0497  151.2406 H   0  0  0  0  0  0  0  0  0  0  0  0  # atno 10718 bound_to 10713
  153.3828  135.6999  153.6552 H   0  0  0  0  0  0  0  0  0  0  0  0  # atno 10763 bound_to 10752
  153.5157  135.3622  155.2608 H   0  0  0  0  0  0  0  0  0  0  0  0  # atno 10764 bound_to 10752
  154.8694  135.4145  154.3130 H   0  0  0  0  0  0  0  0  0  0  0  0  # atno 10765 bound_to 10752
  139.9768  134.6808  156.0338 H   0  0  0  0  0  0  0  0  0  0  0  0  # atno 11005 bound_to 11000
  146.3058  139.7577  142.9057 LP  0  0  0  0  0  0  0  0  0  0  0  0  # atno 17320 bound_to 7965
  145.3768  141.0352  143.3200 LP  0  0  0  0  0  0  0  0  0  0  0  0  # atno 17321 bound_to 7965
  140.6732  143.2294  151.5572 LP  0  0  0  0  0  0  0  0  0  0  0  0  # atno 17342 bound_to 10162
  139.5449  144.2547  152.1423 LP  0  0  0  0  0  0  0  0  0  0  0  0  # atno 17343 bound_to 10162
  157.4460  130.7571  149.7110 LP  0  0  0  0  0  0  0  0  0  0  0  0  # atno 17370 bound_to 10713
  155.9824  130.4010  150.3416 LP  0  0  0  0  0  0  0  0  0  0  0  0  # atno 17371 bound_to 10713
  141.1445  133.6558  156.3826 LP  0  0  0  0  0  0  0  0  0  0  0  0  # atno 17394 bound_to 11000
  140.5177  134.6334  157.5307 LP  0  0  0  0  0  0  0  0  0  0  0  0  # atno 17395 bound_to 11000

$$$$
