AV-unprocessed.smi:1039|AV-procd|sdf|4523|dock1
  -GOLD-   22720 2543D 1   1.00000     0.00000
 Structure written by MMmdl.
 41 42  0  0  0  0  0  0  0  0  2 V2000
  153.1073  142.6212  162.8019 C   0  0  0  0  0  0  0  0  0  0  0  0
  153.1124  143.0447  161.3267 C   0  0  0  0  0  0  0  0  0  0  0  0
  152.0687  144.1473  161.0461 C   0  0  0  0  0  0  0  0  0  0  0  0
  152.0097  144.4875  159.5461 C   0  0  0  0  0  0  0  0  0  0  0  0
  151.7109  143.2571  158.7935 N   0  0  0  0  0  0  0  0  0  0  0  0
  150.5317  142.9433  158.1997 C   0  0  0  0  0  0  0  0  0  0  0  0
  149.4665  143.4960  158.4758 O   0  0  0  0  0  0  0  0  0  0  0  0
  150.6032  141.9479  157.3002 N   0  0  0  0  0  0  0  0  0  0  0  0
  149.4779  141.4020  156.5472 C   0  0  0  0  0  0  0  0  0  0  0  0
  149.7516  141.2849  155.0328 C   0  0  0  0  0  0  0  0  0  0  0  0
  148.6336  140.6777  154.2362 C   0  0  0  0  0  0  0  0  0  0  0  0
  148.7347  139.5613  153.5045 N   0  3  0  0  0  0  0  0  0  0  0  0
  147.5462  139.2827  152.8884 C   0  0  0  0  0  0  0  0  0  0  0  0
  146.6768  140.2729  153.2624 C   0  0  0  0  0  0  0  0  0  0  0  0
  147.3708  141.1177  154.0910 N   0  0  0  0  0  0  0  0  0  0  0  0
  146.8331  142.3175  154.7409 C   0  0  0  0  0  0  0  0  0  0  0  0
  146.4009  143.1874  153.8284 F   0  0  0  0  0  0  0  0  0  0  0  0
  145.8505  141.9962  155.5810 F   0  0  0  0  0  0  0  0  0  0  0  0
  152.8035  142.2841  158.9162 C   0  0  0  0  0  0  0  0  0  0  0  0
  152.9086  141.8371  160.3860 C   0  0  0  0  0  0  0  0  0  0  0  0
  152.1497  142.1836  163.0853 H   0  0  0  0  0  0  0  0  0  0  0  0
  153.2898  143.4743  163.4558 H   0  0  0  0  0  0  0  0  0  0  0  0
  153.8836  141.8819  163.0006 H   0  0  0  0  0  0  0  0  0  0  0  0
  154.0959  143.4643  161.1100 H   0  0  0  0  0  0  0  0  0  0  0  0
  151.0837  143.8201  161.3822 H   0  0  0  0  0  0  0  0  0  0  0  0
  152.3091  145.0432  161.6194 H   0  0  0  0  0  0  0  0  0  0  0  0
  151.2979  145.2957  159.3790 H   0  0  0  0  0  0  0  0  0  0  0  0
  152.9721  144.8825  159.2174 H   0  0  0  0  0  0  0  0  0  0  0  0
  151.5104  141.5420  157.1214 H   0  0  0  0  0  0  0  0  0  0  0  0
  149.1850  140.4336  156.9555 H   0  0  0  0  0  0  0  0  0  0  0  0
  148.6329  142.0680  156.7165 H   0  0  0  0  0  0  0  0  0  0  0  0
  149.9295  142.2727  154.6060 H   0  0  0  0  0  0  0  0  0  0  0  0
  150.6527  140.7012  154.8477 H   0  0  0  0  0  0  0  0  0  0  0  0
  147.4121  138.4228  152.2484 H   0  0  0  0  0  0  0  0  0  0  0  0
  145.6395  140.4341  153.0067 H   0  0  0  0  0  0  0  0  0  0  0  0
  147.6210  142.8021  155.3185 H   0  0  0  0  0  0  0  0  0  0  0  0
  152.6695  141.4139  158.2722 H   0  0  0  0  0  0  0  0  0  0  0  0
  153.7387  142.7458  158.5961 H   0  0  0  0  0  0  0  0  0  0  0  0
  153.7321  141.1316  160.4998 H   0  0  0  0  0  0  0  0  0  0  0  0
  152.0011  141.2994  160.6647 H   0  0  0  0  0  0  0  0  0  0  0  0
  149.5765  139.0048  153.4203 H   0  0  0  0  0  0  0  0  0  0  0  0
  1  2  1  0  0  0  0
  1 21  1  0  0  0  0
  1 22  1  0  0  0  0
  1 23  1  0  0  0  0
  2 20  1  0  0  0  0
  2  3  1  0  0  0  0
  2 24  1  0  0  0  0
  3  4  1  0  0  0  0
  3 25  1  0  0  0  0
  3 26  1  0  0  0  0
  4  5  1  0  0  0  0
  4 27  1  0  0  0  0
  4 28  1  0  0  0  0
  5  6  1  0  0  0  0
  5 19  1  0  0  0  0
  6  7  2  0  0  0  0
  6  8  1  0  0  0  0
  8  9  1  0  0  0  0
  8 29  1  0  0  0  0
  9 10  1  0  0  0  0
  9 30  1  0  0  0  0
  9 31  1  0  0  0  0
 10 11  1  0  0  0  0
 10 32  1  0  0  0  0
 10 33  1  0  0  0  0
 11 15  1  0  0  0  0
 11 12  2  0  0  0  0
 12 13  1  0  0  0  0
 12 41  1  0  0  0  0
 13 14  2  0  0  0  0
 13 34  1  0  0  0  0
 14 15  1  0  0  0  0
 14 35  1  0  0  0  0
 15 16  1  0  0  0  0
 16 17  1  0  0  0  0
 16 18  1  0  0  0  0
 16 36  1  0  0  0  0
 19 20  1  0  0  0  0
 19 37  1  0  0  0  0
 19 38  1  0  0  0  0
 20 39  1  0  0  0  0
 20 40  1  0  0  0  0
M  CHG  1  12   1
M  END
> <s_m_source_file>
AV-unprocessed.smi

> <i_m_source_file_index>
1039

> <i_lp_mmshare_version>
43012

> <i_f3d_flags>
0

> <s_epik_input>
W0NIM11bQ0hdMVtDSDJdW0NIMl1OKFtDSDJdW0NIMl0xKUMoPU8pW05IXVtDSDJdW0NIMl1jMm5bY0hdW2NIXW4yW0NIXShGKUY=

> <s_epik_cmdline>
J2VwaWtfcHl0aG9uJywgJy1waCcsICc3LjAnLCAnLXRuJywgJzgnLCAnLW1hJywgJzIwMCcsICctbWV0YWxfYmluZGluZycsICctaW1hZScsICc8aW5maWxlLm1hZT4nLCAnLW9tYWUnLCAnPG91dGZpbGUubWFlPic=

> <r_lp_tautomer_probability>
1

> <r_epik_Ionization_Penalty>
1.09425

> <r_epik_Ionization_Penalty_Charging>
0

> <r_epik_Ionization_Penalty_Neutral>
1.09425

> <r_epik_State_Penalty>
1.15074

> <r_epik_Charging_Adjusted_Penalty>
1.15074

> <i_epik_Tot_Q>
1

> <i_epik_Tot_abs_Q>
1

> <r_epik_Metal_State_Penalty>
1.2388

> <b_epik_Metal_Only>
0

> <s_lp_Force_Field>
OPLS_2005

> <r_lp_Energy>
37.2769

> <b_lp_Chiralities_Consistent>
1

> <s_lp_Variant>
AV-unprocessed.smi:1039-2

> <Gold.Version>
5.8.1

> <Gold.Id.Protein>
6NUR|6NUR_protein|mol2

> <Gold.PLP.Fitness>
49.5237

> <Gold.PLP.PLP>
-47.0092

> <Gold.PLP.part.hbond>
-1.0000

> <Gold.PLP.part.metal>
0.0000

> <Gold.PLP.part.buried>
-1.2496

> <Gold.PLP.part.nonpolar>
-43.8212

> <Gold.PLP.part.repulsive>
0.6339

> <Gold.PLP.ligand.clash>
0.0000

> <Gold.PLP.ligand.torsion>
0.2771

> <Gold.PLP.Chemscore.Hbond>
0.0000

> <Gold.PLP.Chemscore.CHOScore>
0.9979

> <Gold.PLP.Chemscore.Metal>
0.0000

> <Gold.Chemscore.Hbonds>
donor molecule, donor type, donor heavy atom, donor atom, acceptor molecule, acceptor atom, score
      L1  C    14    35       P1 10175  0.98

> <Gold.PLP.Chemscore.Internal.Correction>
0.0751

> <Gold.Rescore>
     Score         DG    S(hbond)    S(metal)    S(lipo)     H(rot)  DE(clash)    DE(int)     intcor
     12.43     -13.07       0.00        0.00      99.99       1.61       0.38       0.25       ----

> <Gold.Chemscore.Fitness>
12.4336

> <Gold.Chemscore.DG>
-13.0694

> <Gold.Chemscore.ZeroCoef>
-5.4800

> <Gold.Chemscore.Hbond>
0.0000

> <Gold.Chemscore.Metal>
0.0000

> <Gold.Chemscore.Lipo>
99.9875

> <Gold.Chemscore.Internal_Hbond>
0.0000

> <Gold.Chemscore.DEClash>
0.3829

> <Gold.Chemscore.DEInternal>
0.2529

> <Gold.Chemscore.Rot>
1.6051

> <Gold.Chemscore.Internal.Correction>
   9.000000E+99

> <Gold.Chemscore.Hbond.Weighted>
-0.0000

> <Gold.Chemscore.Metal.Weighted>
-0.0000

> <Gold.Chemscore.Lipo.Weighted>
-11.6985

> <Gold.Chemscore.Internal_Hbond.Weighted>
0.0000

> <Gold.Chemscore.DEClash.Weighted>
0.3829

> <Gold.Chemscore.DEInternal.Weighted>
0.2529

> <Gold.Chemscore.Rot.Weighted>
4.1092

> <Gold.Chemscore.Internal.Correction.Weighted>
   9.000000E+99

> <Gold.Protein.RotatedTorsions>
[ 6907 6896 6895 6894 ] final  155.20 input  -60.11 | X-H torsion
[ 7974 7965 7964 7962 ] final  118.16 input  175.53 | X-H torsion
[ 8008 7997 7996 7995 ] final   92.64 input   59.86 | X-H torsion
[ 10167 10162 10161 10158 ] final   66.76 input  -65.29 | X-H torsion
[ 10718 10713 10712 10709 ] final  124.45 input   66.30 | X-H torsion
[ 10763 10752 10751 10750 ] final   81.86 input  -60.55 | X-H torsion
[ 11005 11000 10999 10996 ] final   80.80 input  -57.11 | X-H torsion

> <Gold.Protein.ActiveResidues>
 VAL166  LYS551  ARG553  GLY616  TRP617  ASP618  TYR619  PRO620  LYS621  CYS622 
 ASP623  PHE694  ASN695  SER759  ASP760  ASP761  ALA762  ILE779  LEU786  VAL792 
 PHE793  MET794  SER795  GLU796  ALA797  LYS798  CYS799  TRP800  GLU811  SER814 

> <Gold.Protein.RotatedAtoms>
  152.0475  133.4004  159.4362 H   0  0  0  0  0  0  0  0  0  0  0  0  # atno 6907 bound_to 6896
  150.6872  134.3345  159.4850 H   0  0  0  0  0  0  0  0  0  0  0  0  # atno 6908 bound_to 6896
  152.1151  134.9246  160.0616 H   0  0  0  0  0  0  0  0  0  0  0  0  # atno 6909 bound_to 6896
  145.1586  139.3168  143.4529 H   0  0  0  0  0  0  0  0  0  0  0  0  # atno 7974 bound_to 7965
  156.0376  140.3323  155.7208 H   0  0  0  0  0  0  0  0  0  0  0  0  # atno 8008 bound_to 7997
  155.5792  140.0635  157.2805 H   0  0  0  0  0  0  0  0  0  0  0  0  # atno 8009 bound_to 7997
  154.4379  140.1847  156.0947 H   0  0  0  0  0  0  0  0  0  0  0  0  # atno 8010 bound_to 7997
  140.0969  144.4938  150.7062 H   0  0  0  0  0  0  0  0  0  0  0  0  # atno 10167 bound_to 10162
  157.5584  131.1091  150.8581 H   0  0  0  0  0  0  0  0  0  0  0  0  # atno 10718 bound_to 10713
  153.1153  135.4750  154.9104 H   0  0  0  0  0  0  0  0  0  0  0  0  # atno 10763 bound_to 10752
  154.7521  135.3109  154.8540 H   0  0  0  0  0  0  0  0  0  0  0  0  # atno 10764 bound_to 10752
  153.9118  135.6864  153.4804 H   0  0  0  0  0  0  0  0  0  0  0  0  # atno 10765 bound_to 10752
  139.9121  134.7948  156.1957 H   0  0  0  0  0  0  0  0  0  0  0  0  # atno 11005 bound_to 11000
  146.3485  140.1688  142.8590 LP  0  0  0  0  0  0  0  0  0  0  0  0  # atno 17320 bound_to 7965
  145.0355  140.8904  143.5084 LP  0  0  0  0  0  0  0  0  0  0  0  0  # atno 17321 bound_to 7965
  140.6999  143.2427  151.4895 LP  0  0  0  0  0  0  0  0  0  0  0  0  # atno 17342 bound_to 10162
  139.5693  144.1967  152.1812 LP  0  0  0  0  0  0  0  0  0  0  0  0  # atno 17343 bound_to 10162
  156.9086  130.5272  149.5281 LP  0  0  0  0  0  0  0  0  0  0  0  0  # atno 17370 bound_to 10713
  156.0640  130.5687  150.9250 LP  0  0  0  0  0  0  0  0  0  0  0  0  # atno 17371 bound_to 10713
  141.0556  133.6867  156.1854 LP  0  0  0  0  0  0  0  0  0  0  0  0  # atno 17394 bound_to 11000
  140.6742  134.4836  157.5588 LP  0  0  0  0  0  0  0  0  0  0  0  0  # atno 17395 bound_to 11000

$$$$
