AV-unprocessed.smi:3303|AV-procd|sdf|12677|dock4
  -GOLD-   2272019 13D 1   1.00000     0.00000
 Structure written by MMmdl.
 44 45  0  0  0  0  0  0  0  0  2 V2000
  151.4312  139.7454  155.5309 C   0  0  0  0  0  0  0  0  0  0  0  0
  149.9370  140.0445  155.7350 C   0  0  2  0  0  0  0  0  0  0  0  0
  149.2311  140.4089  154.4149 C   0  0  0  0  0  0  0  0  0  0  0  0
  147.7866  140.5605  154.6121 N   0  0  0  0  0  0  0  0  0  0  0  0
  147.1956  140.8110  153.2999 C   0  0  0  0  0  0  0  0  0  0  0  0
  147.4945  141.6467  155.5646 C   0  0  1  0  0  0  0  0  0  0  0  0
  145.9786  141.8371  155.7746 C   0  0  0  0  0  0  0  0  0  0  0  0
  148.1645  141.3430  156.9254 C   0  0  0  0  0  0  0  0  0  0  0  0
  149.6791  141.1224  156.8048 C   0  0  2  0  0  0  0  0  0  0  0  0
  150.3625  142.3973  156.4818 N   0  3  0  0  0  0  0  0  0  0  0  0
  150.9645  143.0911  157.6377 C   0  0  0  0  0  0  0  0  0  0  0  0
  152.0315  142.2163  158.3092 C   0  0  0  0  0  0  0  0  0  0  0  0
  152.3298  142.6631  159.7275 C   0  0  0  0  0  0  0  0  0  0  0  0
  153.1312  141.8735  160.5796 C   0  0  0  0  0  0  0  0  0  0  0  0
  153.3723  142.3330  161.8891 C   0  0  0  0  0  0  0  0  0  0  0  0
  152.8052  143.5568  162.2936 C   0  0  0  0  0  0  0  0  0  0  0  0
  152.0175  144.2695  161.3674 C   0  0  0  0  0  0  0  0  0  0  0  0
  151.7785  143.8368  160.1102 N   0  0  0  0  0  0  0  0  0  0  0  0
  151.9651  140.6055  155.1263 H   0  0  0  0  0  0  0  0  0  0  0  0
  151.5711  138.9169  154.8361 H   0  0  0  0  0  0  0  0  0  0  0  0
  151.9077  139.4681  156.4716 H   0  0  0  0  0  0  0  0  0  0  0  0
  149.4856  139.1178  156.0949 H   0  0  0  0  0  0  0  0  0  0  0  0
  149.6528  141.3227  153.9932 H   0  0  0  0  0  0  0  0  0  0  0  0
  149.4102  139.6144  153.6887 H   0  0  0  0  0  0  0  0  0  0  0  0
  146.1073  140.7997  153.3431 H   0  0  0  0  0  0  0  0  0  0  0  0
  147.4851  140.0334  152.5921 H   0  0  0  0  0  0  0  0  0  0  0  0
  147.5161  141.7728  152.8968 H   0  0  0  0  0  0  0  0  0  0  0  0
  147.9045  142.5777  155.1698 H   0  0  0  0  0  0  0  0  0  0  0  0
  145.7846  142.5485  156.5777 H   0  0  0  0  0  0  0  0  0  0  0  0
  145.4918  140.8988  156.0432 H   0  0  0  0  0  0  0  0  0  0  0  0
  145.4855  142.2333  154.8873 H   0  0  0  0  0  0  0  0  0  0  0  0
  147.9670  142.1509  157.6315 H   0  0  0  0  0  0  0  0  0  0  0  0
  147.7092  140.4503  157.3577 H   0  0  0  0  0  0  0  0  0  0  0  0
  150.0457  140.7546  157.7648 H   0  0  0  0  0  0  0  0  0  0  0  0
  151.0917  142.2013  155.8114 H   0  0  0  0  0  0  0  0  0  0  0  0
  151.4047  144.0304  157.2999 H   0  0  0  0  0  0  0  0  0  0  0  0
  150.1823  143.3380  158.3570 H   0  0  0  0  0  0  0  0  0  0  0  0
  151.7063  141.1751  158.3223 H   0  0  0  0  0  0  0  0  0  0  0  0
  152.9559  142.2419  157.7301 H   0  0  0  0  0  0  0  0  0  0  0  0
  153.5524  140.9381  160.2413 H   0  0  0  0  0  0  0  0  0  0  0  0
  153.9816  141.7577  162.5705 H   0  0  0  0  0  0  0  0  0  0  0  0
  152.9701  143.9410  163.2895 H   0  0  0  0  0  0  0  0  0  0  0  0
  151.5670  145.2113  161.6437 H   0  0  0  0  0  0  0  0  0  0  0  0
  149.6911  143.0172  156.0519 H   0  0  0  0  0  0  0  0  0  0  0  0
  1  2  1  0  0  0  0
  1 19  1  0  0  0  0
  1 20  1  0  0  0  0
  1 21  1  0  0  0  0
  2  9  1  0  0  0  0
  2  3  1  0  0  0  0
  2 22  1  0  0  0  0
  3  4  1  0  0  0  0
  3 23  1  0  0  0  0
  3 24  1  0  0  0  0
  4  5  1  0  0  0  0
  4  6  1  0  0  0  0
  5 25  1  0  0  0  0
  5 26  1  0  0  0  0
  5 27  1  0  0  0  0
  6  7  1  0  0  0  0
  6  8  1  0  0  0  0
  6 28  1  0  0  0  0
  7 29  1  0  0  0  0
  7 30  1  0  0  0  0
  7 31  1  0  0  0  0
  8  9  1  0  0  0  0
  8 32  1  0  0  0  0
  8 33  1  0  0  0  0
  9 10  1  0  0  0  0
  9 34  1  0  0  0  0
 10 11  1  0  0  0  0
 10 35  1  0  0  0  0
 10 44  1  0  0  0  0
 11 12  1  0  0  0  0
 11 36  1  0  0  0  0
 11 37  1  0  0  0  0
 12 13  1  0  0  0  0
 12 38  1  0  0  0  0
 12 39  1  0  0  0  0
 13 18  1  0  0  0  0
 13 14  2  0  0  0  0
 14 15  1  0  0  0  0
 14 40  1  0  0  0  0
 15 16  2  0  0  0  0
 15 41  1  0  0  0  0
 16 17  1  0  0  0  0
 16 42  1  0  0  0  0
 17 18  2  0  0  0  0
 17 43  1  0  0  0  0
M  CHG  1  10   1
M  END
> <s_m_source_file>
AV-unprocessed.smi

> <i_m_source_file_index>
3303

> <i_lp_mmshare_version>
43012

> <i_f3d_flags>
0

> <s_epik_input>
W0NIM11bQ0BASF0xW0NIMl1OKFtDSDNdKVtDQEBIXShbQ0gzXSlbQ0gyXVtDQEhdMVtOSF1bQ0gyXVtDSDJdYzJbY0hdW2NIXVtjSF1bY0hdbjI=

> <s_epik_cmdline>
J2VwaWtfcHl0aG9uJywgJy1waCcsICc3LjAnLCAnLXRuJywgJzgnLCAnLW1hJywgJzIwMCcsICctbWV0YWxfYmluZGluZycsICctaW1hZScsICc8aW5maWxlLm1hZT4nLCAnLW9tYWUnLCAnPG91dGZpbGUubWFlPic=

> <r_epik_Ionization_Penalty>
1.37325

> <r_epik_Ionization_Penalty_Charging>
0.000251572

> <r_epik_Ionization_Penalty_Neutral>
1.373

> <r_epik_State_Penalty>
1.46343

> <r_epik_Charging_Adjusted_Penalty>
1.46368

> <i_epik_Tot_Q>
1

> <i_epik_Tot_abs_Q>
1

> <r_epik_Metal_State_Penalty>
1.46331

> <b_epik_Metal_Only>
0

> <s_lp_Force_Field>
OPLS_2005

> <r_lp_Energy>
25.9316

> <b_lp_Chiralities_Consistent>
1

> <s_lp_Variant>
AV-unprocessed.smi:3303-21

> <Gold.Version>
5.8.1

> <Gold.Id.Protein>
6NUR|6NUR_protein|mol2

> <Gold.PLP.Fitness>
45.1486

> <Gold.PLP.PLP>
-40.5669

> <Gold.PLP.part.hbond>
-1.0000

> <Gold.PLP.part.metal>
0.0000

> <Gold.PLP.part.buried>
-5.9560

> <Gold.PLP.part.nonpolar>
-34.7311

> <Gold.PLP.part.repulsive>
0.2262

> <Gold.PLP.ligand.clash>
0.0000

> <Gold.PLP.ligand.torsion>
0.7176

> <Gold.PLP.Chemscore.Hbond>
2.0000

> <Gold.PLP.Chemscore.CHOScore>
0.0000

> <Gold.PLP.Chemscore.Metal>
0.0000

> <Gold.Chemscore.Hbonds>
donor molecule, donor type, donor heavy atom, donor atom, acceptor molecule, acceptor atom, score
      L1  H    10    44       P1  8028  2.00

> <Gold.PLP.Chemscore.Internal.Correction>
0.0169

> <Gold.Rescore>
     Score         DG    S(hbond)    S(metal)    S(lipo)     H(rot)  DE(clash)    DE(int)     intcor
     18.85     -19.65       0.98        0.00     122.34       1.33       0.22       0.59       ----

> <Gold.Chemscore.Fitness>
18.8488

> <Gold.Chemscore.DG>
-19.6526

> <Gold.Chemscore.ZeroCoef>
-5.4800

> <Gold.Chemscore.Hbond>
0.9769

> <Gold.Chemscore.Metal>
0.0000

> <Gold.Chemscore.Lipo>
122.3412

> <Gold.Chemscore.Internal_Hbond>
0.0000

> <Gold.Chemscore.DEClash>
0.2166

> <Gold.Chemscore.DEInternal>
0.5871

> <Gold.Chemscore.Rot>
1.3298

> <Gold.Chemscore.Internal.Correction>
   9.000000E+99

> <Gold.Chemscore.Hbonds>
donor molecule, donor type, donor heavy atom, donor atom, acceptor molecule, acceptor atom, score
      L1  H    10    44       P1  8028  0.98

> <Gold.Chemscore.Hbond.Weighted>
-3.2630

> <Gold.Chemscore.Metal.Weighted>
-0.0000

> <Gold.Chemscore.Lipo.Weighted>
-14.3139

> <Gold.Chemscore.Internal_Hbond.Weighted>
0.0000

> <Gold.Chemscore.DEClash.Weighted>
0.2166

> <Gold.Chemscore.DEInternal.Weighted>
0.5871

> <Gold.Chemscore.Rot.Weighted>
3.4043

> <Gold.Chemscore.Internal.Correction.Weighted>
   9.000000E+99

> <Gold.Protein.RotatedTorsions>
[ 6907 6896 6895 6894 ] final -146.71 input  -60.11 | X-H torsion
[ 7974 7965 7964 7962 ] final   26.33 input  175.53 | X-H torsion
[ 8008 7997 7996 7995 ] final  107.09 input   59.86 | X-H torsion
[ 10167 10162 10161 10158 ] final -158.90 input  -65.29 | X-H torsion
[ 10718 10713 10712 10709 ] final   75.22 input   66.30 | X-H torsion
[ 10763 10752 10751 10750 ] final   99.33 input  -60.55 | X-H torsion
[ 11005 11000 10999 10996 ] final -140.50 input  -57.11 | X-H torsion

> <Gold.Protein.ActiveResidues>
 VAL166  LYS551  ARG553  GLY616  TRP617  ASP618  TYR619  PRO620  LYS621  CYS622 
 ASP623  PHE694  ASN695  SER759  ASP760  ASP761  ALA762  ILE779  LEU786  VAL792 
 PHE793  MET794  SER795  GLU796  ALA797  LYS798  CYS799  TRP800  GLU811  SER814 

> <Gold.Protein.RotatedAtoms>
  151.1454  133.4943  159.2595 H   0  0  0  0  0  0  0  0  0  0  0  0  # atno 6907 bound_to 6896
  151.1610  135.0273  159.8720 H   0  0  0  0  0  0  0  0  0  0  0  0  # atno 6908 bound_to 6896
  152.5463  134.1328  159.8499 H   0  0  0  0  0  0  0  0  0  0  0  0  # atno 6909 bound_to 6896
  146.1843  139.7343  142.8878 H   0  0  0  0  0  0  0  0  0  0  0  0  # atno 7974 bound_to 7965
  156.1796  140.3101  155.9124 H   0  0  0  0  0  0  0  0  0  0  0  0  # atno 8008 bound_to 7997
  155.3412  140.0466  157.3062 H   0  0  0  0  0  0  0  0  0  0  0  0  # atno 8009 bound_to 7997
  154.5328  140.2236  155.8784 H   0  0  0  0  0  0  0  0  0  0  0  0  # atno 8010 bound_to 7997
  139.6656  143.9834  152.2253 H   0  0  0  0  0  0  0  0  0  0  0  0  # atno 10167 bound_to 10162
  157.6625  130.9716  150.1323 H   0  0  0  0  0  0  0  0  0  0  0  0  # atno 10718 bound_to 10713
  153.3001  135.4117  155.1245 H   0  0  0  0  0  0  0  0  0  0  0  0  # atno 10763 bound_to 10752
  154.8547  135.3539  154.5863 H   0  0  0  0  0  0  0  0  0  0  0  0  # atno 10764 bound_to 10752
  153.6288  135.7061  153.5341 H   0  0  0  0  0  0  0  0  0  0  0  0  # atno 10765 bound_to 10752
  140.8416  134.2395  157.4807 H   0  0  0  0  0  0  0  0  0  0  0  0  # atno 11005 bound_to 11000
  145.3985  141.0382  143.3084 LP  0  0  0  0  0  0  0  0  0  0  0  0  # atno 17320 bound_to 7965
  144.8369  139.5535  143.6918 LP  0  0  0  0  0  0  0  0  0  0  0  0  # atno 17321 bound_to 7965
  139.9585  144.6573  150.8102 LP  0  0  0  0  0  0  0  0  0  0  0  0  # atno 17342 bound_to 10162
  140.7598  143.3137  151.2784 LP  0  0  0  0  0  0  0  0  0  0  0  0  # atno 17343 bound_to 10162
  156.2166  130.3671  149.8605 LP  0  0  0  0  0  0  0  0  0  0  0  0  # atno 17370 bound_to 10713
  156.6469  130.8728  151.3524 LP  0  0  0  0  0  0  0  0  0  0  0  0  # atno 17371 bound_to 10713
  139.8703  134.9638  156.4474 LP  0  0  0  0  0  0  0  0  0  0  0  0  # atno 17394 bound_to 11000
  140.8889  133.7863  155.9549 LP  0  0  0  0  0  0  0  0  0  0  0  0  # atno 17395 bound_to 11000

$$$$
