#       Name:                AV-unprocessed.smi:1693
#       Creating user name   scv26
#       Creation time:       Fri Mar 27 07:54:46 2020


#       File generated by GOLD software.
#

@<TRIPOS>MOLECULE
AV-unprocessed.smi:1693
    42    43     1
SMALL
NO_CHARGES


@<TRIPOS>ATOM
      1 ****        -6.8346   2.6385   1.4012 C.3            1 S1                 0.0000
      2 ****        -5.3897   2.2734   1.3806 C.2            1 S1                 0.0000
      3 ****        -4.4098   3.1853   1.3967 N.2            1 S1                 0.0000
      4 ****        -3.1497   2.6039   1.3755 N.2            1 S1                 0.0000
      5 ****        -3.2174   1.2658   1.3438 C.2            1 S1                 0.0000
      6 ****        -2.0787   0.4180   1.3204 N.am           1 S1                 0.0000
      7 ****        -0.7799   0.7655   1.3252 C.2            1 S1                 0.0000
      8 ****        -0.3514   1.9194   1.3462 O.2            1 S1                 0.0000
      9 ****         0.0087  -0.3181   1.3002 N.am           1 S1                 0.0000
     10 ****         1.4687  -0.2970   1.2507 C.3            1 S1                 0.0000
     11 ****         2.0373  -0.4269  -0.1857 C.3            1 S1                 0.0000
     12 ****         1.8909   0.8372  -0.8067 O.3            1 S1                 0.0000
     13 ****         3.5549  -0.7251  -0.1164 C.3            1 S1                 0.0000
     14 ****         4.1910  -0.9596  -1.4982 C.3            1 S1                 0.0000
     15 ****         3.4576  -2.0670  -2.2663 C.3            1 S1                 0.0000
     16 ****         1.9655  -1.7372  -2.4049 C.3            1 S1                 0.0000
     17 ****         1.3091  -1.5030  -1.0326 C.3            1 S1                 0.0000
     18 ****        -4.8424   0.6020   1.3353 S.3            1 S1                 0.0000
     19 ****        -6.9586   3.7220   1.3900 H              1 S1                 0.0000
     20 ****        -7.3057   2.2423   2.3008 H              1 S1                 0.0000
     21 ****        -7.3369   2.2206   0.5288 H              1 S1                 0.0000
     22 ****        -2.2767  -0.5713   1.2976 H              1 S1                 0.0000
     23 ****        -0.4313  -1.2263   1.2861 H              1 S1                 0.0000
     24 ****         1.8714   0.5837   1.7549 H              1 S1                 0.0000
     25 ****         1.7978  -1.1505   1.8440 H              1 S1                 0.0000
     26 ****         2.2529   0.7868  -1.6779 H              1 S1                 0.0000
     27 ****         4.0771   0.0848   0.3951 H              1 S1                 0.0000
     28 ****         3.7185  -1.6165   0.4907 H              1 S1                 0.0000
     29 ****         4.1727  -0.0363  -2.0784 H              1 S1                 0.0000
     30 ****         5.2418  -1.2251  -1.3798 H              1 S1                 0.0000
     31 ****         3.9038  -2.1943  -3.2529 H              1 S1                 0.0000
     32 ****         3.5778  -3.0178  -1.7456 H              1 S1                 0.0000
     33 ****         1.8436  -0.8506  -3.0282 H              1 S1                 0.0000
     34 ****         1.4544  -2.5482  -2.9243 H              1 S1                 0.0000
     35 ****         1.3020  -2.4449  -0.4825 H              1 S1                 0.0000
     36 ****         0.2637  -1.2321  -1.1849 H              1 S1                 0.0000
     37 ****        -4.5676   4.1724   1.4212 LP             1 S1                 0.0000
     38 ****        -2.2940   3.1213   1.3830 LP             1 S1                 0.0000
     39 ****        -0.9892   2.6894   1.3615 LP             1 S1                 0.0000
     40 ****         0.6346   2.0867   1.3481 LP             1 S1                 0.0000
     41 ****         2.3794   1.5313  -0.2780 LP             1 S1                 0.0000
     42 ****         0.9217   1.0778  -0.8575 LP             1 S1                 0.0000
@<TRIPOS>BOND
    1    1    2 1     
    2    1   19 1     
    3    1   20 1     
    4    1   21 1     
    5    2   18 1     
    6    2    3 2     
    7    3    4 1     
    8    4    5 2     
    9    5    6 1     
   10    5   18 1     
   11    6    7 am    
   12    6   22 1     
   13    7    8 2     
   14    7    9 am    
   15    9   10 1     
   16    9   23 1     
   17   10   11 1     
   18   10   24 1     
   19   10   25 1     
   20   11   17 1     
   21   11   12 1     
   22   11   13 1     
   23   12   26 1     
   24   13   14 1     
   25   13   27 1     
   26   13   28 1     
   27   14   15 1     
   28   14   29 1     
   29   14   30 1     
   30   15   16 1     
   31   15   31 1     
   32   15   32 1     
   33   16   17 1     
   34   16   33 1     
   35   16   34 1     
   36   17   35 1     
   37   17   36 1     
   38    3   37 1     
   39    4   38 1     
   40    8   39 1     
   41    8   40 1     
   42   12   41 1     
   43   12   42 1     
@<TRIPOS>SUBSTRUCTURE
      1 S1             1
@<TRIPOS>SET
LONE_PAIRS      STATIC     ATOMS    <user>   **** ""
6 37 38 39 40 41 42
DONOR_HYDROGENS      STATIC     ATOMS    <user>   **** ""
3 22 23 26
ATOM$BLUE        STATIC     ATOMS    COLORGROUP SYSTEM
6 37 38 39 40 41 42
ATOM$RED        STATIC     ATOMS    COLORGROUP SYSTEM
3 22 23 26
