AV-unprocessed.smi:2945|AV-procd|sdf|11278|dock7
  -GOLD-   2272016173D 1   1.00000     0.00000
 Structure written by MMmdl.
 36 37  0  0  0  0  0  0  0  0  1 V2000
  147.3736  134.6898  162.6855 C   0  0  0  0  0  0  0  0  0  0  0  0
  147.4408  135.7522  161.6424 C   0  0  0  0  0  0  0  0  0  0  0  0
  148.4194  136.1400  160.7711 C   0  0  0  0  0  0  0  0  0  0  0  0
  147.8112  137.2104  160.0629 C   0  0  0  0  0  0  0  0  0  0  0  0
  148.5146  137.8979  159.0415 N   0  0  0  0  0  0  0  0  0  0  0  0
  149.7583  138.4032  159.0984 C   0  0  0  0  0  0  0  0  0  0  0  0
  150.5092  138.3307  160.0716 O   0  0  0  0  0  0  0  0  0  0  0  0
  150.0873  139.0023  157.9443 N   0  0  0  0  0  0  0  0  0  0  0  0
  151.3555  139.6717  157.6462 C   0  0  2  0  0  0  0  0  0  0  0  0
  151.6333  140.7565  158.7064 C   0  0  0  0  0  0  0  0  0  0  0  0
  150.6693  141.9494  158.5842 C   0  0  0  0  0  0  0  0  0  0  0  0
  150.6954  142.5423  157.1675 C   0  0  0  0  0  0  0  0  0  0  0  0
  150.3973  141.4711  156.1060 C   0  0  0  0  0  0  0  0  0  0  0  0
  151.3659  140.2752  156.2183 C   0  0  2  0  0  0  0  0  0  0  0  0
  151.1047  139.2301  155.1203 C   0  0  0  0  0  0  0  0  0  0  0  0
  146.5742  137.4554  160.4665 N   0  0  0  0  0  0  0  0  0  0  0  0
  146.3305  136.5223  161.4813 O   0  0  0  0  0  0  0  0  0  0  0  0
  148.2717  134.0719  162.6712 H   0  0  0  0  0  0  0  0  0  0  0  0
  146.5144  134.0394  162.5211 H   0  0  0  0  0  0  0  0  0  0  0  0
  147.2811  135.1294  163.6788 H   0  0  0  0  0  0  0  0  0  0  0  0
  149.4088  135.7219  160.6593 H   0  0  0  0  0  0  0  0  0  0  0  0
  148.0126  138.0272  158.1759 H   0  0  0  0  0  0  0  0  0  0  0  0
  149.4004  139.0028  157.2049 H   0  0  0  0  0  0  0  0  0  0  0  0
  152.1683  138.9462  157.7100 H   0  0  0  0  0  0  0  0  0  0  0  0
  151.5745  140.3293  159.7082 H   0  0  0  0  0  0  0  0  0  0  0  0
  152.6570  141.1147  158.5909 H   0  0  0  0  0  0  0  0  0  0  0  0
  149.6550  141.6332  158.8300 H   0  0  0  0  0  0  0  0  0  0  0  0
  150.9355  142.7164  159.3118 H   0  0  0  0  0  0  0  0  0  0  0  0
  149.9705  143.3532  157.0912 H   0  0  0  0  0  0  0  0  0  0  0  0
  151.6740  142.9842  156.9753 H   0  0  0  0  0  0  0  0  0  0  0  0
  149.3671  141.1288  156.2118 H   0  0  0  0  0  0  0  0  0  0  0  0
  150.4701  141.9162  155.1132 H   0  0  0  0  0  0  0  0  0  0  0  0
  152.3718  140.6610  156.0452 H   0  0  0  0  0  0  0  0  0  0  0  0
  150.0919  138.8301  155.1747 H   0  0  0  0  0  0  0  0  0  0  0  0
  151.7986  138.3934  155.2037 H   0  0  0  0  0  0  0  0  0  0  0  0
  151.2321  139.6655  154.1290 H   0  0  0  0  0  0  0  0  0  0  0  0
  1  2  1  0  0  0  0
  1 18  1  0  0  0  0
  1 19  1  0  0  0  0
  1 20  1  0  0  0  0
  2 17  1  0  0  0  0
  2  3  2  0  0  0  0
  3  4  1  0  0  0  0
  3 21  1  0  0  0  0
  4  5  1  0  0  0  0
  4 16  2  0  0  0  0
  5  6  1  0  0  0  0
  5 22  1  0  0  0  0
  6  7  2  0  0  0  0
  6  8  1  0  0  0  0
  8  9  1  0  0  0  0
  8 23  1  0  0  0  0
  9 14  1  0  0  0  0
  9 10  1  0  0  0  0
  9 24  1  0  0  0  0
 10 11  1  0  0  0  0
 10 25  1  0  0  0  0
 10 26  1  0  0  0  0
 11 12  1  0  0  0  0
 11 27  1  0  0  0  0
 11 28  1  0  0  0  0
 12 13  1  0  0  0  0
 12 29  1  0  0  0  0
 12 30  1  0  0  0  0
 13 14  1  0  0  0  0
 13 31  1  0  0  0  0
 13 32  1  0  0  0  0
 14 15  1  0  0  0  0
 14 33  1  0  0  0  0
 15 34  1  0  0  0  0
 15 35  1  0  0  0  0
 15 36  1  0  0  0  0
 16 17  1  0  0  0  0
M  END
> <s_m_source_file>
AV-unprocessed.smi

> <i_m_source_file_index>
2945

> <i_lp_mmshare_version>
43012

> <i_f3d_flags>
0

> <s_epik_input>
W0NIM11jMVtjSF1jKG5vMSlbTkhdQyg9TylbTkhdW0NAQEhdMltDSDJdW0NIMl1bQ0gyXVtDSDJdW0NASF0yW0NIM10=

> <s_epik_cmdline>
J2VwaWtfcHl0aG9uJywgJy1waCcsICc3LjAnLCAnLXRuJywgJzgnLCAnLW1hJywgJzIwMCcsICctbWV0YWxfYmluZGluZycsICctaW1hZScsICc8aW5maWxlLm1hZT4nLCAnLW9tYWUnLCAnPG91dGZpbGUubWFlPic=

> <r_lp_tautomer_probability>
1

> <r_epik_Ionization_Penalty>
2.357e-05

> <r_epik_Ionization_Penalty_Charging>
0

> <r_epik_Ionization_Penalty_Neutral>
2.357e-05

> <r_epik_State_Penalty>
-0

> <r_epik_Charging_Adjusted_Penalty>
0

> <i_epik_Tot_Q>
0

> <i_epik_Tot_abs_Q>
0

> <r_epik_Metal_State_Penalty>
-0

> <b_epik_Metal_Only>
0

> <s_lp_Force_Field>
OPLS_2005

> <r_lp_Energy>
7.46694

> <b_lp_Chiralities_Consistent>
1

> <s_lp_Variant>
AV-unprocessed.smi:2945-3

> <Gold.Version>
5.8.1

> <Gold.Id.Protein>
6NUR|6NUR_protein|mol2

> <Gold.PLP.Fitness>
31.9509

> <Gold.PLP.PLP>
-29.8156

> <Gold.PLP.part.hbond>
-1.8006

> <Gold.PLP.part.metal>
0.0000

> <Gold.PLP.part.buried>
-3.4471

> <Gold.PLP.part.nonpolar>
-24.4424

> <Gold.PLP.part.repulsive>
0.1962

> <Gold.PLP.ligand.clash>
0.0000

> <Gold.PLP.ligand.torsion>
0.4357

> <Gold.PLP.Chemscore.Hbond>
1.0000

> <Gold.PLP.Chemscore.CHOScore>
0.0000

> <Gold.PLP.Chemscore.Metal>
0.0000

> <Gold.Chemscore.Hbonds>
donor molecule, donor type, donor heavy atom, donor atom, acceptor molecule, acceptor atom, score
      P1  H  6934  6947       L1    16  0.30

> <Gold.PLP.Chemscore.Internal.Correction>
0.0067

> <Gold.Rescore>
     Score         DG    S(hbond)    S(metal)    S(lipo)     H(rot)  DE(clash)    DE(int)     intcor
     12.68     -14.04       0.97        0.00      67.43       1.00       0.03       1.33       ----

> <Gold.Chemscore.Fitness>
12.6765

> <Gold.Chemscore.DG>
-14.0371

> <Gold.Chemscore.ZeroCoef>
-5.4800

> <Gold.Chemscore.Hbond>
0.9664

> <Gold.Chemscore.Metal>
0.0000

> <Gold.Chemscore.Lipo>
67.4297

> <Gold.Chemscore.Internal_Hbond>
0.0000

> <Gold.Chemscore.DEClash>
0.0282

> <Gold.Chemscore.DEInternal>
1.3323

> <Gold.Chemscore.Rot>
1.0000

> <Gold.Chemscore.Internal.Correction>
   9.000000E+99

> <Gold.Chemscore.Hbond.Weighted>
-3.2278

> <Gold.Chemscore.Metal.Weighted>
-0.0000

> <Gold.Chemscore.Lipo.Weighted>
-7.8893

> <Gold.Chemscore.Internal_Hbond.Weighted>
0.0000

> <Gold.Chemscore.DEClash.Weighted>
0.0282

> <Gold.Chemscore.DEInternal.Weighted>
1.3323

> <Gold.Chemscore.Rot.Weighted>
2.5600

> <Gold.Chemscore.Internal.Correction.Weighted>
   9.000000E+99

> <Gold.Protein.RotatedTorsions>
[ 6907 6896 6895 6894 ] final -145.04 input  -60.11 | X-H torsion
[ 7974 7965 7964 7962 ] final  -64.41 input  175.53 | X-H torsion
[ 8008 7997 7996 7995 ] final   57.18 input   59.86 | X-H torsion
[ 10167 10162 10161 10158 ] final  -94.72 input  -65.29 | X-H torsion
[ 10718 10713 10712 10709 ] final    6.06 input   66.30 | X-H torsion
[ 10763 10752 10751 10750 ] final  154.96 input  -60.55 | X-H torsion
[ 11005 11000 10999 10996 ] final   86.21 input  -57.11 | X-H torsion

> <Gold.Protein.ActiveResidues>
 VAL166  LYS551  ARG553  GLY616  TRP617  ASP618  TYR619  PRO620  LYS621  CYS622 
 ASP623  PHE694  ASN695  SER759  ASP760  ASP761  ALA762  ILE779  LEU786  VAL792 
 PHE793  MET794  SER795  GLU796  ALA797  LYS798  CYS799  TRP800  GLU811  SER814 

> <Gold.Protein.RotatedAtoms>
  151.1223  133.5095  159.2601 H   0  0  0  0  0  0  0  0  0  0  0  0  # atno 6907 bound_to 6896
  151.1848  135.0376  159.8817 H   0  0  0  0  0  0  0  0  0  0  0  0  # atno 6908 bound_to 6896
  152.5456  134.1071  159.8396 H   0  0  0  0  0  0  0  0  0  0  0  0  # atno 6909 bound_to 6896
  145.7670  140.8832  143.0400 H   0  0  0  0  0  0  0  0  0  0  0  0  # atno 7974 bound_to 7965
  155.5296  140.3482  155.4423 H   0  0  0  0  0  0  0  0  0  0  0  0  # atno 8008 bound_to 7997
  156.0728  140.1367  156.9835 H   0  0  0  0  0  0  0  0  0  0  0  0  # atno 8009 bound_to 7997
  154.4537  140.0962  156.6669 H   0  0  0  0  0  0  0  0  0  0  0  0  # atno 8010 bound_to 7997
  140.3115  143.3102  152.0143 H   0  0  0  0  0  0  0  0  0  0  0  0  # atno 10167 bound_to 10162
  156.9166  130.5775  149.5647 H   0  0  0  0  0  0  0  0  0  0  0  0  # atno 10718 bound_to 10713
  154.1607  135.2810  155.3109 H   0  0  0  0  0  0  0  0  0  0  0  0  # atno 10763 bound_to 10752
  154.6149  135.5486  153.7516 H   0  0  0  0  0  0  0  0  0  0  0  0  # atno 10764 bound_to 10752
  153.0193  135.6424  154.1749 H   0  0  0  0  0  0  0  0  0  0  0  0  # atno 10765 bound_to 10752
  139.8950  134.8339  156.2689 H   0  0  0  0  0  0  0  0  0  0  0  0  # atno 11005 bound_to 11000
  144.6819  139.9803  143.7483 LP  0  0  0  0  0  0  0  0  0  0  0  0  # atno 17320 bound_to 7965
  146.0207  139.3249  143.0814 LP  0  0  0  0  0  0  0  0  0  0  0  0  # atno 17321 bound_to 7965
  139.4893  144.6380  151.6935 LP  0  0  0  0  0  0  0  0  0  0  0  0  # atno 17342 bound_to 10162
  140.5563  144.0342  150.6149 LP  0  0  0  0  0  0  0  0  0  0  0  0  # atno 17343 bound_to 10162
  156.0511  130.5580  150.8990 LP  0  0  0  0  0  0  0  0  0  0  0  0  # atno 17370 bound_to 10713
  157.5934  131.0944  150.9081 LP  0  0  0  0  0  0  0  0  0  0  0  0  # atno 17371 bound_to 10713
  141.0114  133.7093  156.1118 LP  0  0  0  0  0  0  0  0  0  0  0  0  # atno 17394 bound_to 11000
  140.7362  134.4200  157.5560 LP  0  0  0  0  0  0  0  0  0  0  0  0  # atno 17395 bound_to 11000

$$$$
