AV-unprocessed.smi:1738|AV-procd|sdf|7002|dock1
  -GOLD-   22720 8213D 1   1.00000     0.00000
 Structure written by MMmdl.
 46 48  0  0  0  0  0  0  0  0  2 V2000
  154.5872  136.3972  157.9778 C   0  0  0  0  0  0  0  0  0  0  0  0
  153.1435  137.4239  158.4707 S   0  0  0  0  0  0  0  0  0  0  0  0
  152.6581  136.9428  159.7737 O   0  0  0  0  0  0  0  0  0  0  0  0
  153.5198  138.8374  158.3128 O   0  0  0  0  0  0  0  0  0  0  0  0
  151.9034  137.0314  157.2420 C   0  0  0  0  0  0  0  0  0  0  0  0
  151.9567  137.6175  155.9616 C   0  0  0  0  0  0  0  0  0  0  0  0
  150.9772  137.2475  155.0202 C   0  0  0  0  0  0  0  0  0  0  0  0
  149.9957  136.2944  155.3906 C   0  0  0  0  0  0  0  0  0  0  0  0
  148.9432  135.8453  154.5461 N   0  0  0  0  0  0  0  0  0  0  0  0
  147.7930  135.2325  154.8757 C   0  0  0  0  0  0  0  0  0  0  0  0
  147.4253  134.9665  156.0192 O   0  0  0  0  0  0  0  0  0  0  0  0
  147.0690  134.9449  153.7847 N   0  0  0  0  0  0  0  0  0  0  0  0
  145.7712  134.2757  153.7895 C   0  0  1  0  0  0  0  0  0  0  0  0
  144.5942  135.2502  153.9715 C   0  0  0  0  0  0  0  0  0  0  0  0
  143.4687  134.7054  153.0699 C   0  0  0  0  0  0  0  0  0  0  0  0
  143.9930  133.4468  152.5061 N   0  3  1  0  0  0  0  0  0  0  0  0
  143.4136  132.9888  151.2245 C   0  0  0  0  0  0  0  0  0  0  0  0
  144.0247  131.6239  150.8494 C   0  0  0  0  0  0  0  0  0  0  0  0
  145.5661  131.6677  150.8493 C   0  0  0  0  0  0  0  0  0  0  0  0
  146.1072  132.2408  152.1733 C   0  0  0  0  0  0  0  0  0  0  0  0
  145.4539  133.6058  152.4500 C   0  0  2  0  0  0  0  0  0  0  0  0
  150.0479  135.7717  156.7010 C   0  0  0  0  0  0  0  0  0  0  0  0
  150.9819  136.1173  157.6113 N   0  0  0  0  0  0  0  0  0  0  0  0
  155.4082  136.5689  158.6732 H   0  0  0  0  0  0  0  0  0  0  0  0
  154.9007  136.6703  156.9704 H   0  0  0  0  0  0  0  0  0  0  0  0
  154.3083  135.3439  157.9985 H   0  0  0  0  0  0  0  0  0  0  0  0
  152.7205  138.3359  155.7037 H   0  0  0  0  0  0  0  0  0  0  0  0
  150.9988  137.7093  154.0462 H   0  0  0  0  0  0  0  0  0  0  0  0
  149.0701  136.0450  153.5645 H   0  0  0  0  0  0  0  0  0  0  0  0
  147.4447  135.2055  152.8844 H   0  0  0  0  0  0  0  0  0  0  0  0
  145.7251  133.5323  154.5884 H   0  0  0  0  0  0  0  0  0  0  0  0
  144.2872  135.3034  155.0164 H   0  0  0  0  0  0  0  0  0  0  0  0
  144.8606  136.2604  153.6568 H   0  0  0  0  0  0  0  0  0  0  0  0
  142.5452  134.5254  153.6207 H   0  0  0  0  0  0  0  0  0  0  0  0
  143.2535  135.4158  152.2699 H   0  0  0  0  0  0  0  0  0  0  0  0
  142.3309  132.9027  151.3216 H   0  0  0  0  0  0  0  0  0  0  0  0
  143.6111  133.7242  150.4430 H   0  0  0  0  0  0  0  0  0  0  0  0
  143.6880  130.8704  151.5628 H   0  0  0  0  0  0  0  0  0  0  0  0
  143.6597  131.3061  149.8723 H   0  0  0  0  0  0  0  0  0  0  0  0
  145.9702  130.6694  150.6790 H   0  0  0  0  0  0  0  0  0  0  0  0
  145.9099  132.2861  150.0193 H   0  0  0  0  0  0  0  0  0  0  0  0
  145.8986  131.5505  152.9918 H   0  0  0  0  0  0  0  0  0  0  0  0
  147.1909  132.3420  152.1163 H   0  0  0  0  0  0  0  0  0  0  0  0
  145.6975  134.2956  151.6383 H   0  0  0  0  0  0  0  0  0  0  0  0
  149.3170  135.0477  157.0307 H   0  0  0  0  0  0  0  0  0  0  0  0
  143.8112  132.7279  153.1921 H   0  0  0  0  0  0  0  0  0  0  0  0
  1  2  1  0  0  0  0
  1 24  1  0  0  0  0
  1 25  1  0  0  0  0
  1 26  1  0  0  0  0
  2  3  2  0  0  0  0
  2  4  2  0  0  0  0
  2  5  1  0  0  0  0
  5 23  1  0  0  0  0
  5  6  2  0  0  0  0
  6  7  1  0  0  0  0
  6 27  1  0  0  0  0
  7  8  2  0  0  0  0
  7 28  1  0  0  0  0
  8  9  1  0  0  0  0
  8 22  1  0  0  0  0
  9 10  1  0  0  0  0
  9 29  1  0  0  0  0
 10 11  2  0  0  0  0
 10 12  1  0  0  0  0
 12 13  1  0  0  0  0
 12 30  1  0  0  0  0
 13 21  1  0  0  0  0
 13 14  1  0  0  0  0
 13 31  1  0  0  0  0
 14 15  1  0  0  0  0
 14 32  1  0  0  0  0
 14 33  1  0  0  0  0
 15 16  1  0  0  0  0
 15 34  1  0  0  0  0
 15 35  1  0  0  0  0
 16 21  1  0  0  0  0
 16 17  1  0  0  0  0
 16 46  1  0  0  0  0
 17 18  1  0  0  0  0
 17 36  1  0  0  0  0
 17 37  1  0  0  0  0
 18 19  1  0  0  0  0
 18 38  1  0  0  0  0
 18 39  1  0  0  0  0
 19 20  1  0  0  0  0
 19 40  1  0  0  0  0
 19 41  1  0  0  0  0
 20 21  1  0  0  0  0
 20 42  1  0  0  0  0
 20 43  1  0  0  0  0
 21 44  1  0  0  0  0
 22 23  2  0  0  0  0
 22 45  1  0  0  0  0
M  CHG  1  16   1
M  END
> <s_m_source_file>
AV-unprocessed.smi

> <i_m_source_file_index>
1738

> <i_lp_mmshare_version>
43012

> <i_f3d_flags>
0

> <s_epik_input>
W0NIM11TKD1PKSg9TyljMVtjSF1bY0hdYyhbY0hdbjEpW05IXUMoPU8pW05IXVtDQEhdKFtDSDJdW0NIMl0yKVtDQEBIXShOMjMpW0NIMl1bQ0gyXVtDSDJdW0NIMl0z

> <s_epik_cmdline>
J2VwaWtfcHl0aG9uJywgJy1waCcsICc3LjAnLCAnLXRuJywgJzgnLCAnLW1hJywgJzIwMCcsICctbWV0YWxfYmluZGluZycsICctaW1hZScsICc8aW5maWxlLm1hZT4nLCAnLW9tYWUnLCAnPG91dGZpbGUubWFlPic=

> <r_epik_Ionization_Penalty>
0.00100042

> <r_epik_Ionization_Penalty_Charging>
0.000974069

> <r_epik_Ionization_Penalty_Neutral>
2.63543e-05

> <r_epik_State_Penalty>
0.000633842

> <r_epik_Charging_Adjusted_Penalty>
0.00160791

> <i_epik_Tot_Q>
1

> <i_epik_Tot_abs_Q>
1

> <r_epik_Metal_State_Penalty>
-0

> <b_epik_Metal_Only>
0

> <s_lp_Force_Field>
OPLS_2005

> <r_lp_Energy>
37.3337

> <b_lp_Chiralities_Consistent>
1

> <s_lp_Variant>
AV-unprocessed.smi:1738-6

> <Gold.Version>
5.8.1

> <Gold.Id.Protein>
6NUR|6NUR_protein|mol2

> <Gold.PLP.Fitness>
42.9971

> <Gold.PLP.PLP>
-27.7796

> <Gold.PLP.part.hbond>
-5.8588

> <Gold.PLP.part.metal>
0.0000

> <Gold.PLP.part.buried>
-6.5008

> <Gold.PLP.part.nonpolar>
-18.0534

> <Gold.PLP.part.repulsive>
0.0264

> <Gold.PLP.ligand.clash>
0.0000

> <Gold.PLP.ligand.torsion>
1.4301

> <Gold.PLP.Chemscore.Hbond>
5.3491

> <Gold.PLP.Chemscore.CHOScore>
0.0000

> <Gold.PLP.Chemscore.Metal>
0.0000

> <Gold.Chemscore.Hbonds>
donor molecule, donor type, donor heavy atom, donor atom, acceptor molecule, acceptor atom, score
      L1  H     9    29       P1  7948  1.00
      L1  H    12    30       P1  7948  0.84
      L1  H    16    46       P1 10957  1.30
      P1  H  6896  6907       L1     3  0.98
      P1  H  7997  8008       L1     4  0.91

> <Gold.PLP.Chemscore.Internal.Correction>
2.0303

> <Gold.Rescore>
     Score         DG    S(hbond)    S(metal)    S(lipo)     H(rot)  DE(clash)    DE(int)     intcor
     22.37     -25.18       4.45        0.00      63.20       1.00       0.00       2.81       ----

> <Gold.Chemscore.Fitness>
22.3666

> <Gold.Chemscore.DG>
-25.1750

> <Gold.Chemscore.ZeroCoef>
-5.4800

> <Gold.Chemscore.Hbond>
4.4494

> <Gold.Chemscore.Metal>
0.0000

> <Gold.Chemscore.Lipo>
63.1960

> <Gold.Chemscore.Internal_Hbond>
0.0000

> <Gold.Chemscore.DEClash>
0.0000

> <Gold.Chemscore.DEInternal>
2.8085

> <Gold.Chemscore.Rot>
1.0000

> <Gold.Chemscore.Internal.Correction>
   9.000000E+99

> <Gold.Chemscore.Hbonds>
donor molecule, donor type, donor heavy atom, donor atom, acceptor molecule, acceptor atom, score
      L1  H     9    29       P1  7948  0.94
      L1  H    12    30       P1  7948  0.79
      L1  H    16    46       P1 10957  0.22
      P1  H  6896  6907       L1     3  0.90
      P1  H  7997  8008       L1     4  0.87

> <Gold.Chemscore.Hbond.Weighted>
-14.8611

> <Gold.Chemscore.Metal.Weighted>
-0.0000

> <Gold.Chemscore.Lipo.Weighted>
-7.3939

> <Gold.Chemscore.Internal_Hbond.Weighted>
0.0000

> <Gold.Chemscore.DEClash.Weighted>
0.0000

> <Gold.Chemscore.DEInternal.Weighted>
2.8085

> <Gold.Chemscore.Rot.Weighted>
2.5600

> <Gold.Chemscore.Internal.Correction.Weighted>
   9.000000E+99

> <Gold.Protein.RotatedTorsions>
[ 6907 6896 6895 6894 ] final   35.09 input  -60.11 | X-H torsion
[ 7974 7965 7964 7962 ] final   31.30 input  175.53 | X-H torsion
[ 8008 7997 7996 7995 ] final -102.85 input   59.86 | X-H torsion
[ 10167 10162 10161 10158 ] final  109.90 input  -65.29 | X-H torsion
[ 10718 10713 10712 10709 ] final -143.51 input   66.30 | X-H torsion
[ 10763 10752 10751 10750 ] final   95.11 input  -60.55 | X-H torsion
[ 11005 11000 10999 10996 ] final   11.20 input  -57.11 | X-H torsion

> <Gold.Protein.ActiveResidues>
 VAL166  LYS551  ARG553  GLY616  TRP617  ASP618  TYR619  PRO620  LYS621  CYS622 
 ASP623  PHE694  ASN695  SER759  ASP760  ASP761  ALA762  ILE779  LEU786  VAL792 
 PHE793  MET794  SER795  GLU796  ALA797  LYS798  CYS799  TRP800  GLU811  SER814 

> <Gold.Protein.RotatedAtoms>
  152.1114  134.9272  160.0566 H   0  0  0  0  0  0  0  0  0  0  0  0  # atno 6907 bound_to 6896
  152.0448  133.3988  159.4360 H   0  0  0  0  0  0  0  0  0  0  0  0  # atno 6908 bound_to 6896
  150.6844  134.3295  159.4864 H   0  0  0  0  0  0  0  0  0  0  0  0  # atno 6909 bound_to 6896
  146.1559  139.6675  142.9067 H   0  0  0  0  0  0  0  0  0  0  0  0  # atno 7974 bound_to 7965
  154.8625  140.0426  157.1674 H   0  0  0  0  0  0  0  0  0  0  0  0  # atno 8008 bound_to 7997
  154.8824  140.2974  155.5397 H   0  0  0  0  0  0  0  0  0  0  0  0  # atno 8009 bound_to 7997
  156.2998  140.2409  156.3829 H   0  0  0  0  0  0  0  0  0  0  0  0  # atno 8010 bound_to 7997
  139.6730  144.7124  151.1653 H   0  0  0  0  0  0  0  0  0  0  0  0  # atno 10167 bound_to 10162
  156.3589  130.7727  151.1892 H   0  0  0  0  0  0  0  0  0  0  0  0  # atno 10718 bound_to 10713
  153.2494  135.4265  155.0781 H   0  0  0  0  0  0  0  0  0  0  0  0  # atno 10763 bound_to 10752
  154.8375  135.3422  154.6535 H   0  0  0  0  0  0  0  0  0  0  0  0  # atno 10764 bound_to 10752
  153.6956  135.7031  153.5134 H   0  0  0  0  0  0  0  0  0  0  0  0  # atno 10765 bound_to 10752
  140.5059  134.0700  155.7805 H   0  0  0  0  0  0  0  0  0  0  0  0  # atno 11005 bound_to 11000
  145.4710  141.0436  143.2698 LP  0  0  0  0  0  0  0  0  0  0  0  0  # atno 17320 bound_to 7965
  144.7962  139.6229  143.7091 LP  0  0  0  0  0  0  0  0  0  0  0  0  # atno 17321 bound_to 7965
  140.7625  143.5815  150.8890 LP  0  0  0  0  0  0  0  0  0  0  0  0  # atno 17342 bound_to 10162
  139.9482  143.6303  152.3036 LP  0  0  0  0  0  0  0  0  0  0  0  0  # atno 17343 bound_to 10162
  157.7471  131.0406  150.4605 LP  0  0  0  0  0  0  0  0  0  0  0  0  # atno 17370 bound_to 10713
  156.4812  130.4074  149.6460 LP  0  0  0  0  0  0  0  0  0  0  0  0  # atno 17371 bound_to 10713
  141.1411  133.9136  157.2323 LP  0  0  0  0  0  0  0  0  0  0  0  0  # atno 17394 bound_to 11000
  139.9686  135.0135  156.9453 LP  0  0  0  0  0  0  0  0  0  0  0  0  # atno 17395 bound_to 11000

$$$$
