#       Name:                AV-unprocessed.smi:69
#       Creating user name   scv26
#       Creation time:       Thu Mar 26 16:54:47 2020


#       File generated by GOLD software.
#

@<TRIPOS>MOLECULE
AV-unprocessed.smi:69
    43    45     1
SMALL
NO_CHARGES


@<TRIPOS>ATOM
      1 ****        -5.2420   0.9578   0.7248 N.pl3          1 S1                 0.0000
      2 ****        -3.9682   1.3734   0.7101 C.ar           1 S1                 0.0000
      3 ****        -3.7225   2.7012   0.8112 N.ar           1 S1                 0.0000
      4 ****        -2.4594   3.1412   0.7957 C.ar           1 S1                 0.0000
      5 ****        -1.3290   2.4364   0.6899 N.ar           1 S1                 0.0000
      6 ****        -1.5825   1.0987   0.5910 C.ar           1 S1                 0.0000
      7 ****        -2.8666   0.4887   0.5915 C.ar           1 S1                 0.0000
      8 ****        -2.7352  -0.8887   0.4678 N.2            1 S1                 0.0000
      9 ****        -1.4438  -1.0767   0.3976 C.2            1 S1                 0.0000
     10 ****        -0.6784   0.0681   0.4668 N.pl3          1 S1                 0.0000
     11 ****         0.8076   0.2088   0.4093 C.3            1 S1                 0.0000
     12 ****         1.3856  -0.9898   0.8075 O.3            1 S1                 0.0000
     13 ****         2.6881  -1.0746   0.2415 C.3            1 S1                 0.0000
     14 ****         3.0176  -2.5453  -0.0706 C.3            1 S1                 0.0000
     15 ****         2.2978  -3.0193  -1.1901 O.3            1 S1                 0.0000
     16 ****         2.7286  -0.0994  -0.9560 C.3            1 S1                 0.0000
     17 ****         3.6611   0.9317  -0.6918 O.3            1 S1                 0.0000
     18 ****         1.3199   0.4828  -1.0106 C.3            1 S1                 0.0000
     19 ****         0.5462  -0.1533  -2.0122 O.3            1 S1                 0.0000
     20 ****         1.0621   0.9974   1.1200 H              1 S1                 0.0000
     21 ****         3.3747  -0.7351   1.0194 H              1 S1                 0.0000
     22 ****         3.0122  -0.5790  -1.8938 H              1 S1                 0.0000
     23 ****         1.3064   1.5564  -1.2048 H              1 S1                 0.0000
     24 ****        -5.4496  -0.0277   0.6491 H              1 S1                 0.0000
     25 ****        -5.9910   1.6296   0.8094 H              1 S1                 0.0000
     26 ****        -2.3365   4.2109   0.8790 H              1 S1                 0.0000
     27 ****        -1.0115  -2.0609   0.2868 H              1 S1                 0.0000
     28 ****         4.0807  -2.6447  -0.2905 H              1 S1                 0.0000
     29 ****         2.8093  -3.1778   0.7928 H              1 S1                 0.0000
     30 ****         2.5372  -3.9207  -1.3428 H              1 S1                 0.0000
     31 ****         4.5260   0.5521  -0.6574 H              1 S1                 0.0000
     32 ****        -0.3435   0.1578  -1.9415 H              1 S1                 0.0000
     33 ****        -4.4801   3.3483   0.8969 LP             1 S1                 0.0000
     34 ****        -0.4133   2.8381   0.6840 LP             1 S1                 0.0000
     35 ****        -3.4604  -1.5767   0.4392 LP             1 S1                 0.0000
     36 ****         0.8282  -1.7557   0.4869 LP             1 S1                 0.0000
     37 ****         1.4490  -1.0184   1.8051 LP             1 S1                 0.0000
     38 ****         2.5248  -2.4696  -1.9940 LP             1 S1                 0.0000
     39 ****         1.3160  -2.9573  -1.0103 LP             1 S1                 0.0000
     40 ****         3.4471   1.3637   0.1844 LP             1 S1                 0.0000
     41 ****         3.6219   1.6165  -1.4194 LP             1 S1                 0.0000
     42 ****         0.5696  -1.1442  -1.8794 LP             1 S1                 0.0000
     43 ****         0.9121   0.0707  -2.9155 LP             1 S1                 0.0000
@<TRIPOS>BOND
    1    1    2 1     
    2    1   24 1     
    3    1   25 1     
    4    2    7 ar    
    5    2    3 ar    
    6    3    4 ar    
    7    4    5 ar    
    8    4   26 1     
    9    5    6 ar    
   10    6   10 1     
   11    6    7 ar    
   12    7    8 1     
   13    8    9 2     
   14    9   10 1     
   15    9   27 1     
   16   10   11 1     
   17   11   20 1     
   18   11   18 1     
   19   11   12 1     
   20   12   13 1     
   21   13   21 1     
   22   13   14 1     
   23   13   16 1     
   24   14   15 1     
   25   14   28 1     
   26   14   29 1     
   27   15   30 1     
   28   16   22 1     
   29   16   17 1     
   30   16   18 1     
   31   17   31 1     
   32   18   23 1     
   33   18   19 1     
   34   19   32 1     
   35    3   33 1     
   36    5   34 1     
   37    8   35 1     
   38   12   36 1     
   39   12   37 1     
   40   15   38 1     
   41   15   39 1     
   42   17   40 1     
   43   17   41 1     
   44   19   42 1     
   45   19   43 1     
@<TRIPOS>SUBSTRUCTURE
      1 S1             1
@<TRIPOS>SET
LONE_PAIRS      STATIC     ATOMS    <user>   **** ""
11 33 34 35 36 37 38 39 40 41 42 43
DONOR_HYDROGENS      STATIC     ATOMS    <user>   **** ""
5 24 25 30 31 32
ATOM$BLUE        STATIC     ATOMS    COLORGROUP SYSTEM
11 33 34 35 36 37 38 39 40 41 42 43
ATOM$RED        STATIC     ATOMS    COLORGROUP SYSTEM
5 24 25 30 31 32
