AV-unprocessed.smi:2504|AV-procd|sdf|9849|dock8
  -GOLD-   2272013473D 1   1.00000     0.00000
 Structure written by MMmdl.
 46 48  0  0  0  0  0  0  0  0  1 V2000
  153.1490  140.0730  158.1944 O   0  0  0  0  0  0  0  0  0  0  0  0
  152.2033  140.7106  157.7296 C   0  0  0  0  0  0  0  0  0  0  0  0
  151.5835  141.8947  158.5025 C   0  0  0  0  0  0  0  0  0  0  0  0
  151.4915  143.2002  157.6839 C   0  0  0  0  0  0  0  0  0  0  0  0
  151.6618  144.3230  158.7043 C   0  0  0  0  0  0  0  0  0  0  0  0
  152.6880  143.7659  159.6851 C   0  0  0  0  0  0  0  0  0  0  0  0
  152.3661  142.2711  159.7841 C   0  0  0  0  0  0  0  0  0  0  0  0
  151.7272  140.4589  156.4390 N   0  0  0  0  0  0  0  0  0  0  0  0
  151.5883  139.1059  155.9208 C   0  0  0  0  0  0  0  0  0  0  0  0
  150.4650  139.6831  155.0487 C   0  0  0  0  0  0  0  0  0  0  0  0
  148.9216  138.6690  155.0047 S   0  0  0  0  0  0  0  0  0  0  0  0
  149.2716  137.2425  154.9193 O   0  0  0  0  0  0  0  0  0  0  0  0
  148.0118  139.1386  156.0605 O   0  0  0  0  0  0  0  0  0  0  0  0
  148.2328  139.1257  153.4937 N   0  0  0  0  0  0  0  0  0  0  0  0
  147.0424  139.9749  153.5080 C   0  0  0  0  0  0  0  0  0  0  0  0
  147.4314  141.4521  153.6723 C   0  0  0  0  0  0  0  0  0  0  0  0
  146.3230  142.2916  154.2827 C   0  0  0  0  0  0  0  0  0  0  0  0
  145.7426  143.3559  153.5624 C   0  0  0  0  0  0  0  0  0  0  0  0
  144.7113  144.1011  154.1659 C   0  0  0  0  0  0  0  0  0  0  0  0
  144.3030  143.7489  155.4678 C   0  0  0  0  0  0  0  0  0  0  0  0
  144.8523  142.7328  156.1678 N   0  0  0  0  0  0  0  0  0  0  0  0
  145.8422  142.0249  155.5827 C   0  0  0  0  0  0  0  0  0  0  0  0
  150.3844  140.8517  156.0376 C   0  0  0  0  0  0  0  0  0  0  0  0
  150.5691  141.6153  158.7899 H   0  0  0  0  0  0  0  0  0  0  0  0
  152.2964  143.2735  156.9508 H   0  0  0  0  0  0  0  0  0  0  0  0
  150.5476  143.2828  157.1440 H   0  0  0  0  0  0  0  0  0  0  0  0
  151.9810  145.2610  158.2490 H   0  0  0  0  0  0  0  0  0  0  0  0
  150.7170  144.5036  159.2191 H   0  0  0  0  0  0  0  0  0  0  0  0
  153.6908  143.8981  159.2765 H   0  0  0  0  0  0  0  0  0  0  0  0
  152.6562  144.2662  160.6537 H   0  0  0  0  0  0  0  0  0  0  0  0
  151.7410  142.0841  160.6581 H   0  0  0  0  0  0  0  0  0  0  0  0
  153.2823  141.6947  159.9216 H   0  0  0  0  0  0  0  0  0  0  0  0
  152.4545  138.7528  155.3608 H   0  0  0  0  0  0  0  0  0  0  0  0
  151.2552  138.3885  156.6723 H   0  0  0  0  0  0  0  0  0  0  0  0
  150.7808  139.9873  154.0494 H   0  0  0  0  0  0  0  0  0  0  0  0
  148.9441  139.5144  152.8745 H   0  0  0  0  0  0  0  0  0  0  0  0
  146.4925  139.8345  152.5770 H   0  0  0  0  0  0  0  0  0  0  0  0
  146.3867  139.6593  154.3203 H   0  0  0  0  0  0  0  0  0  0  0  0
  148.3296  141.5350  154.2860 H   0  0  0  0  0  0  0  0  0  0  0  0
  147.6897  141.8714  152.6993 H   0  0  0  0  0  0  0  0  0  0  0  0
  146.0794  143.5960  152.5645 H   0  0  0  0  0  0  0  0  0  0  0  0
  144.2436  144.9226  153.6436 H   0  0  0  0  0  0  0  0  0  0  0  0
  143.5142  144.2982  155.9601 H   0  0  0  0  0  0  0  0  0  0  0  0
  146.2568  141.2164  156.1670 H   0  0  0  0  0  0  0  0  0  0  0  0
  149.6370  140.7114  156.8214 H   0  0  0  0  0  0  0  0  0  0  0  0
  150.3286  141.8366  155.5736 H   0  0  0  0  0  0  0  0  0  0  0  0
  1  2  2  0  0  0  0
  2  3  1  0  0  0  0
  2  8  1  0  0  0  0
  3  7  1  0  0  0  0
  3  4  1  0  0  0  0
  3 24  1  0  0  0  0
  4  5  1  0  0  0  0
  4 25  1  0  0  0  0
  4 26  1  0  0  0  0
  5  6  1  0  0  0  0
  5 27  1  0  0  0  0
  5 28  1  0  0  0  0
  6  7  1  0  0  0  0
  6 29  1  0  0  0  0
  6 30  1  0  0  0  0
  7 31  1  0  0  0  0
  7 32  1  0  0  0  0
  8 23  1  0  0  0  0
  8  9  1  0  0  0  0
  9 10  1  0  0  0  0
  9 33  1  0  0  0  0
  9 34  1  0  0  0  0
 10 11  1  0  0  0  0
 10 23  1  0  0  0  0
 10 35  1  0  0  0  0
 11 12  2  0  0  0  0
 11 13  2  0  0  0  0
 11 14  1  0  0  0  0
 14 15  1  0  0  0  0
 14 36  1  0  0  0  0
 15 16  1  0  0  0  0
 15 37  1  0  0  0  0
 15 38  1  0  0  0  0
 16 17  1  0  0  0  0
 16 39  1  0  0  0  0
 16 40  1  0  0  0  0
 17 22  1  0  0  0  0
 17 18  2  0  0  0  0
 18 19  1  0  0  0  0
 18 41  1  0  0  0  0
 19 20  2  0  0  0  0
 19 42  1  0  0  0  0
 20 21  1  0  0  0  0
 20 43  1  0  0  0  0
 21 22  2  0  0  0  0
 22 44  1  0  0  0  0
 23 45  1  0  0  0  0
 23 46  1  0  0  0  0
M  END
> <s_m_source_file>
AV-unprocessed.smi

> <i_m_source_file_index>
2504

> <i_lp_mmshare_version>
43012

> <i_f3d_flags>
0

> <s_epik_input>
W0NIMl0xW0NIMl1bQ0gyXVtDSDJdW0NIXTFDKD1PKU4yW0NIMl1bQ0hdKFtDSDJdMilTKD1PKSg9TylbTkhdW0NIMl1bQ0gyXWMzW2NIXVtjSF1bY0hdbltjSF0z

> <s_epik_cmdline>
J2VwaWtfcHl0aG9uJywgJy1waCcsICc3LjAnLCAnLXRuJywgJzgnLCAnLW1hJywgJzIwMCcsICctbWV0YWxfYmluZGluZycsICctaW1hZScsICc8aW5maWxlLm1hZT4nLCAnLW9tYWUnLCAnPG91dGZpbGUubWFlPic=

> <r_epik_Ionization_Penalty>
0.0107611

> <r_epik_Ionization_Penalty_Charging>
0

> <r_epik_Ionization_Penalty_Neutral>
0.0107611

> <r_epik_State_Penalty>
0.00821942

> <r_epik_Charging_Adjusted_Penalty>
0.00821942

> <i_epik_Tot_Q>
0

> <i_epik_Tot_abs_Q>
0

> <r_epik_Metal_State_Penalty>
0.0376733

> <b_epik_Metal_Only>
0

> <s_lp_Force_Field>
OPLS_2005

> <r_lp_Energy>
34.3459

> <b_lp_Chiralities_Consistent>
1

> <s_lp_Variant>
AV-unprocessed.smi:2504-1

> <Gold.Version>
5.8.1

> <Gold.Id.Protein>
6NUR|6NUR_protein|mol2

> <Gold.PLP.Fitness>
52.2983

> <Gold.PLP.PLP>
-48.1768

> <Gold.PLP.part.hbond>
-2.0000

> <Gold.PLP.part.metal>
0.0000

> <Gold.PLP.part.buried>
-6.5535

> <Gold.PLP.part.nonpolar>
-39.7522

> <Gold.PLP.part.repulsive>
0.2775

> <Gold.PLP.ligand.clash>
0.0000

> <Gold.PLP.ligand.torsion>
1.7772

> <Gold.PLP.Chemscore.Hbond>
1.9920

> <Gold.PLP.Chemscore.CHOScore>
0.0000

> <Gold.PLP.Chemscore.Metal>
0.0000

> <Gold.Chemscore.Hbonds>
donor molecule, donor type, donor heavy atom, donor atom, acceptor molecule, acceptor atom, score
      L1  H    14    36       P1  7957  1.00
      P1  H  7997  8010       L1     1  1.00

> <Gold.PLP.Chemscore.Internal.Correction>
1.7000

> <Gold.Rescore>
     Score         DG    S(hbond)    S(metal)    S(lipo)     H(rot)  DE(clash)    DE(int)     intcor
     18.89     -20.62       1.84        0.00     117.31       1.85       0.08       1.65       ----

> <Gold.Chemscore.Fitness>
18.8851

> <Gold.Chemscore.DG>
-20.6156

> <Gold.Chemscore.ZeroCoef>
-5.4800

> <Gold.Chemscore.Hbond>
1.8397

> <Gold.Chemscore.Metal>
0.0000

> <Gold.Chemscore.Lipo>
117.3123

> <Gold.Chemscore.Internal_Hbond>
0.0000

> <Gold.Chemscore.DEClash>
0.0793

> <Gold.Chemscore.DEInternal>
1.6511

> <Gold.Chemscore.Rot>
1.8494

> <Gold.Chemscore.Internal.Correction>
   9.000000E+99

> <Gold.Chemscore.Hbonds>
donor molecule, donor type, donor heavy atom, donor atom, acceptor molecule, acceptor atom, score
      L1  H    14    36       P1  7957  0.97
      P1  H  7997  8010       L1     1  0.62

> <Gold.Chemscore.Hbond.Weighted>
-6.1446

> <Gold.Chemscore.Metal.Weighted>
-0.0000

> <Gold.Chemscore.Lipo.Weighted>
-13.7255

> <Gold.Chemscore.Internal_Hbond.Weighted>
0.0000

> <Gold.Chemscore.DEClash.Weighted>
0.0793

> <Gold.Chemscore.DEInternal.Weighted>
1.6511

> <Gold.Chemscore.Rot.Weighted>
4.7346

> <Gold.Chemscore.Internal.Correction.Weighted>
   9.000000E+99

> <Gold.Protein.RotatedTorsions>
[ 6907 6896 6895 6894 ] final -103.11 input  -60.11 | X-H torsion
[ 7974 7965 7964 7962 ] final  -14.81 input  175.53 | X-H torsion
[ 8008 7997 7996 7995 ] final   43.19 input   59.86 | X-H torsion
[ 10167 10162 10161 10158 ] final -102.12 input  -65.29 | X-H torsion
[ 10718 10713 10712 10709 ] final  -82.62 input   66.30 | X-H torsion
[ 10763 10752 10751 10750 ] final -167.42 input  -60.55 | X-H torsion
[ 11005 11000 10999 10996 ] final   64.95 input  -57.11 | X-H torsion

> <Gold.Protein.ActiveResidues>
 VAL166  LYS551  ARG553  GLY616  TRP617  ASP618  TYR619  PRO620  LYS621  CYS622 
 ASP623  PHE694  ASN695  SER759  ASP760  ASP761  ALA762  ILE779  LEU786  VAL792 
 PHE793  MET794  SER795  GLU796  ALA797  LYS798  CYS799  TRP800  GLU811  SER814 

> <Gold.Protein.RotatedAtoms>
  150.7225  134.0479  159.3787 H   0  0  0  0  0  0  0  0  0  0  0  0  # atno 6907 bound_to 6896
  151.8455  135.0573  160.0462 H   0  0  0  0  0  0  0  0  0  0  0  0  # atno 6908 bound_to 6896
  152.2830  133.5452  159.5546 H   0  0  0  0  0  0  0  0  0  0  0  0  # atno 6909 bound_to 6896
  146.2059  140.3402  142.8407 H   0  0  0  0  0  0  0  0  0  0  0  0  # atno 7974 bound_to 7965
  155.2986  140.3383  155.4249 H   0  0  0  0  0  0  0  0  0  0  0  0  # atno 8008 bound_to 7997
  156.2012  140.1733  156.7934 H   0  0  0  0  0  0  0  0  0  0  0  0  # atno 8009 bound_to 7997
  154.5562  140.0696  156.8730 H   0  0  0  0  0  0  0  0  0  0  0  0  # atno 8010 bound_to 7997
  140.2341  143.3586  152.0861 H   0  0  0  0  0  0  0  0  0  0  0  0  # atno 10167 bound_to 10162
  156.0030  130.4640  150.4133 H   0  0  0  0  0  0  0  0  0  0  0  0  # atno 10718 bound_to 10713
  154.6733  135.2943  154.9712 H   0  0  0  0  0  0  0  0  0  0  0  0  # atno 10763 bound_to 10752
  154.0731  135.6615  153.4831 H   0  0  0  0  0  0  0  0  0  0  0  0  # atno 10764 bound_to 10752
  153.0500  135.5179  154.7740 H   0  0  0  0  0  0  0  0  0  0  0  0  # atno 10765 bound_to 10752
  139.9926  134.6568  156.0065 H   0  0  0  0  0  0  0  0  0  0  0  0  # atno 11005 bound_to 11000
  144.8791  140.7376  143.5998 LP  0  0  0  0  0  0  0  0  0  0  0  0  # atno 17320 bound_to 7965
  145.3322  139.1756  143.4530 LP  0  0  0  0  0  0  0  0  0  0  0  0  # atno 17321 bound_to 7965
  139.5100  144.6876  151.5845 LP  0  0  0  0  0  0  0  0  0  0  0  0  # atno 17342 bound_to 10162
  140.6163  143.9342  150.6491 LP  0  0  0  0  0  0  0  0  0  0  0  0  # atno 17343 bound_to 10162
  157.2195  131.0479  151.2555 LP  0  0  0  0  0  0  0  0  0  0  0  0  # atno 17370 bound_to 10713
  157.3814  130.7233  149.6633 LP  0  0  0  0  0  0  0  0  0  0  0  0  # atno 17371 bound_to 10713
  141.1578  133.6541  156.4219 LP  0  0  0  0  0  0  0  0  0  0  0  0  # atno 17394 bound_to 11000
  140.4879  134.6603  157.5199 LP  0  0  0  0  0  0  0  0  0  0  0  0  # atno 17395 bound_to 11000

$$$$
