AV-unprocessed.smi:254|AV-procd|sdf|1946|dock6
  -GOLD-   2262021 83D 1   1.00000     0.00000
 Structure written by MMmdl.
 50 53  0  0  0  0  0  0  0  0  1 V2000
  150.7437  131.3376  155.2822 O   0  0  0  0  0  0  0  0  0  0  0  0
  150.6154  132.5592  155.3451 C   0  0  0  0  0  0  0  0  0  0  0  0
  151.2769  133.4079  156.4156 C   0  0  0  0  0  0  0  0  0  0  0  0
  150.8283  134.7437  156.0418 N   0  0  0  0  0  0  0  0  0  0  0  0
  151.2172  135.8682  156.6965 C   0  0  0  0  0  0  0  0  0  0  0  0
  152.4709  135.9030  157.2199 N   0  0  0  0  0  0  0  0  0  0  0  0
  152.9044  136.9826  157.8756 C   0  0  0  0  0  0  0  0  0  0  0  0
  152.2594  138.1235  158.1196 N   0  0  0  0  0  0  0  0  0  0  0  0
  151.0006  138.1023  157.5965 C   0  0  0  0  0  0  0  0  0  0  0  0
  150.4017  137.0250  156.8808 C   0  0  0  0  0  0  0  0  0  0  0  0
  149.1052  137.3747  156.5197 N   0  0  0  0  0  0  0  0  0  0  0  0
  148.9488  138.5802  156.9922 C   0  0  0  0  0  0  0  0  0  0  0  0
  150.0442  139.1033  157.6403 N   0  0  0  0  0  0  0  0  0  0  0  0
  150.1512  140.4168  158.2603 C   0  0  0  0  0  0  0  0  0  0  0  0
  151.1010  141.4001  157.5223 C   0  0  1  0  0  0  0  0  0  0  0  0
  150.7904  141.4925  156.0097 C   0  0  0  0  0  0  0  0  0  0  0  0
  151.1339  140.2938  155.3473 O   0  0  0  0  0  0  0  0  0  0  0  0
  151.1239  142.8055  158.1796 C   0  0  2  0  0  0  0  0  0  0  0  0
  151.8882  143.8661  157.4048 C   0  0  0  0  0  0  0  0  0  0  0  0
  152.1441  144.9300  158.4674 C   0  0  0  0  0  0  0  0  0  0  0  0
  152.2400  144.2297  159.7023 O   0  0  0  0  0  0  0  0  0  0  0  0
  151.8691  142.8682  159.5177 C   0  0  0  0  0  0  0  0  0  0  0  0
  149.9921  134.7389  154.8495 C   0  0  0  0  0  0  0  0  0  0  0  0
  149.9053  133.3278  154.5115 N   0  0  0  0  0  0  0  0  0  0  0  0
  149.1424  132.8827  153.3475 C   0  0  0  0  0  0  0  0  0  0  0  0
  148.0566  131.8558  153.7148 C   0  0  0  0  0  0  0  0  0  0  0  0
  147.3062  131.6159  152.6404 F   0  0  0  0  0  0  0  0  0  0  0  0
  148.5962  130.7057  154.1181 F   0  0  0  0  0  0  0  0  0  0  0  0
  147.2736  132.3352  154.6812 F   0  0  0  0  0  0  0  0  0  0  0  0
  150.9238  133.1277  157.4086 H   0  0  0  0  0  0  0  0  0  0  0  0
  152.3627  133.3167  156.3672 H   0  0  0  0  0  0  0  0  0  0  0  0
  153.9127  136.9237  158.2585 H   0  0  0  0  0  0  0  0  0  0  0  0
  148.0228  139.1228  156.8742 H   0  0  0  0  0  0  0  0  0  0  0  0
  149.1490  140.8380  158.3398 H   0  0  0  0  0  0  0  0  0  0  0  0
  150.4851  140.2800  159.2892 H   0  0  0  0  0  0  0  0  0  0  0  0
  152.1084  140.9911  157.6156 H   0  0  0  0  0  0  0  0  0  0  0  0
  149.7400  141.7222  155.8302 H   0  0  0  0  0  0  0  0  0  0  0  0
  151.3699  142.2867  155.5409 H   0  0  0  0  0  0  0  0  0  0  0  0
  151.4495  139.6763  155.9901 H   0  0  0  0  0  0  0  0  0  0  0  0
  150.1045  143.1653  158.3242 H   0  0  0  0  0  0  0  0  0  0  0  0
  152.8362  143.4651  157.0426 H   0  0  0  0  0  0  0  0  0  0  0  0
  151.3364  144.2621  156.5521 H   0  0  0  0  0  0  0  0  0  0  0  0
  153.0446  145.5105  158.2659 H   0  0  0  0  0  0  0  0  0  0  0  0
  151.3017  145.6201  158.5259 H   0  0  0  0  0  0  0  0  0  0  0  0
  151.2701  142.5132  160.3555 H   0  0  0  0  0  0  0  0  0  0  0  0
  152.7800  142.2688  159.4801 H   0  0  0  0  0  0  0  0  0  0  0  0
  149.0016  135.1453  155.0585 H   0  0  0  0  0  0  0  0  0  0  0  0
  150.4565  135.3008  154.0378 H   0  0  0  0  0  0  0  0  0  0  0  0
  148.6807  133.7505  152.8748 H   0  0  0  0  0  0  0  0  0  0  0  0
  149.8223  132.4594  152.6064 H   0  0  0  0  0  0  0  0  0  0  0  0
  1  2  2  0  0  0  0
  2 24  1  0  0  0  0
  2  3  1  0  0  0  0
  3  4  1  0  0  0  0
  3 30  1  0  0  0  0
  3 31  1  0  0  0  0
  4  5  1  0  0  0  0
  4 23  1  0  0  0  0
  5 10  1  0  0  0  0
  5  6  2  0  0  0  0
  6  7  1  0  0  0  0
  7  8  2  0  0  0  0
  7 32  1  0  0  0  0
  8  9  1  0  0  0  0
  9 13  1  0  0  0  0
  9 10  2  0  0  0  0
 10 11  1  0  0  0  0
 11 12  2  0  0  0  0
 12 13  1  0  0  0  0
 12 33  1  0  0  0  0
 13 14  1  0  0  0  0
 14 15  1  0  0  0  0
 14 34  1  0  0  0  0
 14 35  1  0  0  0  0
 15 16  1  0  0  0  0
 15 18  1  0  0  0  0
 15 36  1  0  0  0  0
 16 17  1  0  0  0  0
 16 37  1  0  0  0  0
 16 38  1  0  0  0  0
 17 39  1  0  0  0  0
 18 22  1  0  0  0  0
 18 19  1  0  0  0  0
 18 40  1  0  0  0  0
 19 20  1  0  0  0  0
 19 41  1  0  0  0  0
 19 42  1  0  0  0  0
 20 21  1  0  0  0  0
 20 43  1  0  0  0  0
 20 44  1  0  0  0  0
 21 22  1  0  0  0  0
 22 45  1  0  0  0  0
 22 46  1  0  0  0  0
 23 24  1  0  0  0  0
 23 47  1  0  0  0  0
 23 48  1  0  0  0  0
 24 25  1  0  0  0  0
 25 26  1  0  0  0  0
 25 49  1  0  0  0  0
 25 50  1  0  0  0  0
 26 27  1  0  0  0  0
 26 28  1  0  0  0  0
 26 29  1  0  0  0  0
M  END
> <s_m_source_file>
AV-unprocessed.smi

> <i_m_source_file_index>
254

> <i_lp_mmshare_version>
43012

> <i_f3d_flags>
0

> <s_epik_input>
RkMoRikoRilbQ0gyXU4xW0NIMl1OKFtDSDJdQzE9TyljKG5bY0hdbjIpYyhjMjMpbltjSF1uM1tDSDJdW0NASF0oW0NIMl1bT0hdKVtDQEBIXTRbQ0gyXVtDSDJdT1tDSDJdNA==

> <s_epik_cmdline>
J2VwaWtfcHl0aG9uJywgJy1waCcsICc3LjAnLCAnLXRuJywgJzgnLCAnLW1hJywgJzIwMCcsICctbWV0YWxfYmluZGluZycsICctaW1hZScsICc8aW5maWxlLm1hZT4nLCAnLW9tYWUnLCAnPG91dGZpbGUubWFlPic=

> <r_lp_tautomer_probability>
1

> <r_epik_Ionization_Penalty>
0.000292924

> <r_epik_Ionization_Penalty_Charging>
0

> <r_epik_Ionization_Penalty_Neutral>
0.000292924

> <r_epik_State_Penalty>
-0

> <r_epik_Charging_Adjusted_Penalty>
0

> <i_epik_Tot_Q>
0

> <i_epik_Tot_abs_Q>
0

> <r_epik_Metal_State_Penalty>
-0

> <b_epik_Metal_Only>
0

> <s_epik_Chemistry_Notes>
This compound contains an acetal/aminal-like group ( X-CH(R)-Y where X, Y are N, S, or O) that may be acid/base labile, releasing an aldehyde.

> <s_lp_Force_Field>
OPLS_2005

> <r_lp_Energy>
38.5559

> <b_lp_Chiralities_Consistent>
1

> <s_lp_Variant>
AV-unprocessed.smi:254-2

> <Gold.Version>
5.8.1

> <Gold.Id.Protein>
6NUR|6NUR_protein|mol2

> <Gold.PLP.Fitness>
49.4630

> <Gold.PLP.PLP>
-45.1182

> <Gold.PLP.part.hbond>
-2.0000

> <Gold.PLP.part.metal>
0.0000

> <Gold.PLP.part.buried>
-7.5012

> <Gold.PLP.part.nonpolar>
-35.9620

> <Gold.PLP.part.repulsive>
0.0223

> <Gold.PLP.ligand.clash>
0.0000

> <Gold.PLP.ligand.torsion>
0.9587

> <Gold.PLP.Chemscore.Hbond>
1.9500

> <Gold.PLP.Chemscore.CHOScore>
0.0000

> <Gold.PLP.Chemscore.Metal>
0.0000

> <Gold.Chemscore.Hbonds>
donor molecule, donor type, donor heavy atom, donor atom, acceptor molecule, acceptor atom, score
      P1  H  7989  7998       L1    17  1.00
      P1  H 10752 10764       L1     6  0.11

> <Gold.PLP.Chemscore.Internal.Correction>
0.4122

> <Gold.Rescore>
     Score         DG    S(hbond)    S(metal)    S(lipo)     H(rot)  DE(clash)    DE(int)     intcor
      5.55     -10.41       1.27        0.00      77.96       3.30       0.27       4.59       ----

> <Gold.Chemscore.Fitness>
5.5465

> <Gold.Chemscore.DG>
-10.4067

> <Gold.Chemscore.ZeroCoef>
-5.4800

> <Gold.Chemscore.Hbond>
1.2715

> <Gold.Chemscore.Metal>
0.0000

> <Gold.Chemscore.Lipo>
77.9614

> <Gold.Chemscore.Internal_Hbond>
0.0000

> <Gold.Chemscore.DEClash>
0.2719

> <Gold.Chemscore.DEInternal>
4.5883

> <Gold.Chemscore.Rot>
3.2974

> <Gold.Chemscore.Internal.Correction>
   9.000000E+99

> <Gold.Chemscore.Hbonds>
donor molecule, donor type, donor heavy atom, donor atom, acceptor molecule, acceptor atom, score
      P1  H  7989  7998       L1    17  0.42

> <Gold.Chemscore.Hbond.Weighted>
-4.2467

> <Gold.Chemscore.Metal.Weighted>
-0.0000

> <Gold.Chemscore.Lipo.Weighted>
-9.1215

> <Gold.Chemscore.Internal_Hbond.Weighted>
0.0000

> <Gold.Chemscore.DEClash.Weighted>
0.2719

> <Gold.Chemscore.DEInternal.Weighted>
4.5883

> <Gold.Chemscore.Rot.Weighted>
8.4414

> <Gold.Chemscore.Internal.Correction.Weighted>
   9.000000E+99

> <Gold.Protein.RotatedTorsions>
[ 6907 6896 6895 6894 ] final  -32.19 input  -60.11 | X-H torsion
[ 7974 7965 7964 7962 ] final   90.97 input  175.53 | X-H torsion
[ 8008 7997 7996 7995 ] final  112.54 input   59.86 | X-H torsion
[ 10167 10162 10161 10158 ] final  108.01 input  -65.29 | X-H torsion
[ 10718 10713 10712 10709 ] final -110.61 input   66.30 | X-H torsion
[ 10763 10752 10751 10750 ] final  -27.96 input  -60.55 | X-H torsion
[ 11005 11000 10999 10996 ] final -165.93 input  -57.11 | X-H torsion

> <Gold.Protein.ActiveResidues>
 VAL166  LYS551  ARG553  GLY616  TRP617  ASP618  TYR619  PRO620  LYS621  CYS622 
 ASP623  PHE694  ASN695  SER759  ASP760  ASP761  ALA762  ILE779  LEU786  VAL792 
 PHE793  MET794  SER795  GLU796  ALA797  LYS798  CYS799  TRP800  GLU811  SER814 

> <Gold.Protein.RotatedAtoms>
  151.0820  134.9864  159.8360 H   0  0  0  0  0  0  0  0  0  0  0  0  # atno 6907 bound_to 6896
  152.5420  134.2170  159.8782 H   0  0  0  0  0  0  0  0  0  0  0  0  # atno 6908 bound_to 6896
  151.2201  133.4463  159.2634 H   0  0  0  0  0  0  0  0  0  0  0  0  # atno 6909 bound_to 6896
  145.5119  139.2277  143.2720 H   0  0  0  0  0  0  0  0  0  0  0  0  # atno 7974 bound_to 7965
  156.2199  140.2997  155.9928 H   0  0  0  0  0  0  0  0  0  0  0  0  # atno 8008 bound_to 7997
  155.2508  140.0426  157.3003 H   0  0  0  0  0  0  0  0  0  0  0  0  # atno 8009 bound_to 7997
  154.5825  140.2379  155.8042 H   0  0  0  0  0  0  0  0  0  0  0  0  # atno 8010 bound_to 7997
  139.6881  144.7111  151.1397 H   0  0  0  0  0  0  0  0  0  0  0  0  # atno 10167 bound_to 10162
  156.0600  130.5824  150.8260 H   0  0  0  0  0  0  0  0  0  0  0  0  # atno 10718 bound_to 10713
  153.7405  135.6933  153.4968 H   0  0  0  0  0  0  0  0  0  0  0  0  # atno 10763 bound_to 10752
  153.2072  135.4415  155.0336 H   0  0  0  0  0  0  0  0  0  0  0  0  # atno 10764 bound_to 10752
  154.8222  135.3428  154.6931 H   0  0  0  0  0  0  0  0  0  0  0  0  # atno 10765 bound_to 10752
  140.5702  134.5246  157.5160 H   0  0  0  0  0  0  0  0  0  0  0  0  # atno 11005 bound_to 11000
  146.2161  140.5926  142.9038 LP  0  0  0  0  0  0  0  0  0  0  0  0  # atno 17320 bound_to 7965
  144.7723  140.5664  143.6662 LP  0  0  0  0  0  0  0  0  0  0  0  0  # atno 17321 bound_to 7965
  140.7674  143.5600  150.9110 LP  0  0  0  0  0  0  0  0  0  0  0  0  # atno 17342 bound_to 10162
  139.9275  143.6532  152.3083 LP  0  0  0  0  0  0  0  0  0  0  0  0  # atno 17343 bound_to 10162
  157.5601  131.0945  150.9571 LP  0  0  0  0  0  0  0  0  0  0  0  0  # atno 17370 bound_to 10713
  156.9810  130.5527  149.5296 LP  0  0  0  0  0  0  0  0  0  0  0  0  # atno 17371 bound_to 10713
  139.9366  134.7865  156.0788 LP  0  0  0  0  0  0  0  0  0  0  0  0  # atno 17394 bound_to 11000
  141.1061  133.6659  156.2867 LP  0  0  0  0  0  0  0  0  0  0  0  0  # atno 17395 bound_to 11000

$$$$
