AV-unprocessed.smi:36|AV-procd|sdf|300|dock5
  -GOLD-   2262016103D 1   1.00000     0.00000
 Structure written by MMmdl.
 63 66  0  0  0  0  0  0  0  0  2 V2000
  144.5340  136.0055  162.1065 C   0  0  0  0  0  0  0  0  0  0  0  0
  143.9384  134.5892  162.0459 C   0  0  0  0  0  0  0  0  0  0  0  0
  144.9381  133.5753  162.6273 C   0  0  0  0  0  0  0  0  0  0  0  0
  142.6256  134.5390  162.8450 C   0  0  0  0  0  0  0  0  0  0  0  0
  143.5784  134.1299  160.2272 Si  0  0  0  0  0  0  0  0  0  0  0  0
  142.7372  132.4317  160.0950 C   0  0  0  0  0  0  0  0  0  0  0  0
  142.4896  135.4485  159.3949 C   0  0  0  0  0  0  0  0  0  0  0  0
  145.0551  134.0490  159.4046 O   0  0  0  0  0  0  0  0  0  0  0  0
  145.9217  135.1550  159.2613 C   0  0  0  0  0  0  0  0  0  0  0  0
  145.4671  136.0320  158.0860 C   0  0  1  0  0  0  0  0  0  0  0  0
  146.2502  137.2263  158.1271 O   0  0  0  0  0  0  0  0  0  0  0  0
  146.8698  137.4312  156.8985 C   0  0  1  0  0  0  0  0  0  0  0  0
  148.2042  138.0542  157.1369 N   0  0  0  0  0  0  0  0  0  0  0  0
  148.8624  138.1683  158.3074 C   0  0  0  0  0  0  0  0  0  0  0  0
  150.0543  138.7614  158.2855 N   0  0  0  0  0  0  0  0  0  0  0  0
  150.1920  139.0651  156.9389 C   0  0  0  0  0  0  0  0  0  0  0  0
  151.2229  139.7112  156.2028 C   0  0  0  0  0  0  0  0  0  0  0  0
  152.3463  140.1673  156.7762 N   0  5  0  0  0  0  0  0  0  0  0  0
  152.3768  140.4036  158.1124 C   0  0  0  0  0  0  0  0  0  0  0  0
  152.4511  139.5778  159.0250 O   0  0  0  0  0  0  0  0  0  0  0  0
  152.2336  141.8610  158.4622 C   0  0  0  0  0  0  0  0  0  0  0  0
  152.7641  142.3441  159.6804 C   0  0  0  0  0  0  0  0  0  0  0  0
  152.6611  143.7081  160.0161 C   0  0  0  0  0  0  0  0  0  0  0  0
  152.0338  144.6063  159.1328 C   0  0  0  0  0  0  0  0  0  0  0  0
  151.5147  144.1402  157.9105 C   0  0  0  0  0  0  0  0  0  0  0  0
  151.6177  142.7763  157.5739 C   0  0  0  0  0  0  0  0  0  0  0  0
  151.0379  139.8368  154.8638 N   0  0  0  0  0  0  0  0  0  0  0  0
  149.9201  139.3770  154.2901 C   0  0  0  0  0  0  0  0  0  0  0  0
  148.8759  138.7656  154.8567 N   0  0  0  0  0  0  0  0  0  0  0  0
  149.0535  138.6262  156.2031 C   0  0  0  0  0  0  0  0  0  0  0  0
  147.0042  136.0615  156.2428 C   0  0  0  0  0  0  0  0  0  0  0  0
  145.7274  135.3932  156.7081 C   0  0  2  0  0  0  0  0  0  0  0  0
  144.6630  135.6855  155.8242 O   0  0  0  0  0  0  0  0  0  0  0  0
  144.7506  136.3005  163.1338 H   0  0  0  0  0  0  0  0  0  0  0  0
  143.8477  136.7435  161.6907 H   0  0  0  0  0  0  0  0  0  0  0  0
  145.4657  136.0692  161.5441 H   0  0  0  0  0  0  0  0  0  0  0  0
  145.8853  133.5952  162.0878 H   0  0  0  0  0  0  0  0  0  0  0  0
  144.5493  132.5579  162.5703 H   0  0  0  0  0  0  0  0  0  0  0  0
  145.1538  133.7872  163.6751 H   0  0  0  0  0  0  0  0  0  0  0  0
  142.7920  134.7749  163.8966 H   0  0  0  0  0  0  0  0  0  0  0  0
  142.1712  133.5490  162.7972 H   0  0  0  0  0  0  0  0  0  0  0  0
  141.8979  135.2539  162.4602 H   0  0  0  0  0  0  0  0  0  0  0  0
  141.7833  132.4147  160.6214 H   0  0  0  0  0  0  0  0  0  0  0  0
  143.3574  131.6427  160.5195 H   0  0  0  0  0  0  0  0  0  0  0  0
  142.5400  132.1649  159.0568 H   0  0  0  0  0  0  0  0  0  0  0  0
  141.5212  135.5350  159.8868 H   0  0  0  0  0  0  0  0  0  0  0  0
  142.2997  135.2114  158.3483 H   0  0  0  0  0  0  0  0  0  0  0  0
  142.9560  136.4328  159.4241 H   0  0  0  0  0  0  0  0  0  0  0  0
  145.9079  135.7292  160.1880 H   0  0  0  0  0  0  0  0  0  0  0  0
  146.9467  134.8161  159.1128 H   0  0  0  0  0  0  0  0  0  0  0  0
  144.4133  136.2850  158.2126 H   0  0  0  0  0  0  0  0  0  0  0  0
  146.3055  138.1462  156.2979 H   0  0  0  0  0  0  0  0  0  0  0  0
  148.4418  137.7978  159.2306 H   0  0  0  0  0  0  0  0  0  0  0  0
  153.2499  141.6685  160.3693 H   0  0  0  0  0  0  0  0  0  0  0  0
  153.0646  144.0650  160.9521 H   0  0  0  0  0  0  0  0  0  0  0  0
  151.9551  145.6521  159.3901 H   0  0  0  0  0  0  0  0  0  0  0  0
  151.0390  144.8288  157.2282 H   0  0  0  0  0  0  0  0  0  0  0  0
  151.2213  142.4412  156.6261 H   0  0  0  0  0  0  0  0  0  0  0  0
  149.8515  139.5212  153.2223 H   0  0  0  0  0  0  0  0  0  0  0  0
  147.1102  136.1412  155.1603 H   0  0  0  0  0  0  0  0  0  0  0  0
  147.8691  135.5347  156.6469 H   0  0  0  0  0  0  0  0  0  0  0  0
  145.8354  134.3099  156.7580 H   0  0  0  0  0  0  0  0  0  0  0  0
  144.1449  134.9036  155.7101 H   0  0  0  0  0  0  0  0  0  0  0  0
  1  2  1  0  0  0  0
  1 34  1  0  0  0  0
  1 35  1  0  0  0  0
  1 36  1  0  0  0  0
  2  3  1  0  0  0  0
  2  4  1  0  0  0  0
  2  5  1  0  0  0  0
  3 37  1  0  0  0  0
  3 38  1  0  0  0  0
  3 39  1  0  0  0  0
  4 40  1  0  0  0  0
  4 41  1  0  0  0  0
  4 42  1  0  0  0  0
  5  6  1  0  0  0  0
  5  7  1  0  0  0  0
  5  8  1  0  0  0  0
  6 43  1  0  0  0  0
  6 44  1  0  0  0  0
  6 45  1  0  0  0  0
  7 46  1  0  0  0  0
  7 47  1  0  0  0  0
  7 48  1  0  0  0  0
  8  9  1  0  0  0  0
  9 10  1  0  0  0  0
  9 49  1  0  0  0  0
  9 50  1  0  0  0  0
 10 32  1  0  0  0  0
 10 11  1  0  0  0  0
 10 51  1  0  0  0  0
 11 12  1  0  0  0  0
 12 13  1  0  0  0  0
 12 31  1  0  0  0  0
 12 52  1  0  0  0  0
 13 30  1  0  0  0  0
 13 14  1  0  0  0  0
 14 15  2  0  0  0  0
 14 53  1  0  0  0  0
 15 16  1  0  0  0  0
 16 30  2  0  0  0  0
 16 17  1  0  0  0  0
 17 18  1  0  0  0  0
 17 27  2  0  0  0  0
 18 19  1  0  0  0  0
 19 20  2  0  0  0  0
 19 21  1  0  0  0  0
 21 26  1  0  0  0  0
 21 22  2  0  0  0  0
 22 23  1  0  0  0  0
 22 54  1  0  0  0  0
 23 24  2  0  0  0  0
 23 55  1  0  0  0  0
 24 25  1  0  0  0  0
 24 56  1  0  0  0  0
 25 26  2  0  0  0  0
 25 57  1  0  0  0  0
 26 58  1  0  0  0  0
 27 28  1  0  0  0  0
 28 29  2  0  0  0  0
 28 59  1  0  0  0  0
 29 30  1  0  0  0  0
 31 32  1  0  0  0  0
 31 60  1  0  0  0  0
 31 61  1  0  0  0  0
 32 33  1  0  0  0  0
 32 62  1  0  0  0  0
 33 63  1  0  0  0  0
M  CHG  1  18  -1
M  END
> <s_m_source_file>
AV-unprocessed.smi

> <i_m_source_file_index>
36

> <i_lp_mmshare_version>
43012

> <i_f3d_flags>
0

> <s_epik_input>
W0NIM11DKFtDSDNdKShbQ0gzXSlbU2ldKFtDSDNdKShbQ0gzXSlPW0NIMl1bQ0BASF0xT1tDQEhdKFtDSDJdW0NASF0xW09IXSluKFtjSF1uMiljKGMyMyluW2NIXW5jM1tOSF1DKD1PKWM0W2NIXVtjSF1bY0hdW2NIXVtjSF00

> <s_epik_cmdline>
J2VwaWtfcHl0aG9uJywgJy1waCcsICc3LjAnLCAnLXRuJywgJzgnLCAnLW1hJywgJzIwMCcsICctbWV0YWxfYmluZGluZycsICctaW1hZScsICc8aW5maWxlLm1hZT4nLCAnLW9tYWUnLCAnPG91dGZpbGUubWFlPic=

> <r_lp_tautomer_probability>
1

> <r_epik_Ionization_Penalty>
4.75685

> <r_epik_Ionization_Penalty_Charging>
3.55822

> <r_epik_Ionization_Penalty_Neutral>
1.19863

> <r_epik_State_Penalty>
3.564

> <r_epik_Charging_Adjusted_Penalty>
7.12222

> <i_epik_Tot_Q>
-1

> <i_epik_Tot_abs_Q>
1

> <r_epik_Metal_State_Penalty>
0.523258

> <b_epik_Metal_Only>
1

> <s_epik_Chemistry_Notes>
This compound contains an acetal/aminal-like group ( X-CH(R)-Y where X, Y are N, S, or O) that may be acid/base labile, releasing an aldehyde.

> <s_lp_Force_Field>
OPLS_2005

> <r_lp_Energy>
29.6254

> <b_lp_Chiralities_Consistent>
1

> <s_lp_Variant>
AV-unprocessed.smi:36-22

> <Gold.Version>
5.8.1

> <Gold.Id.Protein>
6NUR|6NUR_protein|mol2

> <Gold.PLP.Fitness>
51.6869

> <Gold.PLP.PLP>
-42.4233

> <Gold.PLP.part.hbond>
-2.0000

> <Gold.PLP.part.metal>
0.0000

> <Gold.PLP.part.buried>
-6.0145

> <Gold.PLP.part.nonpolar>
-34.2930

> <Gold.PLP.part.repulsive>
0.1498

> <Gold.PLP.ligand.clash>
0.0000

> <Gold.PLP.ligand.torsion>
1.6364

> <Gold.PLP.Chemscore.Hbond>
2.9500

> <Gold.PLP.Chemscore.CHOScore>
1.0000

> <Gold.PLP.Chemscore.Metal>
0.0000

> <Gold.Chemscore.Hbonds>
donor molecule, donor type, donor heavy atom, donor atom, acceptor molecule, acceptor atom, score
      P1  H  7989  7998       L1    27  0.95
      P1  H  7997  8010       L1    18  2.00
      L1  C    28    59       P1  7957  1.00

> <Gold.PLP.Chemscore.Internal.Correction>
0.6863

> <Gold.Rescore>
     Score         DG    S(hbond)    S(metal)    S(lipo)     H(rot)  DE(clash)    DE(int)     intcor
      9.50     -14.12       0.73        0.00     111.55       2.67       0.11       4.51       ----

> <Gold.Chemscore.Fitness>
9.5020

> <Gold.Chemscore.DG>
-14.1201

> <Gold.Chemscore.ZeroCoef>
-5.4800

> <Gold.Chemscore.Hbond>
0.7261

> <Gold.Chemscore.Metal>
0.0000

> <Gold.Chemscore.Lipo>
111.5459

> <Gold.Chemscore.Internal_Hbond>
0.0000

> <Gold.Chemscore.DEClash>
0.1109

> <Gold.Chemscore.DEInternal>
4.5072

> <Gold.Chemscore.Rot>
2.6702

> <Gold.Chemscore.Internal.Correction>
   9.000000E+99

> <Gold.Chemscore.Hbonds>
donor molecule, donor type, donor heavy atom, donor atom, acceptor molecule, acceptor atom, score
      P1  H  7989  7998       L1    27  0.22
      P1  H  7997  8010       L1    18  0.23

> <Gold.Chemscore.Hbond.Weighted>
-2.4250

> <Gold.Chemscore.Metal.Weighted>
-0.0000

> <Gold.Chemscore.Lipo.Weighted>
-13.0509

> <Gold.Chemscore.Internal_Hbond.Weighted>
0.0000

> <Gold.Chemscore.DEClash.Weighted>
0.1109

> <Gold.Chemscore.DEInternal.Weighted>
4.5072

> <Gold.Chemscore.Rot.Weighted>
6.8358

> <Gold.Chemscore.Internal.Correction.Weighted>
   9.000000E+99

> <Gold.Protein.RotatedTorsions>
[ 6907 6896 6895 6894 ] final   34.28 input  -60.11 | X-H torsion
[ 7974 7965 7964 7962 ] final -172.34 input  175.53 | X-H torsion
[ 8008 7997 7996 7995 ] final   75.47 input   59.86 | X-H torsion
[ 10167 10162 10161 10158 ] final  106.12 input  -65.29 | X-H torsion
[ 10718 10713 10712 10709 ] final  -24.77 input   66.30 | X-H torsion
[ 10763 10752 10751 10750 ] final  -87.67 input  -60.55 | X-H torsion
[ 11005 11000 10999 10996 ] final  -55.73 input  -57.11 | X-H torsion

> <Gold.Protein.ActiveResidues>
 VAL166  LYS551  ARG553  GLY616  TRP617  ASP618  TYR619  PRO620  LYS621  CYS622 
 ASP623  PHE694  ASN695  SER759  ASP760  ASP761  ALA762  ILE779  LEU786  VAL792 
 PHE793  MET794  SER795  GLU796  ALA797  LYS798  CYS799  TRP800  GLU811  SER814 

> <Gold.Protein.RotatedAtoms>
  152.1002  134.9346  160.0569 H   0  0  0  0  0  0  0  0  0  0  0  0  # atno 6907 bound_to 6896
  152.0564  133.4037  159.4407 H   0  0  0  0  0  0  0  0  0  0  0  0  # atno 6908 bound_to 6896
  150.6839  134.3170  159.4814 H   0  0  0  0  0  0  0  0  0  0  0  0  # atno 6909 bound_to 6896
  144.7147  140.1787  143.6360 H   0  0  0  0  0  0  0  0  0  0  0  0  # atno 7974 bound_to 7965
  155.8134  140.3472  155.5471 H   0  0  0  0  0  0  0  0  0  0  0  0  # atno 8008 bound_to 7997
  155.8417  140.0942  157.1750 H   0  0  0  0  0  0  0  0  0  0  0  0  # atno 8009 bound_to 7997
  154.4005  140.1393  156.3724 H   0  0  0  0  0  0  0  0  0  0  0  0  # atno 8010 bound_to 7997
  139.7036  144.7090  151.1144 H   0  0  0  0  0  0  0  0  0  0  0  0  # atno 10167 bound_to 10162
  156.4733  130.4529  149.6856 H   0  0  0  0  0  0  0  0  0  0  0  0  # atno 10718 bound_to 10713
  154.6361  135.5405  153.7736 H   0  0  0  0  0  0  0  0  0  0  0  0  # atno 10763 bound_to 10752
  153.0309  135.6448  154.1229 H   0  0  0  0  0  0  0  0  0  0  0  0  # atno 10764 bound_to 10752
  154.1156  135.2924  155.3200 H   0  0  0  0  0  0  0  0  0  0  0  0  # atno 10765 bound_to 10752
  141.1087  133.6611  156.4513 H   0  0  0  0  0  0  0  0  0  0  0  0  # atno 11005 bound_to 11000
  145.8876  139.2358  143.1568 LP  0  0  0  0  0  0  0  0  0  0  0  0  # atno 17320 bound_to 7965
  145.9934  140.8583  143.0055 LP  0  0  0  0  0  0  0  0  0  0  0  0  # atno 17321 bound_to 7965
  140.7716  143.5390  150.9335 LP  0  0  0  0  0  0  0  0  0  0  0  0  # atno 17342 bound_to 10162
  139.9072  143.6764  152.3121 LP  0  0  0  0  0  0  0  0  0  0  0  0  # atno 17343 bound_to 10162
  156.3596  130.7475  151.2445 LP  0  0  0  0  0  0  0  0  0  0  0  0  # atno 17370 bound_to 10713
  157.7489  131.0354  150.4361 LP  0  0  0  0  0  0  0  0  0  0  0  0  # atno 17371 bound_to 10713
  140.4832  134.6645  157.5180 LP  0  0  0  0  0  0  0  0  0  0  0  0  # atno 17394 bound_to 11000
  139.9970  134.6895  155.9592 LP  0  0  0  0  0  0  0  0  0  0  0  0  # atno 17395 bound_to 11000

$$$$
