AV-unprocessed.smi:949|AV-procd|sdf|4246|dock1
  -GOLD-   22720 2153D 1   1.00000     0.00000
 Structure written by MMmdl.
 32 33  0  0  0  0  0  0  0  0  1 V2000
  151.9094  141.3693  158.7346 C   0  0  0  0  0  0  0  0  0  0  0  0
  150.7992  142.2761  158.1715 C   0  0  2  0  0  0  0  0  0  0  0  0
  150.8597  142.3026  156.7147 N   0  0  0  0  0  0  0  0  0  0  0  0
  150.6606  141.1602  155.9191 C   0  0  0  0  0  0  0  0  0  0  0  0
  151.5147  140.0327  155.9687 C   0  0  0  0  0  0  0  0  0  0  0  0
  151.2372  138.9304  155.1367 C   0  0  0  0  0  0  0  0  0  0  0  0
  150.1922  138.8854  154.2857 N   0  0  0  0  0  0  0  0  0  0  0  0
  149.3772  139.9590  154.2374 C   0  0  0  0  0  0  0  0  0  0  0  0
  149.5622  141.1150  155.0249 C   0  0  0  0  0  0  0  0  0  0  0  0
  148.6648  142.1791  154.9052 N   0  0  0  0  0  0  0  0  0  0  0  0
  150.9102  143.7131  158.7172 C   0  0  2  0  0  0  0  0  0  0  0  0
  152.2118  144.4362  158.3661 C   0  0  0  0  0  0  0  0  0  0  0  0
  152.3629  145.4659  159.4748 C   0  0  0  0  0  0  0  0  0  0  0  0
  151.3989  144.9850  160.5622 C   0  0  0  0  0  0  0  0  0  0  0  0
  150.9702  143.6996  160.1358 O   0  0  0  0  0  0  0  0  0  0  0  0
  151.8450  141.2882  159.8196 H   0  0  0  0  0  0  0  0  0  0  0  0
  152.8983  141.7576  158.4889 H   0  0  0  0  0  0  0  0  0  0  0  0
  151.8460  140.3573  158.3352 H   0  0  0  0  0  0  0  0  0  0  0  0
  149.8296  141.8838  158.4784 H   0  0  0  0  0  0  0  0  0  0  0  0
  150.9338  143.2017  156.2614 H   0  0  0  0  0  0  0  0  0  0  0  0
  152.3725  139.9906  156.6216 H   0  0  0  0  0  0  0  0  0  0  0  0
  151.8747  138.0590  155.1563 H   0  0  0  0  0  0  0  0  0  0  0  0
  148.5497  139.8921  153.5458 H   0  0  0  0  0  0  0  0  0  0  0  0
  148.7690  143.0205  155.4545 H   0  0  0  0  0  0  0  0  0  0  0  0
  147.9216  142.1678  154.2218 H   0  0  0  0  0  0  0  0  0  0  0  0
  150.0544  144.3138  158.4017 H   0  0  0  0  0  0  0  0  0  0  0  0
  153.0502  143.7391  158.4007 H   0  0  0  0  0  0  0  0  0  0  0  0
  152.1901  144.8869  157.3734 H   0  0  0  0  0  0  0  0  0  0  0  0
  153.3920  145.5063  159.8333 H   0  0  0  0  0  0  0  0  0  0  0  0
  152.0865  146.4636  159.1323 H   0  0  0  0  0  0  0  0  0  0  0  0
  151.8670  144.9347  161.5454 H   0  0  0  0  0  0  0  0  0  0  0  0
  150.5352  145.6479  160.6297 H   0  0  0  0  0  0  0  0  0  0  0  0
  1  2  1  0  0  0  0
  1 16  1  0  0  0  0
  1 17  1  0  0  0  0
  1 18  1  0  0  0  0
  2  3  1  0  0  0  0
  2 11  1  0  0  0  0
  2 19  1  0  0  0  0
  3  4  1  0  0  0  0
  3 20  1  0  0  0  0
  4  9  1  0  0  0  0
  4  5  2  0  0  0  0
  5  6  1  0  0  0  0
  5 21  1  0  0  0  0
  6  7  2  0  0  0  0
  6 22  1  0  0  0  0
  7  8  1  0  0  0  0
  8  9  2  0  0  0  0
  8 23  1  0  0  0  0
  9 10  1  0  0  0  0
 10 24  1  0  0  0  0
 10 25  1  0  0  0  0
 11 15  1  0  0  0  0
 11 12  1  0  0  0  0
 11 26  1  0  0  0  0
 12 13  1  0  0  0  0
 12 27  1  0  0  0  0
 12 28  1  0  0  0  0
 13 14  1  0  0  0  0
 13 29  1  0  0  0  0
 13 30  1  0  0  0  0
 14 15  1  0  0  0  0
 14 31  1  0  0  0  0
 14 32  1  0  0  0  0
M  END
> <s_m_source_file>
AV-unprocessed.smi

> <i_m_source_file_index>
949

> <i_lp_mmshare_version>
43012

> <i_f3d_flags>
0

> <s_epik_input>
TzFbQ0gyXVtDSDJdW0NIMl1bQ0BIXTFbQ0BIXShbQ0gzXSlbTkhdYzJbY0hdW2NIXW5bY0hdYzJbTkgyXQ==

> <s_epik_cmdline>
J2VwaWtfcHl0aG9uJywgJy1waCcsICc3LjAnLCAnLXRuJywgJzgnLCAnLW1hJywgJzIwMCcsICctbWV0YWxfYmluZGluZycsICctaW1hZScsICc8aW5maWxlLm1hZT4nLCAnLW9tYWUnLCAnPG91dGZpbGUubWFlPic=

> <r_epik_Ionization_Penalty>
3.88091

> <r_epik_Ionization_Penalty_Charging>
0

> <r_epik_Ionization_Penalty_Neutral>
3.88091

> <r_epik_State_Penalty>
3.88049

> <r_epik_Charging_Adjusted_Penalty>
3.88049

> <i_epik_Tot_Q>
0

> <i_epik_Tot_abs_Q>
0

> <r_epik_Metal_State_Penalty>
0.313783

> <b_epik_Metal_Only>
1

> <s_lp_Force_Field>
OPLS_2005

> <r_lp_Energy>
24.4145

> <b_lp_Chiralities_Consistent>
1

> <s_lp_Variant>
AV-unprocessed.smi:949-5

> <Gold.Version>
5.8.1

> <Gold.Id.Protein>
6NUR|6NUR_protein|mol2

> <Gold.PLP.Fitness>
38.8222

> <Gold.PLP.PLP>
-35.2358

> <Gold.PLP.part.hbond>
-1.2512

> <Gold.PLP.part.metal>
0.0000

> <Gold.PLP.part.buried>
-1.4850

> <Gold.PLP.part.nonpolar>
-30.4821

> <Gold.PLP.part.repulsive>
0.5338

> <Gold.PLP.ligand.clash>
0.0000

> <Gold.PLP.ligand.torsion>
0.6400

> <Gold.PLP.Chemscore.Hbond>
1.0000

> <Gold.PLP.Chemscore.CHOScore>
0.6083

> <Gold.PLP.Chemscore.Metal>
0.0000

> <Gold.Chemscore.Hbonds>
donor molecule, donor type, donor heavy atom, donor atom, acceptor molecule, acceptor atom, score
      L1  H    10    24       P1  8028  1.00
      L1  C     8    23       P1  7957  0.41

> <Gold.PLP.Chemscore.Internal.Correction>
0.0415

> <Gold.Rescore>
     Score         DG    S(hbond)    S(metal)    S(lipo)     H(rot)  DE(clash)    DE(int)     intcor
     16.64     -17.71       1.00        0.00     102.72       1.22       0.44       0.64       ----

> <Gold.Chemscore.Fitness>
16.6392

> <Gold.Chemscore.DG>
-17.7120

> <Gold.Chemscore.ZeroCoef>
-5.4800

> <Gold.Chemscore.Hbond>
0.9968

> <Gold.Chemscore.Metal>
0.0000

> <Gold.Chemscore.Lipo>
102.7155

> <Gold.Chemscore.Internal_Hbond>
0.0000

> <Gold.Chemscore.DEClash>
0.4360

> <Gold.Chemscore.DEInternal>
0.6368

> <Gold.Chemscore.Rot>
1.2169

> <Gold.Chemscore.Internal.Correction>
   9.000000E+99

> <Gold.Chemscore.Hbonds>
donor molecule, donor type, donor heavy atom, donor atom, acceptor molecule, acceptor atom, score
      L1  H    10    24       P1  8028  0.97

> <Gold.Chemscore.Hbond.Weighted>
-3.3295

> <Gold.Chemscore.Metal.Weighted>
-0.0000

> <Gold.Chemscore.Lipo.Weighted>
-12.0177

> <Gold.Chemscore.Internal_Hbond.Weighted>
0.0000

> <Gold.Chemscore.DEClash.Weighted>
0.4360

> <Gold.Chemscore.DEInternal.Weighted>
0.6368

> <Gold.Chemscore.Rot.Weighted>
3.1152

> <Gold.Chemscore.Internal.Correction.Weighted>
   9.000000E+99

> <Gold.Protein.RotatedTorsions>
[ 6907 6896 6895 6894 ] final -136.14 input  -60.11 | X-H torsion
[ 7974 7965 7964 7962 ] final  156.52 input  175.53 | X-H torsion
[ 8008 7997 7996 7995 ] final  119.29 input   59.86 | X-H torsion
[ 10167 10162 10161 10158 ] final -178.09 input  -65.29 | X-H torsion
[ 10718 10713 10712 10709 ] final   16.46 input   66.30 | X-H torsion
[ 10763 10752 10751 10750 ] final -150.90 input  -60.55 | X-H torsion
[ 11005 11000 10999 10996 ] final -133.70 input  -57.11 | X-H torsion

> <Gold.Protein.ActiveResidues>
 VAL166  LYS551  ARG553  GLY616  TRP617  ASP618  TYR619  PRO620  LYS621  CYS622 
 ASP623  PHE694  ASN695  SER759  ASP760  ASP761  ALA762  ILE779  LEU786  VAL792 
 PHE793  MET794  SER795  GLU796  ALA797  LYS798  CYS799  TRP800  GLU811  SER814 

> <Gold.Protein.RotatedAtoms>
  151.0064  133.6006  159.2688 H   0  0  0  0  0  0  0  0  0  0  0  0  # atno 6907 bound_to 6896
  151.3174  135.0809  159.9303 H   0  0  0  0  0  0  0  0  0  0  0  0  # atno 6908 bound_to 6896
  152.5288  133.9718  159.7820 H   0  0  0  0  0  0  0  0  0  0  0  0  # atno 6909 bound_to 6896
  144.7958  139.7214  143.6202 H   0  0  0  0  0  0  0  0  0  0  0  0  # atno 7974 bound_to 7965
  156.2588  140.2856  156.0968 H   0  0  0  0  0  0  0  0  0  0  0  0  # atno 8008 bound_to 7997
  155.1403  140.0395  157.2814 H   0  0  0  0  0  0  0  0  0  0  0  0  # atno 8009 bound_to 7997
  154.6534  140.2550  155.7194 H   0  0  0  0  0  0  0  0  0  0  0  0  # atno 8010 bound_to 7997
  139.5449  144.2263  152.0968 H   0  0  0  0  0  0  0  0  0  0  0  0  # atno 10167 bound_to 10162
  157.0681  130.6337  149.5800 H   0  0  0  0  0  0  0  0  0  0  0  0  # atno 10718 bound_to 10713
  154.8091  135.3273  154.7354 H   0  0  0  0  0  0  0  0  0  0  0  0  # atno 10763 bound_to 10752
  153.8007  135.6903  153.4860 H   0  0  0  0  0  0  0  0  0  0  0  0  # atno 10764 bound_to 10752
  153.1856  135.4570  155.0030 H   0  0  0  0  0  0  0  0  0  0  0  0  # atno 10765 bound_to 10752
  140.9057  134.1633  157.4427 H   0  0  0  0  0  0  0  0  0  0  0  0  # atno 11005 bound_to 11000
  146.2226  139.5663  142.9608 LP  0  0  0  0  0  0  0  0  0  0  0  0  # atno 17320 bound_to 7965
  145.5676  141.0397  143.2191 LP  0  0  0  0  0  0  0  0  0  0  0  0  # atno 17321 bound_to 7965
  140.1748  144.4901  150.6560 LP  0  0  0  0  0  0  0  0  0  0  0  0  # atno 17342 bound_to 10162
  140.6693  143.2280  151.5664 LP  0  0  0  0  0  0  0  0  0  0  0  0  # atno 17343 bound_to 10162
  155.9958  130.5026  150.7474 LP  0  0  0  0  0  0  0  0  0  0  0  0  # atno 17370 bound_to 10713
  157.4900  131.0910  151.0438 LP  0  0  0  0  0  0  0  0  0  0  0  0  # atno 17371 bound_to 10713
  139.8749  134.9916  156.5556 LP  0  0  0  0  0  0  0  0  0  0  0  0  # atno 17394 bound_to 11000
  140.8174  133.8381  155.8864 LP  0  0  0  0  0  0  0  0  0  0  0  0  # atno 17395 bound_to 11000

$$$$
