AV-unprocessed.smi:1046|AV-procd|sdf|4556|dock8
  -GOLD-   22720 2593D 1   1.00000     0.00000
 Structure written by MMmdl.
 54 56  0  0  0  0  0  0  0  0  3 V2000
  152.9621  142.8305  161.7535 C   0  0  0  0  0  0  0  0  0  0  0  0
  152.4341  142.4930  160.3703 C   0  0  0  0  0  0  0  0  0  0  0  0
  152.8832  141.3147  159.7326 C   0  0  0  0  0  0  0  0  0  0  0  0
  152.4151  140.9632  158.4478 C   0  0  0  0  0  0  0  0  0  0  0  0
  152.7088  139.8694  157.6519 N   0  0  0  0  0  0  0  0  0  0  0  0
  151.9574  140.1063  156.5810 C   0  0  0  0  0  0  0  0  0  0  0  0
  151.2014  141.2210  156.5929 N   0  0  0  0  0  0  0  0  0  0  0  0
  150.2982  141.6724  155.5505 C   0  0  0  0  0  0  0  0  0  0  0  0
  149.4257  140.5313  154.9909 C   0  0  2  0  0  0  0  0  0  0  0  0
  150.1340  139.9282  153.9272 O   0  0  0  0  0  0  0  0  0  0  0  0
  148.0500  141.0031  154.4694 C   0  0  0  0  0  0  0  0  0  0  0  0
  147.3907  141.9716  155.3832 N   0  3  2  0  0  0  0  0  0  0  0  0
  147.4344  141.5262  156.7984 C   0  0  0  0  0  0  0  0  0  0  0  0
  146.8313  142.5896  157.7352 C   0  0  0  0  0  0  0  0  0  0  0  0
  145.4438  142.9433  157.3453 N   0  3  2  0  0  0  0  0  0  0  0  0
  144.4369  141.9193  157.7349 C   0  0  0  0  0  0  0  0  0  0  0  0
  144.3396  141.7416  159.2596 C   0  0  0  0  0  0  0  0  0  0  0  0
  145.2920  140.7952  159.6960 O   0  0  0  0  0  0  0  0  0  0  0  0
  145.3825  143.3684  155.9223 C   0  0  0  0  0  0  0  0  0  0  0  0
  146.0065  142.3253  154.9716 C   0  0  0  0  0  0  0  0  0  0  0  0
  151.4783  141.8300  157.8128 C   0  0  0  0  0  0  0  0  0  0  0  0
  151.0268  143.0073  158.4353 C   0  0  0  0  0  0  0  0  0  0  0  0
  151.5042  143.3431  159.7195 C   0  0  0  0  0  0  0  0  0  0  0  0
  151.0098  144.6152  160.3849 C   0  0  0  0  0  0  0  0  0  0  0  0
  153.6321  142.0547  162.1247 H   0  0  0  0  0  0  0  0  0  0  0  0
  152.1408  142.9294  162.4634 H   0  0  0  0  0  0  0  0  0  0  0  0
  153.5160  143.7692  161.7314 H   0  0  0  0  0  0  0  0  0  0  0  0
  153.5932  140.6685  160.2277 H   0  0  0  0  0  0  0  0  0  0  0  0
  151.9498  139.4260  155.7417 H   0  0  0  0  0  0  0  0  0  0  0  0
  149.6742  142.4711  155.9536 H   0  0  0  0  0  0  0  0  0  0  0  0
  150.8953  142.1177  154.7531 H   0  0  0  0  0  0  0  0  0  0  0  0
  149.2989  139.7840  155.7736 H   0  0  0  0  0  0  0  0  0  0  0  0
  149.6294  140.0230  153.1332 H   0  0  0  0  0  0  0  0  0  0  0  0
  148.1379  141.4625  153.4844 H   0  0  0  0  0  0  0  0  0  0  0  0
  147.4137  140.1264  154.3381 H   0  0  0  0  0  0  0  0  0  0  0  0
  146.9010  140.5801  156.9016 H   0  0  0  0  0  0  0  0  0  0  0  0
  148.4683  141.3390  157.0914 H   0  0  0  0  0  0  0  0  0  0  0  0
  146.8626  142.2525  158.7719 H   0  0  0  0  0  0  0  0  0  0  0  0
  147.4399  143.4940  157.6937 H   0  0  0  0  0  0  0  0  0  0  0  0
  143.4597  142.1741  157.3249 H   0  0  0  0  0  0  0  0  0  0  0  0
  144.7025  140.9557  157.2973 H   0  0  0  0  0  0  0  0  0  0  0  0
  144.4806  142.6796  159.7951 H   0  0  0  0  0  0  0  0  0  0  0  0
  143.3478  141.3740  159.5244 H   0  0  0  0  0  0  0  0  0  0  0  0
  145.4997  140.2197  158.9746 H   0  0  0  0  0  0  0  0  0  0  0  0
  144.3580  143.5888  155.6243 H   0  0  0  0  0  0  0  0  0  0  0  0
  145.9291  144.3079  155.8288 H   0  0  0  0  0  0  0  0  0  0  0  0
  146.0070  142.7314  153.9608 H   0  0  0  0  0  0  0  0  0  0  0  0
  145.3935  141.4238  154.9406 H   0  0  0  0  0  0  0  0  0  0  0  0
  150.3187  143.6471  157.9300 H   0  0  0  0  0  0  0  0  0  0  0  0
  150.3357  145.1704  159.7320 H   0  0  0  0  0  0  0  0  0  0  0  0
  151.8470  145.2682  160.6329 H   0  0  0  0  0  0  0  0  0  0  0  0
  150.4706  144.3800  161.3027 H   0  0  0  0  0  0  0  0  0  0  0  0
  147.9402  142.8186  155.3364 H   0  0  0  0  0  0  0  0  0  0  0  0
  145.2041  143.7550  157.8986 H   0  0  0  0  0  0  0  0  0  0  0  0
  1  2  1  0  0  0  0
  1 25  1  0  0  0  0
  1 26  1  0  0  0  0
  1 27  1  0  0  0  0
  2 23  1  0  0  0  0
  2  3  2  0  0  0  0
  3  4  1  0  0  0  0
  3 28  1  0  0  0  0
  4 21  2  0  0  0  0
  4  5  1  0  0  0  0
  5  6  2  0  0  0  0
  6  7  1  0  0  0  0
  6 29  1  0  0  0  0
  7  8  1  0  0  0  0
  7 21  1  0  0  0  0
  8  9  1  0  0  0  0
  8 30  1  0  0  0  0
  8 31  1  0  0  0  0
  9 10  1  0  0  0  0
  9 11  1  0  0  0  0
  9 32  1  0  0  0  0
 10 33  1  0  0  0  0
 11 12  1  0  0  0  0
 11 34  1  0  0  0  0
 11 35  1  0  0  0  0
 12 20  1  0  0  0  0
 12 13  1  0  0  0  0
 12 53  1  0  0  0  0
 13 14  1  0  0  0  0
 13 36  1  0  0  0  0
 13 37  1  0  0  0  0
 14 15  1  0  0  0  0
 14 38  1  0  0  0  0
 14 39  1  0  0  0  0
 15 16  1  0  0  0  0
 15 19  1  0  0  0  0
 15 54  1  0  0  0  0
 16 17  1  0  0  0  0
 16 40  1  0  0  0  0
 16 41  1  0  0  0  0
 17 18  1  0  0  0  0
 17 42  1  0  0  0  0
 17 43  1  0  0  0  0
 18 44  1  0  0  0  0
 19 20  1  0  0  0  0
 19 45  1  0  0  0  0
 19 46  1  0  0  0  0
 20 47  1  0  0  0  0
 20 48  1  0  0  0  0
 21 22  1  0  0  0  0
 22 23  2  0  0  0  0
 22 49  1  0  0  0  0
 23 24  1  0  0  0  0
 24 50  1  0  0  0  0
 24 51  1  0  0  0  0
 24 52  1  0  0  0  0
M  CHG  1  12   1
M  CHG  1  15   1
M  END
> <s_m_source_file>
AV-unprocessed.smi

> <i_m_source_file_index>
1046

> <i_lp_mmshare_version>
43012

> <i_f3d_flags>
0

> <s_epik_input>
W0NIM11jKFtjSF0xKWMoW0NIM10pW2NIXWMoYzEyKW4oW2NIXW4yKVtDSDJdW0NASF0oW09IXSlbQ0gyXU4zW0NIMl1bQ0gyXU4oW0NIMl1bQ0gyXTMpW0NIMl1bQ0gyXVtPSF0=

> <s_epik_cmdline>
J2VwaWtfcHl0aG9uJywgJy1waCcsICc3LjAnLCAnLXRuJywgJzgnLCAnLW1hJywgJzIwMCcsICctbWV0YWxfYmluZGluZycsICctaW1hZScsICc8aW5maWxlLm1hZT4nLCAnLW9tYWUnLCAnPG91dGZpbGUubWFlPic=

> <r_epik_Ionization_Penalty>
3.17398

> <r_epik_Ionization_Penalty_Charging>
3.09061

> <r_epik_Ionization_Penalty_Neutral>
0.0833726

> <r_epik_State_Penalty>
2.17606

> <r_epik_Charging_Adjusted_Penalty>
5.26667

> <i_epik_Tot_Q>
2

> <i_epik_Tot_abs_Q>
2

> <r_epik_Metal_State_Penalty>
2.08587

> <b_epik_Metal_Only>
0

> <s_lp_Force_Field>
OPLS_2005

> <r_lp_Energy>
31.2877

> <b_lp_Chiralities_Consistent>
1

> <s_lp_Variant>
AV-unprocessed.smi:1046-9

> <Gold.Version>
5.8.1

> <Gold.Id.Protein>
6NUR|6NUR_protein|mol2

> <Gold.PLP.Fitness>
60.6870

> <Gold.PLP.PLP>
-45.4116

> <Gold.PLP.part.hbond>
-5.0000

> <Gold.PLP.part.metal>
0.0000

> <Gold.PLP.part.buried>
-7.1821

> <Gold.PLP.part.nonpolar>
-32.3950

> <Gold.PLP.part.repulsive>
0.0680

> <Gold.PLP.ligand.clash>
0.0000

> <Gold.PLP.ligand.torsion>
0.9300

> <Gold.PLP.Chemscore.Hbond>
5.6240

> <Gold.PLP.Chemscore.CHOScore>
0.0000

> <Gold.PLP.Chemscore.Metal>
0.0000

> <Gold.Chemscore.Hbonds>
donor molecule, donor type, donor heavy atom, donor atom, acceptor molecule, acceptor atom, score
      L1  H    10    33       P1  7957  0.94
      L1  H    12    53       P1  8028  1.53
      P1  H  6934  6946       L1    18  0.61
      P1  H  7989  7998       L1    10  0.93
      P1  H  7997  8008       L1     5  1.00

> <Gold.PLP.Chemscore.Internal.Correction>
0.2633

> <Gold.Rescore>
     Score         DG    S(hbond)    S(metal)    S(lipo)     H(rot)  DE(clash)    DE(int)     intcor
     19.71     -21.21       3.36        0.00     110.34       3.28       0.63       0.87       ----

> <Gold.Chemscore.Fitness>
19.7117

> <Gold.Chemscore.DG>
-21.2121

> <Gold.Chemscore.ZeroCoef>
-5.4800

> <Gold.Chemscore.Hbond>
3.3611

> <Gold.Chemscore.Metal>
0.0000

> <Gold.Chemscore.Lipo>
110.3410

> <Gold.Chemscore.Internal_Hbond>
0.0000

> <Gold.Chemscore.DEClash>
0.6315

> <Gold.Chemscore.DEInternal>
0.8689

> <Gold.Chemscore.Rot>
3.2828

> <Gold.Chemscore.Internal.Correction>
   9.000000E+99

> <Gold.Chemscore.Hbonds>
donor molecule, donor type, donor heavy atom, donor atom, acceptor molecule, acceptor atom, score
      L1  H    10    33       P1  7957  0.89
      L1  H    12    53       P1  8028  0.68
      P1  H  6934  6946       L1    18  0.24
      P1  H  7989  7998       L1    10  0.19
      P1  H  7997  8008       L1     5  0.19

> <Gold.Chemscore.Hbond.Weighted>
-11.2261

> <Gold.Chemscore.Metal.Weighted>
-0.0000

> <Gold.Chemscore.Lipo.Weighted>
-12.9099

> <Gold.Chemscore.Internal_Hbond.Weighted>
0.0000

> <Gold.Chemscore.DEClash.Weighted>
0.6315

> <Gold.Chemscore.DEInternal.Weighted>
0.8689

> <Gold.Chemscore.Rot.Weighted>
8.4039

> <Gold.Chemscore.Internal.Correction.Weighted>
   9.000000E+99

> <Gold.Protein.RotatedTorsions>
[ 6907 6896 6895 6894 ] final   45.88 input  -60.11 | X-H torsion
[ 7974 7965 7964 7962 ] final   -9.34 input  175.53 | X-H torsion
[ 8008 7997 7996 7995 ] final  -74.20 input   59.86 | X-H torsion
[ 10167 10162 10161 10158 ] final  -49.46 input  -65.29 | X-H torsion
[ 10718 10713 10712 10709 ] final  -73.80 input   66.30 | X-H torsion
[ 10763 10752 10751 10750 ] final   81.29 input  -60.55 | X-H torsion
[ 11005 11000 10999 10996 ] final  -35.05 input  -57.11 | X-H torsion

> <Gold.Protein.ActiveResidues>
 VAL166  LYS551  ARG553  GLY616  TRP617  ASP618  TYR619  PRO620  LYS621  CYS622 
 ASP623  PHE694  ASN695  SER759  ASP760  ASP761  ALA762  ILE779  LEU786  VAL792 
 PHE793  MET794  SER795  GLU796  ALA797  LYS798  CYS799  TRP800  GLU811  SER814 

> <Gold.Protein.RotatedAtoms>
  152.2498  134.8144  160.0447 H   0  0  0  0  0  0  0  0  0  0  0  0  # atno 6907 bound_to 6896
  151.8828  133.3494  159.3780 H   0  0  0  0  0  0  0  0  0  0  0  0  # atno 6908 bound_to 6896
  150.7080  134.4928  159.5568 H   0  0  0  0  0  0  0  0  0  0  0  0  # atno 6909 bound_to 6896
  146.2254  140.2601  142.8351 H   0  0  0  0  0  0  0  0  0  0  0  0  # atno 7974 bound_to 7965
  154.5311  140.0765  156.8346 H   0  0  0  0  0  0  0  0  0  0  0  0  # atno 8008 bound_to 7997
  155.3374  140.3405  155.4221 H   0  0  0  0  0  0  0  0  0  0  0  0  # atno 8009 bound_to 7997
  156.1782  140.1643  156.8311 H   0  0  0  0  0  0  0  0  0  0  0  0  # atno 8010 bound_to 7997
  140.6684  143.2697  151.4218 H   0  0  0  0  0  0  0  0  0  0  0  0  # atno 10167 bound_to 10162
  156.0266  130.4402  150.2796 H   0  0  0  0  0  0  0  0  0  0  0  0  # atno 10718 bound_to 10713
  153.1104  135.4771  154.9026 H   0  0  0  0  0  0  0  0  0  0  0  0  # atno 10763 bound_to 10752
  154.7475  135.3097  154.8621 H   0  0  0  0  0  0  0  0  0  0  0  0  # atno 10764 bound_to 10752
  153.9211  135.6855  153.4801 H   0  0  0  0  0  0  0  0  0  0  0  0  # atno 10765 bound_to 10752
  140.9765  133.7080  156.1611 H   0  0  0  0  0  0  0  0  0  0  0  0  # atno 11005 bound_to 11000
  144.9346  140.8012  143.5668 LP  0  0  0  0  0  0  0  0  0  0  0  0  # atno 17320 bound_to 7965
  145.2548  139.2017  143.4923 LP  0  0  0  0  0  0  0  0  0  0  0  0  # atno 17321 bound_to 7965
  139.5942  144.1434  152.2124 LP  0  0  0  0  0  0  0  0  0  0  0  0  # atno 17342 bound_to 10162
  140.0798  144.5710  150.7131 LP  0  0  0  0  0  0  0  0  0  0  0  0  # atno 17343 bound_to 10162
  157.0899  131.0167  151.3125 LP  0  0  0  0  0  0  0  0  0  0  0  0  # atno 17370 bound_to 10713
  157.4862  130.7794  149.7462 LP  0  0  0  0  0  0  0  0  0  0  0  0  # atno 17371 bound_to 10713
  140.7251  134.4316  157.5571 LP  0  0  0  0  0  0  0  0  0  0  0  0  # atno 17394 bound_to 11000
  139.8932  134.8735  156.2232 LP  0  0  0  0  0  0  0  0  0  0  0  0  # atno 17395 bound_to 11000

$$$$
