#       Name:                AV-unprocessed.smi:441
#       Creating user name   scv26
#       Creation time:       Thu Mar 26 22:57:04 2020


#       File generated by GOLD software.
#

@<TRIPOS>MOLECULE
AV-unprocessed.smi:441
    39    40     1
SMALL
NO_CHARGES


@<TRIPOS>ATOM
      1 ****         0.2757   0.4012  -1.4172 O.2            1 S1                 0.0000
      2 ****         0.7783   0.0631  -0.3444 C.2            1 S1                 0.0000
      3 ****         2.3002   0.1013  -0.1414 C.3            1 S1                 0.0000
      4 ****         2.9892   1.0173  -1.0628 N.am           1 S1                 0.0000
      5 ****         3.5753   0.3903  -2.1486 N.2            1 S1                 0.0000
      6 ****         4.1920   1.0968  -3.0321 C.2            1 S1                 0.0000
      7 ****         4.3007   2.5352  -2.9297 C.2            1 S1                 0.0000
      8 ****         5.1409   3.4299  -4.1466 Cl             1 S1                 0.0000
      9 ****         3.7281   3.1393  -1.8583 C.2            1 S1                 0.0000
     10 ****         3.8178   4.8565  -1.6654 Cl             1 S1                 0.0000
     11 ****         3.0164   2.3660  -0.8311 C.2            1 S1                 0.0000
     12 ****         2.4853   2.8763   0.1562 O.2            1 S1                 0.0000
     13 ****         0.0576  -0.3751   0.6991 N.am           1 S1                 0.0000
     14 ****        -1.3969  -0.4974   0.7292 C.3            1 S1                 0.0000
     15 ****        -1.8912  -0.4162   2.1860 C.3            1 S1                 0.0000
     16 ****        -3.4149  -0.6005   2.2749 C.3            1 S1                 0.0000
     17 ****        -3.8563  -1.9182   1.6192 C.3            1 S1                 0.0000
     18 ****        -3.3702  -2.0029   0.1640 C.3            1 S1                 0.0000
     19 ****        -1.8467  -1.8190   0.0720 C.3            1 S1                 0.0000
     20 ****         2.5247   0.3736   0.8917 H              1 S1                 0.0000
     21 ****         2.6811  -0.9141  -0.2642 H              1 S1                 0.0000
     22 ****         4.6658   0.6472  -3.9049 H              1 S1                 0.0000
     23 ****         0.5527  -0.6370   1.5392 H              1 S1                 0.0000
     24 ****        -1.8344   0.3374   0.1780 H              1 S1                 0.0000
     25 ****        -1.3998  -1.1832   2.7867 H              1 S1                 0.0000
     26 ****        -1.6128   0.5439   2.6223 H              1 S1                 0.0000
     27 ****        -3.7319  -0.5798   3.3179 H              1 S1                 0.0000
     28 ****        -3.9127   0.2366   1.7840 H              1 S1                 0.0000
     29 ****        -3.4588  -2.7602   2.1874 H              1 S1                 0.0000
     30 ****        -4.9424  -2.0060   1.6546 H              1 S1                 0.0000
     31 ****        -3.6552  -2.9623  -0.2681 H              1 S1                 0.0000
     32 ****        -3.8665  -1.2360  -0.4321 H              1 S1                 0.0000
     33 ****        -1.5406  -1.8440  -0.9744 H              1 S1                 0.0000
     34 ****        -1.3517  -2.6608   0.5581 H              1 S1                 0.0000
     35 ****         0.8603   0.7054  -2.1694 LP             1 S1                 0.0000
     36 ****        -0.7168   0.3715  -1.5358 LP             1 S1                 0.0000
     37 ****         3.5206  -0.6034  -2.2466 LP             1 S1                 0.0000
     38 ****         2.0127   2.3005   0.8234 LP             1 S1                 0.0000
     39 ****         2.5268   3.8664   0.2906 LP             1 S1                 0.0000
@<TRIPOS>BOND
    1    1    2 2     
    2    2    3 1     
    3    2   13 am    
    4    3    4 1     
    5    3   20 1     
    6    3   21 1     
    7    4   11 am    
    8    4    5 1     
    9    5    6 2     
   10    6    7 1     
   11    6   22 1     
   12    7    8 1     
   13    7    9 2     
   14    9   10 1     
   15    9   11 1     
   16   11   12 2     
   17   13   14 1     
   18   13   23 1     
   19   14   19 1     
   20   14   15 1     
   21   14   24 1     
   22   15   16 1     
   23   15   25 1     
   24   15   26 1     
   25   16   17 1     
   26   16   27 1     
   27   16   28 1     
   28   17   18 1     
   29   17   29 1     
   30   17   30 1     
   31   18   19 1     
   32   18   31 1     
   33   18   32 1     
   34   19   33 1     
   35   19   34 1     
   36    1   35 1     
   37    1   36 1     
   38    5   37 1     
   39   12   38 1     
   40   12   39 1     
@<TRIPOS>SUBSTRUCTURE
      1 S1             1
@<TRIPOS>SET
LONE_PAIRS      STATIC     ATOMS    <user>   **** ""
5 35 36 37 38 39
DONOR_HYDROGENS      STATIC     ATOMS    <user>   **** ""
1 23
ATOM$BLUE        STATIC     ATOMS    COLORGROUP SYSTEM
5 35 36 37 38 39
ATOM$RED        STATIC     ATOMS    COLORGROUP SYSTEM
1 23
