#       Name:                AV-unprocessed.smi:2238
#       Creating user name   scv26
#       Creation time:       Fri Mar 27 12:26:01 2020


#       File generated by GOLD software.
#

@<TRIPOS>MOLECULE
AV-unprocessed.smi:2238
    45    46     1
SMALL
NO_CHARGES


@<TRIPOS>ATOM
      1 ****        -5.8096  -1.7884   0.2814 C.3            1 S1                 0.0000
      2 ****        -4.9901  -0.5154   0.2281 C.ar           1 S1                 0.0000
      3 ****        -5.6121   0.7195  -0.0413 C.ar           1 S1                 0.0000
      4 ****        -4.8436   1.8965  -0.0891 C.ar           1 S1                 0.0000
      5 ****        -3.4534   1.8441   0.1306 C.ar           1 S1                 0.0000
      6 ****        -2.5328   3.3043   0.0638 Cl             1 S1                 0.0000
      7 ****        -2.8142   0.6137   0.3997 C.ar           1 S1                 0.0000
      8 ****        -1.4504   0.6404   0.6017 O.3            1 S1                 0.0000
      9 ****        -0.7718  -0.5878   0.8341 C.3            1 S1                 0.0000
     10 ****         0.7383  -0.3299   0.9761 C.3            1 S1                 0.0000
     11 ****         0.9589   0.1967   2.2692 O.3            1 S1                 0.0000
     12 ****         1.2949   0.6269  -0.1032 C.3            1 S1                 0.0000
     13 ****         2.7149   0.3687  -0.3931 N.am           1 S1                 0.0000
     14 ****         2.9909  -0.5527  -1.4230 C.2            1 S1                 0.0000
     15 ****         4.2041  -0.8542  -1.7622 N.2            1 S1                 0.0000
     16 ****         5.2768  -0.2573  -1.0929 C.2            1 S1                 0.0000
     17 ****         6.6720  -0.6483  -1.5348 C.3            1 S1                 0.0000
     18 ****         5.0656   0.6253  -0.0891 C.2            1 S1                 0.0000
     19 ****         3.7059   0.9822   0.3169 C.2            1 S1                 0.0000
     20 ****         3.4738   1.7734   1.2309 O.2            1 S1                 0.0000
     21 ****        -3.5982  -0.5674   0.4466 C.ar           1 S1                 0.0000
     22 ****        -6.8774  -1.5716   0.3244 H              1 S1                 0.0000
     23 ****        -5.5478  -2.3732   1.1637 H              1 S1                 0.0000
     24 ****        -5.6194  -2.3964  -0.6032 H              1 S1                 0.0000
     25 ****        -6.6776   0.7693  -0.2122 H              1 S1                 0.0000
     26 ****        -5.3229   2.8423  -0.2956 H              1 S1                 0.0000
     27 ****        -1.1589  -1.0919   1.7215 H              1 S1                 0.0000
     28 ****        -0.9339  -1.2482  -0.0194 H              1 S1                 0.0000
     29 ****         1.2483  -1.2930   0.9246 H              1 S1                 0.0000
     30 ****         1.8793   0.3912   2.3626 H              1 S1                 0.0000
     31 ****         0.7165   0.5075  -1.0217 H              1 S1                 0.0000
     32 ****         1.1288   1.6681   0.1803 H              1 S1                 0.0000
     33 ****         2.1164  -0.9919  -1.9061 H              1 S1                 0.0000
     34 ****         7.3977   0.1216  -1.2706 H              1 S1                 0.0000
     35 ****         6.7090  -0.7895  -2.6154 H              1 S1                 0.0000
     36 ****         6.9712  -1.5809  -1.0561 H              1 S1                 0.0000
     37 ****         5.9040   1.0752   0.4222 H              1 S1                 0.0000
     38 ****        -3.1519  -1.5290   0.6492 H              1 S1                 0.0000
     39 ****        -1.2815   1.2251   1.3952 LP             1 S1                 0.0000
     40 ****        -1.0403   1.0545  -0.2108 LP             1 S1                 0.0000
     41 ****         0.6849  -0.4748   2.9577 LP             1 S1                 0.0000
     42 ****         0.4240   1.0332   2.3881 LP             1 S1                 0.0000
     43 ****         4.3724  -1.5099  -2.4982 LP             1 S1                 0.0000
     44 ****         2.5290   1.9884   1.4783 LP             1 S1                 0.0000
     45 ****         4.2300   2.2012   1.7261 LP             1 S1                 0.0000
@<TRIPOS>BOND
    1    1    2 1     
    2    1   22 1     
    3    1   23 1     
    4    1   24 1     
    5    2   21 ar    
    6    2    3 ar    
    7    3    4 ar    
    8    3   25 1     
    9    4    5 ar    
   10    4   26 1     
   11    5    6 1     
   12    5    7 ar    
   13    7    8 1     
   14    7   21 ar    
   15    8    9 1     
   16    9   10 1     
   17    9   27 1     
   18    9   28 1     
   19   10   11 1     
   20   10   12 1     
   21   10   29 1     
   22   11   30 1     
   23   12   13 1     
   24   12   31 1     
   25   12   32 1     
   26   13   19 am    
   27   13   14 1     
   28   14   15 2     
   29   14   33 1     
   30   15   16 1     
   31   16   17 1     
   32   16   18 2     
   33   17   34 1     
   34   17   35 1     
   35   17   36 1     
   36   18   19 1     
   37   18   37 1     
   38   19   20 2     
   39   21   38 1     
   40    8   39 1     
   41    8   40 1     
   42   11   41 1     
   43   11   42 1     
   44   15   43 1     
   45   20   44 1     
   46   20   45 1     
@<TRIPOS>SUBSTRUCTURE
      1 S1             1
@<TRIPOS>SET
LONE_PAIRS      STATIC     ATOMS    <user>   **** ""
7 39 40 41 42 43 44 45
DONOR_HYDROGENS      STATIC     ATOMS    <user>   **** ""
1 30
ATOM$BLUE        STATIC     ATOMS    COLORGROUP SYSTEM
7 39 40 41 42 43 44 45
ATOM$RED        STATIC     ATOMS    COLORGROUP SYSTEM
1 30
