#       Name:                AV-unprocessed.smi:1570
#       Creating user name   scv26
#       Creation time:       Fri Mar 27 06:51:41 2020


#       File generated by GOLD software.
#

@<TRIPOS>MOLECULE
AV-unprocessed.smi:1570
    58    60     1
SMALL
NO_CHARGES


@<TRIPOS>ATOM
      1 ****        -1.7706   5.3990  -1.1377 C.3            1 S1                 0.0000
      2 ****        -0.6615   4.4133  -1.5260 C.3            1 S1                 0.0000
      3 ****        -0.7064   3.2121  -0.6957 N.am           1 S1                 0.0000
      4 ****        -0.0609   3.0195   0.4783 C.2            1 S1                 0.0000
      5 ****         0.6748   3.8314   1.0395 O.2            1 S1                 0.0000
      6 ****        -0.3700   1.7815   0.9323 N.am           1 S1                 0.0000
      7 ****         0.1286   1.1592   2.1610 C.3            1 S1                 0.0000
      8 ****         1.6416   0.8458   2.1001 C.3            1 S1                 0.0000
      9 ****         2.0611   0.2459   3.3082 O.3            1 S1                 0.0000
     10 ****         2.1010   0.0024   0.8867 C.3            1 S1                 0.0000
     11 ****         1.2352  -1.1127   0.4979 N.3            1 S1                 0.0000
     12 ****         1.2538  -2.2127   1.4574 C.3            1 S1                 0.0000
     13 ****         0.3392  -3.3736   1.0206 C.3            1 S1                 0.0000
     14 ****         0.4265  -4.5693   1.9746 C.3            1 S1                 0.0000
     15 ****         0.7216  -3.8096  -0.2811 O.3            1 S1                 0.0000
     16 ****         0.6702  -2.7747  -1.2589 C.3            1 S1                 0.0000
     17 ****         1.0830  -3.3653  -2.6109 C.3            1 S1                 0.0000
     18 ****         1.5950  -1.6250  -0.8182 C.3            1 S1                 0.0000
     19 ****        -1.2685   1.1776   0.0368 C.ar           1 S1                 0.0000
     20 ****        -1.9021  -0.0783   0.0587 C.ar           1 S1                 0.0000
     21 ****        -2.7583  -0.3932  -1.0218 C.ar           1 S1                 0.0000
     22 ****        -2.9666   0.5318  -2.0767 C.ar           1 S1                 0.0000
     23 ****        -2.3228   1.7910  -2.0731 C.ar           1 S1                 0.0000
     24 ****        -1.4735   2.0764  -0.9895 C.ar           1 S1                 0.0000
     25 ****        -1.7376   6.2874  -1.7685 H              1 S1                 0.0000
     26 ****        -1.6654   5.7234  -0.1018 H              1 S1                 0.0000
     27 ****        -2.7571   4.9481  -1.2498 H              1 S1                 0.0000
     28 ****        -0.7571   4.1373  -2.5765 H              1 S1                 0.0000
     29 ****         0.3126   4.8949  -1.4290 H              1 S1                 0.0000
     30 ****        -0.0734   1.8328   2.9953 H              1 S1                 0.0000
     31 ****        -0.4324   0.2503   2.3764 H              1 S1                 0.0000
     32 ****         2.1852   1.7898   2.0550 H              1 S1                 0.0000
     33 ****         1.8596   0.8344   4.0199 H              1 S1                 0.0000
     34 ****         2.1560   0.6901   0.0416 H              1 S1                 0.0000
     35 ****         3.1235  -0.3473   1.0375 H              1 S1                 0.0000
     36 ****         2.2750  -2.5771   1.5801 H              1 S1                 0.0000
     37 ****         0.9255  -1.8640   2.4355 H              1 S1                 0.0000
     38 ****        -0.6956  -3.0292   0.9860 H              1 S1                 0.0000
     39 ****         0.1313  -4.2869   2.9854 H              1 S1                 0.0000
     40 ****         1.4418  -4.9645   2.0199 H              1 S1                 0.0000
     41 ****        -0.2310  -5.3757   1.6494 H              1 S1                 0.0000
     42 ****        -0.3557  -2.4102  -1.3352 H              1 S1                 0.0000
     43 ****         1.0466  -2.6099  -3.3962 H              1 S1                 0.0000
     44 ****         0.4163  -4.1780  -2.9004 H              1 S1                 0.0000
     45 ****         2.0976  -3.7631  -2.5747 H              1 S1                 0.0000
     46 ****         1.5407  -0.8209  -1.5532 H              1 S1                 0.0000
     47 ****         2.6299  -1.9709  -0.8089 H              1 S1                 0.0000
     48 ****        -1.7416  -0.7841   0.8594 H              1 S1                 0.0000
     49 ****        -3.2585  -1.3503  -1.0436 H              1 S1                 0.0000
     50 ****        -3.6255   0.2719  -2.8921 H              1 S1                 0.0000
     51 ****        -2.4805   2.5002  -2.8720 H              1 S1                 0.0000
     52 ****         0.8385   4.7270   0.6259 LP             1 S1                 0.0000
     53 ****         1.1087   3.5953   1.9089 LP             1 S1                 0.0000
     54 ****         3.0464   0.0782   3.2775 LP             1 S1                 0.0000
     55 ****         1.5795  -0.6205   3.4399 LP             1 S1                 0.0000
     56 ****         0.3081  -0.7384   0.4763 LP             1 S1                 0.0000
     57 ****         0.1050  -4.5444  -0.5638 LP             1 S1                 0.0000
     58 ****         1.6577  -4.1585  -0.2369 LP             1 S1                 0.0000
@<TRIPOS>BOND
    1    1    2 1     
    2    1   25 1     
    3    1   26 1     
    4    1   27 1     
    5    2    3 1     
    6    2   28 1     
    7    2   29 1     
    8    3   24 1     
    9    3    4 am    
   10    4    5 2     
   11    4    6 am    
   12    6    7 1     
   13    6   19 1     
   14    7    8 1     
   15    7   30 1     
   16    7   31 1     
   17    8    9 1     
   18    8   10 1     
   19    8   32 1     
   20    9   33 1     
   21   10   11 1     
   22   10   34 1     
   23   10   35 1     
   24   11   18 1     
   25   11   12 1     
   26   12   13 1     
   27   12   36 1     
   28   12   37 1     
   29   13   14 1     
   30   13   15 1     
   31   13   38 1     
   32   14   39 1     
   33   14   40 1     
   34   14   41 1     
   35   15   16 1     
   36   16   17 1     
   37   16   18 1     
   38   16   42 1     
   39   17   43 1     
   40   17   44 1     
   41   17   45 1     
   42   18   46 1     
   43   18   47 1     
   44   19   24 ar    
   45   19   20 ar    
   46   20   21 ar    
   47   20   48 1     
   48   21   22 ar    
   49   21   49 1     
   50   22   23 ar    
   51   22   50 1     
   52   23   24 ar    
   53   23   51 1     
   54    5   52 1     
   55    5   53 1     
   56    9   54 1     
   57    9   55 1     
   58   11   56 1     
   59   15   57 1     
   60   15   58 1     
@<TRIPOS>SUBSTRUCTURE
      1 S1             1
@<TRIPOS>SET
LONE_PAIRS      STATIC     ATOMS    <user>   **** ""
7 52 53 54 55 56 57 58
DONOR_HYDROGENS      STATIC     ATOMS    <user>   **** ""
1 33
ATOM$BLUE        STATIC     ATOMS    COLORGROUP SYSTEM
7 52 53 54 55 56 57 58
ATOM$RED        STATIC     ATOMS    COLORGROUP SYSTEM
1 33
