#       Name:                AV-unprocessed.smi:1929
#       Creating user name   scv26
#       Creation time:       Fri Mar 27 09:54:30 2020


#       File generated by GOLD software.
#

@<TRIPOS>MOLECULE
AV-unprocessed.smi:1929
    48    49     1
SMALL
NO_CHARGES


@<TRIPOS>ATOM
      1 ****        -6.5088   3.8323   0.6781 C.3            1 S1                 0.0000
      2 ****        -5.8735   2.5370   0.4889 N.am           1 S1                 0.0000
      3 ****        -4.6091   2.2609   0.8377 C.2            1 S1                 0.0000
      4 ****        -3.8592   3.0840   1.3639 O.2            1 S1                 0.0000
      5 ****        -4.1266   0.8323   0.5646 C.3            1 S1                 0.0000
      6 ****        -2.6462   0.7190   0.5077 N.4            1 S1                 1.0000
      7 ****        -2.0700   1.2309  -0.7647 C.3            1 S1                 0.0000
      8 ****        -0.5331   1.2254  -0.7180 C.3            1 S1                 0.0000
      9 ****         0.0052  -0.1824  -0.4180 C.3            1 S1                 0.0000
     10 ****         1.4605  -0.1445  -0.3014 N.am           1 S1                 0.0000
     11 ****         2.2759  -1.1907  -0.4995 C.2            1 S1                 0.0000
     12 ****         1.8743  -2.3145  -0.8007 O.2            1 S1                 0.0000
     13 ****         3.5625  -0.8536  -0.3038 N.am           1 S1                 0.0000
     14 ****         4.7164  -1.6744  -0.4264 C.ar           1 S1                 0.0000
     15 ****         5.8756  -1.2860   0.2815 C.ar           1 S1                 0.0000
     16 ****         7.0481  -2.0616   0.1747 C.ar           1 S1                 0.0000
     17 ****         7.0586  -3.1605  -0.6100 N.pl3          1 S1                 1.0000
     18 ****         5.9808  -3.5626  -1.3173 C.ar           1 S1                 0.0000
     19 ****         4.7794  -2.8277  -1.2495 C.ar           1 S1                 0.0000
     20 ****        -0.6359  -0.7133   0.8776 C.3            1 S1                 0.0000
     21 ****        -2.1715  -0.6562   0.8061 C.3            1 S1                 0.0000
     22 ****        -7.5314   3.8033   0.3024 H              1 S1                 0.0000
     23 ****        -5.9697   4.6126   0.1395 H              1 S1                 0.0000
     24 ****        -6.5422   4.0983   1.7352 H              1 S1                 0.0000
     25 ****        -6.4313   1.8072   0.0687 H              1 S1                 0.0000
     26 ****        -4.5113   0.2149   1.3775 H              1 S1                 0.0000
     27 ****        -4.5669   0.4473  -0.3569 H              1 S1                 0.0000
     28 ****        -2.4212   0.6187  -1.5969 H              1 S1                 0.0000
     29 ****        -2.4173   2.2469  -0.9540 H              1 S1                 0.0000
     30 ****        -0.1350   1.5837  -1.6683 H              1 S1                 0.0000
     31 ****        -0.1918   1.9267   0.0454 H              1 S1                 0.0000
     32 ****        -0.2711  -0.8367  -1.2475 H              1 S1                 0.0000
     33 ****         1.8744   0.7426  -0.0534 H              1 S1                 0.0000
     34 ****         3.7310   0.0842   0.0302 H              1 S1                 0.0000
     35 ****         5.8693  -0.4055   0.9075 H              1 S1                 0.0000
     36 ****         7.9715  -1.8361   0.6881 H              1 S1                 0.0000
     37 ****         6.1120  -4.4507  -1.9183 H              1 S1                 0.0000
     38 ****         3.9365  -3.1551  -1.8388 H              1 S1                 0.0000
     39 ****        -0.3180  -1.7400   1.0634 H              1 S1                 0.0000
     40 ****        -0.2917  -0.1249   1.7296 H              1 S1                 0.0000
     41 ****        -2.5844  -0.9897   1.7590 H              1 S1                 0.0000
     42 ****        -2.5397  -1.3435   0.0428 H              1 S1                 0.0000
     43 ****        -2.2933   1.3086   1.2486 H              1 S1                 0.0000
     44 ****         7.9180  -3.7070  -0.6752 H              1 S1                 0.0000
     45 ****        -4.1859   4.0105   1.5505 LP             1 S1                 0.0000
     46 ****        -2.9236   2.8258   1.6046 LP             1 S1                 0.0000
     47 ****         0.8946  -2.4829  -0.9095 LP             1 S1                 0.0000
     48 ****         2.5277  -3.0592  -0.9367 LP             1 S1                 0.0000
@<TRIPOS>BOND
    1    1    2 1     
    2    1   22 1     
    3    1   23 1     
    4    1   24 1     
    5    2    3 am    
    6    2   25 1     
    7    3    4 2     
    8    3    5 1     
    9    5    6 1     
   10    5   26 1     
   11    5   27 1     
   12    6   21 1     
   13    6    7 1     
   14    6   43 1     
   15    7    8 1     
   16    7   28 1     
   17    7   29 1     
   18    8    9 1     
   19    8   30 1     
   20    8   31 1     
   21    9   10 1     
   22    9   20 1     
   23    9   32 1     
   24   10   11 am    
   25   10   33 1     
   26   11   12 2     
   27   11   13 am    
   28   13   14 1     
   29   13   34 1     
   30   14   19 ar    
   31   14   15 ar    
   32   15   16 ar    
   33   15   35 1     
   34   16   17 ar    
   35   16   36 1     
   36   17   18 ar    
   37   17   44 1     
   38   18   19 ar    
   39   18   37 1     
   40   19   38 1     
   41   20   21 1     
   42   20   39 1     
   43   20   40 1     
   44   21   41 1     
   45   21   42 1     
   46    4   45 1     
   47    4   46 1     
   48   12   47 1     
   49   12   48 1     
@<TRIPOS>SUBSTRUCTURE
      1 S1             1
@<TRIPOS>SET
LONE_PAIRS      STATIC     ATOMS    <user>   **** ""
4 45 46 47 48
DONOR_HYDROGENS      STATIC     ATOMS    <user>   **** ""
5 25 43 33 34 44
ATOM$BLUE        STATIC     ATOMS    COLORGROUP SYSTEM
4 45 46 47 48
ATOM$RED        STATIC     ATOMS    COLORGROUP SYSTEM
5 25 43 33 34 44
