#       Name:                AV-unprocessed.smi:2400
#       Creating user name   scv26
#       Creation time:       Fri Mar 27 13:13:20 2020


#       File generated by GOLD software.
#

@<TRIPOS>MOLECULE
AV-unprocessed.smi:2400
    49    50     1
SMALL
NO_CHARGES


@<TRIPOS>ATOM
      1 ****        -2.7273  -1.8372  -2.1825 C.3            1 S1                 0.0000
      2 ****        -3.1265  -1.4052  -0.8931 O.3            1 S1                 0.0000
      3 ****        -3.2215  -0.0630  -0.7802 C.2            1 S1                 0.0000
      4 ****        -2.2715   0.9138  -0.6631 C.2            1 S1                 0.0000
      5 ****        -0.8572   0.8100  -0.6316 N.am           1 S1                 0.0000
      6 ****        -0.1274  -0.2203  -0.1764 C.2            1 S1                 0.0000
      7 ****        -0.5880  -1.2467   0.3220 O.2            1 S1                 0.0000
      8 ****         1.1849   0.0165  -0.3127 N.am           1 S1                 0.0000
      9 ****         2.2551  -0.8981   0.0855 C.3            1 S1                 0.0000
     10 ****         3.4715  -0.7336  -0.8475 C.3            1 S1                 0.0000
     11 ****         4.6389  -0.2965   0.0344 C.3            1 S1                 0.0000
     12 ****         4.2934  -0.8504   1.4127 C.3            1 S1                 0.0000
     13 ****         2.7684  -0.6848   1.5443 C.3            1 S1                 0.0000
     14 ****         2.4604   0.7226   2.1114 C.3            1 S1                 0.0000
     15 ****         2.1846  -1.7400   2.5028 C.3            1 S1                 0.0000
     16 ****        -3.0002   2.1352  -0.6389 C.2            1 S1                 0.0000
     17 ****        -2.4915   3.5455  -0.5510 C.3            1 S1                 0.0000
     18 ****        -4.3090   1.9139  -0.6906 N.2            1 S1                 0.0000
     19 ****        -4.4479   0.5680  -0.7697 N.pl3          1 S1                 0.0000
     20 ****        -5.7742  -0.0079  -0.8547 C.3            1 S1                 0.0000
     21 ****        -2.6560  -2.9247  -2.1979 H              1 S1                 0.0000
     22 ****        -1.7525  -1.4336  -2.4590 H              1 S1                 0.0000
     23 ****        -3.4559  -1.5361  -2.9364 H              1 S1                 0.0000
     24 ****        -0.3490   1.6328  -0.9205 H              1 S1                 0.0000
     25 ****         1.4694   0.8926  -0.7254 H              1 S1                 0.0000
     26 ****         1.9036  -1.9252  -0.0347 H              1 S1                 0.0000
     27 ****         3.7045  -1.6943  -1.3089 H              1 S1                 0.0000
     28 ****         3.3009  -0.0252  -1.6597 H              1 S1                 0.0000
     29 ****         5.5989  -0.6589  -0.3343 H              1 S1                 0.0000
     30 ****         4.6887   0.7923   0.0729 H              1 S1                 0.0000
     31 ****         4.5610  -1.9080   1.4416 H              1 S1                 0.0000
     32 ****         4.8510  -0.3575   2.2103 H              1 S1                 0.0000
     33 ****         2.9324   0.8657   3.0842 H              1 S1                 0.0000
     34 ****         1.3901   0.8747   2.2545 H              1 S1                 0.0000
     35 ****         2.8225   1.5144   1.4551 H              1 S1                 0.0000
     36 ****         2.6028  -1.6380   3.5045 H              1 S1                 0.0000
     37 ****         2.3948  -2.7542   2.1613 H              1 S1                 0.0000
     38 ****         1.1018  -1.6410   2.5860 H              1 S1                 0.0000
     39 ****        -1.4024   3.5766  -0.5236 H              1 S1                 0.0000
     40 ****        -2.8582   4.0382   0.3499 H              1 S1                 0.0000
     41 ****        -2.8172   4.1336  -1.4093 H              1 S1                 0.0000
     42 ****        -5.7343  -1.0785  -0.6529 H              1 S1                 0.0000
     43 ****        -6.1783   0.1501  -1.8547 H              1 S1                 0.0000
     44 ****        -6.4320   0.4627  -0.1232 H              1 S1                 0.0000
     45 ****        -2.4553  -1.7321  -0.2279 LP             1 S1                 0.0000
     46 ****        -4.0203  -1.8041  -0.6883 LP             1 S1                 0.0000
     47 ****        -1.5777  -1.3584   0.4118 LP             1 S1                 0.0000
     48 ****         0.0273  -1.9692   0.6373 LP             1 S1                 0.0000
     49 ****        -5.0390   2.5972  -0.6745 LP             1 S1                 0.0000
@<TRIPOS>BOND
    1    1    2 1     
    2    1   21 1     
    3    1   22 1     
    4    1   23 1     
    5    2    3 1     
    6    3   19 1     
    7    3    4 2     
    8    4    5 1     
    9    4   16 1     
   10    5    6 am    
   11    5   24 1     
   12    6    7 2     
   13    6    8 am    
   14    8    9 1     
   15    8   25 1     
   16    9   13 1     
   17    9   10 1     
   18    9   26 1     
   19   10   11 1     
   20   10   27 1     
   21   10   28 1     
   22   11   12 1     
   23   11   29 1     
   24   11   30 1     
   25   12   13 1     
   26   12   31 1     
   27   12   32 1     
   28   13   14 1     
   29   13   15 1     
   30   14   33 1     
   31   14   34 1     
   32   14   35 1     
   33   15   36 1     
   34   15   37 1     
   35   15   38 1     
   36   16   17 1     
   37   16   18 2     
   38   17   39 1     
   39   17   40 1     
   40   17   41 1     
   41   18   19 1     
   42   19   20 1     
   43   20   42 1     
   44   20   43 1     
   45   20   44 1     
   46    2   45 1     
   47    2   46 1     
   48    7   47 1     
   49    7   48 1     
   50   18   49 1     
@<TRIPOS>SUBSTRUCTURE
      1 S1             1
@<TRIPOS>SET
LONE_PAIRS      STATIC     ATOMS    <user>   **** ""
5 45 46 47 48 49
DONOR_HYDROGENS      STATIC     ATOMS    <user>   **** ""
2 24 25
ATOM$BLUE        STATIC     ATOMS    COLORGROUP SYSTEM
5 45 46 47 48 49
ATOM$RED        STATIC     ATOMS    COLORGROUP SYSTEM
2 24 25
