AV-unprocessed.smi:1227|AV-procd|sdf|5146|dock3
  -GOLD-   22720 4213D 1   1.00000     0.00000
 Structure written by MMmdl.
 44 45  0  0  0  0  0  0  0  0  1 V2000
  147.1991  136.5708  162.7954 C   0  0  0  0  0  0  0  0  0  0  0  0
  147.8263  136.5976  161.5178 O   0  0  0  0  0  0  0  0  0  0  0  0
  147.9151  135.4194  160.8008 C   0  0  0  0  0  0  0  0  0  0  0  0
  147.1360  134.3754  161.1797 N   0  0  0  0  0  0  0  0  0  0  0  0
  147.2226  133.2229  160.4851 C   0  0  0  0  0  0  0  0  0  0  0  0
  148.0854  133.0491  159.3881 C   0  0  0  0  0  0  0  0  0  0  0  0
  148.8952  134.1298  158.9929 C   0  0  0  0  0  0  0  0  0  0  0  0
  148.8099  135.3511  159.7065 C   0  0  0  0  0  0  0  0  0  0  0  0
  149.5855  136.5085  159.4122 N   0  0  0  0  0  0  0  0  0  0  0  0
  150.5076  136.7014  158.4534 C   0  0  0  0  0  0  0  0  0  0  0  0
  150.8543  135.8724  157.6126 O   0  0  0  0  0  0  0  0  0  0  0  0
  151.0116  137.9418  158.5155 N   0  0  0  0  0  0  0  0  0  0  0  0
  152.0385  138.4741  157.6283 C   0  0  0  0  0  0  0  0  0  0  0  0
  151.6763  139.8811  157.1164 C   0  0  0  0  0  0  0  0  0  0  0  0
  151.6959  140.8656  158.2084 N   0  0  0  0  0  0  0  0  0  0  0  0
  150.5379  141.7708  158.2707 C   0  0  0  0  0  0  0  0  0  0  0  0
  150.9201  143.2427  158.0199 C   0  0  0  0  0  0  0  0  0  0  0  0
  151.4869  143.9610  159.2536 C   0  0  0  0  0  0  0  0  0  0  0  0
  152.8093  143.3789  159.7728 C   0  0  0  0  0  0  0  0  0  0  0  0
  152.6865  141.9191  160.2401 C   0  0  0  0  0  0  0  0  0  0  0  0
  152.7345  140.9208  159.0764 C   0  0  0  0  0  0  0  0  0  0  0  0
  153.7189  140.1865  158.9815 O   0  0  0  0  0  0  0  0  0  0  0  0
  147.2145  137.5723  163.2254 H   0  0  0  0  0  0  0  0  0  0  0  0
  147.7254  135.9080  163.4837 H   0  0  0  0  0  0  0  0  0  0  0  0
  146.1566  136.2580  162.7228 H   0  0  0  0  0  0  0  0  0  0  0  0
  146.5887  132.4139  160.8168 H   0  0  0  0  0  0  0  0  0  0  0  0
  148.1286  132.1061  158.8636 H   0  0  0  0  0  0  0  0  0  0  0  0
  149.5666  133.9888  158.1615 H   0  0  0  0  0  0  0  0  0  0  0  0
  149.3856  137.3099  159.9928 H   0  0  0  0  0  0  0  0  0  0  0  0
  150.6655  138.5612  159.2337 H   0  0  0  0  0  0  0  0  0  0  0  0
  152.9748  138.5041  158.1861 H   0  0  0  0  0  0  0  0  0  0  0  0
  152.1986  137.7921  156.7915 H   0  0  0  0  0  0  0  0  0  0  0  0
  152.3564  140.1782  156.3175 H   0  0  0  0  0  0  0  0  0  0  0  0
  150.6919  139.8611  156.6454 H   0  0  0  0  0  0  0  0  0  0  0  0
  149.8013  141.4903  157.5174 H   0  0  0  0  0  0  0  0  0  0  0  0
  150.0235  141.6598  159.2261 H   0  0  0  0  0  0  0  0  0  0  0  0
  151.6180  143.3150  157.1845 H   0  0  0  0  0  0  0  0  0  0  0  0
  150.0247  143.7796  157.7052 H   0  0  0  0  0  0  0  0  0  0  0  0
  151.6409  145.0119  159.0064 H   0  0  0  0  0  0  0  0  0  0  0  0
  150.7455  143.9494  160.0535 H   0  0  0  0  0  0  0  0  0  0  0  0
  153.5818  143.4699  159.0075 H   0  0  0  0  0  0  0  0  0  0  0  0
  153.1498  143.9870  160.6114 H   0  0  0  0  0  0  0  0  0  0  0  0
  153.5199  141.6947  160.9074 H   0  0  0  0  0  0  0  0  0  0  0  0
  151.7845  141.7688  160.8343 H   0  0  0  0  0  0  0  0  0  0  0  0
  1  2  1  0  0  0  0
  1 23  1  0  0  0  0
  1 24  1  0  0  0  0
  1 25  1  0  0  0  0
  2  3  1  0  0  0  0
  3  8  1  0  0  0  0
  3  4  2  0  0  0  0
  4  5  1  0  0  0  0
  5  6  2  0  0  0  0
  5 26  1  0  0  0  0
  6  7  1  0  0  0  0
  6 27  1  0  0  0  0
  7  8  2  0  0  0  0
  7 28  1  0  0  0  0
  8  9  1  0  0  0  0
  9 10  1  0  0  0  0
  9 29  1  0  0  0  0
 10 11  2  0  0  0  0
 10 12  1  0  0  0  0
 12 13  1  0  0  0  0
 12 30  1  0  0  0  0
 13 14  1  0  0  0  0
 13 31  1  0  0  0  0
 13 32  1  0  0  0  0
 14 15  1  0  0  0  0
 14 33  1  0  0  0  0
 14 34  1  0  0  0  0
 15 21  1  0  0  0  0
 15 16  1  0  0  0  0
 16 17  1  0  0  0  0
 16 35  1  0  0  0  0
 16 36  1  0  0  0  0
 17 18  1  0  0  0  0
 17 37  1  0  0  0  0
 17 38  1  0  0  0  0
 18 19  1  0  0  0  0
 18 39  1  0  0  0  0
 18 40  1  0  0  0  0
 19 20  1  0  0  0  0
 19 41  1  0  0  0  0
 19 42  1  0  0  0  0
 20 21  1  0  0  0  0
 20 43  1  0  0  0  0
 20 44  1  0  0  0  0
 21 22  2  0  0  0  0
M  END
> <s_m_source_file>
AV-unprocessed.smi

> <i_m_source_file_index>
1227

> <i_lp_mmshare_version>
43012

> <i_f3d_flags>
0

> <s_epik_input>
W0NIM11PYzFuW2NIXVtjSF1bY0hdYzFbTkhdQyg9TylbTkhdW0NIMl1bQ0gyXU4yW0NIMl1bQ0gyXVtDSDJdW0NIMl1bQ0gyXUMyPU8=

> <s_epik_cmdline>
J2VwaWtfcHl0aG9uJywgJy1waCcsICc3LjAnLCAnLXRuJywgJzgnLCAnLW1hJywgJzIwMCcsICctbWV0YWxfYmluZGluZycsICctaW1hZScsICc8aW5maWxlLm1hZT4nLCAnLW9tYWUnLCAnPG91dGZpbGUubWFlPic=

> <r_lp_tautomer_probability>
1

> <r_epik_Ionization_Penalty>
8.86757e-05

> <r_epik_Ionization_Penalty_Charging>
0

> <r_epik_Ionization_Penalty_Neutral>
8.86757e-05

> <r_epik_State_Penalty>
-0

> <r_epik_Charging_Adjusted_Penalty>
0

> <i_epik_Tot_Q>
0

> <i_epik_Tot_abs_Q>
0

> <r_epik_Metal_State_Penalty>
-0

> <b_epik_Metal_Only>
0

> <s_lp_Force_Field>
OPLS_2005

> <r_lp_Energy>
20.5681

> <b_lp_Chiralities_Consistent>
1

> <s_lp_Variant>
AV-unprocessed.smi:1227-1

> <Gold.Version>
5.8.1

> <Gold.Id.Protein>
6NUR|6NUR_protein|mol2

> <Gold.PLP.Fitness>
46.2533

> <Gold.PLP.PLP>
-39.0921

> <Gold.PLP.part.hbond>
-3.7877

> <Gold.PLP.part.metal>
0.0000

> <Gold.PLP.part.buried>
-3.5818

> <Gold.PLP.part.nonpolar>
-31.5813

> <Gold.PLP.part.repulsive>
0.3509

> <Gold.PLP.ligand.clash>
0.0000

> <Gold.PLP.ligand.torsion>
0.4484

> <Gold.PLP.Chemscore.Hbond>
2.6750

> <Gold.PLP.Chemscore.CHOScore>
0.0000

> <Gold.PLP.Chemscore.Metal>
0.0000

> <Gold.Chemscore.Hbonds>
donor molecule, donor type, donor heavy atom, donor atom, acceptor molecule, acceptor atom, score
      P1  H  6931  6943       L1     2  0.70
      P1  H  7997  8009       L1    22  0.80

> <Gold.PLP.Chemscore.Internal.Correction>
0.0332

> <Gold.Rescore>
     Score         DG    S(hbond)    S(metal)    S(lipo)     H(rot)  DE(clash)    DE(int)     intcor
     14.34     -17.43       1.85        0.00      88.43       1.79       0.48       2.62       ----

> <Gold.Chemscore.Fitness>
14.3366

> <Gold.Chemscore.DG>
-17.4307

> <Gold.Chemscore.ZeroCoef>
-5.4800

> <Gold.Chemscore.Hbond>
1.8514

> <Gold.Chemscore.Metal>
0.0000

> <Gold.Chemscore.Lipo>
88.4342

> <Gold.Chemscore.Internal_Hbond>
0.0000

> <Gold.Chemscore.DEClash>
0.4754

> <Gold.Chemscore.DEInternal>
2.6187

> <Gold.Chemscore.Rot>
1.7890

> <Gold.Chemscore.Internal.Correction>
   9.000000E+99

> <Gold.Chemscore.Hbonds>
donor molecule, donor type, donor heavy atom, donor atom, acceptor molecule, acceptor atom, score
      P1  H  6931  6943       L1     2  0.10
      P1  H  7997  8009       L1    22  0.76

> <Gold.Chemscore.Hbond.Weighted>
-6.1838

> <Gold.Chemscore.Metal.Weighted>
-0.0000

> <Gold.Chemscore.Lipo.Weighted>
-10.3468

> <Gold.Chemscore.Internal_Hbond.Weighted>
0.0000

> <Gold.Chemscore.DEClash.Weighted>
0.4754

> <Gold.Chemscore.DEInternal.Weighted>
2.6187

> <Gold.Chemscore.Rot.Weighted>
4.5799

> <Gold.Chemscore.Internal.Correction.Weighted>
   9.000000E+99

> <Gold.Protein.RotatedTorsions>
[ 6907 6896 6895 6894 ] final  -16.40 input  -60.11 | X-H torsion
[ 7974 7965 7964 7962 ] final  -45.34 input  175.53 | X-H torsion
[ 8008 7997 7996 7995 ] final  133.32 input   59.86 | X-H torsion
[ 10167 10162 10161 10158 ] final  -60.05 input  -65.29 | X-H torsion
[ 10718 10713 10712 10709 ] final   35.25 input   66.30 | X-H torsion
[ 10763 10752 10751 10750 ] final -120.79 input  -60.55 | X-H torsion
[ 11005 11000 10999 10996 ] final -172.98 input  -57.11 | X-H torsion

> <Gold.Protein.ActiveResidues>
 VAL166  LYS551  ARG553  GLY616  TRP617  ASP618  TYR619  PRO620  LYS621  CYS622 
 ASP623  PHE694  ASN695  SER759  ASP760  ASP761  ALA762  ILE779  LEU786  VAL792 
 PHE793  MET794  SER795  GLU796  ALA797  LYS798  CYS799  TRP800  GLU811  SER814 

> <Gold.Protein.RotatedAtoms>
  151.3091  135.0789  159.9265 H   0  0  0  0  0  0  0  0  0  0  0  0  # atno 6907 bound_to 6896
  152.5281  133.9754  159.7792 H   0  0  0  0  0  0  0  0  0  0  0  0  # atno 6908 bound_to 6896
  151.0054  133.5964  159.2719 H   0  0  0  0  0  0  0  0  0  0  0  0  # atno 6909 bound_to 6896
  145.9830  140.7263  142.9354 H   0  0  0  0  0  0  0  0  0  0  0  0  # atno 7974 bound_to 7965
  156.2991  140.2524  156.3233 H   0  0  0  0  0  0  0  0  0  0  0  0  # atno 8008 bound_to 7997
  154.9214  140.0400  157.2019 H   0  0  0  0  0  0  0  0  0  0  0  0  # atno 8009 bound_to 7997
  154.8307  140.2875  155.5728 H   0  0  0  0  0  0  0  0  0  0  0  0  # atno 8010 bound_to 7997
  140.6096  143.2383  151.5741 H   0  0  0  0  0  0  0  0  0  0  0  0  # atno 10167 bound_to 10162
  157.3203  130.7445  149.6781 H   0  0  0  0  0  0  0  0  0  0  0  0  # atno 10718 bound_to 10713
  154.8653  135.4190  154.2517 H   0  0  0  0  0  0  0  0  0  0  0  0  # atno 10763 bound_to 10752
  153.3462  135.6996  153.6832 H   0  0  0  0  0  0  0  0  0  0  0  0  # atno 10764 bound_to 10752
  153.5790  135.3576  155.2840 H   0  0  0  0  0  0  0  0  0  0  0  0  # atno 10765 bound_to 10752
  140.4909  134.5986  157.4954 H   0  0  0  0  0  0  0  0  0  0  0  0  # atno 11005 bound_to 11000
  144.6867  140.2941  143.7273 LP  0  0  0  0  0  0  0  0  0  0  0  0  # atno 17320 bound_to 7965
  145.7741  139.1868  143.2195 LP  0  0  0  0  0  0  0  0  0  0  0  0  # atno 17321 bound_to 7965
  139.5351  144.2804  152.1233 LP  0  0  0  0  0  0  0  0  0  0  0  0  # atno 17342 bound_to 10162
  140.2001  144.4666  150.6436 LP  0  0  0  0  0  0  0  0  0  0  0  0  # atno 17343 bound_to 10162
  155.9685  130.4225  150.4518 LP  0  0  0  0  0  0  0  0  0  0  0  0  # atno 17370 bound_to 10713
  157.2533  131.0551  151.2366 LP  0  0  0  0  0  0  0  0  0  0  0  0  # atno 17371 bound_to 10713
  139.9770  134.7199  155.9931 LP  0  0  0  0  0  0  0  0  0  0  0  0  # atno 17394 bound_to 11000
  141.1485  133.6552  156.3939 LP  0  0  0  0  0  0  0  0  0  0  0  0  # atno 17395 bound_to 11000

$$$$
