AV-unprocessed.smi:1001|AV-procd|sdf|4357|dock2
  -GOLD-   22720 2253D 1   1.00000     0.00000
 Structure written by MMmdl.
 47 48  0  0  0  0  0  0  0  0  1 V2000
  145.6530  138.1618  155.8078 N   0  0  0  0  0  0  0  0  0  0  0  0
  146.1144  137.0979  156.4767 C   0  0  0  0  0  0  0  0  0  0  0  0
  145.3833  136.4220  157.1996 O   0  0  0  0  0  0  0  0  0  0  0  0
  147.5592  136.7880  156.2912 C   0  0  0  0  0  0  0  0  0  0  0  0
  148.0767  135.6006  156.9500 C   0  0  0  0  0  0  0  0  0  0  0  0
  149.3853  135.3013  156.7983 C   0  0  0  0  0  0  0  0  0  0  0  0
  150.2822  136.1338  155.9952 C   0  0  0  0  0  0  0  0  0  0  0  0
  151.4778  135.8837  155.8437 O   0  0  0  0  0  0  0  0  0  0  0  0
  149.6714  137.2175  155.4251 N   0  0  0  0  0  0  0  0  0  0  0  0
  150.4215  138.1490  154.5702 C   0  0  0  0  0  0  0  0  0  0  0  0
  150.5076  139.5666  155.1547 C   0  0  0  0  0  0  0  0  0  0  0  0
  151.5562  140.2100  155.0901 O   0  0  0  0  0  0  0  0  0  0  0  0
  149.3853  140.0459  155.7120 N   0  0  0  0  0  0  0  0  0  0  0  0
  149.2604  141.3523  156.3475 C   0  0  0  0  0  0  0  0  0  0  0  0
  150.3154  141.5413  157.4500 C   0  0  0  0  0  0  0  0  0  0  0  0
  151.3837  142.5812  157.0725 C   0  0  0  0  0  0  0  0  0  0  0  0
  152.1710  143.1359  158.2779 C   0  0  0  0  0  0  0  0  0  0  0  0
  152.4018  142.0737  159.3759 C   0  0  0  0  0  0  0  0  0  0  0  0
  153.1774  142.6499  160.5718 C   0  0  0  0  0  0  0  0  0  0  0  0
  152.4703  143.8816  161.1558 C   0  0  0  0  0  0  0  0  0  0  0  0
  152.2359  144.9465  160.0741 C   0  0  0  0  0  0  0  0  0  0  0  0
  151.4612  144.3667  158.8793 C   0  0  0  0  0  0  0  0  0  0  0  0
  148.3321  137.5398  155.5759 N   0  0  0  0  0  0  0  0  0  0  0  0
  144.6812  138.4236  155.8891 H   0  0  0  0  0  0  0  0  0  0  0  0
  146.2783  138.6969  155.2226 H   0  0  0  0  0  0  0  0  0  0  0  0
  147.4370  134.9677  157.5477 H   0  0  0  0  0  0  0  0  0  0  0  0
  149.7832  134.4214  157.2818 H   0  0  0  0  0  0  0  0  0  0  0  0
  151.4388  137.7852  154.4157 H   0  0  0  0  0  0  0  0  0  0  0  0
  149.9699  138.1859  153.5768 H   0  0  0  0  0  0  0  0  0  0  0  0
  148.5661  139.4555  155.7161 H   0  0  0  0  0  0  0  0  0  0  0  0
  149.3395  142.1428  155.5994 H   0  0  0  0  0  0  0  0  0  0  0  0
  148.2597  141.4279  156.7739 H   0  0  0  0  0  0  0  0  0  0  0  0
  149.8140  141.8384  158.3709 H   0  0  0  0  0  0  0  0  0  0  0  0
  150.8021  140.5873  157.6573 H   0  0  0  0  0  0  0  0  0  0  0  0
  152.0850  142.1114  156.3817 H   0  0  0  0  0  0  0  0  0  0  0  0
  150.9229  143.4022  156.5216 H   0  0  0  0  0  0  0  0  0  0  0  0
  153.1458  143.4663  157.9159 H   0  0  0  0  0  0  0  0  0  0  0  0
  151.4427  141.6834  159.7190 H   0  0  0  0  0  0  0  0  0  0  0  0
  152.9548  141.2238  158.9771 H   0  0  0  0  0  0  0  0  0  0  0  0
  153.2914  141.8871  161.3424 H   0  0  0  0  0  0  0  0  0  0  0  0
  154.1853  142.9221  160.2556 H   0  0  0  0  0  0  0  0  0  0  0  0
  151.5151  143.5837  161.5896 H   0  0  0  0  0  0  0  0  0  0  0  0
  153.0634  144.3005  161.9694 H   0  0  0  0  0  0  0  0  0  0  0  0
  151.6901  145.7904  160.4968 H   0  0  0  0  0  0  0  0  0  0  0  0
  153.1949  145.3380  159.7325 H   0  0  0  0  0  0  0  0  0  0  0  0
  151.3439  145.1391  158.1185 H   0  0  0  0  0  0  0  0  0  0  0  0
  150.4545  144.0926  159.1977 H   0  0  0  0  0  0  0  0  0  0  0  0
  1  2  1  0  0  0  0
  1 24  1  0  0  0  0
  1 25  1  0  0  0  0
  2  3  2  0  0  0  0
  2  4  1  0  0  0  0
  4 23  2  0  0  0  0
  4  5  1  0  0  0  0
  5  6  2  0  0  0  0
  5 26  1  0  0  0  0
  6  7  1  0  0  0  0
  6 27  1  0  0  0  0
  7  8  2  0  0  0  0
  7  9  1  0  0  0  0
  9 10  1  0  0  0  0
  9 23  1  0  0  0  0
 10 11  1  0  0  0  0
 10 28  1  0  0  0  0
 10 29  1  0  0  0  0
 11 12  2  0  0  0  0
 11 13  1  0  0  0  0
 13 14  1  0  0  0  0
 13 30  1  0  0  0  0
 14 15  1  0  0  0  0
 14 31  1  0  0  0  0
 14 32  1  0  0  0  0
 15 16  1  0  0  0  0
 15 33  1  0  0  0  0
 15 34  1  0  0  0  0
 16 17  1  0  0  0  0
 16 35  1  0  0  0  0
 16 36  1  0  0  0  0
 17 22  1  0  0  0  0
 17 18  1  0  0  0  0
 17 37  1  0  0  0  0
 18 19  1  0  0  0  0
 18 38  1  0  0  0  0
 18 39  1  0  0  0  0
 19 20  1  0  0  0  0
 19 40  1  0  0  0  0
 19 41  1  0  0  0  0
 20 21  1  0  0  0  0
 20 42  1  0  0  0  0
 20 43  1  0  0  0  0
 21 22  1  0  0  0  0
 21 44  1  0  0  0  0
 21 45  1  0  0  0  0
 22 46  1  0  0  0  0
 22 47  1  0  0  0  0
M  END
> <s_m_source_file>
AV-unprocessed.smi

> <i_m_source_file_index>
1001

> <i_lp_mmshare_version>
43012

> <i_f3d_flags>
0

> <s_epik_input>
W05IMl1DKD1PKWMxW2NIXVtjSF1jKD1PKW4objEpW0NIMl1DKD1PKVtOSF1bQ0gyXVtDSDJdW0NIMl1bQ0hdMltDSDJdW0NIMl1bQ0gyXVtDSDJdW0NIMl0y

> <s_epik_cmdline>
J2VwaWtfcHl0aG9uJywgJy1waCcsICc3LjAnLCAnLXRuJywgJzgnLCAnLW1hJywgJzIwMCcsICctbWV0YWxfYmluZGluZycsICctaW1hZScsICc8aW5maWxlLm1hZT4nLCAnLW9tYWUnLCAnPG91dGZpbGUubWFlPic=

> <r_lp_tautomer_probability>
1

> <r_epik_Ionization_Penalty>
2.90452e-06

> <r_epik_Ionization_Penalty_Charging>
3.08996e-10

> <r_epik_Ionization_Penalty_Neutral>
2.90421e-06

> <r_epik_State_Penalty>
-0

> <r_epik_Charging_Adjusted_Penalty>
3.08996e-10

> <i_epik_Tot_Q>
0

> <i_epik_Tot_abs_Q>
0

> <r_epik_Metal_State_Penalty>
-0

> <b_epik_Metal_Only>
0

> <s_lp_Force_Field>
OPLS_2005

> <r_lp_Energy>
27.0219

> <b_lp_Chiralities_Consistent>
1

> <s_lp_Variant>
AV-unprocessed.smi:1001-1

> <Gold.Version>
5.8.1

> <Gold.Id.Protein>
6NUR|6NUR_protein|mol2

> <Gold.PLP.Fitness>
42.2151

> <Gold.PLP.PLP>
-38.4299

> <Gold.PLP.part.hbond>
-2.0000

> <Gold.PLP.part.metal>
0.0000

> <Gold.PLP.part.buried>
-5.6588

> <Gold.PLP.part.nonpolar>
-31.0510

> <Gold.PLP.part.repulsive>
0.1702

> <Gold.PLP.ligand.clash>
0.0000

> <Gold.PLP.ligand.torsion>
1.0431

> <Gold.PLP.Chemscore.Hbond>
1.8640

> <Gold.PLP.Chemscore.CHOScore>
0.0000

> <Gold.PLP.Chemscore.Metal>
0.0000

> <Gold.Chemscore.Hbonds>
donor molecule, donor type, donor heavy atom, donor atom, acceptor molecule, acceptor atom, score
      P1  H  7989  7998       L1    12  0.99
      P1  H 10752 10765       L1     8  1.00

> <Gold.PLP.Chemscore.Internal.Correction>
0.2794

> <Gold.Rescore>
     Score         DG    S(hbond)    S(metal)    S(lipo)     H(rot)  DE(clash)    DE(int)     intcor
     14.08     -17.70       1.98        0.00     101.71       2.46       0.05       3.57       ----

> <Gold.Chemscore.Fitness>
14.0819

> <Gold.Chemscore.DG>
-17.7030

> <Gold.Chemscore.ZeroCoef>
-5.4800

> <Gold.Chemscore.Hbond>
1.9818

> <Gold.Chemscore.Metal>
0.0000

> <Gold.Chemscore.Lipo>
101.7067

> <Gold.Chemscore.Internal_Hbond>
0.0000

> <Gold.Chemscore.DEClash>
0.0532

> <Gold.Chemscore.DEInternal>
3.5679

> <Gold.Chemscore.Rot>
2.4593

> <Gold.Chemscore.Internal.Correction>
   9.000000E+99

> <Gold.Chemscore.Hbonds>
donor molecule, donor type, donor heavy atom, donor atom, acceptor molecule, acceptor atom, score
      P1  H  7989  7998       L1    12  0.62
      P1  H 10752 10765       L1     8  0.96

> <Gold.Chemscore.Hbond.Weighted>
-6.6192

> <Gold.Chemscore.Metal.Weighted>
-0.0000

> <Gold.Chemscore.Lipo.Weighted>
-11.8997

> <Gold.Chemscore.Internal_Hbond.Weighted>
0.0000

> <Gold.Chemscore.DEClash.Weighted>
0.0532

> <Gold.Chemscore.DEInternal.Weighted>
3.5679

> <Gold.Chemscore.Rot.Weighted>
6.2958

> <Gold.Chemscore.Internal.Correction.Weighted>
   9.000000E+99

> <Gold.Protein.RotatedTorsions>
[ 6907 6896 6895 6894 ] final   67.08 input  -60.11 | X-H torsion
[ 7974 7965 7964 7962 ] final  147.59 input  175.53 | X-H torsion
[ 8008 7997 7996 7995 ] final -121.94 input   59.86 | X-H torsion
[ 10167 10162 10161 10158 ] final   12.74 input  -65.29 | X-H torsion
[ 10718 10713 10712 10709 ] final  -31.75 input   66.30 | X-H torsion
[ 10763 10752 10751 10750 ] final -143.15 input  -60.55 | X-H torsion
[ 11005 11000 10999 10996 ] final  179.18 input  -57.11 | X-H torsion

> <Gold.Protein.ActiveResidues>
 VAL166  LYS551  ARG553  GLY616  TRP617  ASP618  TYR619  PRO620  LYS621  CYS622 
 ASP623  PHE694  ASN695  SER759  ASP760  ASP761  ALA762  ILE779  LEU786  VAL792 
 PHE793  MET794  SER795  GLU796  ALA797  LYS798  CYS799  TRP800  GLU811  SER814 

> <Gold.Protein.RotatedAtoms>
  152.4527  134.5359  159.9824 H   0  0  0  0  0  0  0  0  0  0  0  0  # atno 6907 bound_to 6896
  151.5428  133.3424  159.2946 H   0  0  0  0  0  0  0  0  0  0  0  0  # atno 6908 bound_to 6896
  150.8461  134.7801  159.7034 H   0  0  0  0  0  0  0  0  0  0  0  0  # atno 6909 bound_to 6896
  144.8580  139.6047  143.5943 H   0  0  0  0  0  0  0  0  0  0  0  0  # atno 7974 bound_to 7965
  155.1561  140.0405  157.2832 H   0  0  0  0  0  0  0  0  0  0  0  0  # atno 8008 bound_to 7997
  154.6370  140.2538  155.7340 H   0  0  0  0  0  0  0  0  0  0  0  0  # atno 8009 bound_to 7997
  156.2513  140.2863  156.0746 H   0  0  0  0  0  0  0  0  0  0  0  0  # atno 8010 bound_to 7997
  140.6048  143.8530  150.7002 H   0  0  0  0  0  0  0  0  0  0  0  0  # atno 10167 bound_to 10162
  156.3834  130.4360  149.7451 H   0  0  0  0  0  0  0  0  0  0  0  0  # atno 10718 bound_to 10713
  154.8481  135.3476  154.6142 H   0  0  0  0  0  0  0  0  0  0  0  0  # atno 10763 bound_to 10752
  153.6751  135.6983  153.5140 H   0  0  0  0  0  0  0  0  0  0  0  0  # atno 10764 bound_to 10752
  153.2712  135.4292  155.0946 H   0  0  0  0  0  0  0  0  0  0  0  0  # atno 10765 bound_to 10752
  140.4033  134.6757  157.4574 H   0  0  0  0  0  0  0  0  0  0  0  0  # atno 11005 bound_to 11000
  146.2838  139.6949  142.9210 LP  0  0  0  0  0  0  0  0  0  0  0  0  # atno 17320 bound_to 7965
  145.4368  141.0419  143.2880 LP  0  0  0  0  0  0  0  0  0  0  0  0  # atno 17321 bound_to 7965
  140.2085  143.3902  152.1737 LP  0  0  0  0  0  0  0  0  0  0  0  0  # atno 17342 bound_to 10162
  139.5317  144.7166  151.5033 LP  0  0  0  0  0  0  0  0  0  0  0  0  # atno 17343 bound_to 10162
  156.4532  130.7916  151.2938 LP  0  0  0  0  0  0  0  0  0  0  0  0  # atno 17370 bound_to 10713
  157.7494  131.0089  150.3245 LP  0  0  0  0  0  0  0  0  0  0  0  0  # atno 17371 bound_to 10713
  140.0320  134.6392  155.9094 LP  0  0  0  0  0  0  0  0  0  0  0  0  # atno 17394 bound_to 11000
  141.1848  133.6553  156.5173 LP  0  0  0  0  0  0  0  0  0  0  0  0  # atno 17395 bound_to 11000

$$$$
