AV-unprocessed.smi:193|AV-procd|sdf|1513|dock9
  -GOLD-   2262019353D 1   1.00000     0.00000
 Structure written by MMmdl.
 61 65  0  0  0  0  0  0  0  0  1 V2000
  153.0582  138.3444  154.7133 C   0  0  0  0  0  0  0  0  0  0  0  0
  151.7173  138.9358  155.1716 C   0  0  1  0  0  0  0  0  0  0  0  0
  150.5961  137.8735  155.1611 C   0  0  0  0  0  0  0  0  0  0  0  0
  150.4344  137.1413  156.4165 N   0  0  0  0  0  0  0  0  0  0  0  0
  150.1744  135.8243  156.2139 C   0  0  0  0  0  0  0  0  0  0  0  0
  151.1185  134.8872  156.5006 N   0  0  0  0  0  0  0  0  0  0  0  0
  150.8522  133.5885  156.3335 C   0  0  0  0  0  0  0  0  0  0  0  0
  149.7266  133.0163  155.9027 N   0  0  0  0  0  0  0  0  0  0  0  0
  148.7769  133.9505  155.6109 C   0  0  0  0  0  0  0  0  0  0  0  0
  148.9155  135.3614  155.7404 C   0  0  0  0  0  0  0  0  0  0  0  0
  147.7379  135.9899  155.3561 N   0  0  0  0  0  0  0  0  0  0  0  0
  146.9471  135.0076  155.0211 C   0  0  0  0  0  0  0  0  0  0  0  0
  147.4928  133.7486  155.1351 N   0  0  0  0  0  0  0  0  0  0  0  0
  146.8372  132.4863  154.8284 C   0  0  0  0  0  0  0  0  0  0  0  0
  146.6691  132.2124  153.3127 C   0  0  0  0  0  0  0  0  0  0  0  0
  147.9631  132.1342  152.7410 O   0  0  0  0  0  0  0  0  0  0  0  0
  145.9570  130.8632  153.0874 C   0  0  0  0  0  0  0  0  0  0  0  0
  145.6183  130.6252  151.6051 C   0  0  0  0  0  0  0  0  0  0  0  0
  144.8465  131.7089  151.1019 O   0  0  0  0  0  0  0  0  0  0  0  0
  145.5489  132.9454  151.1335 C   0  0  0  0  0  0  0  0  0  0  0  0
  145.8845  133.3271  152.5863 C   0  0  0  0  0  0  0  0  0  0  0  0
  149.6094  137.8202  157.4176 C   0  0  0  0  0  0  0  0  0  0  0  0
  150.3156  139.0015  158.0981 C   0  0  0  0  0  0  0  0  0  0  0  0
  150.6624  140.0737  157.1638 N   0  0  0  0  0  0  0  0  0  0  0  0
  150.8965  141.2801  157.9433 C   0  0  2  0  0  0  0  0  0  0  0  0
  149.7096  142.1770  158.2141 C   0  0  0  0  0  0  0  0  0  0  0  0
  150.7683  142.6070  157.2259 C   0  0  1  0  0  0  0  0  0  0  0  0
  151.7053  143.7504  157.5475 C   0  0  0  0  0  0  0  0  0  0  0  0
  151.9112  139.7304  156.4813 C   0  0  0  0  0  0  0  0  0  0  0  0
  153.4433  137.6297  155.4400 H   0  0  0  0  0  0  0  0  0  0  0  0
  153.8086  139.1261  154.5910 H   0  0  0  0  0  0  0  0  0  0  0  0
  152.9608  137.8308  153.7562 H   0  0  0  0  0  0  0  0  0  0  0  0
  151.4327  139.6602  154.4074 H   0  0  0  0  0  0  0  0  0  0  0  0
  149.6508  138.3756  154.9508 H   0  0  0  0  0  0  0  0  0  0  0  0
  150.7435  137.1961  154.3183 H   0  0  0  0  0  0  0  0  0  0  0  0
  151.6547  132.9108  156.5843 H   0  0  0  0  0  0  0  0  0  0  0  0
  145.9386  135.1758  154.6723 H   0  0  0  0  0  0  0  0  0  0  0  0
  147.4021  131.6814  155.3012 H   0  0  0  0  0  0  0  0  0  0  0  0
  145.8604  132.4942  155.3137 H   0  0  0  0  0  0  0  0  0  0  0  0
  147.9048  131.6559  151.9282 H   0  0  0  0  0  0  0  0  0  0  0  0
  146.5636  130.0415  153.4701 H   0  0  0  0  0  0  0  0  0  0  0  0
  145.0273  130.8466  153.6576 H   0  0  0  0  0  0  0  0  0  0  0  0
  146.5232  130.4995  151.0088 H   0  0  0  0  0  0  0  0  0  0  0  0
  145.0414  129.7064  151.4987 H   0  0  0  0  0  0  0  0  0  0  0  0
  146.4522  132.8795  150.5250 H   0  0  0  0  0  0  0  0  0  0  0  0
  144.9227  133.7152  150.6826 H   0  0  0  0  0  0  0  0  0  0  0  0
  144.9523  133.5161  153.1202 H   0  0  0  0  0  0  0  0  0  0  0  0
  146.4403  134.2654  152.5962 H   0  0  0  0  0  0  0  0  0  0  0  0
  148.6786  138.1574  156.9591 H   0  0  0  0  0  0  0  0  0  0  0  0
  149.3281  137.1151  158.2012 H   0  0  0  0  0  0  0  0  0  0  0  0
  149.6176  139.3979  158.8368 H   0  0  0  0  0  0  0  0  0  0  0  0
  151.1856  138.6654  158.6642 H   0  0  0  0  0  0  0  0  0  0  0  0
  151.6420  141.2481  158.7364 H   0  0  0  0  0  0  0  0  0  0  0  0
  148.7427  141.8777  157.8137 H   0  0  0  0  0  0  0  0  0  0  0  0
  149.6765  142.6830  159.1768 H   0  0  0  0  0  0  0  0  0  0  0  0
  150.4835  142.5619  156.1761 H   0  0  0  0  0  0  0  0  0  0  0  0
  151.9531  143.7628  158.6093 H   0  0  0  0  0  0  0  0  0  0  0  0
  151.2383  144.7003  157.2877 H   0  0  0  0  0  0  0  0  0  0  0  0
  152.6280  143.6481  156.9765 H   0  0  0  0  0  0  0  0  0  0  0  0
  152.5821  139.1996  157.1586 H   0  0  0  0  0  0  0  0  0  0  0  0
  152.4419  140.6462  156.2148 H   0  0  0  0  0  0  0  0  0  0  0  0
  1  2  1  0  0  0  0
  1 30  1  0  0  0  0
  1 31  1  0  0  0  0
  1 32  1  0  0  0  0
  2 29  1  0  0  0  0
  2  3  1  0  0  0  0
  2 33  1  0  0  0  0
  3  4  1  0  0  0  0
  3 34  1  0  0  0  0
  3 35  1  0  0  0  0
  4  5  1  0  0  0  0
  4 22  1  0  0  0  0
  5 10  1  0  0  0  0
  5  6  2  0  0  0  0
  6  7  1  0  0  0  0
  7  8  2  0  0  0  0
  7 36  1  0  0  0  0
  8  9  1  0  0  0  0
  9 13  1  0  0  0  0
  9 10  2  0  0  0  0
 10 11  1  0  0  0  0
 11 12  2  0  0  0  0
 12 13  1  0  0  0  0
 12 37  1  0  0  0  0
 13 14  1  0  0  0  0
 14 15  1  0  0  0  0
 14 38  1  0  0  0  0
 14 39  1  0  0  0  0
 15 21  1  0  0  0  0
 15 16  1  0  0  0  0
 15 17  1  0  0  0  0
 16 40  1  0  0  0  0
 17 18  1  0  0  0  0
 17 41  1  0  0  0  0
 17 42  1  0  0  0  0
 18 19  1  0  0  0  0
 18 43  1  0  0  0  0
 18 44  1  0  0  0  0
 19 20  1  0  0  0  0
 20 21  1  0  0  0  0
 20 45  1  0  0  0  0
 20 46  1  0  0  0  0
 21 47  1  0  0  0  0
 21 48  1  0  0  0  0
 22 23  1  0  0  0  0
 22 49  1  0  0  0  0
 22 50  1  0  0  0  0
 23 24  1  0  0  0  0
 23 51  1  0  0  0  0
 23 52  1  0  0  0  0
 24 25  1  0  0  0  0
 24 29  1  0  0  0  0
 25 27  1  0  0  0  0
 25 26  1  0  0  0  0
 25 53  1  0  0  0  0
 26 27  1  0  0  0  0
 26 54  1  0  0  0  0
 26 55  1  0  0  0  0
 27 28  1  0  0  0  0
 27 56  1  0  0  0  0
 28 57  1  0  0  0  0
 28 58  1  0  0  0  0
 28 59  1  0  0  0  0
 29 60  1  0  0  0  0
 29 61  1  0  0  0  0
M  END
> <s_m_source_file>
AV-unprocessed.smi

> <i_m_source_file_index>
193

> <i_lp_mmshare_version>
43012

> <i_f3d_flags>
0

> <s_epik_input>
W0NIM11bQ0BASF0xW0NIMl1bQ0BIXTFOKFtDSDJdMilbQ0gyXVtDSDJdTihbQ0gyXVtDQEhdMltDSDNdKWMobltjSF1uMyljKGMzNCluW2NIXW40W0NIMl1DNShbT0hdKVtDSDJdW0NIMl1PW0NIMl1bQ0gyXTU=

> <s_epik_cmdline>
J2VwaWtfcHl0aG9uJywgJy1waCcsICc3LjAnLCAnLXRuJywgJzgnLCAnLW1hJywgJzIwMCcsICctbWV0YWxfYmluZGluZycsICctaW1hZScsICc8aW5maWxlLm1hZT4nLCAnLW9tYWUnLCAnPG91dGZpbGUubWFlPic=

> <r_lp_tautomer_probability>
1

> <r_epik_Ionization_Penalty>
1.45227

> <r_epik_Ionization_Penalty_Charging>
0

> <r_epik_Ionization_Penalty_Neutral>
1.45227

> <r_epik_State_Penalty>
2.02377

> <r_epik_Charging_Adjusted_Penalty>
2.02377

> <i_epik_Tot_Q>
0

> <i_epik_Tot_abs_Q>
0

> <r_epik_Metal_State_Penalty>
2.01937

> <b_epik_Metal_Only>
0

> <s_lp_Force_Field>
OPLS_2005

> <r_lp_Energy>
55.7491

> <b_lp_Chiralities_Consistent>
1

> <s_lp_Variant>
AV-unprocessed.smi:193-18

> <Gold.Version>
5.8.1

> <Gold.Id.Protein>
6NUR|6NUR_protein|mol2

> <Gold.PLP.Fitness>
45.0792

> <Gold.PLP.PLP>
-39.5117

> <Gold.PLP.part.hbond>
-2.0000

> <Gold.PLP.part.metal>
0.0000

> <Gold.PLP.part.buried>
-6.5803

> <Gold.PLP.part.nonpolar>
-30.7008

> <Gold.PLP.part.repulsive>
0.2137

> <Gold.PLP.ligand.clash>
0.0000

> <Gold.PLP.ligand.torsion>
0.8835

> <Gold.PLP.Chemscore.Hbond>
1.9753

> <Gold.PLP.Chemscore.CHOScore>
0.0000

> <Gold.PLP.Chemscore.Metal>
0.0000

> <Gold.Chemscore.Hbonds>
donor molecule, donor type, donor heavy atom, donor atom, acceptor molecule, acceptor atom, score
      L1  H    16    40       P1 10747  0.71

> <Gold.PLP.Chemscore.Internal.Correction>
1.4085

> <Gold.Rescore>
     Score         DG    S(hbond)    S(metal)    S(lipo)     H(rot)  DE(clash)    DE(int)     intcor
     15.17     -16.28       1.20        0.00     105.31       2.17       0.16       0.95       ----

> <Gold.Chemscore.Fitness>
15.1688

> <Gold.Chemscore.DG>
-16.2762

> <Gold.Chemscore.ZeroCoef>
-5.4800

> <Gold.Chemscore.Hbond>
1.2038

> <Gold.Chemscore.Metal>
0.0000

> <Gold.Chemscore.Lipo>
105.3118

> <Gold.Chemscore.Internal_Hbond>
0.0000

> <Gold.Chemscore.DEClash>
0.1558

> <Gold.Chemscore.DEInternal>
0.9516

> <Gold.Chemscore.Rot>
2.1664

> <Gold.Chemscore.Internal.Correction>
   9.000000E+99

> <Gold.Chemscore.Hbonds>
donor molecule, donor type, donor heavy atom, donor atom, acceptor molecule, acceptor atom, score
      L1  H    16    40       P1 10747  0.68

> <Gold.Chemscore.Hbond.Weighted>
-4.0206

> <Gold.Chemscore.Metal.Weighted>
-0.0000

> <Gold.Chemscore.Lipo.Weighted>
-12.3215

> <Gold.Chemscore.Internal_Hbond.Weighted>
0.0000

> <Gold.Chemscore.DEClash.Weighted>
0.1558

> <Gold.Chemscore.DEInternal.Weighted>
0.9516

> <Gold.Chemscore.Rot.Weighted>
5.5459

> <Gold.Chemscore.Internal.Correction.Weighted>
   9.000000E+99

> <Gold.Protein.RotatedTorsions>
[ 6907 6896 6895 6894 ] final  103.91 input  -60.11 | X-H torsion
[ 7974 7965 7964 7962 ] final  -71.53 input  175.53 | X-H torsion
[ 8008 7997 7996 7995 ] final  -83.37 input   59.86 | X-H torsion
[ 10167 10162 10161 10158 ] final  154.90 input  -65.29 | X-H torsion
[ 10718 10713 10712 10709 ] final -178.47 input   66.30 | X-H torsion
[ 10763 10752 10751 10750 ] final  -32.09 input  -60.55 | X-H torsion
[ 11005 11000 10999 10996 ] final  151.54 input  -57.11 | X-H torsion

> <Gold.Protein.ActiveResidues>
 VAL166  LYS551  ARG553  GLY616  TRP617  ASP618  TYR619  PRO620  LYS621  CYS622 
 ASP623  PHE694  ASN695  SER759  ASP760  ASP761  ALA762  ILE779  LEU786  VAL792 
 PHE793  MET794  SER795  GLU796  ALA797  LYS798  CYS799  TRP800  GLU811  SER814 

> <Gold.Protein.RotatedAtoms>
  152.5281  133.9755  159.7781 H   0  0  0  0  0  0  0  0  0  0  0  0  # atno 6907 bound_to 6896
  151.0018  133.6040  159.2701 H   0  0  0  0  0  0  0  0  0  0  0  0  # atno 6908 bound_to 6896
  151.3146  135.0809  159.9338 H   0  0  0  0  0  0  0  0  0  0  0  0  # atno 6909 bound_to 6896
  145.6768  140.9202  143.0853 H   0  0  0  0  0  0  0  0  0  0  0  0  # atno 7974 bound_to 7965
  154.6184  140.0620  156.9583 H   0  0  0  0  0  0  0  0  0  0  0  0  # atno 8008 bound_to 7997
  155.1858  140.3303  155.4348 H   0  0  0  0  0  0  0  0  0  0  0  0  # atno 8009 bound_to 7997
  156.2417  140.1889  156.6952 H   0  0  0  0  0  0  0  0  0  0  0  0  # atno 8010 bound_to 7997
  139.4822  144.5146  151.7971 H   0  0  0  0  0  0  0  0  0  0  0  0  # atno 10167 bound_to 10162
  156.8448  130.9699  151.3097 H   0  0  0  0  0  0  0  0  0  0  0  0  # atno 10718 bound_to 10713
  153.8080  135.6884  153.4845 H   0  0  0  0  0  0  0  0  0  0  0  0  # atno 10763 bound_to 10752
  153.1646  135.4566  154.9818 H   0  0  0  0  0  0  0  0  0  0  0  0  # atno 10764 bound_to 10752
  154.7979  135.3326  154.7563 H   0  0  0  0  0  0  0  0  0  0  0  0  # atno 10765 bound_to 10752
  140.1228  134.8852  157.2096 H   0  0  0  0  0  0  0  0  0  0  0  0  # atno 11005 bound_to 11000
  144.7039  139.8644  143.7436 LP  0  0  0  0  0  0  0  0  0  0  0  0  # atno 17320 bound_to 7965
  146.0998  139.3993  143.0354 LP  0  0  0  0  0  0  0  0  0  0  0  0  # atno 17321 bound_to 7965
  140.4653  144.1664  150.5911 LP  0  0  0  0  0  0  0  0  0  0  0  0  # atno 17342 bound_to 10162
  140.4441  143.2514  151.9435 LP  0  0  0  0  0  0  0  0  0  0  0  0  # atno 17343 bound_to 10162
  157.6336  130.8748  149.9318 LP  0  0  0  0  0  0  0  0  0  0  0  0  # atno 17370 bound_to 10713
  156.0860  130.3668  150.0486 LP  0  0  0  0  0  0  0  0  0  0  0  0  # atno 17371 bound_to 10713
  140.2943  134.3205  155.7307 LP  0  0  0  0  0  0  0  0  0  0  0  0  # atno 17394 bound_to 11000
  141.2155  133.7553  156.9548 LP  0  0  0  0  0  0  0  0  0  0  0  0  # atno 17395 bound_to 11000

$$$$
