AV-unprocessed.smi:2698|AV-procd|sdf|10419|dock7
  -GOLD-   2272014453D 1   1.00000     0.00000
 Structure written by MMmdl.
 33 33  0  0  0  0  0  0  0  0  2 V2000
  151.5814  144.2367  158.4133 C   0  0  0  0  0  0  0  0  0  0  0  0
  150.9149  142.9659  157.8544 C   0  0  0  0  0  0  0  0  0  0  0  0
  149.4574  142.8702  158.3298 C   0  0  0  0  0  0  0  0  0  0  0  0
  151.6834  141.6696  158.2001 C   0  0  0  0  0  0  0  0  0  0  0  0
  151.2483  140.4677  157.3590 C   0  0  0  0  0  0  0  0  0  0  0  0
  150.6937  139.5085  157.8951 O   0  0  0  0  0  0  0  0  0  0  0  0
  151.5141  140.5384  156.0459 N   0  0  0  0  0  0  0  0  0  0  0  0
  151.2187  139.5118  155.0471 C   0  0  2  0  0  0  0  0  0  0  0  0
  149.7234  139.1334  155.1341 C   0  0  0  0  0  0  0  0  0  0  0  0
  148.7689  140.0869  154.4506 C   0  0  0  0  0  0  0  0  0  0  0  0
  148.5889  141.4512  154.5477 C   0  0  0  0  0  0  0  0  0  0  0  0
  147.5697  141.8605  153.6844 N   0  0  0  0  0  0  0  0  0  0  0  0
  147.1814  140.7388  153.0900 C   0  0  0  0  0  0  0  0  0  0  0  0
  147.8584  139.6624  153.4986 N   0  0  0  0  0  0  0  0  0  0  0  0
  152.1017  138.2840  155.3085 C   0  0  0  0  0  0  0  0  0  0  0  0
  153.0141  138.3953  156.1583 O   0  0  0  0  0  0  0  0  0  0  0  0
  151.8484  137.2506  154.6517 O   0  5  0  0  0  0  0  0  0  0  0  0
  147.7266  138.7137  153.1781 H   0  0  0  0  0  0  0  0  0  0  0  0
  151.6801  144.1872  159.4981 H   0  0  0  0  0  0  0  0  0  0  0  0
  150.9941  145.1235  158.1734 H   0  0  0  0  0  0  0  0  0  0  0  0
  152.5755  144.3910  157.9941 H   0  0  0  0  0  0  0  0  0  0  0  0
  150.8900  143.0623  156.7676 H   0  0  0  0  0  0  0  0  0  0  0  0
  149.4008  142.7711  159.4143 H   0  0  0  0  0  0  0  0  0  0  0  0
  148.9558  142.0079  157.8897 H   0  0  0  0  0  0  0  0  0  0  0  0
  148.8912  143.7578  158.0464 H   0  0  0  0  0  0  0  0  0  0  0  0
  152.7553  141.8233  158.0670 H   0  0  0  0  0  0  0  0  0  0  0  0
  151.5425  141.4230  159.2536 H   0  0  0  0  0  0  0  0  0  0  0  0
  151.9532  141.3786  155.6988 H   0  0  0  0  0  0  0  0  0  0  0  0
  151.4318  139.8740  154.0395 H   0  0  0  0  0  0  0  0  0  0  0  0
  149.5659  138.1466  154.6963 H   0  0  0  0  0  0  0  0  0  0  0  0
  149.4239  139.0534  156.1806 H   0  0  0  0  0  0  0  0  0  0  0  0
  149.1093  142.1666  155.1673 H   0  0  0  0  0  0  0  0  0  0  0  0
  146.3976  140.7009  152.3481 H   0  0  0  0  0  0  0  0  0  0  0  0
  1  2  1  0  0  0  0
  1 19  1  0  0  0  0
  1 20  1  0  0  0  0
  1 21  1  0  0  0  0
  2  3  1  0  0  0  0
  2  4  1  0  0  0  0
  2 22  1  0  0  0  0
  3 23  1  0  0  0  0
  3 24  1  0  0  0  0
  3 25  1  0  0  0  0
  4  5  1  0  0  0  0
  4 26  1  0  0  0  0
  4 27  1  0  0  0  0
  5  6  2  0  0  0  0
  5  7  1  0  0  0  0
  7  8  1  0  0  0  0
  7 28  1  0  0  0  0
  8  9  1  0  0  0  0
  8 15  1  0  0  0  0
  8 29  1  0  0  0  0
  9 30  1  0  0  0  0
  9 31  1  0  0  0  0
  9 10  1  0  0  0  0
 10 11  2  0  0  0  0
 10 14  1  0  0  0  0
 11 32  1  0  0  0  0
 11 12  1  0  0  0  0
 12 13  2  0  0  0  0
 13 14  1  0  0  0  0
 13 33  1  0  0  0  0
 14 18  1  0  0  0  0
 15 16  2  0  0  0  0
 15 17  1  0  0  0  0
M  CHG  1  17  -1
M  END
> <s_m_source_file>
AV-unprocessed.smi

> <i_m_source_file_index>
2698

> <i_lp_mmshare_version>
43012

> <i_f3d_flags>
0

> <s_epik_input>
W0NIM11bQ0hdKFtDSDNdKVtDSDJdQyg9TylbTkhdW0NAQEhdKEMoPU8pW09IXSlbQ0gyXWMxW2NIXVtuSF1bY0hdbjE=

> <s_epik_cmdline>
J2VwaWtfcHl0aG9uJywgJy1waCcsICc3LjAnLCAnLXRuJywgJzgnLCAnLW1hJywgJzIwMCcsICctbWV0YWxfYmluZGluZycsICctaW1hZScsICc8aW5maWxlLm1hZT4nLCAnLW9tYWUnLCAnPG91dGZpbGUubWFlPic=

> <r_lp_tautomer_probability>
0.5

> <r_epik_Ionization_Penalty>
0.536153

> <r_epik_Ionization_Penalty_Charging>
0.536153

> <r_epik_Ionization_Penalty_Neutral>
4.95393e-08

> <r_epik_State_Penalty>
0.778213

> <r_epik_Charging_Adjusted_Penalty>
1.31437

> <i_epik_Tot_Q>
-1

> <i_epik_Tot_abs_Q>
1

> <r_epik_Metal_State_Penalty>
0.658344

> <b_epik_Metal_Only>
0

> <s_lp_Force_Field>
OPLS_2005

> <r_lp_Energy>
3.7745

> <b_lp_Chiralities_Consistent>
1

> <s_lp_Variant>
AV-unprocessed.smi:2698-3

> <Gold.Version>
5.8.1

> <Gold.Id.Protein>
6NUR|6NUR_protein|mol2

> <Gold.PLP.Fitness>
47.2301

> <Gold.PLP.PLP>
-30.5354

> <Gold.PLP.part.hbond>
-3.0000

> <Gold.PLP.part.metal>
0.0000

> <Gold.PLP.part.buried>
-2.5620

> <Gold.PLP.part.nonpolar>
-26.1025

> <Gold.PLP.part.repulsive>
0.5348

> <Gold.PLP.ligand.clash>
0.0000

> <Gold.PLP.ligand.torsion>
0.5587

> <Gold.PLP.Chemscore.Hbond>
3.9200

> <Gold.PLP.Chemscore.CHOScore>
1.9968

> <Gold.PLP.Chemscore.Metal>
0.0000

> <Gold.Chemscore.Hbonds>
donor molecule, donor type, donor heavy atom, donor atom, acceptor molecule, acceptor atom, score
      P1  H  7997  8010       L1    16  1.14
      P1  H 10752 10765       L1    17  1.98
      L1  C    11    32       P1  8028  0.82
      L1  C    13    33       P1 10175  0.53

> <Gold.PLP.Chemscore.Internal.Correction>
0.0616

> <Gold.Rescore>
     Score         DG    S(hbond)    S(metal)    S(lipo)     H(rot)  DE(clash)    DE(int)     intcor
      8.86     -11.05       1.79        0.00      62.33       3.01       0.05       2.14       ----

> <Gold.Chemscore.Fitness>
8.8593

> <Gold.Chemscore.DG>
-11.0485

> <Gold.Chemscore.ZeroCoef>
-5.4800

> <Gold.Chemscore.Hbond>
1.7942

> <Gold.Chemscore.Metal>
0.0000

> <Gold.Chemscore.Lipo>
62.3328

> <Gold.Chemscore.Internal_Hbond>
0.0000

> <Gold.Chemscore.DEClash>
0.0462

> <Gold.Chemscore.DEInternal>
2.1429

> <Gold.Chemscore.Rot>
3.0145

> <Gold.Chemscore.Internal.Correction>
   9.000000E+99

> <Gold.Chemscore.Hbonds>
donor molecule, donor type, donor heavy atom, donor atom, acceptor molecule, acceptor atom, score
      P1  H  7997  8010       L1    16  0.54
      P1  H 10752 10765       L1    17  0.93

> <Gold.Chemscore.Hbond.Weighted>
-5.9926

> <Gold.Chemscore.Metal.Weighted>
-0.0000

> <Gold.Chemscore.Lipo.Weighted>
-7.2929

> <Gold.Chemscore.Internal_Hbond.Weighted>
0.0000

> <Gold.Chemscore.DEClash.Weighted>
0.0462

> <Gold.Chemscore.DEInternal.Weighted>
2.1429

> <Gold.Chemscore.Rot.Weighted>
7.7171

> <Gold.Chemscore.Internal.Correction.Weighted>
   9.000000E+99

> <Gold.Protein.RotatedTorsions>
[ 6907 6896 6895 6894 ] final  101.00 input  -60.11 | X-H torsion
[ 7974 7965 7964 7962 ] final  153.83 input  175.53 | X-H torsion
[ 8008 7997 7996 7995 ] final   86.78 input   59.86 | X-H torsion
[ 10167 10162 10161 10158 ] final  -26.24 input  -65.29 | X-H torsion
[ 10718 10713 10712 10709 ] final  105.08 input   66.30 | X-H torsion
[ 10763 10752 10751 10750 ] final  164.01 input  -60.55 | X-H torsion
[ 11005 11000 10999 10996 ] final   44.20 input  -57.11 | X-H torsion

> <Gold.Protein.ActiveResidues>
 VAL166  LYS551  ARG553  GLY616  TRP617  ASP618  TYR619  PRO620  LYS621  CYS622 
 ASP623  PHE694  ASN695  SER759  ASP760  ASP761  ALA762  ILE779  LEU786  VAL792 
 PHE793  MET794  SER795  GLU796  ALA797  LYS798  CYS799  TRP800  GLU811  SER814 

> <Gold.Protein.RotatedAtoms>
  152.5359  134.0192  159.7973 H   0  0  0  0  0  0  0  0  0  0  0  0  # atno 6907 bound_to 6896
  151.0381  133.5723  159.2661 H   0  0  0  0  0  0  0  0  0  0  0  0  # atno 6908 bound_to 6896
  151.2702  135.0689  159.9185 H   0  0  0  0  0  0  0  0  0  0  0  0  # atno 6909 bound_to 6896
  144.8128  139.6853  143.6134 H   0  0  0  0  0  0  0  0  0  0  0  0  # atno 7974 bound_to 7965
  155.9671  140.3388  155.6542 H   0  0  0  0  0  0  0  0  0  0  0  0  # atno 8008 bound_to 7997
  155.6723  140.0728  157.2533 H   0  0  0  0  0  0  0  0  0  0  0  0  # atno 8009 bound_to 7997
  154.4157  140.1689  156.1880 H   0  0  0  0  0  0  0  0  0  0  0  0  # atno 8010 bound_to 7997
  140.7283  143.4196  151.0973 H   0  0  0  0  0  0  0  0  0  0  0  0  # atno 10167 bound_to 10162
  157.6718  131.0819  150.5803 H   0  0  0  0  0  0  0  0  0  0  0  0  # atno 10718 bound_to 10713
  154.3024  135.2759  155.2604 H   0  0  0  0  0  0  0  0  0  0  0  0  # atno 10763 bound_to 10752
  154.5035  135.5801  153.6553 H   0  0  0  0  0  0  0  0  0  0  0  0  # atno 10764 bound_to 10752
  152.9899  135.6164  154.3196 H   0  0  0  0  0  0  0  0  0  0  0  0  # atno 10765 bound_to 10752
  140.1574  134.4385  155.8340 H   0  0  0  0  0  0  0  0  0  0  0  0  # atno 11005 bound_to 11000
  146.2429  139.6037  142.9479 LP  0  0  0  0  0  0  0  0  0  0  0  0  # atno 17320 bound_to 7965
  145.5283  141.0428  143.2397 LP  0  0  0  0  0  0  0  0  0  0  0  0  # atno 17321 bound_to 7965
  139.7839  143.8315  152.3142 LP  0  0  0  0  0  0  0  0  0  0  0  0  # atno 17342 bound_to 10162
  139.8276  144.7268  150.9492 LP  0  0  0  0  0  0  0  0  0  0  0  0  # atno 17343 bound_to 10162
  156.6104  130.4378  149.5861 LP  0  0  0  0  0  0  0  0  0  0  0  0  # atno 17370 bound_to 10713
  156.2435  130.6865  151.1578 LP  0  0  0  0  0  0  0  0  0  0  0  0  # atno 17371 bound_to 10713
  141.2206  133.6898  156.7532 LP  0  0  0  0  0  0  0  0  0  0  0  0  # atno 17394 bound_to 11000
  140.2531  134.8525  157.3686 LP  0  0  0  0  0  0  0  0  0  0  0  0  # atno 17395 bound_to 11000

$$$$
