#       Name:                AV-unprocessed.smi:2221
#       Creating user name   scv26
#       Creation time:       Fri Mar 27 12:19:44 2020


#       File generated by GOLD software.
#

@<TRIPOS>MOLECULE
AV-unprocessed.smi:2221
    57    58     1
SMALL
NO_CHARGES


@<TRIPOS>ATOM
      1 ****        -4.0614   6.3758   3.9458 C.3            1 S1                 0.0000
      2 ****        -3.1610   5.1586   3.9293 C.ar           1 S1                 0.0000
      3 ****        -2.3341   4.8568   5.0283 C.ar           1 S1                 0.0000
      4 ****        -1.5174   3.7120   4.9512 C.ar           1 S1                 0.0000
      5 ****        -0.6078   3.3297   6.1001 C.3            1 S1                 0.0000
      6 ****        -1.4943   2.8946   3.8765 N.ar           1 S1                 0.0000
      7 ****        -2.2860   3.1758   2.8121 C.ar           1 S1                 0.0000
      8 ****        -2.3287   2.3851   1.6329 N.am           1 S1                 0.0000
      9 ****        -1.6624   1.2462   1.3746 C.2            1 S1                 0.0000
     10 ****        -0.9106   0.6652   2.1580 O.2            1 S1                 0.0000
     11 ****        -1.9170   0.8015   0.1354 N.am           1 S1                 0.0000
     12 ****        -1.3567  -0.4149  -0.4420 C.3            1 S1                 0.0000
     13 ****         0.1063  -0.2136  -0.8839 C.3            1 S1                 0.0000
     14 ****         0.7129  -1.4599  -1.4152 N.4            1 S1                 1.0000
     15 ****         2.1937  -1.4378  -1.3494 C.3            1 S1                 0.0000
     16 ****         2.7893  -2.7963  -1.7517 C.3            1 S1                 0.0000
     17 ****         2.3401  -3.2422  -3.1661 C.3            1 S1                 0.0000
     18 ****         2.8267  -4.5992  -3.4794 N.3            1 S1                 0.0000
     19 ****         2.4258  -5.0306  -4.8172 C.3            1 S1                 0.0000
     20 ****         4.2854  -4.6829  -3.4387 C.3            1 S1                 0.0000
     21 ****         0.7932  -3.1740  -3.2215 C.3            1 S1                 0.0000
     22 ****         0.2520  -1.8040  -2.7829 C.3            1 S1                 0.0000
     23 ****        -3.1336   4.3062   2.8070 C.ar           1 S1                 0.0000
     24 ****        -4.1219   6.8090   4.9446 H              1 S1                 0.0000
     25 ****        -5.0700   6.1075   3.6306 H              1 S1                 0.0000
     26 ****        -3.6786   7.1361   3.2649 H              1 S1                 0.0000
     27 ****        -2.3249   5.4849   5.9074 H              1 S1                 0.0000
     28 ****        -0.3448   4.2043   6.6958 H              1 S1                 0.0000
     29 ****         0.3162   2.8816   5.7326 H              1 S1                 0.0000
     30 ****        -1.1053   2.6091   6.7493 H              1 S1                 0.0000
     31 ****        -2.9288   2.7331   0.9000 H              1 S1                 0.0000
     32 ****        -2.5485   1.3356  -0.4439 H              1 S1                 0.0000
     33 ****        -1.4306  -1.2331   0.2765 H              1 S1                 0.0000
     34 ****        -1.9855  -0.6876  -1.2886 H              1 S1                 0.0000
     35 ****         0.1832   0.5828  -1.6257 H              1 S1                 0.0000
     36 ****         0.6842   0.1161  -0.0195 H              1 S1                 0.0000
     37 ****         2.5782  -0.6494  -1.9986 H              1 S1                 0.0000
     38 ****         2.5152  -1.1981  -0.3351 H              1 S1                 0.0000
     39 ****         3.8732  -2.7032  -1.6948 H              1 S1                 0.0000
     40 ****         2.5010  -3.5491  -1.0162 H              1 S1                 0.0000
     41 ****         2.7487  -2.5447  -3.8994 H              1 S1                 0.0000
     42 ****         2.8687  -5.9971  -5.0607 H              1 S1                 0.0000
     43 ****         2.7407  -4.3139  -5.5770 H              1 S1                 0.0000
     44 ****         1.3479  -5.1659  -4.8923 H              1 S1                 0.0000
     45 ****         4.6260  -5.6688  -3.7586 H              1 S1                 0.0000
     46 ****         4.6700  -4.5443  -2.4294 H              1 S1                 0.0000
     47 ****         4.7445  -3.9389  -4.0915 H              1 S1                 0.0000
     48 ****         0.4271  -3.3584  -4.2307 H              1 S1                 0.0000
     49 ****         0.3645  -3.9511  -2.5866 H              1 S1                 0.0000
     50 ****        -0.8362  -1.8300  -2.8226 H              1 S1                 0.0000
     51 ****         0.5738  -1.0319  -3.4837 H              1 S1                 0.0000
     52 ****        -3.7589   4.5203   1.9522 H              1 S1                 0.0000
     53 ****         0.4149  -2.2055  -0.8021 H              1 S1                 0.0000
     54 ****        -0.8997   2.0906   3.8657 LP             1 S1                 0.0000
     55 ****        -0.7557   1.0389   3.0725 LP             1 S1                 0.0000
     56 ****        -0.4549  -0.1803   1.8796 LP             1 S1                 0.0000
     57 ****         2.4189  -5.1868  -2.7805 LP             1 S1                 0.0000
@<TRIPOS>BOND
    1    1    2 1     
    2    1   24 1     
    3    1   25 1     
    4    1   26 1     
    5    2   23 ar    
    6    2    3 ar    
    7    3    4 ar    
    8    3   27 1     
    9    4    5 1     
   10    4    6 ar    
   11    5   28 1     
   12    5   29 1     
   13    5   30 1     
   14    6    7 ar    
   15    7    8 1     
   16    7   23 ar    
   17    8    9 am    
   18    8   31 1     
   19    9   10 2     
   20    9   11 am    
   21   11   12 1     
   22   11   32 1     
   23   12   13 1     
   24   12   33 1     
   25   12   34 1     
   26   13   14 1     
   27   13   35 1     
   28   13   36 1     
   29   14   22 1     
   30   14   15 1     
   31   14   53 1     
   32   15   16 1     
   33   15   37 1     
   34   15   38 1     
   35   16   17 1     
   36   16   39 1     
   37   16   40 1     
   38   17   18 1     
   39   17   21 1     
   40   17   41 1     
   41   18   19 1     
   42   18   20 1     
   43   19   42 1     
   44   19   43 1     
   45   19   44 1     
   46   20   45 1     
   47   20   46 1     
   48   20   47 1     
   49   21   22 1     
   50   21   48 1     
   51   21   49 1     
   52   22   50 1     
   53   22   51 1     
   54   23   52 1     
   55    6   54 1     
   56   10   55 1     
   57   10   56 1     
   58   18   57 1     
@<TRIPOS>SUBSTRUCTURE
      1 S1             1
@<TRIPOS>SET
LONE_PAIRS      STATIC     ATOMS    <user>   **** ""
4 54 55 56 57
DONOR_HYDROGENS      STATIC     ATOMS    <user>   **** ""
3 31 32 53
ATOM$BLUE        STATIC     ATOMS    COLORGROUP SYSTEM
4 54 55 56 57
ATOM$RED        STATIC     ATOMS    COLORGROUP SYSTEM
3 31 32 53
