AV-unprocessed.smi:2829|AV-procd|sdf|10900|dock2
  -GOLD-   2272015343D 1   1.00000     0.00000
 Structure written by MMmdl.
 50 53  0  0  0  0  0  0  0  0  1 V2000
  144.7654  131.8293  151.8258 C   0  0  0  0  0  0  0  0  0  0  0  0
  144.9540  132.8205  150.6587 C   0  0  0  0  0  0  0  0  0  0  0  0
  146.2776  132.5209  149.9246 C   0  0  0  0  0  0  0  0  0  0  0  0
  143.8021  132.5816  149.6562 C   0  0  0  0  0  0  0  0  0  0  0  0
  144.9743  134.2615  151.1998 C   0  0  0  0  0  0  0  0  0  0  0  0
  145.0750  135.3994  150.3679 C   0  0  0  0  0  0  0  0  0  0  0  0
  145.0785  136.6620  150.9843 C   0  0  0  0  0  0  0  0  0  0  0  0
  144.9819  136.7241  152.3887 C   0  0  0  0  0  0  0  0  0  0  0  0
  144.9804  138.0312  152.9391 N   0  0  0  0  0  0  0  0  0  0  0  0
  145.5478  138.4557  154.0853 C   0  0  0  0  0  0  0  0  0  0  0  0
  146.2613  137.7670  154.8121 O   0  0  0  0  0  0  0  0  0  0  0  0
  145.2726  139.7365  154.3887 N   0  0  0  0  0  0  0  0  0  0  0  0
  145.7326  140.4914  155.5553 C   0  0  2  0  0  0  0  0  0  0  0  0
  144.6933  141.5240  156.0317 C   0  0  1  0  0  0  0  0  0  0  0  0
  144.0698  141.3874  157.3948 C   0  0  0  0  0  0  0  0  0  0  0  0
  144.9088  142.3398  158.2517 C   0  0  0  0  0  0  0  0  0  0  0  0
  146.1400  142.4699  157.5451 O   0  0  0  0  0  0  0  0  0  0  0  0
  145.8314  142.5306  156.1559 C   0  0  1  0  0  0  0  0  0  0  0  0
  146.6984  141.6555  155.2425 C   0  0  0  0  0  0  0  0  0  0  0  0
  147.0148  142.1264  153.8098 C   0  0  0  0  0  0  0  0  0  0  0  0
  148.4152  141.5259  153.9573 C   0  0  0  0  0  0  0  0  0  0  0  0
  148.2103  141.5231  155.4752 C   0  0  0  0  0  0  0  0  0  0  0  0
  144.8898  135.5899  153.1269 N   0  0  0  0  0  0  0  0  0  0  0  0
  144.8857  134.3862  152.5468 N   0  0  0  0  0  0  0  0  0  0  0  0
  144.7283  130.7990  151.4705 H   0  0  0  0  0  0  0  0  0  0  0  0
  143.8375  132.0249  152.3647 H   0  0  0  0  0  0  0  0  0  0  0  0
  145.5824  131.8905  152.5458 H   0  0  0  0  0  0  0  0  0  0  0  0
  147.1374  132.5998  150.5907 H   0  0  0  0  0  0  0  0  0  0  0  0
  146.4374  133.2151  149.0985 H   0  0  0  0  0  0  0  0  0  0  0  0
  146.2839  131.5117  149.5118 H   0  0  0  0  0  0  0  0  0  0  0  0
  143.8074  131.5556  149.2859 H   0  0  0  0  0  0  0  0  0  0  0  0
  143.8827  133.2343  148.7862 H   0  0  0  0  0  0  0  0  0  0  0  0
  142.8268  132.7483  150.1148 H   0  0  0  0  0  0  0  0  0  0  0  0
  145.1461  135.3345  149.2933 H   0  0  0  0  0  0  0  0  0  0  0  0
  145.1500  137.5606  150.3885 H   0  0  0  0  0  0  0  0  0  0  0  0
  144.4400  138.7160  152.4314 H   0  0  0  0  0  0  0  0  0  0  0  0
  144.6881  140.2409  153.7376 H   0  0  0  0  0  0  0  0  0  0  0  0
  146.0873  139.8729  156.3825 H   0  0  0  0  0  0  0  0  0  0  0  0
  143.9977  141.8125  155.2412 H   0  0  0  0  0  0  0  0  0  0  0  0
  143.0150  141.6632  157.4039 H   0  0  0  0  0  0  0  0  0  0  0  0
  144.1511  140.3632  157.7602 H   0  0  0  0  0  0  0  0  0  0  0  0
  144.4319  143.3192  158.3151 H   0  0  0  0  0  0  0  0  0  0  0  0
  145.0643  141.9694  159.2651 H   0  0  0  0  0  0  0  0  0  0  0  0
  145.5898  143.5299  155.7910 H   0  0  0  0  0  0  0  0  0  0  0  0
  146.4141  141.6852  153.0147 H   0  0  0  0  0  0  0  0  0  0  0  0
  147.0414  143.2136  153.7241 H   0  0  0  0  0  0  0  0  0  0  0  0
  148.4930  140.5234  153.5361 H   0  0  0  0  0  0  0  0  0  0  0  0
  149.2229  142.1706  153.6104 H   0  0  0  0  0  0  0  0  0  0  0  0
  148.6395  142.4019  155.9589 H   0  0  0  0  0  0  0  0  0  0  0  0
  148.5167  140.6013  155.9704 H   0  0  0  0  0  0  0  0  0  0  0  0
  1  2  1  0  0  0  0
  1 25  1  0  0  0  0
  1 26  1  0  0  0  0
  1 27  1  0  0  0  0
  2  3  1  0  0  0  0
  2  4  1  0  0  0  0
  2  5  1  0  0  0  0
  3 28  1  0  0  0  0
  3 29  1  0  0  0  0
  3 30  1  0  0  0  0
  4 31  1  0  0  0  0
  4 32  1  0  0  0  0
  4 33  1  0  0  0  0
  5 24  1  0  0  0  0
  5  6  2  0  0  0  0
  6  7  1  0  0  0  0
  6 34  1  0  0  0  0
  7  8  2  0  0  0  0
  7 35  1  0  0  0  0
  8  9  1  0  0  0  0
  8 23  1  0  0  0  0
  9 10  1  0  0  0  0
  9 36  1  0  0  0  0
 10 11  2  0  0  0  0
 10 12  1  0  0  0  0
 12 13  1  0  0  0  0
 12 37  1  0  0  0  0
 13 19  1  0  0  0  0
 13 14  1  0  0  0  0
 13 38  1  0  0  0  0
 14 18  1  0  0  0  0
 14 15  1  0  0  0  0
 14 39  1  0  0  0  0
 15 16  1  0  0  0  0
 15 40  1  0  0  0  0
 15 41  1  0  0  0  0
 16 17  1  0  0  0  0
 16 42  1  0  0  0  0
 16 43  1  0  0  0  0
 17 18  1  0  0  0  0
 18 19  1  0  0  0  0
 18 44  1  0  0  0  0
 19 22  1  0  0  0  0
 19 20  1  0  0  0  0
 20 21  1  0  0  0  0
 20 45  1  0  0  0  0
 20 46  1  0  0  0  0
 21 22  1  0  0  0  0
 21 47  1  0  0  0  0
 21 48  1  0  0  0  0
 22 49  1  0  0  0  0
 22 50  1  0  0  0  0
 23 24  2  0  0  0  0
M  END
> <s_m_source_file>
AV-unprocessed.smi

> <i_m_source_file_index>
2829

> <i_lp_mmshare_version>
43012

> <i_f3d_flags>
0

> <s_epik_input>
W0NIM11DKFtDSDNdKShbQ0gzXSljMVtjSF1bY0hdYyhubjEpW05IXUMoPU8pW05IXVtDQEBIXTJbQ0BIXShbQ0gyXVtDSDJdTzMpW0NAQEhdM0MyNFtDSDJdW0NIMl1bQ0gyXTQ=

> <s_epik_cmdline>
J2VwaWtfcHl0aG9uJywgJy1waCcsICc3LjAnLCAnLXRuJywgJzgnLCAnLW1hJywgJzIwMCcsICctbWV0YWxfYmluZGluZycsICctaW1hZScsICc8aW5maWxlLm1hZT4nLCAnLW9tYWUnLCAnPG91dGZpbGUubWFlPic=

> <r_lp_tautomer_probability>
1

> <r_epik_Ionization_Penalty>
0.011915

> <r_epik_Ionization_Penalty_Charging>
0

> <r_epik_Ionization_Penalty_Neutral>
0.011915

> <r_epik_State_Penalty>
0.00486223

> <r_epik_Charging_Adjusted_Penalty>
0.00486223

> <i_epik_Tot_Q>
0

> <i_epik_Tot_abs_Q>
0

> <r_epik_Metal_State_Penalty>
-0

> <b_epik_Metal_Only>
0

> <s_lp_Force_Field>
OPLS_2005

> <r_lp_Energy>
59.5843

> <b_lp_Chiralities_Consistent>
1

> <s_lp_Variant>
AV-unprocessed.smi:2829-3

> <Gold.Version>
5.8.1

> <Gold.Id.Protein>
6NUR|6NUR_protein|mol2

> <Gold.PLP.Fitness>
36.4935

> <Gold.PLP.PLP>
-31.3539

> <Gold.PLP.part.hbond>
-2.0000

> <Gold.PLP.part.metal>
0.0000

> <Gold.PLP.part.buried>
0.5589

> <Gold.PLP.part.nonpolar>
-30.2229

> <Gold.PLP.part.repulsive>
0.2992

> <Gold.PLP.ligand.clash>
0.0000

> <Gold.PLP.ligand.torsion>
0.4935

> <Gold.PLP.Chemscore.Hbond>
1.9760

> <Gold.PLP.Chemscore.CHOScore>
0.0000

> <Gold.PLP.Chemscore.Metal>
0.0000

> <Gold.Chemscore.Hbonds>
donor molecule, donor type, donor heavy atom, donor atom, acceptor molecule, acceptor atom, score
      L1  H     9    36       P1 10175  0.94
      L1  H    12    37       P1 10175  1.00

> <Gold.PLP.Chemscore.Internal.Correction>
0.1986

> <Gold.Rescore>
     Score         DG    S(hbond)    S(metal)    S(lipo)     H(rot)  DE(clash)    DE(int)     intcor
     17.01     -19.22       1.96        0.00      86.99       1.16       1.70       0.50       ----

> <Gold.Chemscore.Fitness>
17.0149

> <Gold.Chemscore.DG>
-19.2175

> <Gold.Chemscore.ZeroCoef>
-5.4800

> <Gold.Chemscore.Hbond>
1.9563

> <Gold.Chemscore.Metal>
0.0000

> <Gold.Chemscore.Lipo>
86.9873

> <Gold.Chemscore.Internal_Hbond>
0.0000

> <Gold.Chemscore.DEClash>
1.7048

> <Gold.Chemscore.DEInternal>
0.4979

> <Gold.Chemscore.Rot>
1.1618

> <Gold.Chemscore.Internal.Correction>
   9.000000E+99

> <Gold.Chemscore.Hbonds>
donor molecule, donor type, donor heavy atom, donor atom, acceptor molecule, acceptor atom, score
      L1  H     9    36       P1 10175  0.91
      L1  H    12    37       P1 10175  0.99

> <Gold.Chemscore.Hbond.Weighted>
-6.5341

> <Gold.Chemscore.Metal.Weighted>
-0.0000

> <Gold.Chemscore.Lipo.Weighted>
-10.1775

> <Gold.Chemscore.Internal_Hbond.Weighted>
0.0000

> <Gold.Chemscore.DEClash.Weighted>
1.7048

> <Gold.Chemscore.DEInternal.Weighted>
0.4979

> <Gold.Chemscore.Rot.Weighted>
2.9741

> <Gold.Chemscore.Internal.Correction.Weighted>
   9.000000E+99

> <Gold.Protein.RotatedTorsions>
[ 6907 6896 6895 6894 ] final  137.40 input  -60.11 | X-H torsion
[ 7974 7965 7964 7962 ] final  163.64 input  175.53 | X-H torsion
[ 8008 7997 7996 7995 ] final   90.96 input   59.86 | X-H torsion
[ 10167 10162 10161 10158 ] final  -96.16 input  -65.29 | X-H torsion
[ 10718 10713 10712 10709 ] final   23.12 input   66.30 | X-H torsion
[ 10763 10752 10751 10750 ] final   82.93 input  -60.55 | X-H torsion
[ 11005 11000 10999 10996 ] final  -90.45 input  -57.11 | X-H torsion

> <Gold.Protein.ActiveResidues>
 VAL166  LYS551  ARG553  GLY616  TRP617  ASP618  TYR619  PRO620  LYS621  CYS622 
 ASP623  PHE694  ASN695  SER759  ASP760  ASP761  ALA762  ILE779  LEU786  VAL792 
 PHE793  MET794  SER795  GLU796  ALA797  LYS798  CYS799  TRP800  GLU811  SER814 

> <Gold.Protein.RotatedAtoms>
  152.2785  133.5448  159.5482 H   0  0  0  0  0  0  0  0  0  0  0  0  # atno 6907 bound_to 6896
  150.7186  134.0598  159.3836 H   0  0  0  0  0  0  0  0  0  0  0  0  # atno 6908 bound_to 6896
  151.8510  135.0558  160.0510 H   0  0  0  0  0  0  0  0  0  0  0  0  # atno 6909 bound_to 6896
  144.7581  139.8211  143.6342 H   0  0  0  0  0  0  0  0  0  0  0  0  # atno 7974 bound_to 7965
  156.0182  140.3343  155.7010 H   0  0  0  0  0  0  0  0  0  0  0  0  # atno 8008 bound_to 7997
  155.6061  140.0660  157.2737 H   0  0  0  0  0  0  0  0  0  0  0  0  # atno 8009 bound_to 7997
  154.4306  140.1802  156.1211 H   0  0  0  0  0  0  0  0  0  0  0  0  # atno 8010 bound_to 7997
  140.2967  143.3187  152.0290 H   0  0  0  0  0  0  0  0  0  0  0  0  # atno 10167 bound_to 10162
  157.1618  130.6720  149.6046 H   0  0  0  0  0  0  0  0  0  0  0  0  # atno 10718 bound_to 10713
  153.1246  135.4710  154.9251 H   0  0  0  0  0  0  0  0  0  0  0  0  # atno 10763 bound_to 10752
  154.7608  135.3131  154.8385 H   0  0  0  0  0  0  0  0  0  0  0  0  # atno 10764 bound_to 10752
  153.8941  135.6882  153.4812 H   0  0  0  0  0  0  0  0  0  0  0  0  # atno 10765 bound_to 10752
  141.1565  133.7693  156.9739 H   0  0  0  0  0  0  0  0  0  0  0  0  # atno 11005 bound_to 11000
  146.1614  139.4729  142.9986 LP  0  0  0  0  0  0  0  0  0  0  0  0  # atno 17320 bound_to 7965
  145.6712  141.0216  143.1657 LP  0  0  0  0  0  0  0  0  0  0  0  0  # atno 17321 bound_to 7965
  139.4925  144.6486  151.6725 LP  0  0  0  0  0  0  0  0  0  0  0  0  # atno 17342 bound_to 10162
  140.5686  144.0147  150.6205 LP  0  0  0  0  0  0  0  0  0  0  0  0  # atno 17343 bound_to 10162
  155.9752  130.4709  150.6446 LP  0  0  0  0  0  0  0  0  0  0  0  0  # atno 17370 bound_to 10713
  157.4126  131.0825  151.1207 LP  0  0  0  0  0  0  0  0  0  0  0  0  # atno 17371 bound_to 10713
  140.1111  134.9476  157.2067 LP  0  0  0  0  0  0  0  0  0  0  0  0  # atno 17394 bound_to 11000
  140.3193  134.2935  155.7250 LP  0  0  0  0  0  0  0  0  0  0  0  0  # atno 17395 bound_to 11000

$$$$
