AV-unprocessed.smi:2705|AV-procd|sdf|10443|dock6
  -GOLD-   2272014483D 1   1.00000     0.00000
 Structure written by MMmdl.
 36 37  0  0  0  0  0  0  0  0  1 V2000
  151.9084  144.3692  157.3380 C   0  0  0  0  0  0  0  0  0  0  0  0
  151.4369  143.5415  158.5561 C   0  0  0  0  0  0  0  0  0  0  0  0
  150.3514  142.6406  158.1439 N   0  0  0  0  0  0  0  0  0  0  0  0
  150.4316  141.4769  157.4731 C   0  0  0  0  0  0  0  0  0  0  0  0
  151.4876  140.9508  157.1246 O   0  0  0  0  0  0  0  0  0  0  0  0
  149.1011  140.8108  157.1256 C   0  0  0  0  0  0  0  0  0  0  0  0
  148.8986  140.7888  155.6887 N   0  0  0  0  0  0  0  0  0  0  0  0
  149.1963  141.6858  154.7458 C   0  0  0  0  0  0  0  0  0  0  0  0
  148.8471  141.2634  153.5405 N   0  0  0  0  0  0  0  0  0  0  0  0
  148.2977  140.0171  153.7915 N   0  0  0  0  0  0  0  0  0  0  0  0
  148.3257  139.7301  155.0642 N   0  0  0  0  0  0  0  0  0  0  0  0
  152.6158  142.6390  159.0024 C   0  0  0  0  0  0  0  0  0  0  0  0
  152.4899  142.0097  160.4019 C   0  0  0  0  0  0  0  0  0  0  0  0
  153.1001  142.8953  161.5023 C   0  0  0  0  0  0  0  0  0  0  0  0
  152.2977  144.1642  161.8282 C   0  0  0  0  0  0  0  0  0  0  0  0
  152.0017  145.0714  160.6203 C   0  0  0  0  0  0  0  0  0  0  0  0
  150.9285  144.4830  159.6863 C   0  0  0  0  0  0  0  0  0  0  0  0
  152.7541  145.0068  157.5967 H   0  0  0  0  0  0  0  0  0  0  0  0
  151.1266  145.0237  156.9530 H   0  0  0  0  0  0  0  0  0  0  0  0
  152.2265  143.7231  156.5188 H   0  0  0  0  0  0  0  0  0  0  0  0
  149.4218  142.9589  158.3761 H   0  0  0  0  0  0  0  0  0  0  0  0
  149.0811  139.7905  157.5120 H   0  0  0  0  0  0  0  0  0  0  0  0
  148.2740  141.3491  157.5905 H   0  0  0  0  0  0  0  0  0  0  0  0
  149.6706  142.6366  154.9405 H   0  0  0  0  0  0  0  0  0  0  0  0
  152.7370  141.8377  158.2714 H   0  0  0  0  0  0  0  0  0  0  0  0
  153.5537  143.1938  158.9514 H   0  0  0  0  0  0  0  0  0  0  0  0
  151.4558  141.7503  160.6314 H   0  0  0  0  0  0  0  0  0  0  0  0
  153.0382  141.0670  160.3975 H   0  0  0  0  0  0  0  0  0  0  0  0
  153.1922  142.3060  162.4151 H   0  0  0  0  0  0  0  0  0  0  0  0
  154.1195  143.1693  161.2279 H   0  0  0  0  0  0  0  0  0  0  0  0
  151.3632  143.8893  162.3186 H   0  0  0  0  0  0  0  0  0  0  0  0
  152.8570  144.7387  162.5673 H   0  0  0  0  0  0  0  0  0  0  0  0
  151.6241  146.0180  161.0083 H   0  0  0  0  0  0  0  0  0  0  0  0
  152.9139  145.3189  160.0767 H   0  0  0  0  0  0  0  0  0  0  0  0
  150.3838  145.3124  159.2331 H   0  0  0  0  0  0  0  0  0  0  0  0
  150.1851  143.9691  160.2980 H   0  0  0  0  0  0  0  0  0  0  0  0
  1  2  1  0  0  0  0
  1 18  1  0  0  0  0
  1 19  1  0  0  0  0
  1 20  1  0  0  0  0
  2 17  1  0  0  0  0
  2  3  1  0  0  0  0
  2 12  1  0  0  0  0
  3  4  1  0  0  0  0
  3 21  1  0  0  0  0
  4  5  2  0  0  0  0
  4  6  1  0  0  0  0
  6  7  1  0  0  0  0
  6 22  1  0  0  0  0
  6 23  1  0  0  0  0
  7 11  1  0  0  0  0
  7  8  1  0  0  0  0
  8  9  2  0  0  0  0
  8 24  1  0  0  0  0
  9 10  1  0  0  0  0
 10 11  2  0  0  0  0
 12 13  1  0  0  0  0
 12 25  1  0  0  0  0
 12 26  1  0  0  0  0
 13 14  1  0  0  0  0
 13 27  1  0  0  0  0
 13 28  1  0  0  0  0
 14 15  1  0  0  0  0
 14 29  1  0  0  0  0
 14 30  1  0  0  0  0
 15 16  1  0  0  0  0
 15 31  1  0  0  0  0
 15 32  1  0  0  0  0
 16 17  1  0  0  0  0
 16 33  1  0  0  0  0
 16 34  1  0  0  0  0
 17 35  1  0  0  0  0
 17 36  1  0  0  0  0
M  END
> <s_m_source_file>
AV-unprocessed.smi

> <i_m_source_file_index>
2705

> <i_lp_mmshare_version>
43012

> <i_f3d_flags>
0

> <s_epik_input>
W0NIMl0xW0NIMl1bQ0gyXVtDSDJdW0NIMl1bQ0gyXUMxKFtDSDNdKVtOSF1DKD1PKVtDSDJdbjJbY0hdbm5uMg==

> <s_epik_cmdline>
J2VwaWtfcHl0aG9uJywgJy1waCcsICc3LjAnLCAnLXRuJywgJzgnLCAnLW1hJywgJzIwMCcsICctbWV0YWxfYmluZGluZycsICctaW1hZScsICc8aW5maWxlLm1hZT4nLCAnLW9tYWUnLCAnPG91dGZpbGUubWFlPic=

> <r_lp_tautomer_probability>
1

> <r_epik_Ionization_Penalty>
4.39395e-07

> <r_epik_Ionization_Penalty_Charging>
0

> <r_epik_Ionization_Penalty_Neutral>
4.39395e-07

> <r_epik_State_Penalty>
-0

> <r_epik_Charging_Adjusted_Penalty>
0

> <i_epik_Tot_Q>
0

> <i_epik_Tot_abs_Q>
0

> <r_epik_Metal_State_Penalty>
-0

> <b_epik_Metal_Only>
0

> <s_lp_Force_Field>
OPLS_2005

> <r_lp_Energy>
20.5987

> <b_lp_Chiralities_Consistent>
1

> <s_lp_Variant>
AV-unprocessed.smi:2705-1

> <Gold.Version>
5.8.1

> <Gold.Id.Protein>
6NUR|6NUR_protein|mol2

> <Gold.PLP.Fitness>
37.8850

> <Gold.PLP.PLP>
-33.6351

> <Gold.PLP.part.hbond>
-1.2499

> <Gold.PLP.part.metal>
0.0000

> <Gold.PLP.part.buried>
-5.2846

> <Gold.PLP.part.nonpolar>
-29.5390

> <Gold.PLP.part.repulsive>
3.8342

> <Gold.PLP.ligand.clash>
0.0000

> <Gold.PLP.ligand.torsion>
0.7470

> <Gold.PLP.Chemscore.Hbond>
0.9120

> <Gold.PLP.Chemscore.CHOScore>
1.0000

> <Gold.PLP.Chemscore.Metal>
0.0000

> <Gold.Chemscore.Hbonds>
donor molecule, donor type, donor heavy atom, donor atom, acceptor molecule, acceptor atom, score
      P1  H  8011  8017       L1     9  0.91
      L1  C     8    24       P1  8028  1.00

> <Gold.PLP.Chemscore.Internal.Correction>
0.0080

> <Gold.Rescore>
     Score         DG    S(hbond)    S(metal)    S(lipo)     H(rot)  DE(clash)    DE(int)     intcor
      9.46     -12.83       0.32        0.00      95.25       1.91       1.33       2.03       ----

> <Gold.Chemscore.Fitness>
9.4649

> <Gold.Chemscore.DG>
-12.8254

> <Gold.Chemscore.ZeroCoef>
-5.4800

> <Gold.Chemscore.Hbond>
0.3234

> <Gold.Chemscore.Metal>
0.0000

> <Gold.Chemscore.Lipo>
95.2488

> <Gold.Chemscore.Internal_Hbond>
0.0000

> <Gold.Chemscore.DEClash>
1.3256

> <Gold.Chemscore.DEInternal>
2.0350

> <Gold.Chemscore.Rot>
1.9058

> <Gold.Chemscore.Internal.Correction>
   9.000000E+99

> <Gold.Chemscore.Hbonds>
donor molecule, donor type, donor heavy atom, donor atom, acceptor molecule, acceptor atom, score
      P1  H  8011  8017       L1     9  0.44

> <Gold.Chemscore.Hbond.Weighted>
-1.0801

> <Gold.Chemscore.Metal.Weighted>
-0.0000

> <Gold.Chemscore.Lipo.Weighted>
-11.1441

> <Gold.Chemscore.Internal_Hbond.Weighted>
0.0000

> <Gold.Chemscore.DEClash.Weighted>
1.3256

> <Gold.Chemscore.DEInternal.Weighted>
2.0350

> <Gold.Chemscore.Rot.Weighted>
4.8788

> <Gold.Chemscore.Internal.Correction.Weighted>
   9.000000E+99

> <Gold.Protein.RotatedTorsions>
[ 6907 6896 6895 6894 ] final  -29.73 input  -60.11 | X-H torsion
[ 7974 7965 7964 7962 ] final  177.30 input  175.53 | X-H torsion
[ 8008 7997 7996 7995 ] final  166.89 input   59.86 | X-H torsion
[ 10167 10162 10161 10158 ] final   16.12 input  -65.29 | X-H torsion
[ 10718 10713 10712 10709 ] final  -39.15 input   66.30 | X-H torsion
[ 10763 10752 10751 10750 ] final  -19.21 input  -60.55 | X-H torsion
[ 11005 11000 10999 10996 ] final   23.76 input  -57.11 | X-H torsion

> <Gold.Protein.ActiveResidues>
 VAL166  LYS551  ARG553  GLY616  TRP617  ASP618  TYR619  PRO620  LYS621  CYS622 
 ASP623  PHE694  ASN695  SER759  ASP760  ASP761  ALA762  ILE779  LEU786  VAL792 
 PHE793  MET794  SER795  GLU796  ALA797  LYS798  CYS799  TRP800  GLU811  SER814 

> <Gold.Protein.RotatedAtoms>
  151.1152  135.0049  159.8512 H   0  0  0  0  0  0  0  0  0  0  0  0  # atno 6907 bound_to 6896
  152.5445  134.1788  159.8637 H   0  0  0  0  0  0  0  0  0  0  0  0  # atno 6908 bound_to 6896
  151.1842  133.4662  159.2627 H   0  0  0  0  0  0  0  0  0  0  0  0  # atno 6909 bound_to 6896
  144.7171  140.0226  143.6440 H   0  0  0  0  0  0  0  0  0  0  0  0  # atno 7974 bound_to 7965
  156.1680  140.1631  156.8498 H   0  0  0  0  0  0  0  0  0  0  0  0  # atno 8008 bound_to 7997
  154.5227  140.0774  156.8236 H   0  0  0  0  0  0  0  0  0  0  0  0  # atno 8009 bound_to 7997
  155.3572  140.3393  155.4242 H   0  0  0  0  0  0  0  0  0  0  0  0  # atno 8010 bound_to 7997
  140.5820  143.8963  150.6798 H   0  0  0  0  0  0  0  0  0  0  0  0  # atno 10167 bound_to 10162
  156.2957  130.4234  149.8193 H   0  0  0  0  0  0  0  0  0  0  0  0  # atno 10718 bound_to 10713
  153.6012  135.6999  153.5384 H   0  0  0  0  0  0  0  0  0  0  0  0  # atno 10763 bound_to 10752
  153.3095  135.4105  155.1323 H   0  0  0  0  0  0  0  0  0  0  0  0  # atno 10764 bound_to 10752
  154.8582  135.3668  154.5547 H   0  0  0  0  0  0  0  0  0  0  0  0  # atno 10765 bound_to 10752
  140.3661  134.2073  155.7669 H   0  0  0  0  0  0  0  0  0  0  0  0  # atno 11005 bound_to 11000
  146.0168  139.3216  143.0837 LP  0  0  0  0  0  0  0  0  0  0  0  0  # atno 17320 bound_to 7965
  145.8616  140.9472  143.0697 LP  0  0  0  0  0  0  0  0  0  0  0  0  # atno 17321 bound_to 7965
  140.2464  143.3625  152.1443 LP  0  0  0  0  0  0  0  0  0  0  0  0  # atno 17342 bound_to 10162
  139.5175  144.6993  151.5540 LP  0  0  0  0  0  0  0  0  0  0  0  0  # atno 17343 bound_to 10162
  156.5590  130.8375  151.3323 LP  0  0  0  0  0  0  0  0  0  0  0  0  # atno 17370 bound_to 10713
  157.7354  130.9762  150.2083 LP  0  0  0  0  0  0  0  0  0  0  0  0  # atno 17371 bound_to 10713
  141.1969  133.8071  157.0651 LP  0  0  0  0  0  0  0  0  0  0  0  0  # atno 17394 bound_to 11000
  140.0588  134.9766  157.1268 LP  0  0  0  0  0  0  0  0  0  0  0  0  # atno 17395 bound_to 11000

$$$$
