AV-unprocessed.smi:2730|AV-procd|sdf|10528|dock8
  -GOLD-   2272014573D 1   1.00000     0.00000
 Structure written by MMmdl.
 43 44  0  0  0  0  0  0  0  0  1 V2000
  148.0035  133.3619  153.3045 C   0  0  0  0  0  0  0  0  0  0  0  0
  149.4468  133.4154  153.8268 C   0  0  0  0  0  0  0  0  0  0  0  0
  149.6109  134.2436  155.1175 C   0  0  2  0  0  0  0  0  0  0  0  0
  148.4186  134.0746  156.0772 C   0  0  0  0  0  0  0  0  0  0  0  0
  148.7580  134.3087  157.4895 C   0  0  0  0  0  0  0  0  0  0  0  0
  149.0253  134.4932  158.6000 N   0  0  0  0  0  0  0  0  0  0  0  0
  149.7854  135.6563  154.7881 N   0  0  0  0  0  0  0  0  0  0  0  0
  150.1822  136.6076  155.6456 C   0  0  0  0  0  0  0  0  0  0  0  0
  150.4369  136.3895  156.8304 O   0  0  0  0  0  0  0  0  0  0  0  0
  150.2598  137.8053  155.0400 N   0  0  0  0  0  0  0  0  0  0  0  0
  150.6374  139.0510  155.6047 C   0  0  0  0  0  0  0  0  0  0  0  0
  150.6552  140.2354  154.9196 N   0  0  0  0  0  0  0  0  0  0  0  0
  151.0679  141.0360  155.8932 C   0  0  0  0  0  0  0  0  0  0  0  0
  151.2832  140.4132  157.0557 N   0  0  0  0  0  0  0  0  0  0  0  0
  151.7332  140.9425  158.3339 C   0  0  0  0  0  0  0  0  0  0  0  0
  151.9287  142.4720  158.2773 C   0  0  0  0  0  0  0  0  0  0  0  0
  152.3940  143.0254  159.6341 C   0  0  0  0  0  0  0  0  0  0  0  0
  153.6741  142.3221  160.1136 C   0  0  0  0  0  0  0  0  0  0  0  0
  153.4838  140.7978  160.1722 C   0  0  0  0  0  0  0  0  0  0  0  0
  153.0208  140.2416  158.8156 C   0  0  0  0  0  0  0  0  0  0  0  0
  151.0031  139.0971  156.8838 N   0  0  0  0  0  0  0  0  0  0  0  0
  147.9527  132.8066  152.3678 H   0  0  0  0  0  0  0  0  0  0  0  0
  147.6167  134.3638  153.1173 H   0  0  0  0  0  0  0  0  0  0  0  0
  147.3361  132.8711  154.0131 H   0  0  0  0  0  0  0  0  0  0  0  0
  149.8084  132.4001  153.9935 H   0  0  0  0  0  0  0  0  0  0  0  0
  150.0773  133.8351  153.0428 H   0  0  0  0  0  0  0  0  0  0  0  0
  150.5104  133.8910  155.6262 H   0  0  0  0  0  0  0  0  0  0  0  0
  147.6172  134.7676  155.8196 H   0  0  0  0  0  0  0  0  0  0  0  0
  148.0074  133.0676  155.9996 H   0  0  0  0  0  0  0  0  0  0  0  0
  149.5981  135.9255  153.8333 H   0  0  0  0  0  0  0  0  0  0  0  0
  150.0215  137.8303  154.0597 H   0  0  0  0  0  0  0  0  0  0  0  0
  151.2163  142.0970  155.7559 H   0  0  0  0  0  0  0  0  0  0  0  0
  150.9453  140.7317  159.0592 H   0  0  0  0  0  0  0  0  0  0  0  0
  152.6656  142.7284  157.5149 H   0  0  0  0  0  0  0  0  0  0  0  0
  150.9975  142.9573  157.9825 H   0  0  0  0  0  0  0  0  0  0  0  0
  152.5666  144.0993  159.5575 H   0  0  0  0  0  0  0  0  0  0  0  0
  151.6041  142.8909  160.3741 H   0  0  0  0  0  0  0  0  0  0  0  0
  154.4970  142.5614  159.4388 H   0  0  0  0  0  0  0  0  0  0  0  0
  153.9600  142.6992  161.0959 H   0  0  0  0  0  0  0  0  0  0  0  0
  154.4161  140.3185  160.4719 H   0  0  0  0  0  0  0  0  0  0  0  0
  152.7485  140.5503  160.9390 H   0  0  0  0  0  0  0  0  0  0  0  0
  152.8533  139.1670  158.8971 H   0  0  0  0  0  0  0  0  0  0  0  0
  153.8180  140.3755  158.0828 H   0  0  0  0  0  0  0  0  0  0  0  0
  1  2  1  0  0  0  0
  1 22  1  0  0  0  0
  1 23  1  0  0  0  0
  1 24  1  0  0  0  0
  2  3  1  0  0  0  0
  2 25  1  0  0  0  0
  2 26  1  0  0  0  0
  3  4  1  0  0  0  0
  3  7  1  0  0  0  0
  3 27  1  0  0  0  0
  4  5  1  0  0  0  0
  4 28  1  0  0  0  0
  4 29  1  0  0  0  0
  5  6  3  0  0  0  0
  7  8  1  0  0  0  0
  7 30  1  0  0  0  0
  8  9  2  0  0  0  0
  8 10  1  0  0  0  0
 10 11  1  0  0  0  0
 10 31  1  0  0  0  0
 11 21  2  0  0  0  0
 11 12  1  0  0  0  0
 12 13  2  0  0  0  0
 13 14  1  0  0  0  0
 13 32  1  0  0  0  0
 14 15  1  0  0  0  0
 14 21  1  0  0  0  0
 15 20  1  0  0  0  0
 15 16  1  0  0  0  0
 15 33  1  0  0  0  0
 16 17  1  0  0  0  0
 16 34  1  0  0  0  0
 16 35  1  0  0  0  0
 17 18  1  0  0  0  0
 17 36  1  0  0  0  0
 17 37  1  0  0  0  0
 18 19  1  0  0  0  0
 18 38  1  0  0  0  0
 18 39  1  0  0  0  0
 19 20  1  0  0  0  0
 19 40  1  0  0  0  0
 19 41  1  0  0  0  0
 20 42  1  0  0  0  0
 20 43  1  0  0  0  0
M  END
> <s_m_source_file>
AV-unprocessed.smi

> <i_m_source_file_index>
2730

> <i_lp_mmshare_version>
43012

> <i_f3d_flags>
0

> <s_epik_input>
TiNDW0NIMl1bQ0BASF0oW0NIMl1bQ0gzXSlbTkhdQyg9TylbTkhdYzFuW2NIXW4objEpW0NIXTJbQ0gyXVtDSDJdW0NIMl1bQ0gyXVtDSDJdMg==

> <s_epik_cmdline>
J2VwaWtfcHl0aG9uJywgJy1waCcsICc3LjAnLCAnLXRuJywgJzgnLCAnLW1hJywgJzIwMCcsICctbWV0YWxfYmluZGluZycsICctaW1hZScsICc8aW5maWxlLm1hZT4nLCAnLW9tYWUnLCAnPG91dGZpbGUubWFlPic=

> <r_lp_tautomer_probability>
1

> <r_epik_Ionization_Penalty>
7.18854e-05

> <r_epik_Ionization_Penalty_Charging>
0

> <r_epik_Ionization_Penalty_Neutral>
7.18854e-05

> <r_epik_State_Penalty>
-0

> <r_epik_Charging_Adjusted_Penalty>
0

> <i_epik_Tot_Q>
0

> <i_epik_Tot_abs_Q>
0

> <r_epik_Metal_State_Penalty>
-0

> <b_epik_Metal_Only>
0

> <s_lp_Force_Field>
OPLS_2005

> <r_lp_Energy>
15.2848

> <b_lp_Chiralities_Consistent>
1

> <s_lp_Variant>
AV-unprocessed.smi:2730-1

> <Gold.Version>
5.8.1

> <Gold.Id.Protein>
6NUR|6NUR_protein|mol2

> <Gold.PLP.Fitness>
43.5580

> <Gold.PLP.PLP>
-35.7817

> <Gold.PLP.part.hbond>
-3.0000

> <Gold.PLP.part.metal>
0.0000

> <Gold.PLP.part.buried>
-4.7785

> <Gold.PLP.part.nonpolar>
-28.0539

> <Gold.PLP.part.repulsive>
0.1513

> <Gold.PLP.ligand.clash>
0.0000

> <Gold.PLP.ligand.torsion>
0.6414

> <Gold.PLP.Chemscore.Hbond>
3.0000

> <Gold.PLP.Chemscore.CHOScore>
0.0000

> <Gold.PLP.Chemscore.Metal>
0.0000

> <Gold.Chemscore.Hbonds>
donor molecule, donor type, donor heavy atom, donor atom, acceptor molecule, acceptor atom, score
      L1  H     7    30       P1  7948  0.93
      P1  H  6896  6908       L1     6  1.00
      P1  H  7989  7998       L1    12  1.00

> <Gold.PLP.Chemscore.Internal.Correction>
0.0591

> <Gold.Rescore>
     Score         DG    S(hbond)    S(metal)    S(lipo)     H(rot)  DE(clash)    DE(int)     intcor
     13.16     -17.40       2.37        0.00      74.16       1.82       0.91       3.33       ----

> <Gold.Chemscore.Fitness>
13.1571

> <Gold.Chemscore.DG>
-17.4014

> <Gold.Chemscore.ZeroCoef>
-5.4800

> <Gold.Chemscore.Hbond>
2.3701

> <Gold.Chemscore.Metal>
0.0000

> <Gold.Chemscore.Lipo>
74.1620

> <Gold.Chemscore.Internal_Hbond>
0.0000

> <Gold.Chemscore.DEClash>
0.9128

> <Gold.Chemscore.DEInternal>
3.3316

> <Gold.Chemscore.Rot>
1.8249

> <Gold.Chemscore.Internal.Correction>
   9.000000E+99

> <Gold.Chemscore.Hbonds>
donor molecule, donor type, donor heavy atom, donor atom, acceptor molecule, acceptor atom, score
      L1  H     7    30       P1  7948  0.35
      P1  H  6896  6908       L1     6  1.00
      P1  H  7989  7998       L1    12  0.30

> <Gold.Chemscore.Hbond.Weighted>
-7.9162

> <Gold.Chemscore.Metal.Weighted>
-0.0000

> <Gold.Chemscore.Lipo.Weighted>
-8.6770

> <Gold.Chemscore.Internal_Hbond.Weighted>
0.0000

> <Gold.Chemscore.DEClash.Weighted>
0.9128

> <Gold.Chemscore.DEInternal.Weighted>
3.3316

> <Gold.Chemscore.Rot.Weighted>
4.6718

> <Gold.Chemscore.Internal.Correction.Weighted>
   9.000000E+99

> <Gold.Protein.RotatedTorsions>
[ 6907 6896 6895 6894 ] final  145.47 input  -60.11 | X-H torsion
[ 7974 7965 7964 7962 ] final  -87.07 input  175.53 | X-H torsion
[ 8008 7997 7996 7995 ] final  -68.90 input   59.86 | X-H torsion
[ 10167 10162 10161 10158 ] final  -19.45 input  -65.29 | X-H torsion
[ 10718 10713 10712 10709 ] final   28.03 input   66.30 | X-H torsion
[ 10763 10752 10751 10750 ] final -101.13 input  -60.55 | X-H torsion
[ 11005 11000 10999 10996 ] final   43.49 input  -57.11 | X-H torsion

> <Gold.Protein.ActiveResidues>
 VAL166  LYS551  ARG553  GLY616  TRP617  ASP618  TYR619  PRO620  LYS621  CYS622 
 ASP623  PHE694  ASN695  SER759  ASP760  ASP761  ALA762  ILE779  LEU786  VAL792 
 PHE793  MET794  SER795  GLU796  ALA797  LYS798  CYS799  TRP800  GLU811  SER814 

> <Gold.Protein.RotatedAtoms>
  152.1805  133.4704  159.4955 H   0  0  0  0  0  0  0  0  0  0  0  0  # atno 6907 bound_to 6896
  150.6934  134.1839  159.4268 H   0  0  0  0  0  0  0  0  0  0  0  0  # atno 6908 bound_to 6896
  151.9750  135.0057  160.0605 H   0  0  0  0  0  0  0  0  0  0  0  0  # atno 6909 bound_to 6896
  145.4714  140.9559  143.1915 H   0  0  0  0  0  0  0  0  0  0  0  0  # atno 7974 bound_to 7965
  154.4900  140.0864  156.7573 H   0  0  0  0  0  0  0  0  0  0  0  0  # atno 8008 bound_to 7997
  155.4254  140.3447  155.4257 H   0  0  0  0  0  0  0  0  0  0  0  0  # atno 8009 bound_to 7997
  156.1316  140.1503  156.9044 H   0  0  0  0  0  0  0  0  0  0  0  0  # atno 8010 bound_to 7997
  140.7268  143.4817  151.0108 H   0  0  0  0  0  0  0  0  0  0  0  0  # atno 10167 bound_to 10162
  157.2281  130.7010  149.6301 H   0  0  0  0  0  0  0  0  0  0  0  0  # atno 10718 bound_to 10713
  154.7634  135.4909  153.9508 H   0  0  0  0  0  0  0  0  0  0  0  0  # atno 10763 bound_to 10752
  153.1278  135.6746  153.9235 H   0  0  0  0  0  0  0  0  0  0  0  0  # atno 10764 bound_to 10752
  153.8948  135.3116  155.3426 H   0  0  0  0  0  0  0  0  0  0  0  0  # atno 10765 bound_to 10752
  140.1640  134.4306  155.8299 H   0  0  0  0  0  0  0  0  0  0  0  0  # atno 11005 bound_to 11000
  144.7943  139.6266  143.7099 LP  0  0  0  0  0  0  0  0  0  0  0  0  # atno 17320 bound_to 7965
  146.2394  139.5971  142.9501 LP  0  0  0  0  0  0  0  0  0  0  0  0  # atno 17321 bound_to 7965
  139.8516  143.7431  152.3178 LP  0  0  0  0  0  0  0  0  0  0  0  0  # atno 17342 bound_to 10162
  139.7615  144.7505  151.0357 LP  0  0  0  0  0  0  0  0  0  0  0  0  # atno 17343 bound_to 10162
  155.9677  130.4498  150.5671 LP  0  0  0  0  0  0  0  0  0  0  0  0  # atno 17370 bound_to 10713
  157.3506  131.0733  151.1716 LP  0  0  0  0  0  0  0  0  0  0  0  0  # atno 17371 bound_to 10713
  141.2212  133.6926  156.7644 LP  0  0  0  0  0  0  0  0  0  0  0  0  # atno 17394 bound_to 11000
  140.2456  134.8580  157.3617 LP  0  0  0  0  0  0  0  0  0  0  0  0  # atno 17395 bound_to 11000

$$$$
