AV-unprocessed.smi:2478|AV-procd|sdf|9763|dock7
  -GOLD-   2272013403D 1   1.00000     0.00000
 Structure written by MMmdl.
 42 43  0  0  0  0  0  0  0  0  1 V2000
  147.0036  141.4824  157.8754 C   0  0  0  0  0  0  0  0  0  0  0  0
  147.2808  141.9690  156.4435 C   0  0  2  0  0  0  0  0  0  0  0  0
  145.9672  142.0778  155.6426 C   0  0  0  0  0  0  0  0  0  0  0  0
  146.2137  142.5548  154.2035 C   0  0  0  0  0  0  0  0  0  0  0  0
  147.2098  141.6363  153.4828 C   0  0  0  0  0  0  0  0  0  0  0  0
  148.5269  141.5308  154.2649 C   0  0  0  0  0  0  0  0  0  0  0  0
  148.2923  141.0550  155.7146 C   0  0  1  0  0  0  0  0  0  0  0  0
  149.5209  141.1022  156.4301 O   0  0  0  0  0  0  0  0  0  0  0  0
  150.5835  140.3860  155.8177 C   0  0  0  0  0  0  0  0  0  0  0  0
  151.7525  140.3145  156.7982 C   0  0  0  0  0  0  0  0  0  0  0  0
  152.8064  139.7860  156.4440 O   0  0  0  0  0  0  0  0  0  0  0  0
  151.5341  140.8547  158.0115 N   0  0  0  0  0  0  0  0  0  0  0  0
  152.4144  140.9133  159.1268 C   0  0  0  0  0  0  0  0  0  0  0  0
  153.3006  139.9295  159.4223 N   0  0  0  0  0  0  0  0  0  0  0  0
  154.0933  140.0552  160.5055 C   0  0  0  0  0  0  0  0  0  0  0  0
  154.0481  141.1669  161.3636 C   0  0  0  0  0  0  0  0  0  0  0  0
  153.1356  142.1945  161.0695 C   0  0  0  0  0  0  0  0  0  0  0  0
  152.3069  142.0787  159.9273 C   0  0  0  0  0  0  0  0  0  0  0  0
  151.3802  143.0420  159.5901 O   0  0  0  0  0  0  0  0  0  0  0  0
  151.7867  144.3310  159.4429 C   0  0  0  0  0  0  0  0  0  0  0  0
  152.3150  144.5056  158.2076 F   0  0  0  0  0  0  0  0  0  0  0  0
  150.7335  145.1758  159.5622 F   0  0  0  0  0  0  0  0  0  0  0  0
  146.5761  140.4792  157.8773 H   0  0  0  0  0  0  0  0  0  0  0  0
  146.3026  142.1433  158.3854 H   0  0  0  0  0  0  0  0  0  0  0  0
  147.9169  141.4555  158.4704 H   0  0  0  0  0  0  0  0  0  0  0  0
  147.7145  142.9680  156.5108 H   0  0  0  0  0  0  0  0  0  0  0  0
  145.4669  141.1084  155.6212 H   0  0  0  0  0  0  0  0  0  0  0  0
  145.2829  142.7654  156.1407 H   0  0  0  0  0  0  0  0  0  0  0  0
  145.2724  142.5851  153.6543 H   0  0  0  0  0  0  0  0  0  0  0  0
  146.5983  143.5756  154.2159 H   0  0  0  0  0  0  0  0  0  0  0  0
  146.7735  140.6437  153.3631 H   0  0  0  0  0  0  0  0  0  0  0  0
  147.4037  142.0133  152.4782 H   0  0  0  0  0  0  0  0  0  0  0  0
  149.2003  140.8527  153.7411 H   0  0  0  0  0  0  0  0  0  0  0  0
  149.0196  142.5040  154.2764 H   0  0  0  0  0  0  0  0  0  0  0  0
  147.8960  140.0375  155.7084 H   0  0  0  0  0  0  0  0  0  0  0  0
  150.2506  139.3828  155.5448 H   0  0  0  0  0  0  0  0  0  0  0  0
  150.9238  140.8826  154.9091 H   0  0  0  0  0  0  0  0  0  0  0  0
  150.6258  141.2705  158.1572 H   0  0  0  0  0  0  0  0  0  0  0  0
  154.7796  139.2433  160.6957 H   0  0  0  0  0  0  0  0  0  0  0  0
  154.6940  141.2283  162.2269 H   0  0  0  0  0  0  0  0  0  0  0  0
  153.0763  143.0534  161.7211 H   0  0  0  0  0  0  0  0  0  0  0  0
  152.5508  144.5992  160.1730 H   0  0  0  0  0  0  0  0  0  0  0  0
  1  2  1  0  0  0  0
  1 23  1  0  0  0  0
  1 24  1  0  0  0  0
  1 25  1  0  0  0  0
  2  7  1  0  0  0  0
  2  3  1  0  0  0  0
  2 26  1  0  0  0  0
  3  4  1  0  0  0  0
  3 27  1  0  0  0  0
  3 28  1  0  0  0  0
  4  5  1  0  0  0  0
  4 29  1  0  0  0  0
  4 30  1  0  0  0  0
  5  6  1  0  0  0  0
  5 31  1  0  0  0  0
  5 32  1  0  0  0  0
  6  7  1  0  0  0  0
  6 33  1  0  0  0  0
  6 34  1  0  0  0  0
  7  8  1  0  0  0  0
  7 35  1  0  0  0  0
  8  9  1  0  0  0  0
  9 10  1  0  0  0  0
  9 36  1  0  0  0  0
  9 37  1  0  0  0  0
 10 11  2  0  0  0  0
 10 12  1  0  0  0  0
 12 13  1  0  0  0  0
 12 38  1  0  0  0  0
 13 18  1  0  0  0  0
 13 14  2  0  0  0  0
 14 15  1  0  0  0  0
 15 16  2  0  0  0  0
 15 39  1  0  0  0  0
 16 17  1  0  0  0  0
 16 40  1  0  0  0  0
 17 18  2  0  0  0  0
 17 41  1  0  0  0  0
 18 19  1  0  0  0  0
 19 20  1  0  0  0  0
 20 21  1  0  0  0  0
 20 22  1  0  0  0  0
 20 42  1  0  0  0  0
M  END
> <s_m_source_file>
AV-unprocessed.smi

> <i_m_source_file_index>
2478

> <i_lp_mmshare_version>
43012

> <i_f3d_flags>
0

> <s_epik_input>
W0NIM11bQ0BASF0xW0NIMl1bQ0gyXVtDSDJdW0NIMl1bQ0BIXTFPW0NIMl1DKD1PKVtOSF1jMm5bY0hdW2NIXVtjSF1jMk9bQ0hdKEYpRg==

> <s_epik_cmdline>
J2VwaWtfcHl0aG9uJywgJy1waCcsICc3LjAnLCAnLXRuJywgJzgnLCAnLW1hJywgJzIwMCcsICctbWV0YWxfYmluZGluZycsICctaW1hZScsICc8aW5maWxlLm1hZT4nLCAnLW9tYWUnLCAnPG91dGZpbGUubWFlPic=

> <r_lp_tautomer_probability>
1

> <r_epik_Ionization_Penalty>
6.06012e-05

> <r_epik_Ionization_Penalty_Charging>
0

> <r_epik_Ionization_Penalty_Neutral>
6.06012e-05

> <r_epik_State_Penalty>
-0

> <r_epik_Charging_Adjusted_Penalty>
0

> <i_epik_Tot_Q>
0

> <i_epik_Tot_abs_Q>
0

> <r_epik_Metal_State_Penalty>
-0

> <b_epik_Metal_Only>
0

> <s_lp_Force_Field>
OPLS_2005

> <r_lp_Energy>
14.0723

> <b_lp_Chiralities_Consistent>
1

> <s_lp_Variant>
AV-unprocessed.smi:2478-1

> <Gold.Version>
5.8.1

> <Gold.Id.Protein>
6NUR|6NUR_protein|mol2

> <Gold.PLP.Fitness>
50.3059

> <Gold.PLP.PLP>
-48.2916

> <Gold.PLP.part.hbond>
-1.0000

> <Gold.PLP.part.metal>
0.0000

> <Gold.PLP.part.buried>
-6.7597

> <Gold.PLP.part.nonpolar>
-41.5003

> <Gold.PLP.part.repulsive>
0.1553

> <Gold.PLP.ligand.clash>
0.0000

> <Gold.PLP.ligand.torsion>
0.5350

> <Gold.PLP.Chemscore.Hbond>
1.0000

> <Gold.PLP.Chemscore.CHOScore>
0.0000

> <Gold.PLP.Chemscore.Metal>
0.0000

> <Gold.Chemscore.Hbonds>
donor molecule, donor type, donor heavy atom, donor atom, acceptor molecule, acceptor atom, score
      P1  H  7997  8009       L1    11  1.00

> <Gold.PLP.Chemscore.Internal.Correction>
0.0843

> <Gold.Rescore>
     Score         DG    S(hbond)    S(metal)    S(lipo)     H(rot)  DE(clash)    DE(int)     intcor
     13.45     -15.01       1.00        0.00      93.38       1.85       0.10       1.46       ----

> <Gold.Chemscore.Fitness>
13.4527

> <Gold.Chemscore.DG>
-15.0132

> <Gold.Chemscore.ZeroCoef>
-5.4800

> <Gold.Chemscore.Hbond>
0.9995

> <Gold.Chemscore.Metal>
0.0000

> <Gold.Chemscore.Lipo>
93.3838

> <Gold.Chemscore.Internal_Hbond>
0.0000

> <Gold.Chemscore.DEClash>
0.1046

> <Gold.Chemscore.DEInternal>
1.4559

> <Gold.Chemscore.Rot>
1.8481

> <Gold.Chemscore.Internal.Correction>
   9.000000E+99

> <Gold.Chemscore.Hbonds>
donor molecule, donor type, donor heavy atom, donor atom, acceptor molecule, acceptor atom, score
      P1  H  7997  8009       L1    11  0.97

> <Gold.Chemscore.Hbond.Weighted>
-3.3384

> <Gold.Chemscore.Metal.Weighted>
-0.0000

> <Gold.Chemscore.Lipo.Weighted>
-10.9259

> <Gold.Chemscore.Internal_Hbond.Weighted>
0.0000

> <Gold.Chemscore.DEClash.Weighted>
0.1046

> <Gold.Chemscore.DEInternal.Weighted>
1.4559

> <Gold.Chemscore.Rot.Weighted>
4.7311

> <Gold.Chemscore.Internal.Correction.Weighted>
   9.000000E+99

> <Gold.Protein.RotatedTorsions>
[ 6907 6896 6895 6894 ] final  149.94 input  -60.11 | X-H torsion
[ 7974 7965 7964 7962 ] final -173.80 input  175.53 | X-H torsion
[ 8008 7997 7996 7995 ] final -158.89 input   59.86 | X-H torsion
[ 10167 10162 10161 10158 ] final  108.38 input  -65.29 | X-H torsion
[ 10718 10713 10712 10709 ] final -104.08 input   66.30 | X-H torsion
[ 10763 10752 10751 10750 ] final  -84.37 input  -60.55 | X-H torsion
[ 11005 11000 10999 10996 ] final  -52.99 input  -57.11 | X-H torsion

> <Gold.Protein.ActiveResidues>
 VAL166  LYS551  ARG553  GLY616  TRP617  ASP618  TYR619  PRO620  LYS621  CYS622 
 ASP623  PHE694  ASN695  SER759  ASP760  ASP761  ALA762  ILE779  LEU786  VAL792 
 PHE793  MET794  SER795  GLU796  ALA797  LYS798  CYS799  TRP800  GLU811  SER814 

> <Gold.Protein.RotatedAtoms>
  152.1212  133.4354  159.4676 H   0  0  0  0  0  0  0  0  0  0  0  0  # atno 6907 bound_to 6896
  150.6872  134.2532  159.4528 H   0  0  0  0  0  0  0  0  0  0  0  0  # atno 6908 bound_to 6896
  152.0409  134.9711  160.0624 H   0  0  0  0  0  0  0  0  0  0  0  0  # atno 6909 bound_to 6896
  144.7135  140.1567  143.6379 H   0  0  0  0  0  0  0  0  0  0  0  0  # atno 7974 bound_to 7965
  155.7544  140.0831  157.2185 H   0  0  0  0  0  0  0  0  0  0  0  0  # atno 8008 bound_to 7997
  154.4009  140.1554  156.2817 H   0  0  0  0  0  0  0  0  0  0  0  0  # atno 8009 bound_to 7997
  155.8899  140.3416  155.5951 H   0  0  0  0  0  0  0  0  0  0  0  0  # atno 8010 bound_to 7997
  139.6850  144.7114  151.1447 H   0  0  0  0  0  0  0  0  0  0  0  0  # atno 10167 bound_to 10162
  156.0290  130.5498  150.7345 H   0  0  0  0  0  0  0  0  0  0  0  0  # atno 10718 bound_to 10713
  154.5988  135.5523  153.7353 H   0  0  0  0  0  0  0  0  0  0  0  0  # atno 10763 bound_to 10752
  153.0146  135.6361  154.1745 H   0  0  0  0  0  0  0  0  0  0  0  0  # atno 10764 bound_to 10752
  154.1685  135.2893  155.3068 H   0  0  0  0  0  0  0  0  0  0  0  0  # atno 10765 bound_to 10752
  141.0953  133.6625  156.4106 H   0  0  0  0  0  0  0  0  0  0  0  0  # atno 11005 bound_to 11000
  145.9067  139.2463  143.1461 LP  0  0  0  0  0  0  0  0  0  0  0  0  # atno 17320 bound_to 7965
  145.9757  140.8724  143.0140 LP  0  0  0  0  0  0  0  0  0  0  0  0  # atno 17321 bound_to 7965
  140.7665  143.5642  150.9066 LP  0  0  0  0  0  0  0  0  0  0  0  0  # atno 17342 bound_to 10162
  139.9316  143.6486  152.3075 LP  0  0  0  0  0  0  0  0  0  0  0  0  # atno 17343 bound_to 10162
  157.4929  131.0912  151.0405 LP  0  0  0  0  0  0  0  0  0  0  0  0  # atno 17370 bound_to 10713
  157.0807  130.5902  149.5420 LP  0  0  0  0  0  0  0  0  0  0  0  0  # atno 17371 bound_to 10713
  140.5155  134.6354  157.5299 LP  0  0  0  0  0  0  0  0  0  0  0  0  # atno 17394 bound_to 11000
  139.9788  134.7171  155.9898 LP  0  0  0  0  0  0  0  0  0  0  0  0  # atno 17395 bound_to 11000

$$$$
