AV-unprocessed.smi:3311|AV-procd|sdf|12726|dock4
  -GOLD-   2272019 63D 1   1.00000     0.00000
 Structure written by MMmdl.
 43 44  0  0  0  0  0  0  0  0  1 V2000
  147.0052  135.3156  154.5016 C   0  0  0  0  0  0  0  0  0  0  0  0
  146.2304  135.0602  153.1974 C   0  0  1  0  0  0  0  0  0  0  0  0
  146.3838  136.2344  152.3300 N   0  0  0  0  0  0  0  0  0  0  0  0
  145.8953  137.5033  152.8772 C   0  0  0  0  0  0  0  0  0  0  0  0
  147.0118  138.5656  152.9996 C   0  0  0  0  0  0  0  0  0  0  0  0
  147.6664  138.6251  151.7447 O   0  0  0  0  0  0  0  0  0  0  0  0
  146.3741  139.9519  153.2576 C   0  0  0  0  0  0  0  0  0  0  0  0
  147.4135  141.0646  153.4847 C   0  0  0  0  0  0  0  0  0  0  0  0
  148.3822  140.6986  154.6174 C   0  0  0  0  0  0  0  0  0  0  0  0
  149.0672  139.3537  154.3388 C   0  0  0  0  0  0  0  0  0  0  0  0
  148.0376  138.2319  154.1131 C   0  0  0  0  0  0  0  0  0  0  0  0
  146.6767  133.7236  152.5320 C   0  0  1  0  0  0  0  0  0  0  0  0
  147.1904  132.6379  153.4927 C   0  0  0  0  0  0  0  0  0  0  0  0
  145.6809  133.1826  151.6112 N   0  0  0  0  0  0  0  0  0  0  0  0
  145.8317  132.2069  150.6449 C   0  0  0  0  0  0  0  0  0  0  0  0
  144.6174  132.0298  150.0467 C   0  0  0  0  0  0  0  0  0  0  0  0
  143.7714  132.9519  150.7227 C   0  0  0  0  0  0  0  0  0  0  0  0
  144.4086  133.6381  151.6570 N   0  0  0  0  0  0  0  0  0  0  0  0
  146.9047  134.4756  155.1892 H   0  0  0  0  0  0  0  0  0  0  0  0
  146.6279  136.2016  155.0133 H   0  0  0  0  0  0  0  0  0  0  0  0
  148.0691  135.4699  154.3190 H   0  0  0  0  0  0  0  0  0  0  0  0
  145.1809  134.9629  153.4783 H   0  0  0  0  0  0  0  0  0  0  0  0
  147.3601  136.3391  152.0731 H   0  0  0  0  0  0  0  0  0  0  0  0
  145.0808  137.9070  152.2819 H   0  0  0  0  0  0  0  0  0  0  0  0
  145.4774  137.3194  153.8676 H   0  0  0  0  0  0  0  0  0  0  0  0
  148.2762  139.3466  151.7604 H   0  0  0  0  0  0  0  0  0  0  0  0
  145.7186  140.2266  152.4298 H   0  0  0  0  0  0  0  0  0  0  0  0
  145.7342  139.8935  154.1392 H   0  0  0  0  0  0  0  0  0  0  0  0
  147.9732  141.2436  152.5660 H   0  0  0  0  0  0  0  0  0  0  0  0
  146.9064  142.0008  153.7203 H   0  0  0  0  0  0  0  0  0  0  0  0
  149.1324  141.4815  154.7339 H   0  0  0  0  0  0  0  0  0  0  0  0
  147.8398  140.6456  155.5624 H   0  0  0  0  0  0  0  0  0  0  0  0
  149.7113  139.4452  153.4634 H   0  0  0  0  0  0  0  0  0  0  0  0
  149.7196  139.0920  155.1721 H   0  0  0  0  0  0  0  0  0  0  0  0
  147.5045  138.0526  155.0478 H   0  0  0  0  0  0  0  0  0  0  0  0
  148.5680  137.3067  153.8848 H   0  0  0  0  0  0  0  0  0  0  0  0
  147.5484  133.9843  151.9284 H   0  0  0  0  0  0  0  0  0  0  0  0
  147.8893  133.0516  154.2199 H   0  0  0  0  0  0  0  0  0  0  0  0
  147.7155  131.8572  152.9417 H   0  0  0  0  0  0  0  0  0  0  0  0
  146.3801  132.1505  154.0337 H   0  0  0  0  0  0  0  0  0  0  0  0
  146.7808  131.7227  150.4667 H   0  0  0  0  0  0  0  0  0  0  0  0
  144.3712  131.3448  149.2493 H   0  0  0  0  0  0  0  0  0  0  0  0
  142.7199  133.1411  150.5641 H   0  0  0  0  0  0  0  0  0  0  0  0
  1  2  1  0  0  0  0
  1 19  1  0  0  0  0
  1 20  1  0  0  0  0
  1 21  1  0  0  0  0
  2  3  1  0  0  0  0
  2 12  1  0  0  0  0
  2 22  1  0  0  0  0
  3  4  1  0  0  0  0
  3 23  1  0  0  0  0
  4  5  1  0  0  0  0
  4 24  1  0  0  0  0
  4 25  1  0  0  0  0
  5 11  1  0  0  0  0
  5  6  1  0  0  0  0
  5  7  1  0  0  0  0
  6 26  1  0  0  0  0
  7  8  1  0  0  0  0
  7 27  1  0  0  0  0
  7 28  1  0  0  0  0
  8  9  1  0  0  0  0
  8 29  1  0  0  0  0
  8 30  1  0  0  0  0
  9 10  1  0  0  0  0
  9 31  1  0  0  0  0
  9 32  1  0  0  0  0
 10 11  1  0  0  0  0
 10 33  1  0  0  0  0
 10 34  1  0  0  0  0
 11 35  1  0  0  0  0
 11 36  1  0  0  0  0
 12 13  1  0  0  0  0
 12 14  1  0  0  0  0
 12 37  1  0  0  0  0
 13 38  1  0  0  0  0
 13 39  1  0  0  0  0
 13 40  1  0  0  0  0
 14 18  1  0  0  0  0
 14 15  1  0  0  0  0
 15 16  2  0  0  0  0
 15 41  1  0  0  0  0
 16 17  1  0  0  0  0
 16 42  1  0  0  0  0
 17 18  2  0  0  0  0
 17 43  1  0  0  0  0
M  END
> <s_m_source_file>
AV-unprocessed.smi

> <i_m_source_file_index>
3311

> <i_lp_mmshare_version>
43012

> <i_f3d_flags>
0

> <s_epik_input>
bjFbY0hdW2NIXVtjSF1uMVtDQEBIXShbQ0gzXSlbQ0BIXShbQ0gzXSlbTkhdW0NIMl1DMihbT0hdKVtDSDJdW0NIMl1bQ0gyXVtDSDJdW0NIMl0y

> <s_epik_cmdline>
J2VwaWtfcHl0aG9uJywgJy1waCcsICc3LjAnLCAnLXRuJywgJzgnLCAnLW1hJywgJzIwMCcsICctbWV0YWxfYmluZGluZycsICctaW1hZScsICc8aW5maWxlLm1hZT4nLCAnLW9tYWUnLCAnPG91dGZpbGUubWFlPic=

> <r_lp_tautomer_probability>
1

> <r_epik_Ionization_Penalty>
2.222

> <r_epik_Ionization_Penalty_Charging>
0

> <r_epik_Ionization_Penalty_Neutral>
2.222

> <r_epik_State_Penalty>
2.36562

> <r_epik_Charging_Adjusted_Penalty>
2.36562

> <i_epik_Tot_Q>
0

> <i_epik_Tot_abs_Q>
0

> <r_epik_Metal_State_Penalty>
2.36435

> <b_epik_Metal_Only>
0

> <s_lp_Force_Field>
OPLS_2005

> <r_lp_Energy>
31.437

> <b_lp_Chiralities_Consistent>
1

> <s_lp_Variant>
AV-unprocessed.smi:3311-8

> <Gold.Version>
5.8.1

> <Gold.Id.Protein>
6NUR|6NUR_protein|mol2

> <Gold.PLP.Fitness>
41.5580

> <Gold.PLP.PLP>
-29.3495

> <Gold.PLP.part.hbond>
-3.4629

> <Gold.PLP.part.metal>
0.0000

> <Gold.PLP.part.buried>
0.1686

> <Gold.PLP.part.nonpolar>
-26.0345

> <Gold.PLP.part.repulsive>
0.1237

> <Gold.PLP.ligand.clash>
0.0000

> <Gold.PLP.ligand.torsion>
1.2605

> <Gold.PLP.Chemscore.Hbond>
2.8240

> <Gold.PLP.Chemscore.CHOScore>
2.0000

> <Gold.PLP.Chemscore.Metal>
0.0000

> <Gold.Chemscore.Hbonds>
donor molecule, donor type, donor heavy atom, donor atom, acceptor molecule, acceptor atom, score
      L1  H     3    23       P1  7948  1.00
      L1  H     6    26       P1  7957  0.94
      P1  H  7954  7966       L1     6  0.77
      L1  C    15    41       P1 10747  1.00
      L1  C    17    43       P1 10186  1.00

> <Gold.PLP.Chemscore.Internal.Correction>
0.2575

> <Gold.Rescore>
     Score         DG    S(hbond)    S(metal)    S(lipo)     H(rot)  DE(clash)    DE(int)     intcor
     14.66     -16.89       2.03        0.00      84.65       2.07       1.25       0.98       ----

> <Gold.Chemscore.Fitness>
14.6581

> <Gold.Chemscore.DG>
-16.8850

> <Gold.Chemscore.ZeroCoef>
-5.4800

> <Gold.Chemscore.Hbond>
2.0349

> <Gold.Chemscore.Metal>
0.0000

> <Gold.Chemscore.Lipo>
84.6500

> <Gold.Chemscore.Internal_Hbond>
0.0000

> <Gold.Chemscore.DEClash>
1.2495

> <Gold.Chemscore.DEInternal>
0.9774

> <Gold.Chemscore.Rot>
2.0686

> <Gold.Chemscore.Internal.Correction>
   9.000000E+99

> <Gold.Chemscore.Hbonds>
donor molecule, donor type, donor heavy atom, donor atom, acceptor molecule, acceptor atom, score
      L1  H     3    23       P1  7948  0.98
      L1  H     6    26       P1  7957  0.89
      P1  H  7954  7966       L1     6  0.12

> <Gold.Chemscore.Hbond.Weighted>
-6.7967

> <Gold.Chemscore.Metal.Weighted>
-0.0000

> <Gold.Chemscore.Lipo.Weighted>
-9.9040

> <Gold.Chemscore.Internal_Hbond.Weighted>
0.0000

> <Gold.Chemscore.DEClash.Weighted>
1.2495

> <Gold.Chemscore.DEInternal.Weighted>
0.9774

> <Gold.Chemscore.Rot.Weighted>
5.2957

> <Gold.Chemscore.Internal.Correction.Weighted>
   9.000000E+99

> <Gold.Protein.RotatedTorsions>
[ 6907 6896 6895 6894 ] final   46.25 input  -60.11 | X-H torsion
[ 7974 7965 7964 7962 ] final   86.96 input  175.53 | X-H torsion
[ 8008 7997 7996 7995 ] final   49.76 input   59.86 | X-H torsion
[ 10167 10162 10161 10158 ] final  122.21 input  -65.29 | X-H torsion
[ 10718 10713 10712 10709 ] final   72.55 input   66.30 | X-H torsion
[ 10763 10752 10751 10750 ] final   98.31 input  -60.55 | X-H torsion
[ 11005 11000 10999 10996 ] final  161.01 input  -57.11 | X-H torsion

> <Gold.Protein.ActiveResidues>
 VAL166  LYS551  ARG553  GLY616  TRP617  ASP618  TYR619  PRO620  LYS621  CYS622 
 ASP623  PHE694  ASN695  SER759  ASP760  ASP761  ALA762  ILE779  LEU786  VAL792 
 PHE793  MET794  SER795  GLU796  ALA797  LYS798  CYS799  TRP800  GLU811  SER814 

> <Gold.Protein.RotatedAtoms>
  152.2542  134.8101  160.0440 H   0  0  0  0  0  0  0  0  0  0  0  0  # atno 6907 bound_to 6896
  151.8770  133.3482  159.3762 H   0  0  0  0  0  0  0  0  0  0  0  0  # atno 6908 bound_to 6896
  150.7094  134.4983  159.5593 H   0  0  0  0  0  0  0  0  0  0  0  0  # atno 6909 bound_to 6896
  145.5653  139.2308  143.2436 H   0  0  0  0  0  0  0  0  0  0  0  0  # atno 7974 bound_to 7965
  155.4075  140.3441  155.4261 H   0  0  0  0  0  0  0  0  0  0  0  0  # atno 8008 bound_to 7997
  156.1468  140.1558  156.8866 H   0  0  0  0  0  0  0  0  0  0  0  0  # atno 8009 bound_to 7997
  154.5017  140.0813  156.7793 H   0  0  0  0  0  0  0  0  0  0  0  0  # atno 8010 bound_to 7997
  139.5872  144.7011  151.3379 H   0  0  0  0  0  0  0  0  0  0  0  0  # atno 10167 bound_to 10162
  157.6506  130.9584  150.0944 H   0  0  0  0  0  0  0  0  0  0  0  0  # atno 10718 bound_to 10713
  153.2876  135.4152  155.1136 H   0  0  0  0  0  0  0  0  0  0  0  0  # atno 10763 bound_to 10752
  154.8510  135.3510  154.6026 H   0  0  0  0  0  0  0  0  0  0  0  0  # atno 10764 bound_to 10752
  153.6448  135.7055  153.5287 H   0  0  0  0  0  0  0  0  0  0  0  0  # atno 10765 bound_to 10752
  140.2116  134.8263  157.3126 H   0  0  0  0  0  0  0  0  0  0  0  0  # atno 11005 bound_to 11000
  146.1822  140.6478  142.9184 LP  0  0  0  0  0  0  0  0  0  0  0  0  # atno 17320 bound_to 7965
  144.7463  140.5077  143.6833 LP  0  0  0  0  0  0  0  0  0  0  0  0  # atno 17321 bound_to 7965
  140.7142  143.7311  150.7623 LP  0  0  0  0  0  0  0  0  0  0  0  0  # atno 17342 bound_to 10162
  140.0858  143.4925  152.2505 LP  0  0  0  0  0  0  0  0  0  0  0  0  # atno 17343 bound_to 10162
  156.1884  130.3653  149.8942 LP  0  0  0  0  0  0  0  0  0  0  0  0  # atno 17370 bound_to 10713
  156.6877  130.8883  151.3584 LP  0  0  0  0  0  0  0  0  0  0  0  0  # atno 17371 bound_to 10713
  140.1945  134.4331  155.7697 LP  0  0  0  0  0  0  0  0  0  0  0  0  # atno 17394 bound_to 11000
  141.2226  133.7042  156.8082 LP  0  0  0  0  0  0  0  0  0  0  0  0  # atno 17395 bound_to 11000

$$$$
