#       Name:                AV-unprocessed.smi:721
#       Creating user name   scv26
#       Creation time:       Fri Mar 27 00:49:53 2020


#       File generated by GOLD software.
#

@<TRIPOS>MOLECULE
AV-unprocessed.smi:721
    33    34     1
SMALL
NO_CHARGES


@<TRIPOS>ATOM
      1 ****        -2.6130   2.8891   5.2272 Cl             1 S1                 0.0000
      2 ****        -2.4599   2.0027   3.7550 C.ar           1 S1                 0.0000
      3 ****        -2.8061   2.5659   2.5106 C.ar           1 S1                 0.0000
      4 ****        -2.6847   1.8679   1.3599 N.ar           1 S1                 0.0000
      5 ****        -2.2209   0.6184   1.4521 C.ar           1 S1                 0.0000
      6 ****        -2.1095  -0.0615   0.2527 N.pl3          1 S1                 0.0000
      7 ****        -1.5150  -1.3820   0.0945 C.3            1 S1                 0.0000
      8 ****         0.0184  -1.3401   0.1359 C.3            1 S1                 0.0000
      9 ****         0.4964  -0.6993  -1.0350 O.3            1 S1                 0.0000
     10 ****         1.9105  -0.6259  -1.0775 C.3            1 S1                 0.0000
     11 ****         2.3275   0.0700  -2.3550 C.3            1 S1                 0.0000
     12 ****         2.4599  -0.7086  -3.6437 C.3            1 S1                 0.0000
     13 ****         3.6924  -0.1792  -2.9552 C.3            1 S1                 0.0000
     14 ****        -1.8656  -0.0130   2.5784 N.ar           1 S1                 0.0000
     15 ****        -1.9826   0.6773   3.7338 C.ar           1 S1                 0.0000
     16 ****        -3.1810   3.5759   2.4359 H              1 S1                 0.0000
     17 ****        -2.3611   0.4440  -0.5846 H              1 S1                 0.0000
     18 ****        -1.8904  -2.0405   0.8783 H              1 S1                 0.0000
     19 ****        -1.8509  -1.8081  -0.8511 H              1 S1                 0.0000
     20 ****         0.3735  -0.8273   1.0310 H              1 S1                 0.0000
     21 ****         0.4048  -2.3597   0.1716 H              1 S1                 0.0000
     22 ****         2.2899  -0.0606  -0.2250 H              1 S1                 0.0000
     23 ****         2.3473  -1.6254  -1.0411 H              1 S1                 0.0000
     24 ****         1.9447   1.0848  -2.4474 H              1 S1                 0.0000
     25 ****         2.2841  -1.7819  -3.6063 H              1 S1                 0.0000
     26 ****         2.1435  -0.2163  -4.5609 H              1 S1                 0.0000
     27 ****         4.2008   0.6663  -3.4141 H              1 S1                 0.0000
     28 ****         4.3401  -0.9023  -2.4631 H              1 S1                 0.0000
     29 ****        -1.6945   0.1687   4.6420 H              1 S1                 0.0000
     30 ****        -2.9312   2.2692   0.4778 LP             1 S1                 0.0000
     31 ****         0.1265   0.2293  -1.0656 LP             1 S1                 0.0000
     32 ****         0.1782  -1.2113  -1.8328 LP             1 S1                 0.0000
     33 ****        -1.5284  -0.9543   2.5648 LP             1 S1                 0.0000
@<TRIPOS>BOND
    1    1    2 1     
    2    2   15 ar    
    3    2    3 ar    
    4    3    4 ar    
    5    3   16 1     
    6    4    5 ar    
    7    5    6 1     
    8    5   14 ar    
    9    6    7 1     
   10    6   17 1     
   11    7    8 1     
   12    7   18 1     
   13    7   19 1     
   14    8    9 1     
   15    8   20 1     
   16    8   21 1     
   17    9   10 1     
   18   10   11 1     
   19   10   22 1     
   20   10   23 1     
   21   11   13 1     
   22   11   12 1     
   23   11   24 1     
   24   12   13 1     
   25   12   25 1     
   26   12   26 1     
   27   13   27 1     
   28   13   28 1     
   29   14   15 ar    
   30   15   29 1     
   31    4   30 1     
   32    9   31 1     
   33    9   32 1     
   34   14   33 1     
@<TRIPOS>SUBSTRUCTURE
      1 S1             1
@<TRIPOS>SET
LONE_PAIRS      STATIC     ATOMS    <user>   **** ""
4 30 31 32 33
DONOR_HYDROGENS      STATIC     ATOMS    <user>   **** ""
1 17
ATOM$BLUE        STATIC     ATOMS    COLORGROUP SYSTEM
4 30 31 32 33
ATOM$RED        STATIC     ATOMS    COLORGROUP SYSTEM
1 17
