AV-unprocessed.smi:767|AV-procd|sdf|3663|dock8
  -GOLD-   22720 1 73D 1   1.00000     0.00000
 Structure written by MMmdl.
 47 49  0  0  0  0  0  0  0  0  1 V2000
  146.1707  129.8932  151.7425 C   0  0  0  0  0  0  0  0  0  0  0  0
  145.8548  131.3555  151.5064 C   0  0  0  0  0  0  0  0  0  0  0  0
  144.6524  131.7384  150.8759 C   0  0  0  0  0  0  0  0  0  0  0  0
  144.4109  133.1103  150.6690 C   0  0  0  0  0  0  0  0  0  0  0  0
  145.3786  134.0427  151.0951 C   0  0  0  0  0  0  0  0  0  0  0  0
  145.1800  135.5321  150.8694 C   0  0  0  0  0  0  0  0  0  0  0  0
  145.0704  136.3435  152.1765 C   0  0  0  0  0  0  0  0  0  0  0  0
  146.3682  136.7707  152.6912 N   0  0  0  0  0  0  0  0  0  0  0  0
  146.5502  137.6437  153.6908 C   0  0  0  0  0  0  0  0  0  0  0  0
  145.6360  138.2232  154.2770 O   0  0  0  0  0  0  0  0  0  0  0  0
  147.8473  137.7917  153.9895 N   0  0  0  0  0  0  0  0  0  0  0  0
  148.3582  138.6479  155.0646 C   0  0  2  0  0  0  0  0  0  0  0  0
  147.8661  140.0934  154.9536 C   0  0  2  0  0  0  0  0  0  0  0  0
  146.7681  140.7934  154.2376 C   0  0  0  0  0  0  0  0  0  0  0  0
  147.5883  142.0349  153.7926 C   0  0  0  0  0  0  0  0  0  0  0  0
  148.9749  141.7240  154.0859 O   0  0  0  0  0  0  0  0  0  0  0  0
  149.0295  140.3136  154.0089 C   0  0  1  0  0  0  0  0  0  0  0  0
  149.7993  139.2527  154.8260 C   0  0  0  0  0  0  0  0  0  0  0  0
  150.5707  139.7420  156.0647 C   0  0  0  0  0  0  0  0  0  0  0  0
  150.7908  138.4032  154.0237 C   0  0  0  0  0  0  0  0  0  0  0  0
  146.5453  133.5550  151.7216 C   0  0  0  0  0  0  0  0  0  0  0  0
  146.7861  132.2417  151.9227 N   0  0  0  0  0  0  0  0  0  0  0  0
  145.2549  129.3142  151.8662 H   0  0  0  0  0  0  0  0  0  0  0  0
  146.7760  129.7628  152.6402 H   0  0  0  0  0  0  0  0  0  0  0  0
  146.7220  129.4866  150.8945 H   0  0  0  0  0  0  0  0  0  0  0  0
  143.9331  130.9997  150.5541 H   0  0  0  0  0  0  0  0  0  0  0  0
  143.5037  133.4390  150.1836 H   0  0  0  0  0  0  0  0  0  0  0  0
  146.0068  135.9116  150.2684 H   0  0  0  0  0  0  0  0  0  0  0  0
  144.2805  135.6824  150.2708 H   0  0  0  0  0  0  0  0  0  0  0  0
  144.4874  137.2463  151.9923 H   0  0  0  0  0  0  0  0  0  0  0  0
  144.5279  135.7767  152.9346 H   0  0  0  0  0  0  0  0  0  0  0  0
  147.1839  136.3454  152.2756 H   0  0  0  0  0  0  0  0  0  0  0  0
  148.5263  137.2704  153.4546 H   0  0  0  0  0  0  0  0  0  0  0  0
  148.2228  138.2315  156.0643 H   0  0  0  0  0  0  0  0  0  0  0  0
  148.0112  140.5775  155.9225 H   0  0  0  0  0  0  0  0  0  0  0  0
  146.3980  140.2209  153.3861 H   0  0  0  0  0  0  0  0  0  0  0  0
  145.9325  141.0523  154.8883 H   0  0  0  0  0  0  0  0  0  0  0  0
  147.4588  142.2232  152.7262 H   0  0  0  0  0  0  0  0  0  0  0  0
  147.2939  142.9344  154.3339 H   0  0  0  0  0  0  0  0  0  0  0  0
  148.8408  139.9819  152.9826 H   0  0  0  0  0  0  0  0  0  0  0  0
  151.4018  140.3886  155.7815 H   0  0  0  0  0  0  0  0  0  0  0  0
  150.9866  138.9050  156.6264 H   0  0  0  0  0  0  0  0  0  0  0  0
  149.9576  140.3089  156.7631 H   0  0  0  0  0  0  0  0  0  0  0  0
  151.7237  138.9369  153.8402 H   0  0  0  0  0  0  0  0  0  0  0  0
  150.3921  138.1291  153.0473 H   0  0  0  0  0  0  0  0  0  0  0  0
  151.0366  137.4773  154.5447 H   0  0  0  0  0  0  0  0  0  0  0  0
  147.3140  134.2346  152.0591 H   0  0  0  0  0  0  0  0  0  0  0  0
  1  2  1  0  0  0  0
  1 23  1  0  0  0  0
  1 24  1  0  0  0  0
  1 25  1  0  0  0  0
  2 22  1  0  0  0  0
  2  3  2  0  0  0  0
  3  4  1  0  0  0  0
  3 26  1  0  0  0  0
  4  5  2  0  0  0  0
  4 27  1  0  0  0  0
  5  6  1  0  0  0  0
  5 21  1  0  0  0  0
  6  7  1  0  0  0  0
  6 28  1  0  0  0  0
  6 29  1  0  0  0  0
  7  8  1  0  0  0  0
  7 30  1  0  0  0  0
  7 31  1  0  0  0  0
  8  9  1  0  0  0  0
  8 32  1  0  0  0  0
  9 10  2  0  0  0  0
  9 11  1  0  0  0  0
 11 12  1  0  0  0  0
 11 33  1  0  0  0  0
 12 18  1  0  0  0  0
 12 13  1  0  0  0  0
 12 34  1  0  0  0  0
 13 17  1  0  0  0  0
 13 14  1  0  0  0  0
 13 35  1  0  0  0  0
 14 15  1  0  0  0  0
 14 36  1  0  0  0  0
 14 37  1  0  0  0  0
 15 16  1  0  0  0  0
 15 38  1  0  0  0  0
 15 39  1  0  0  0  0
 16 17  1  0  0  0  0
 17 18  1  0  0  0  0
 17 40  1  0  0  0  0
 18 19  1  0  0  0  0
 18 20  1  0  0  0  0
 19 41  1  0  0  0  0
 19 42  1  0  0  0  0
 19 43  1  0  0  0  0
 20 44  1  0  0  0  0
 20 45  1  0  0  0  0
 20 46  1  0  0  0  0
 21 22  2  0  0  0  0
 21 47  1  0  0  0  0
M  END
> <s_m_source_file>
AV-unprocessed.smi

> <i_m_source_file_index>
767

> <i_lp_mmshare_version>
43012

> <i_f3d_flags>
0

> <s_epik_input>
W0NIM11jMVtjSF1bY0hdYyhbY0hdbjEpW0NIMl1bQ0gyXVtOSF1DKD1PKVtOSF1bQ0BIXTJDKFtDSDNdKShbQ0gzXSlbQ0BIXShbQ0BASF0yMylPW0NIMl1bQ0gyXTM=

> <s_epik_cmdline>
J2VwaWtfcHl0aG9uJywgJy1waCcsICc3LjAnLCAnLXRuJywgJzgnLCAnLW1hJywgJzIwMCcsICctbWV0YWxfYmluZGluZycsICctaW1hZScsICc8aW5maWxlLm1hZT4nLCAnLW9tYWUnLCAnPG91dGZpbGUubWFlPic=

> <r_epik_Ionization_Penalty>
0.0567523

> <r_epik_Ionization_Penalty_Charging>
0

> <r_epik_Ionization_Penalty_Neutral>
0.0567523

> <r_epik_State_Penalty>
0.0489186

> <r_epik_Charging_Adjusted_Penalty>
0.0489186

> <i_epik_Tot_Q>
0

> <i_epik_Tot_abs_Q>
0

> <r_epik_Metal_State_Penalty>
0.044622

> <b_epik_Metal_Only>
0

> <s_lp_Force_Field>
OPLS_2005

> <r_lp_Energy>
58.7335

> <b_lp_Chiralities_Consistent>
1

> <s_lp_Variant>
AV-unprocessed.smi:767-7

> <Gold.Version>
5.8.1

> <Gold.Id.Protein>
6NUR|6NUR_protein|mol2

> <Gold.PLP.Fitness>
47.9920

> <Gold.PLP.PLP>
-38.2061

> <Gold.PLP.part.hbond>
-3.1241

> <Gold.PLP.part.metal>
0.0000

> <Gold.PLP.part.buried>
-5.9245

> <Gold.PLP.part.nonpolar>
-29.4544

> <Gold.PLP.part.repulsive>
0.9382

> <Gold.PLP.ligand.clash>
0.0000

> <Gold.PLP.ligand.torsion>
0.4303

> <Gold.PLP.Chemscore.Hbond>
2.4588

> <Gold.PLP.Chemscore.CHOScore>
0.9995

> <Gold.PLP.Chemscore.Metal>
0.0000

> <Gold.Chemscore.Hbonds>
donor molecule, donor type, donor heavy atom, donor atom, acceptor molecule, acceptor atom, score
      L1  H     8    32       P1  7948  1.00
      L1  H    11    33       P1  7948  0.99
      P1  H  8011  8017       L1    16  0.48
      L1  C    21    47       P1  7948  0.97

> <Gold.PLP.Chemscore.Internal.Correction>
0.2714

> <Gold.Rescore>
     Score         DG    S(hbond)    S(metal)    S(lipo)     H(rot)  DE(clash)    DE(int)     intcor
     19.76     -20.23       1.94        0.00     102.45       1.45       0.10       0.37       ----

> <Gold.Chemscore.Fitness>
19.7620

> <Gold.Chemscore.DG>
-20.2316

> <Gold.Chemscore.ZeroCoef>
-5.4800

> <Gold.Chemscore.Hbond>
1.9390

> <Gold.Chemscore.Metal>
0.0000

> <Gold.Chemscore.Lipo>
102.4484

> <Gold.Chemscore.Internal_Hbond>
0.0000

> <Gold.Chemscore.DEClash>
0.1043

> <Gold.Chemscore.DEInternal>
0.3654

> <Gold.Chemscore.Rot>
1.4497

> <Gold.Chemscore.Internal.Correction>
   9.000000E+99

> <Gold.Chemscore.Hbonds>
donor molecule, donor type, donor heavy atom, donor atom, acceptor molecule, acceptor atom, score
      L1  H     8    32       P1  7948  0.99
      L1  H    11    33       P1  7948  0.94
      P1  H  8011  8017       L1    16  0.05

> <Gold.Chemscore.Hbond.Weighted>
-6.4764

> <Gold.Chemscore.Metal.Weighted>
-0.0000

> <Gold.Chemscore.Lipo.Weighted>
-11.9865

> <Gold.Chemscore.Internal_Hbond.Weighted>
0.0000

> <Gold.Chemscore.DEClash.Weighted>
0.1043

> <Gold.Chemscore.DEInternal.Weighted>
0.3654

> <Gold.Chemscore.Rot.Weighted>
3.7112

> <Gold.Chemscore.Internal.Correction.Weighted>
   9.000000E+99

> <Gold.Protein.RotatedTorsions>
[ 6907 6896 6895 6894 ] final -151.29 input  -60.11 | X-H torsion
[ 7974 7965 7964 7962 ] final -170.78 input  175.53 | X-H torsion
[ 8008 7997 7996 7995 ] final  -18.39 input   59.86 | X-H torsion
[ 10167 10162 10161 10158 ] final  145.11 input  -65.29 | X-H torsion
[ 10718 10713 10712 10709 ] final  -81.74 input   66.30 | X-H torsion
[ 10763 10752 10751 10750 ] final    4.44 input  -60.55 | X-H torsion
[ 11005 11000 10999 10996 ] final -141.16 input  -57.11 | X-H torsion

> <Gold.Protein.ActiveResidues>
 VAL166  LYS551  ARG553  GLY616  TRP617  ASP618  TYR619  PRO620  LYS621  CYS622 
 ASP623  PHE694  ASN695  SER759  ASP760  ASP761  ALA762  ILE779  LEU786  VAL792 
 PHE793  MET794  SER795  GLU796  ALA797  LYS798  CYS799  TRP800  GLU811  SER814 

> <Gold.Protein.RotatedAtoms>
  151.2110  133.4556  159.2597 H   0  0  0  0  0  0  0  0  0  0  0  0  # atno 6907 bound_to 6896
  151.0977  134.9954  159.8443 H   0  0  0  0  0  0  0  0  0  0  0  0  # atno 6908 bound_to 6896
  152.5440  134.2039  159.8776 H   0  0  0  0  0  0  0  0  0  0  0  0  # atno 6909 bound_to 6896
  144.7165  140.2020  143.6337 H   0  0  0  0  0  0  0  0  0  0  0  0  # atno 7974 bound_to 7965
  154.4910  140.2117  155.9550 H   0  0  0  0  0  0  0  0  0  0  0  0  # atno 8008 bound_to 7997
  156.1304  140.3198  155.8309 H   0  0  0  0  0  0  0  0  0  0  0  0  # atno 8009 bound_to 7997
  155.4306  140.0503  157.3009 H   0  0  0  0  0  0  0  0  0  0  0  0  # atno 8010 bound_to 7997
  139.4933  144.5924  151.6652 H   0  0  0  0  0  0  0  0  0  0  0  0  # atno 10167 bound_to 10162
  156.0045  130.4613  150.3999 H   0  0  0  0  0  0  0  0  0  0  0  0  # atno 10718 bound_to 10713
  153.2712  135.6932  153.7478 H   0  0  0  0  0  0  0  0  0  0  0  0  # atno 10763 bound_to 10752
  153.6501  135.3378  155.3098 H   0  0  0  0  0  0  0  0  0  0  0  0  # atno 10764 bound_to 10752
  154.8464  135.4452  154.1735 H   0  0  0  0  0  0  0  0  0  0  0  0  # atno 10765 bound_to 10752
  140.8352  134.2469  157.4838 H   0  0  0  0  0  0  0  0  0  0  0  0  # atno 11005 bound_to 11000
  145.8671  139.2252  143.1683 LP  0  0  0  0  0  0  0  0  0  0  0  0  # atno 17320 bound_to 7965
  146.0120  140.8427  142.9966 LP  0  0  0  0  0  0  0  0  0  0  0  0  # atno 17321 bound_to 7965
  140.5554  144.0356  150.6145 LP  0  0  0  0  0  0  0  0  0  0  0  0  # atno 17342 bound_to 10162
  140.3424  143.3011  152.0574 LP  0  0  0  0  0  0  0  0  0  0  0  0  # atno 17343 bound_to 10162
  157.2068  131.0451  151.2620 LP  0  0  0  0  0  0  0  0  0  0  0  0  # atno 17370 bound_to 10713
  157.3925  130.7289  149.6708 LP  0  0  0  0  0  0  0  0  0  0  0  0  # atno 17371 bound_to 10713
  139.8704  134.9607  156.4371 LP  0  0  0  0  0  0  0  0  0  0  0  0  # atno 17394 bound_to 11000
  140.8955  133.7817  155.9621 LP  0  0  0  0  0  0  0  0  0  0  0  0  # atno 17395 bound_to 11000

$$$$
