AV-unprocessed.smi:3032|AV-procd|sdf|11570|dock1
  -GOLD-   2272016533D 1   1.00000     0.00000
 Structure written by MMmdl.
 36 37  0  0  0  0  0  0  0  0  2 V2000
  151.5266  145.5357  159.7886 C   0  0  0  0  0  0  0  0  0  0  0  0
  152.1173  144.1788  159.3801 C   0  0  1  0  0  0  0  0  0  0  0  0
  152.5079  143.3387  160.6113 C   0  0  0  0  0  0  0  0  0  0  0  0
  153.0928  141.9770  160.2031 C   0  0  0  0  0  0  0  0  0  0  0  0
  152.1226  141.2018  159.2977 C   0  0  0  0  0  0  0  0  0  0  0  0
  151.7400  142.0307  158.0544 C   0  0  1  0  0  0  0  0  0  0  0  0
  150.7564  141.2688  157.1568 C   0  0  0  0  0  0  0  0  0  0  0  0
  149.6014  141.6734  157.0200 O   0  0  0  0  0  0  0  0  0  0  0  0
  151.2396  140.1795  156.5392 N   0  0  0  0  0  0  0  0  0  0  0  0
  150.5429  139.3952  155.5229 C   0  0  0  0  0  0  0  0  0  0  0  0
  151.3975  138.2088  155.0417 C   0  0  0  0  0  0  0  0  0  0  0  0
  152.3121  137.6498  156.1147 C   0  0  0  0  0  0  0  0  0  0  0  0
  152.3954  136.3542  156.4802 N   0  5  0  0  0  0  0  0  0  0  0  0
  153.3228  136.2025  157.4055 N   0  0  0  0  0  0  0  0  0  0  0  0
  153.8059  137.4365  157.5906 C   0  0  0  0  0  0  0  0  0  0  0  0
  153.2073  138.3449  156.8133 N   0  0  0  0  0  0  0  0  0  0  0  0
  151.1468  143.3911  158.4787 C   0  0  0  0  0  0  0  0  0  0  0  0
  150.6124  145.4118  160.3700 H   0  0  0  0  0  0  0  0  0  0  0  0
  151.2841  146.1369  158.9119 H   0  0  0  0  0  0  0  0  0  0  0  0
  152.2322  146.1054  160.3937 H   0  0  0  0  0  0  0  0  0  0  0  0
  153.0237  144.3763  158.8058 H   0  0  0  0  0  0  0  0  0  0  0  0
  153.2336  143.8806  161.2188 H   0  0  0  0  0  0  0  0  0  0  0  0
  151.6324  143.1820  161.2430 H   0  0  0  0  0  0  0  0  0  0  0  0
  154.0385  142.1274  159.6809 H   0  0  0  0  0  0  0  0  0  0  0  0
  153.3207  141.3892  161.0925 H   0  0  0  0  0  0  0  0  0  0  0  0
  152.5807  140.2593  158.9947 H   0  0  0  0  0  0  0  0  0  0  0  0
  151.2293  140.9422  159.8683 H   0  0  0  0  0  0  0  0  0  0  0  0
  152.6492  142.2215  157.4810 H   0  0  0  0  0  0  0  0  0  0  0  0
  152.2019  139.9311  156.7162 H   0  0  0  0  0  0  0  0  0  0  0  0
  149.6082  139.0294  155.9477 H   0  0  0  0  0  0  0  0  0  0  0  0
  150.2685  140.0134  154.6667 H   0  0  0  0  0  0  0  0  0  0  0  0
  150.7487  137.4053  154.6916 H   0  0  0  0  0  0  0  0  0  0  0  0
  152.0027  138.5110  154.1866 H   0  0  0  0  0  0  0  0  0  0  0  0
  154.5972  137.6728  158.2913 H   0  0  0  0  0  0  0  0  0  0  0  0
  150.2036  143.2395  159.0066 H   0  0  0  0  0  0  0  0  0  0  0  0
  150.9094  143.9820  157.5927 H   0  0  0  0  0  0  0  0  0  0  0  0
  1  2  1  0  0  0  0
  1 18  1  0  0  0  0
  1 19  1  0  0  0  0
  1 20  1  0  0  0  0
  2 17  1  0  0  0  0
  2  3  1  0  0  0  0
  2 21  1  0  0  0  0
  3  4  1  0  0  0  0
  3 22  1  0  0  0  0
  3 23  1  0  0  0  0
  4  5  1  0  0  0  0
  4 24  1  0  0  0  0
  4 25  1  0  0  0  0
  5  6  1  0  0  0  0
  5 26  1  0  0  0  0
  5 27  1  0  0  0  0
  6  7  1  0  0  0  0
  6 17  1  0  0  0  0
  6 28  1  0  0  0  0
  7  8  2  0  0  0  0
  7  9  1  0  0  0  0
  9 10  1  0  0  0  0
  9 29  1  0  0  0  0
 10 11  1  0  0  0  0
 10 30  1  0  0  0  0
 10 31  1  0  0  0  0
 11 32  1  0  0  0  0
 11 33  1  0  0  0  0
 11 12  1  0  0  0  0
 12 16  2  0  0  0  0
 12 13  1  0  0  0  0
 13 14  1  0  0  0  0
 14 15  2  0  0  0  0
 15 16  1  0  0  0  0
 15 34  1  0  0  0  0
 17 35  1  0  0  0  0
 17 36  1  0  0  0  0
M  CHG  1  13  -1
M  END
> <s_m_source_file>
AV-unprocessed.smi

> <i_m_source_file_index>
3032

> <i_lp_mmshare_version>
43012

> <i_f3d_flags>
0

> <s_epik_input>
W0NIM11bQ0BASF0xW0NIMl1bQ0gyXVtDSDJdW0NASF0oW0NIMl0xKUMoPU8pW05IXVtDSDJdW0NIMl1jMm5uW2NIXVtuSF0y

> <s_epik_cmdline>
J2VwaWtfcHl0aG9uJywgJy1waCcsICc3LjAnLCAnLXRuJywgJzgnLCAnLW1hJywgJzIwMCcsICctbWV0YWxfYmluZGluZycsICctaW1hZScsICc8aW5maWxlLm1hZT4nLCAnLW9tYWUnLCAnPG91dGZpbGUubWFlPic=

> <r_lp_tautomer_probability>
0.948284

> <r_epik_Ionization_Penalty>
12.042

> <r_epik_Ionization_Penalty_Charging>
12.042

> <r_epik_Ionization_Penalty_Neutral>
4.36781e-08

> <r_epik_State_Penalty>
4.67286

> <r_epik_Charging_Adjusted_Penalty>
16.7149

> <i_epik_Tot_Q>
-1

> <i_epik_Tot_abs_Q>
1

> <r_epik_Metal_State_Penalty>
0.981637

> <b_epik_Metal_Only>
1

> <s_lp_Force_Field>
OPLS_2005

> <r_lp_Energy>
10.6668

> <b_lp_Chiralities_Consistent>
1

> <s_lp_Variant>
AV-unprocessed.smi:3032-14

> <Gold.Version>
5.8.1

> <Gold.Id.Protein>
6NUR|6NUR_protein|mol2

> <Gold.PLP.Fitness>
44.9651

> <Gold.PLP.PLP>
-36.6824

> <Gold.PLP.part.hbond>
-3.0000

> <Gold.PLP.part.metal>
0.0000

> <Gold.PLP.part.buried>
-4.6383

> <Gold.PLP.part.nonpolar>
-30.0768

> <Gold.PLP.part.repulsive>
0.8150

> <Gold.PLP.ligand.clash>
0.0000

> <Gold.PLP.ligand.torsion>
0.3678

> <Gold.PLP.Chemscore.Hbond>
2.9920

> <Gold.PLP.Chemscore.CHOScore>
0.0000

> <Gold.PLP.Chemscore.Metal>
0.0000

> <Gold.Chemscore.Hbonds>
donor molecule, donor type, donor heavy atom, donor atom, acceptor molecule, acceptor atom, score
      P1  H  7997  8009       L1    16  0.85
      P1  H 10752 10765       L1    13  1.92

> <Gold.PLP.Chemscore.Internal.Correction>
0.0424

> <Gold.Rescore>
     Score         DG    S(hbond)    S(metal)    S(lipo)     H(rot)  DE(clash)    DE(int)     intcor
     12.86     -14.54       1.34        0.00      87.69       2.21       0.01       1.67       ----

> <Gold.Chemscore.Fitness>
12.8649

> <Gold.Chemscore.DG>
-14.5400

> <Gold.Chemscore.ZeroCoef>
-5.4800

> <Gold.Chemscore.Hbond>
1.3386

> <Gold.Chemscore.Metal>
0.0000

> <Gold.Chemscore.Lipo>
87.6865

> <Gold.Chemscore.Internal_Hbond>
0.0000

> <Gold.Chemscore.DEClash>
0.0067

> <Gold.Chemscore.DEInternal>
1.6684

> <Gold.Chemscore.Rot>
2.2149

> <Gold.Chemscore.Internal.Correction>
   9.000000E+99

> <Gold.Chemscore.Hbonds>
donor molecule, donor type, donor heavy atom, donor atom, acceptor molecule, acceptor atom, score
      P1  H  7997  8009       L1    16  0.64
      P1  H 10752 10765       L1    13  0.20

> <Gold.Chemscore.Hbond.Weighted>
-4.4709

> <Gold.Chemscore.Metal.Weighted>
-0.0000

> <Gold.Chemscore.Lipo.Weighted>
-10.2593

> <Gold.Chemscore.Internal_Hbond.Weighted>
0.0000

> <Gold.Chemscore.DEClash.Weighted>
0.0067

> <Gold.Chemscore.DEInternal.Weighted>
1.6684

> <Gold.Chemscore.Rot.Weighted>
5.6702

> <Gold.Chemscore.Internal.Correction.Weighted>
   9.000000E+99

> <Gold.Protein.RotatedTorsions>
[ 6907 6896 6895 6894 ] final  -98.40 input  -60.11 | X-H torsion
[ 7974 7965 7964 7962 ] final  173.62 input  175.53 | X-H torsion
[ 8008 7997 7996 7995 ] final -176.59 input   59.86 | X-H torsion
[ 10167 10162 10161 10158 ] final -163.69 input  -65.29 | X-H torsion
[ 10718 10713 10712 10709 ] final -104.00 input   66.30 | X-H torsion
[ 10763 10752 10751 10750 ] final -161.75 input  -60.55 | X-H torsion
[ 11005 11000 10999 10996 ] final  160.53 input  -57.11 | X-H torsion

> <Gold.Protein.ActiveResidues>
 VAL166  LYS551  ARG553  GLY616  TRP617  ASP618  TYR619  PRO620  LYS621  CYS622 
 ASP623  PHE694  ASN695  SER759  ASP760  ASP761  ALA762  ILE779  LEU786  VAL792 
 PHE793  MET794  SER795  GLU796  ALA797  LYS798  CYS799  TRP800  GLU811  SER814 

> <Gold.Protein.RotatedAtoms>
  150.7045  134.1200  159.4031 H   0  0  0  0  0  0  0  0  0  0  0  0  # atno 6907 bound_to 6896
  151.9187  135.0305  160.0529 H   0  0  0  0  0  0  0  0  0  0  0  0  # atno 6908 bound_to 6896
  152.2275  133.4996  159.5233 H   0  0  0  0  0  0  0  0  0  0  0  0  # atno 6909 bound_to 6896
  144.7239  139.9674  143.6436 H   0  0  0  0  0  0  0  0  0  0  0  0  # atno 7974 bound_to 7965
  155.9967  140.1212  157.0587 H   0  0  0  0  0  0  0  0  0  0  0  0  # atno 8008 bound_to 7997
  154.4229  140.1115  156.5708 H   0  0  0  0  0  0  0  0  0  0  0  0  # atno 8009 bound_to 7997
  155.6269  140.3472  155.4672 H   0  0  0  0  0  0  0  0  0  0  0  0  # atno 8010 bound_to 7997
  139.6303  144.0453  152.2010 H   0  0  0  0  0  0  0  0  0  0  0  0  # atno 10167 bound_to 10162
  156.0287  130.5494  150.7334 H   0  0  0  0  0  0  0  0  0  0  0  0  # atno 10718 bound_to 10713
  154.7275  135.3039  154.8946 H   0  0  0  0  0  0  0  0  0  0  0  0  # atno 10763 bound_to 10752
  153.9799  135.6731  153.4754 H   0  0  0  0  0  0  0  0  0  0  0  0  # atno 10764 bound_to 10752
  153.0888  135.4970  154.8570 H   0  0  0  0  0  0  0  0  0  0  0  0  # atno 10765 bound_to 10752
  140.2068  134.8297  157.3078 H   0  0  0  0  0  0  0  0  0  0  0  0  # atno 11005 bound_to 11000
  146.0589  139.3584  143.0593 LP  0  0  0  0  0  0  0  0  0  0  0  0  # atno 17320 bound_to 7965
  145.8118  140.9722  143.0945 LP  0  0  0  0  0  0  0  0  0  0  0  0  # atno 17321 bound_to 7965
  140.0116  144.6219  150.7642 LP  0  0  0  0  0  0  0  0  0  0  0  0  # atno 17342 bound_to 10162
  140.7435  143.2847  151.3498 LP  0  0  0  0  0  0  0  0  0  0  0  0  # atno 17343 bound_to 10162
  157.4921  131.0911  151.0415 LP  0  0  0  0  0  0  0  0  0  0  0  0  # atno 17370 bound_to 10713
  157.0819  130.5906  149.5422 LP  0  0  0  0  0  0  0  0  0  0  0  0  # atno 17371 bound_to 10713
  140.1994  134.4273  155.7671 LP  0  0  0  0  0  0  0  0  0  0  0  0  # atno 17394 bound_to 11000
  141.2227  133.7064  156.8158 LP  0  0  0  0  0  0  0  0  0  0  0  0  # atno 17395 bound_to 11000

$$$$
