AV-unprocessed.smi:2292|AV-procd|sdf|9213|dock1
  -GOLD-   2272012433D 1   1.00000     0.00000
 Structure written by MMmdl.
 33 34  0  0  0  0  0  0  0  0  1 V2000
  152.1842  145.9356  160.2591 C   0  0  0  0  0  0  0  0  0  0  0  0
  152.1438  144.5530  159.6429 C   0  0  0  0  0  0  0  0  0  0  0  0
  152.9409  143.5099  160.1521 C   0  0  0  0  0  0  0  0  0  0  0  0
  152.8554  142.2463  159.5353 C   0  0  0  0  0  0  0  0  0  0  0  0
  153.6860  141.0802  160.0286 C   0  0  0  0  0  0  0  0  0  0  0  0
  152.0474  141.9929  158.4836 N   0  0  0  0  0  0  0  0  0  0  0  0
  151.2752  142.9900  157.9848 C   0  0  0  0  0  0  0  0  0  0  0  0
  150.3957  142.8285  156.8814 N   0  0  0  0  0  0  0  0  0  0  0  0
  150.1643  141.7187  156.1581 C   0  0  0  0  0  0  0  0  0  0  0  0
  150.6788  140.6178  156.3577 O   0  0  0  0  0  0  0  0  0  0  0  0
  149.2834  141.9556  155.1755 N   0  0  0  0  0  0  0  0  0  0  0  0
  148.8196  140.9639  154.2139 C   0  0  0  0  0  0  0  0  0  0  0  0
  147.3220  140.9560  153.9729 C   0  0  0  0  0  0  0  0  0  0  0  0
  146.5578  142.2567  153.8870 C   0  0  0  0  0  0  0  0  0  0  0  0
  146.3515  141.3389  155.0668 C   0  0  0  0  0  0  0  0  0  0  0  0
  151.3027  144.2874  158.5435 C   0  0  0  0  0  0  0  0  0  0  0  0
  152.8502  145.9670  161.1219 H   0  0  0  0  0  0  0  0  0  0  0  0
  151.1877  146.2319  160.5875 H   0  0  0  0  0  0  0  0  0  0  0  0
  152.5369  146.6640  159.5288 H   0  0  0  0  0  0  0  0  0  0  0  0
  153.6000  143.6736  160.9923 H   0  0  0  0  0  0  0  0  0  0  0  0
  154.2460  141.3437  160.9266 H   0  0  0  0  0  0  0  0  0  0  0  0
  154.3968  140.7719  159.2617 H   0  0  0  0  0  0  0  0  0  0  0  0
  153.0454  140.2301  160.2650 H   0  0  0  0  0  0  0  0  0  0  0  0
  149.8835  143.6548  156.6110 H   0  0  0  0  0  0  0  0  0  0  0  0
  148.9104  142.8889  155.0822 H   0  0  0  0  0  0  0  0  0  0  0  0
  149.3451  141.0911  153.2658 H   0  0  0  0  0  0  0  0  0  0  0  0
  149.1066  139.9826  154.5921 H   0  0  0  0  0  0  0  0  0  0  0  0
  146.9931  140.1786  153.2855 H   0  0  0  0  0  0  0  0  0  0  0  0
  147.1069  143.1802  154.0605 H   0  0  0  0  0  0  0  0  0  0  0  0
  145.7558  142.3214  153.1543 H   0  0  0  0  0  0  0  0  0  0  0  0
  145.4153  140.7875  155.1207 H   0  0  0  0  0  0  0  0  0  0  0  0
  146.7640  141.6511  156.0245 H   0  0  0  0  0  0  0  0  0  0  0  0
  150.6833  145.0737  158.1362 H   0  0  0  0  0  0  0  0  0  0  0  0
  1  2  1  0  0  0  0
  1 17  1  0  0  0  0
  1 18  1  0  0  0  0
  1 19  1  0  0  0  0
  2 16  1  0  0  0  0
  2  3  2  0  0  0  0
  3  4  1  0  0  0  0
  3 20  1  0  0  0  0
  4  5  1  0  0  0  0
  4  6  2  0  0  0  0
  5 21  1  0  0  0  0
  5 22  1  0  0  0  0
  5 23  1  0  0  0  0
  6  7  1  0  0  0  0
  7  8  1  0  0  0  0
  7 16  2  0  0  0  0
  8  9  1  0  0  0  0
  8 24  1  0  0  0  0
  9 10  2  0  0  0  0
  9 11  1  0  0  0  0
 11 12  1  0  0  0  0
 11 25  1  0  0  0  0
 12 13  1  0  0  0  0
 12 26  1  0  0  0  0
 12 27  1  0  0  0  0
 13 15  1  0  0  0  0
 13 14  1  0  0  0  0
 13 28  1  0  0  0  0
 14 15  1  0  0  0  0
 14 29  1  0  0  0  0
 14 30  1  0  0  0  0
 15 31  1  0  0  0  0
 15 32  1  0  0  0  0
 16 33  1  0  0  0  0
M  END
> <s_m_source_file>
AV-unprocessed.smi

> <i_m_source_file_index>
2292

> <i_lp_mmshare_version>
43012

> <i_f3d_flags>
0

> <s_epik_input>
W0NIM11jMVtjSF1jKFtDSDNdKW5jKFtjSF0xKVtOSF1DKD1PKVtOSF1bQ0gyXVtDSF0yW0NIMl1bQ0gyXTI=

> <s_epik_cmdline>
J2VwaWtfcHl0aG9uJywgJy1waCcsICc3LjAnLCAnLXRuJywgJzgnLCAnLW1hJywgJzIwMCcsICctbWV0YWxfYmluZGluZycsICctaW1hZScsICc8aW5maWxlLm1hZT4nLCAnLW9tYWUnLCAnPG91dGZpbGUubWFlPic=

> <r_lp_tautomer_probability>
1

> <r_epik_Ionization_Penalty>
0.000259455

> <r_epik_Ionization_Penalty_Charging>
0

> <r_epik_Ionization_Penalty_Neutral>
0.000259455

> <r_epik_State_Penalty>
-0

> <r_epik_Charging_Adjusted_Penalty>
0

> <i_epik_Tot_Q>
0

> <i_epik_Tot_abs_Q>
0

> <r_epik_Metal_State_Penalty>
-0

> <b_epik_Metal_Only>
0

> <s_lp_Force_Field>
OPLS_2005

> <r_lp_Energy>
13.7347

> <b_lp_Chiralities_Consistent>
1

> <s_lp_Variant>
AV-unprocessed.smi:2292-1

> <Gold.Version>
5.8.1

> <Gold.Id.Protein>
6NUR|6NUR_protein|mol2

> <Gold.PLP.Fitness>
46.2680

> <Gold.PLP.PLP>
-40.4531

> <Gold.PLP.part.hbond>
-2.0000

> <Gold.PLP.part.metal>
0.0000

> <Gold.PLP.part.buried>
-5.4351

> <Gold.PLP.part.nonpolar>
-32.8200

> <Gold.PLP.part.repulsive>
0.2683

> <Gold.PLP.ligand.clash>
0.0000

> <Gold.PLP.ligand.torsion>
0.3617

> <Gold.PLP.Chemscore.Hbond>
2.0000

> <Gold.PLP.Chemscore.CHOScore>
0.0000

> <Gold.PLP.Chemscore.Metal>
0.0000

> <Gold.Chemscore.Hbonds>
donor molecule, donor type, donor heavy atom, donor atom, acceptor molecule, acceptor atom, score
      L1  H     8    24       P1  8028  1.00
      L1  H    11    25       P1  8028  1.00

> <Gold.PLP.Chemscore.Internal.Correction>
0.5383

> <Gold.Rescore>
     Score         DG    S(hbond)    S(metal)    S(lipo)     H(rot)  DE(clash)    DE(int)     intcor
     18.39     -20.02       1.92        0.00      94.96       1.17       0.00       1.63       ----

> <Gold.Chemscore.Fitness>
18.3865

> <Gold.Chemscore.DG>
-20.0154

> <Gold.Chemscore.ZeroCoef>
-5.4800

> <Gold.Chemscore.Hbond>
1.9231

> <Gold.Chemscore.Metal>
0.0000

> <Gold.Chemscore.Lipo>
94.9561

> <Gold.Chemscore.Internal_Hbond>
0.0000

> <Gold.Chemscore.DEClash>
0.0029

> <Gold.Chemscore.DEInternal>
1.6260

> <Gold.Chemscore.Rot>
1.1709

> <Gold.Chemscore.Internal.Correction>
   9.000000E+99

> <Gold.Chemscore.Hbonds>
donor molecule, donor type, donor heavy atom, donor atom, acceptor molecule, acceptor atom, score
      L1  H     8    24       P1  8028  1.00
      L1  H    11    25       P1  8028  0.94

> <Gold.Chemscore.Hbond.Weighted>
-6.4230

> <Gold.Chemscore.Metal.Weighted>
-0.0000

> <Gold.Chemscore.Lipo.Weighted>
-11.1099

> <Gold.Chemscore.Internal_Hbond.Weighted>
0.0000

> <Gold.Chemscore.DEClash.Weighted>
0.0029

> <Gold.Chemscore.DEInternal.Weighted>
1.6260

> <Gold.Chemscore.Rot.Weighted>
2.9975

> <Gold.Chemscore.Internal.Correction.Weighted>
   9.000000E+99

> <Gold.Protein.RotatedTorsions>
[ 6907 6896 6895 6894 ] final  120.38 input  -60.11 | X-H torsion
[ 7974 7965 7964 7962 ] final   23.86 input  175.53 | X-H torsion
[ 8008 7997 7996 7995 ] final -155.27 input   59.86 | X-H torsion
[ 10167 10162 10161 10158 ] final   62.90 input  -65.29 | X-H torsion
[ 10718 10713 10712 10709 ] final  -39.14 input   66.30 | X-H torsion
[ 10763 10752 10751 10750 ] final  141.17 input  -60.55 | X-H torsion
[ 11005 11000 10999 10996 ] final   75.00 input  -57.11 | X-H torsion

> <Gold.Protein.ActiveResidues>
 VAL166  LYS551  ARG553  GLY616  TRP617  ASP618  TYR619  PRO620  LYS621  CYS622 
 ASP623  PHE694  ASN695  SER759  ASP760  ASP761  ALA762  ILE779  LEU786  VAL792 
 PHE793  MET794  SER795  GLU796  ALA797  LYS798  CYS799  TRP800  GLU811  SER814 

> <Gold.Protein.RotatedAtoms>
  152.4402  133.7435  159.6653 H   0  0  0  0  0  0  0  0  0  0  0  0  # atno 6907 bound_to 6896
  150.8292  133.8109  159.3112 H   0  0  0  0  0  0  0  0  0  0  0  0  # atno 6908 bound_to 6896
  151.5768  135.1062  160.0060 H   0  0  0  0  0  0  0  0  0  0  0  0  # atno 6909 bound_to 6896
  146.1964  139.7685  142.8794 H   0  0  0  0  0  0  0  0  0  0  0  0  # atno 7974 bound_to 7965
  155.6993  140.0765  157.2417 H   0  0  0  0  0  0  0  0  0  0  0  0  # atno 8008 bound_to 7997
  154.4075  140.1650  156.2226 H   0  0  0  0  0  0  0  0  0  0  0  0  # atno 8009 bound_to 7997
  155.9382  140.3386  155.6308 H   0  0  0  0  0  0  0  0  0  0  0  0  # atno 8010 bound_to 7997
  140.1389  144.4572  150.6822 H   0  0  0  0  0  0  0  0  0  0  0  0  # atno 10167 bound_to 10162
  156.2959  130.4234  149.8192 H   0  0  0  0  0  0  0  0  0  0  0  0  # atno 10718 bound_to 10713
  153.9347  135.2986  155.3444 H   0  0  0  0  0  0  0  0  0  0  0  0  # atno 10763 bound_to 10752
  154.7508  135.4981  153.9289 H   0  0  0  0  0  0  0  0  0  0  0  0  # atno 10764 bound_to 10752
  153.1073  135.6750  153.9669 H   0  0  0  0  0  0  0  0  0  0  0  0  # atno 10765 bound_to 10752
  139.9364  134.7480  156.1217 H   0  0  0  0  0  0  0  0  0  0  0  0  # atno 11005 bound_to 11000
  145.3628  141.0329  143.3275 LP  0  0  0  0  0  0  0  0  0  0  0  0  # atno 17320 bound_to 7965
  144.8590  139.5205  143.6821 LP  0  0  0  0  0  0  0  0  0  0  0  0  # atno 17321 bound_to 7965
  140.6772  143.2310  151.5476 LP  0  0  0  0  0  0  0  0  0  0  0  0  # atno 17342 bound_to 10162
  139.5482  144.2465  152.1481 LP  0  0  0  0  0  0  0  0  0  0  0  0  # atno 17343 bound_to 10162
  156.5588  130.8374  151.3322 LP  0  0  0  0  0  0  0  0  0  0  0  0  # atno 17370 bound_to 10713
  157.7355  130.9763  150.2085 LP  0  0  0  0  0  0  0  0  0  0  0  0  # atno 17371 bound_to 10713
  141.0980  133.6688  156.2689 LP  0  0  0  0  0  0  0  0  0  0  0  0  # atno 17394 bound_to 11000
  140.6064  134.5503  157.5526 LP  0  0  0  0  0  0  0  0  0  0  0  0  # atno 17395 bound_to 11000

$$$$
