AV-unprocessed.smi:72|AV-procd|sdf|663|dock6
  -GOLD-   2262016563D 1   1.00000     0.00000
 Structure written by MMmdl.
 29 30  0  0  0  0  0  0  0  0  1 V2000
  150.1853  134.6472  157.4757 N   0  0  0  0  0  0  0  0  0  0  0  0
  150.2666  135.8508  157.0325 C   0  0  0  0  0  0  0  0  0  0  0  0
  149.6169  136.9645  157.5863 N   0  0  0  0  0  0  0  0  0  0  0  0
  149.8010  138.1273  157.0410 C   0  0  0  0  0  0  0  0  0  0  0  0
  150.6635  138.3127  155.8844 N   0  0  0  0  0  0  0  0  0  0  0  0
  150.8549  139.6757  155.2588 C   0  0  2  0  0  0  0  0  0  0  0  0
  151.3776  140.5509  156.2171 O   0  0  0  0  0  0  0  0  0  0  0  0
  150.6133  141.7500  156.2277 C   0  0  2  0  0  0  0  0  0  0  0  0
  150.7448  142.4762  157.5789 C   0  0  0  0  0  0  0  0  0  0  0  0
  149.7674  143.4836  157.7414 O   0  0  0  0  0  0  0  0  0  0  0  0
  149.2089  141.3171  155.8008 C   0  0  1  0  0  0  0  0  0  0  0  0
  148.4302  142.3844  155.2930 O   0  0  0  0  0  0  0  0  0  0  0  0
  149.5079  140.2367  154.7648 C   0  0  1  0  0  0  0  0  0  0  0  0
  149.6305  140.7528  153.4521 O   0  0  0  0  0  0  0  0  0  0  0  0
  151.2995  137.1947  155.2923 C   0  0  0  0  0  0  0  0  0  0  0  0
  152.0010  137.2875  154.2851 O   0  0  0  0  0  0  0  0  0  0  0  0
  151.0794  136.0094  155.9016 N   0  0  0  0  0  0  0  0  0  0  0  0
  151.5959  139.5508  154.4675 H   0  0  0  0  0  0  0  0  0  0  0  0
  151.0396  142.3867  155.4501 H   0  0  0  0  0  0  0  0  0  0  0  0
  148.6782  140.8585  156.6355 H   0  0  0  0  0  0  0  0  0  0  0  0
  148.7381  139.4634  154.7563 H   0  0  0  0  0  0  0  0  0  0  0  0
  150.7392  134.0220  156.9088 H   0  0  0  0  0  0  0  0  0  0  0  0
  149.3205  139.0338  157.4105 H   0  0  0  0  0  0  0  0  0  0  0  0
  150.6790  141.7663  158.4038 H   0  0  0  0  0  0  0  0  0  0  0  0
  151.7243  142.9506  157.6442 H   0  0  0  0  0  0  0  0  0  0  0  0
  149.4931  143.7766  156.8859 H   0  0  0  0  0  0  0  0  0  0  0  0
  148.8936  143.1932  155.4480 H   0  0  0  0  0  0  0  0  0  0  0  0
  149.4596  140.0550  152.8380 H   0  0  0  0  0  0  0  0  0  0  0  0
  151.5248  135.1941  155.5070 H   0  0  0  0  0  0  0  0  0  0  0  0
  1  2  2  0  0  0  0
  1 22  1  0  0  0  0
  2 17  1  0  0  0  0
  2  3  1  0  0  0  0
  3  4  2  0  0  0  0
  4  5  1  0  0  0  0
  4 23  1  0  0  0  0
  5  6  1  0  0  0  0
  5 15  1  0  0  0  0
  6 18  1  0  0  0  0
  6 13  1  0  0  0  0
  6  7  1  0  0  0  0
  7  8  1  0  0  0  0
  8 19  1  0  0  0  0
  8  9  1  0  0  0  0
  8 11  1  0  0  0  0
  9 10  1  0  0  0  0
  9 24  1  0  0  0  0
  9 25  1  0  0  0  0
 10 26  1  0  0  0  0
 11 20  1  0  0  0  0
 11 12  1  0  0  0  0
 11 13  1  0  0  0  0
 12 27  1  0  0  0  0
 13 21  1  0  0  0  0
 13 14  1  0  0  0  0
 14 28  1  0  0  0  0
 15 16  2  0  0  0  0
 15 17  1  0  0  0  0
 17 29  1  0  0  0  0
M  END
> <s_m_source_file>
AV-unprocessed.smi

> <i_m_source_file_index>
72

> <i_lp_mmshare_version>
43012

> <i_f3d_flags>
0

> <s_epik_input>
W05IMl1jMW5bY0hdbihjKD1PKW4xKVtDQEBIXTJPW0NASF0oW0NIMl1bT0hdKVtDQEBIXShbT0hdKVtDQEhdMltPSF0=

> <s_epik_cmdline>
J2VwaWtfcHl0aG9uJywgJy1waCcsICc3LjAnLCAnLXRuJywgJzgnLCAnLW1hJywgJzIwMCcsICctbWV0YWxfYmluZGluZycsICctaW1hZScsICc8aW5maWxlLm1hZT4nLCAnLW9tYWUnLCAnPG91dGZpbGUubWFlPic=

> <r_lp_tautomer_probability>
7.17554e-07

> <r_epik_Ionization_Penalty>
0.0066451

> <r_epik_Ionization_Penalty_Charging>
0.00663793

> <r_epik_Ionization_Penalty_Neutral>
7.17052e-06

> <r_epik_State_Penalty>
0.419231

> <r_epik_Charging_Adjusted_Penalty>
0.425868

> <i_epik_Tot_Q>
0

> <i_epik_Tot_abs_Q>
0

> <r_epik_Metal_State_Penalty>
1.44144

> <b_epik_Metal_Only>
0

> <s_epik_Chemistry_Notes>
This compound contains an acetal/aminal-like group ( X-CH(R)-Y where X, Y are N, S, or O) that may be acid/base labile, releasing an aldehyde.

> <s_lp_Force_Field>
OPLS_2005

> <r_lp_Energy>
44.3383

> <b_lp_Chiralities_Consistent>
1

> <s_lp_Variant>
AV-unprocessed.smi:72-1

> <Gold.Version>
5.8.1

> <Gold.Id.Protein>
6NUR|6NUR_protein|mol2

> <Gold.PLP.Fitness>
40.4684

> <Gold.PLP.PLP>
-23.9838

> <Gold.PLP.part.hbond>
-6.8237

> <Gold.PLP.part.metal>
0.0000

> <Gold.PLP.part.buried>
-4.8136

> <Gold.PLP.part.nonpolar>
-14.0376

> <Gold.PLP.part.repulsive>
0.2814

> <Gold.PLP.ligand.clash>
0.0000

> <Gold.PLP.ligand.torsion>
0.1060

> <Gold.PLP.Chemscore.Hbond>
5.5632

> <Gold.PLP.Chemscore.CHOScore>
0.0000

> <Gold.PLP.Chemscore.Metal>
0.0000

> <Gold.Chemscore.Hbonds>
donor molecule, donor type, donor heavy atom, donor atom, acceptor molecule, acceptor atom, score
      L1  H    10    26       P1  8028  1.00
      L1  H    12    27       P1  8028  0.99
      L1  H    14    28       P1  7957  0.59
      P1  H  6896  6907       L1     1  0.75
      P1  H  7989  7998       L1    14  0.30
      P1  H  8011  8017       L1    14  1.00
      P1  H 10752 10764       L1    16  0.93

> <Gold.PLP.Chemscore.Internal.Correction>
0.0070

> <Gold.Rescore>
     Score         DG    S(hbond)    S(metal)    S(lipo)     H(rot)  DE(clash)    DE(int)     intcor
     11.85     -11.97       4.11        0.00      26.98       4.06       0.01       0.11       ----

> <Gold.Chemscore.Fitness>
11.8493

> <Gold.Chemscore.DG>
-11.9730

> <Gold.Chemscore.ZeroCoef>
-5.4800

> <Gold.Chemscore.Hbond>
4.1107

> <Gold.Chemscore.Metal>
0.0000

> <Gold.Chemscore.Lipo>
26.9813

> <Gold.Chemscore.Internal_Hbond>
0.0000

> <Gold.Chemscore.DEClash>
0.0135

> <Gold.Chemscore.DEInternal>
0.1102

> <Gold.Chemscore.Rot>
4.0600

> <Gold.Chemscore.Internal.Correction>
   9.000000E+99

> <Gold.Chemscore.Hbonds>
donor molecule, donor type, donor heavy atom, donor atom, acceptor molecule, acceptor atom, score
      L1  H    10    26       P1  8028  0.90
      L1  H    12    27       P1  8028  0.87
      L1  H    14    28       P1  7957  0.58
      P1  H  6896  6907       L1     1  0.28
      P1  H  7989  7998       L1    14  0.02
      P1  H  8011  8017       L1    14  0.47
      P1  H 10752 10764       L1    16  0.63

> <Gold.Chemscore.Hbond.Weighted>
-13.7298

> <Gold.Chemscore.Metal.Weighted>
-0.0000

> <Gold.Chemscore.Lipo.Weighted>
-3.1568

> <Gold.Chemscore.Internal_Hbond.Weighted>
0.0000

> <Gold.Chemscore.DEClash.Weighted>
0.0135

> <Gold.Chemscore.DEInternal.Weighted>
0.1102

> <Gold.Chemscore.Rot.Weighted>
10.3936

> <Gold.Chemscore.Internal.Correction.Weighted>
   9.000000E+99

> <Gold.Protein.RotatedTorsions>
[ 6907 6896 6895 6894 ] final  -98.25 input  -60.11 | X-H torsion
[ 7974 7965 7964 7962 ] final -165.85 input  175.53 | X-H torsion
[ 8008 7997 7996 7995 ] final    3.27 input   59.86 | X-H torsion
[ 10167 10162 10161 10158 ] final   45.96 input  -65.29 | X-H torsion
[ 10718 10713 10712 10709 ] final  -61.58 input   66.30 | X-H torsion
[ 10763 10752 10751 10750 ] final  -89.31 input  -60.55 | X-H torsion
[ 11005 11000 10999 10996 ] final   34.68 input  -57.11 | X-H torsion

> <Gold.Protein.ActiveResidues>
 VAL166  LYS551  ARG553  GLY616  TRP617  ASP618  TYR619  PRO620  LYS621  CYS622 
 ASP623  PHE694  ASN695  SER759  ASP760  ASP761  ALA762  ILE779  LEU786  VAL792 
 PHE793  MET794  SER795  GLU796  ALA797  LYS798  CYS799  TRP800  GLU811  SER814 

> <Gold.Protein.RotatedAtoms>
  150.7041  134.1224  159.4039 H   0  0  0  0  0  0  0  0  0  0  0  0  # atno 6907 bound_to 6896
  151.9210  135.0296  160.0531 H   0  0  0  0  0  0  0  0  0  0  0  0  # atno 6908 bound_to 6896
  152.2256  133.4982  159.5223 H   0  0  0  0  0  0  0  0  0  0  0  0  # atno 6909 bound_to 6896
  144.7260  140.2753  143.6244 H   0  0  0  0  0  0  0  0  0  0  0  0  # atno 7974 bound_to 7965
  154.7016  140.2674  155.6714 H   0  0  0  0  0  0  0  0  0  0  0  0  # atno 8008 bound_to 7997
  156.2766  140.2771  156.1552 H   0  0  0  0  0  0  0  0  0  0  0  0  # atno 8009 bound_to 7997
  155.0757  140.0372  157.2613 H   0  0  0  0  0  0  0  0  0  0  0  0  # atno 8010 bound_to 7997
  140.3188  144.2730  150.6186 H   0  0  0  0  0  0  0  0  0  0  0  0  # atno 10167 bound_to 10162
  156.0912  130.4200  150.1015 H   0  0  0  0  0  0  0  0  0  0  0  0  # atno 10718 bound_to 10713
  154.6539  135.5345  153.7935 H   0  0  0  0  0  0  0  0  0  0  0  0  # atno 10763 bound_to 10752
  153.0402  135.6489  154.0975 H   0  0  0  0  0  0  0  0  0  0  0  0  # atno 10764 bound_to 10752
  154.0890  135.2941  155.3255 H   0  0  0  0  0  0  0  0  0  0  0  0  # atno 10765 bound_to 10752
  140.2504  134.3310  155.7892 H   0  0  0  0  0  0  0  0  0  0  0  0  # atno 11005 bound_to 11000
  145.8002  139.1961  143.2052 LP  0  0  0  0  0  0  0  0  0  0  0  0  # atno 17320 bound_to 7965
  146.0683  140.7897  142.9701 LP  0  0  0  0  0  0  0  0  0  0  0  0  # atno 17321 bound_to 7965
  140.5502  143.2208  151.7940 LP  0  0  0  0  0  0  0  0  0  0  0  0  # atno 17342 bound_to 10162
  139.4878  144.4487  151.9680 LP  0  0  0  0  0  0  0  0  0  0  0  0  # atno 17343 bound_to 10162
  156.9024  130.9624  151.3574 LP  0  0  0  0  0  0  0  0  0  0  0  0  # atno 17370 bound_to 10713
  157.6061  130.8548  149.8878 LP  0  0  0  0  0  0  0  0  0  0  0  0  # atno 17371 bound_to 10713
  141.2202  133.7350  156.9028 LP  0  0  0  0  0  0  0  0  0  0  0  0  # atno 17394 bound_to 11000
  140.1564  134.9195  157.2658 LP  0  0  0  0  0  0  0  0  0  0  0  0  # atno 17395 bound_to 11000

$$$$
