AV-unprocessed.smi:457|AV-procd|sdf|2619|dock3
  -GOLD-   2262023 23D 1   1.00000     0.00000
 Structure written by MMmdl.
 41 41  0  0  0  0  0  0  0  0  1 V2000
  146.7976  142.2000  154.1479 C   0  0  0  0  0  0  0  0  0  0  0  0
  147.8105  141.5450  155.0917 C   0  0  0  0  0  0  0  0  0  0  0  0
  149.1771  141.3249  154.4211 C   0  0  0  0  0  0  0  0  0  0  0  0
  150.1924  140.8784  155.3542 N   0  0  0  0  0  0  0  0  0  0  0  0
  150.6220  141.6295  156.4521 C   0  0  0  0  0  0  0  0  0  0  0  0
  150.0627  142.8828  156.6487 N   0  0  0  0  0  0  0  0  0  0  0  0
  151.5857  141.1748  157.3051 C   0  0  0  0  0  0  0  0  0  0  0  0
  152.0317  141.8970  158.4092 N   0  0  0  0  0  0  0  0  0  0  0  0
  153.0673  141.3635  159.2915 C   0  0  0  0  0  0  0  0  0  0  0  0
  153.1046  142.0817  160.6470 C   0  0  0  0  0  0  0  0  0  0  0  0
  151.4502  143.1938  158.7525 C   0  0  0  0  0  0  0  0  0  0  0  0
  152.3702  144.3660  158.3830 C   0  0  0  0  0  0  0  0  0  0  0  0
  151.7816  145.5709  158.8420 O   0  0  0  0  0  0  0  0  0  0  0  0
  151.5320  145.5561  160.2366 C   0  0  0  0  0  0  0  0  0  0  0  0
  152.2082  139.8629  157.0908 C   0  0  0  0  0  0  0  0  0  0  0  0
  153.0677  139.3502  157.8070 O   0  0  0  0  0  0  0  0  0  0  0  0
  151.7574  139.1748  155.9670 N   0  0  0  0  0  0  0  0  0  0  0  0
  150.7863  139.6236  155.0792 C   0  0  0  0  0  0  0  0  0  0  0  0
  150.4875  138.9277  154.1079 O   0  0  0  0  0  0  0  0  0  0  0  0
  152.1742  138.2746  155.7792 H   0  0  0  0  0  0  0  0  0  0  0  0
  145.8395  142.3463  154.6472 H   0  0  0  0  0  0  0  0  0  0  0  0
  146.6235  141.5814  153.2672 H   0  0  0  0  0  0  0  0  0  0  0  0
  147.1489  143.1752  153.8096 H   0  0  0  0  0  0  0  0  0  0  0  0
  147.9278  142.1700  155.9776 H   0  0  0  0  0  0  0  0  0  0  0  0
  147.4140  140.5903  155.4388 H   0  0  0  0  0  0  0  0  0  0  0  0
  149.1184  140.5771  153.6310 H   0  0  0  0  0  0  0  0  0  0  0  0
  149.5436  142.2275  153.9285 H   0  0  0  0  0  0  0  0  0  0  0  0
  149.3630  143.2527  156.0216 H   0  0  0  0  0  0  0  0  0  0  0  0
  150.2809  143.4430  157.4599 H   0  0  0  0  0  0  0  0  0  0  0  0
  152.9162  140.2953  159.4442 H   0  0  0  0  0  0  0  0  0  0  0  0
  154.0414  141.4627  158.8109 H   0  0  0  0  0  0  0  0  0  0  0  0
  153.9158  141.6966  161.2649 H   0  0  0  0  0  0  0  0  0  0  0  0
  152.1775  141.9466  161.2037 H   0  0  0  0  0  0  0  0  0  0  0  0
  153.2654  143.1525  160.5189 H   0  0  0  0  0  0  0  0  0  0  0  0
  150.4868  143.3108  158.2567 H   0  0  0  0  0  0  0  0  0  0  0  0
  151.2409  143.2284  159.8226 H   0  0  0  0  0  0  0  0  0  0  0  0
  153.3494  144.2318  158.8455 H   0  0  0  0  0  0  0  0  0  0  0  0
  152.5184  144.4181  157.3040 H   0  0  0  0  0  0  0  0  0  0  0  0
  151.0847  146.5031  160.5385 H   0  0  0  0  0  0  0  0  0  0  0  0
  152.4560  145.4252  160.8019 H   0  0  0  0  0  0  0  0  0  0  0  0
  150.8407  144.7560  160.5049 H   0  0  0  0  0  0  0  0  0  0  0  0
  1  2  1  0  0  0  0
  1 21  1  0  0  0  0
  1 22  1  0  0  0  0
  1 23  1  0  0  0  0
  2  3  1  0  0  0  0
  2 24  1  0  0  0  0
  2 25  1  0  0  0  0
  3  4  1  0  0  0  0
  3 26  1  0  0  0  0
  3 27  1  0  0  0  0
  4 18  1  0  0  0  0
  4  5  1  0  0  0  0
  5  6  1  0  0  0  0
  5  7  2  0  0  0  0
  6 28  1  0  0  0  0
  6 29  1  0  0  0  0
  7  8  1  0  0  0  0
  7 15  1  0  0  0  0
  8  9  1  0  0  0  0
  8 11  1  0  0  0  0
  9 10  1  0  0  0  0
  9 30  1  0  0  0  0
  9 31  1  0  0  0  0
 10 32  1  0  0  0  0
 10 33  1  0  0  0  0
 10 34  1  0  0  0  0
 11 12  1  0  0  0  0
 11 35  1  0  0  0  0
 11 36  1  0  0  0  0
 12 13  1  0  0  0  0
 12 37  1  0  0  0  0
 12 38  1  0  0  0  0
 13 14  1  0  0  0  0
 14 39  1  0  0  0  0
 14 40  1  0  0  0  0
 14 41  1  0  0  0  0
 15 16  2  0  0  0  0
 15 17  1  0  0  0  0
 17 20  1  0  0  0  0
 17 18  1  0  0  0  0
 18 19  2  0  0  0  0
M  END
> <s_m_source_file>
AV-unprocessed.smi

> <i_m_source_file_index>
457

> <i_lp_mmshare_version>
43012

> <i_f3d_flags>
0

> <s_epik_input>
W0NIM11bQ0gyXVtDSDJdbjFjKFtOSDJdKWMoYyg9TylbbkhdYzE9TylOKFtDSDJdW0NIM10pW0NIMl1bQ0gyXU9bQ0gzXQ==

> <s_epik_cmdline>
J2VwaWtfcHl0aG9uJywgJy1waCcsICc3LjAnLCAnLXRuJywgJzgnLCAnLW1hJywgJzIwMCcsICctbWV0YWxfYmluZGluZycsICctaW1hZScsICc8aW5maWxlLm1hZT4nLCAnLW9tYWUnLCAnPG91dGZpbGUubWFlPic=

> <r_lp_tautomer_probability>
1

> <r_epik_Ionization_Penalty>
0.000127086

> <r_epik_Ionization_Penalty_Charging>
2.15301e-06

> <r_epik_Ionization_Penalty_Neutral>
0.000124933

> <r_epik_State_Penalty>
-0

> <r_epik_Charging_Adjusted_Penalty>
2.15301e-06

> <i_epik_Tot_Q>
0

> <i_epik_Tot_abs_Q>
0

> <r_epik_Metal_State_Penalty>
-0

> <b_epik_Metal_Only>
0

> <s_epik_Chemistry_Notes>
This compound has an imine and may undergo hydrolysis.

> <s_lp_Force_Field>
OPLS_2005

> <r_lp_Energy>
18.1381

> <b_lp_Chiralities_Consistent>
1

> <s_lp_Variant>
AV-unprocessed.smi:457-1

> <Gold.Version>
5.8.1

> <Gold.Id.Protein>
6NUR|6NUR_protein|mol2

> <Gold.PLP.Fitness>
48.8528

> <Gold.PLP.PLP>
-44.4493

> <Gold.PLP.part.hbond>
-2.7000

> <Gold.PLP.part.metal>
0.0000

> <Gold.PLP.part.buried>
-2.2624

> <Gold.PLP.part.nonpolar>
-38.4807

> <Gold.PLP.part.repulsive>
0.4903

> <Gold.PLP.ligand.clash>
22.8091

> <Gold.PLP.ligand.torsion>
0.4581

> <Gold.PLP.Chemscore.Hbond>
1.7520

> <Gold.PLP.Chemscore.CHOScore>
0.0000

> <Gold.PLP.Chemscore.Metal>
0.0000

> <Gold.Chemscore.Hbonds>
donor molecule, donor type, donor heavy atom, donor atom, acceptor molecule, acceptor atom, score
      L1  H     6    28       P1  8028  0.67
      P1  H  7997  8009       L1    16  1.00

> <Gold.PLP.Chemscore.Internal.Correction>
22.8728

> <Gold.Rescore>
     Score         DG    S(hbond)    S(metal)    S(lipo)     H(rot)  DE(clash)    DE(int)     intcor
     11.00     -14.95       1.56        0.00      82.88       2.12       0.16       3.79       ----

> <Gold.Chemscore.Fitness>
11.0032

> <Gold.Chemscore.DG>
-14.9541

> <Gold.Chemscore.ZeroCoef>
-5.4800

> <Gold.Chemscore.Hbond>
1.5611

> <Gold.Chemscore.Metal>
0.0000

> <Gold.Chemscore.Lipo>
82.8785

> <Gold.Chemscore.Internal_Hbond>
0.0000

> <Gold.Chemscore.DEClash>
0.1566

> <Gold.Chemscore.DEInternal>
3.7942

> <Gold.Chemscore.Rot>
2.1237

> <Gold.Chemscore.Internal.Correction>
   9.000000E+99

> <Gold.Chemscore.Hbonds>
donor molecule, donor type, donor heavy atom, donor atom, acceptor molecule, acceptor atom, score
      L1  H     6    28       P1  8028  0.67
      P1  H  7997  8009       L1    16  0.39

> <Gold.Chemscore.Hbond.Weighted>
-5.2140

> <Gold.Chemscore.Metal.Weighted>
-0.0000

> <Gold.Chemscore.Lipo.Weighted>
-9.6968

> <Gold.Chemscore.Internal_Hbond.Weighted>
0.0000

> <Gold.Chemscore.DEClash.Weighted>
0.1566

> <Gold.Chemscore.DEInternal.Weighted>
3.7942

> <Gold.Chemscore.Rot.Weighted>
5.4367

> <Gold.Chemscore.Internal.Correction.Weighted>
   9.000000E+99

> <Gold.Protein.RotatedTorsions>
[ 6907 6896 6895 6894 ] final   51.13 input  -60.11 | X-H torsion
[ 7974 7965 7964 7962 ] final    6.20 input  175.53 | X-H torsion
[ 8008 7997 7996 7995 ] final  147.66 input   59.86 | X-H torsion
[ 10167 10162 10161 10158 ] final   81.42 input  -65.29 | X-H torsion
[ 10718 10713 10712 10709 ] final    5.30 input   66.30 | X-H torsion
[ 10763 10752 10751 10750 ] final  163.48 input  -60.55 | X-H torsion
[ 11005 11000 10999 10996 ] final  -57.34 input  -57.11 | X-H torsion

> <Gold.Protein.ActiveResidues>
 VAL166  LYS551  ARG553  GLY616  TRP617  ASP618  TYR619  PRO620  LYS621  CYS622 
 ASP623  PHE694  ASN695  SER759  ASP760  ASP761  ALA762  ILE779  LEU786  VAL792 
 PHE793  MET794  SER795  GLU796  ALA797  LYS798  CYS799  TRP800  GLU811  SER814 

> <Gold.Protein.RotatedAtoms>
  152.3094  134.7516  160.0339 H   0  0  0  0  0  0  0  0  0  0  0  0  # atno 6907 bound_to 6896
  151.8002  133.3364  159.3533 H   0  0  0  0  0  0  0  0  0  0  0  0  # atno 6908 bound_to 6896
  150.7312  134.5691  159.5925 H   0  0  0  0  0  0  0  0  0  0  0  0  # atno 6909 bound_to 6896
  146.2436  140.0270  142.8393 H   0  0  0  0  0  0  0  0  0  0  0  0  # atno 7974 bound_to 7965
  156.2817  140.2149  156.5573 H   0  0  0  0  0  0  0  0  0  0  0  0  # atno 8008 bound_to 7997
  154.7242  140.0501  157.0690 H   0  0  0  0  0  0  0  0  0  0  0  0  # atno 8009 bound_to 7997
  155.0438  140.3148  155.4718 H   0  0  0  0  0  0  0  0  0  0  0  0  # atno 8010 bound_to 7997
  139.9394  144.6100  150.8266 H   0  0  0  0  0  0  0  0  0  0  0  0  # atno 10167 bound_to 10162
  156.9054  130.5737  149.5647 H   0  0  0  0  0  0  0  0  0  0  0  0  # atno 10718 bound_to 10713
  154.2943  135.2760  155.2640 H   0  0  0  0  0  0  0  0  0  0  0  0  # atno 10763 bound_to 10752
  154.5106  135.5783  153.6605 H   0  0  0  0  0  0  0  0  0  0  0  0  # atno 10764 bound_to 10752
  152.9909  135.6180  154.3109 H   0  0  0  0  0  0  0  0  0  0  0  0  # atno 10765 bound_to 10752
  141.1160  133.6610  156.4755 H   0  0  0  0  0  0  0  0  0  0  0  0  # atno 11005 bound_to 11000
  145.1190  140.9451  143.4612 LP  0  0  0  0  0  0  0  0  0  0  0  0  # atno 17320 bound_to 7965
  145.0500  139.3189  143.5933 LP  0  0  0  0  0  0  0  0  0  0  0  0  # atno 17321 bound_to 7965
  140.7615  143.3176  151.2697 LP  0  0  0  0  0  0  0  0  0  0  0  0  # atno 17342 bound_to 10162
  139.6717  144.0009  152.2757 LP  0  0  0  0  0  0  0  0  0  0  0  0  # atno 17343 bound_to 10162
  156.0562  130.5623  150.9095 LP  0  0  0  0  0  0  0  0  0  0  0  0  # atno 17370 bound_to 10713
  157.6000  131.0941  150.8976 LP  0  0  0  0  0  0  0  0  0  0  0  0  # atno 17371 bound_to 10713
  140.4644  134.6812  157.5100 LP  0  0  0  0  0  0  0  0  0  0  0  0  # atno 17394 bound_to 11000
  140.0083  134.6730  155.9420 LP  0  0  0  0  0  0  0  0  0  0  0  0  # atno 17395 bound_to 11000

$$$$
