AV-unprocessed.smi:1218|AV-procd|sdf|5107|dock4
  -GOLD-   22720 4163D 1   1.00000     0.00000
 Structure written by MMmdl.
 45 46  0  0  0  0  0  0  0  0  2 V2000
  146.4535  133.0685  150.8530 C   0  0  0  0  0  0  0  0  0  0  0  0
  145.7481  134.0010  151.8492 C   0  0  0  0  0  0  0  0  0  0  0  0
  145.7827  135.4524  151.3417 C   0  0  0  0  0  0  0  0  0  0  0  0
  146.3749  133.8660  153.2541 C   0  0  0  0  0  0  0  0  0  0  0  0
  147.8383  134.1385  153.2738 N   0  3  2  0  0  0  0  0  0  0  0  0
  148.6628  132.9632  152.9025 C   0  0  0  0  0  0  0  0  0  0  0  0
  148.7762  131.9737  154.0755 C   0  0  0  0  0  0  0  0  0  0  0  0
  149.3146  132.6469  155.2059 O   0  0  0  0  0  0  0  0  0  0  0  0
  148.4830  133.7093  155.6631 C   0  0  1  0  0  0  0  0  0  0  0  0
  149.1139  134.3268  156.9243 C   0  0  0  0  0  0  0  0  0  0  0  0
  148.1215  134.9960  157.7590 N   0  0  0  0  0  0  0  0  0  0  0  0
  148.3948  135.7634  158.8253 C   0  0  0  0  0  0  0  0  0  0  0  0
  149.5396  135.9810  159.2236 O   0  0  0  0  0  0  0  0  0  0  0  0
  147.1877  136.3689  159.5496 C   0  0  0  0  0  0  0  0  0  0  0  0
  147.1439  135.9891  160.9522 N   0  0  0  0  0  0  0  0  0  0  0  0
  146.9102  134.7432  161.4977 C   0  0  0  0  0  0  0  0  0  0  0  0
  146.9744  134.8748  162.8553 C   0  0  0  0  0  0  0  0  0  0  0  0
  147.2599  136.2555  163.0478 C   0  0  0  0  0  0  0  0  0  0  0  0
  147.3637  136.9190  161.9076 N   0  0  0  0  0  0  0  0  0  0  0  0
  148.3475  134.7502  154.5289 C   0  0  0  0  0  0  0  0  0  0  0  0
  147.5090  133.3223  150.7490 H   0  0  0  0  0  0  0  0  0  0  0  0
  145.9977  133.1319  149.8644 H   0  0  0  0  0  0  0  0  0  0  0  0
  146.3921  132.0283  151.1749 H   0  0  0  0  0  0  0  0  0  0  0  0
  144.7064  133.6845  151.8864 H   0  0  0  0  0  0  0  0  0  0  0  0
  146.8049  135.8275  151.2803 H   0  0  0  0  0  0  0  0  0  0  0  0
  145.2214  136.1193  151.9965 H   0  0  0  0  0  0  0  0  0  0  0  0
  145.3418  135.5293  150.3472 H   0  0  0  0  0  0  0  0  0  0  0  0
  145.8641  134.5196  153.9610 H   0  0  0  0  0  0  0  0  0  0  0  0
  146.1947  132.8492  153.6063 H   0  0  0  0  0  0  0  0  0  0  0  0
  148.2618  132.4726  152.0149 H   0  0  0  0  0  0  0  0  0  0  0  0
  149.6594  133.3146  152.6322 H   0  0  0  0  0  0  0  0  0  0  0  0
  147.8090  131.5329  154.3214 H   0  0  0  0  0  0  0  0  0  0  0  0
  149.4402  131.1515  153.8082 H   0  0  0  0  0  0  0  0  0  0  0  0
  147.5010  133.3138  155.9264 H   0  0  0  0  0  0  0  0  0  0  0  0
  149.6583  133.5725  157.4951 H   0  0  0  0  0  0  0  0  0  0  0  0
  149.8474  135.0793  156.6337 H   0  0  0  0  0  0  0  0  0  0  0  0
  147.1525  134.8711  157.5035 H   0  0  0  0  0  0  0  0  0  0  0  0
  147.2155  137.4579  159.4919 H   0  0  0  0  0  0  0  0  0  0  0  0
  146.2721  136.0437  159.0531 H   0  0  0  0  0  0  0  0  0  0  0  0
  146.7174  133.8777  160.8809 H   0  0  0  0  0  0  0  0  0  0  0  0
  146.8388  134.1027  163.5980 H   0  0  0  0  0  0  0  0  0  0  0  0
  147.3956  136.7911  163.9758 H   0  0  0  0  0  0  0  0  0  0  0  0
  149.3280  135.1790  154.3170 H   0  0  0  0  0  0  0  0  0  0  0  0
  147.7192  135.5823  154.8435 H   0  0  0  0  0  0  0  0  0  0  0  0
  147.9856  134.8185  152.5414 H   0  0  0  0  0  0  0  0  0  0  0  0
  1  2  1  0  0  0  0
  1 21  1  0  0  0  0
  1 22  1  0  0  0  0
  1 23  1  0  0  0  0
  2  3  1  0  0  0  0
  2  4  1  0  0  0  0
  2 24  1  0  0  0  0
  3 25  1  0  0  0  0
  3 26  1  0  0  0  0
  3 27  1  0  0  0  0
  4  5  1  0  0  0  0
  4 28  1  0  0  0  0
  4 29  1  0  0  0  0
  5 20  1  0  0  0  0
  5  6  1  0  0  0  0
  5 45  1  0  0  0  0
  6  7  1  0  0  0  0
  6 30  1  0  0  0  0
  6 31  1  0  0  0  0
  7  8  1  0  0  0  0
  7 32  1  0  0  0  0
  7 33  1  0  0  0  0
  8  9  1  0  0  0  0
  9 10  1  0  0  0  0
  9 20  1  0  0  0  0
  9 34  1  0  0  0  0
 10 11  1  0  0  0  0
 10 35  1  0  0  0  0
 10 36  1  0  0  0  0
 11 12  1  0  0  0  0
 11 37  1  0  0  0  0
 12 13  2  0  0  0  0
 12 14  1  0  0  0  0
 14 15  1  0  0  0  0
 14 38  1  0  0  0  0
 14 39  1  0  0  0  0
 15 19  1  0  0  0  0
 15 16  1  0  0  0  0
 16 17  2  0  0  0  0
 16 40  1  0  0  0  0
 17 18  1  0  0  0  0
 17 41  1  0  0  0  0
 18 19  2  0  0  0  0
 18 42  1  0  0  0  0
 20 43  1  0  0  0  0
 20 44  1  0  0  0  0
M  CHG  1   5   1
M  END
> <s_m_source_file>
AV-unprocessed.smi

> <i_m_source_file_index>
1218

> <i_lp_mmshare_version>
43012

> <i_f3d_flags>
0

> <s_epik_input>
W0NIM11bQ0hdKFtDSDNdKVtDSDJdTjFbQ0gyXVtDSDJdT1tDQEhdKFtDSDJdMSlbQ0gyXVtOSF1DKD1PKVtDSDJdbjJbY0hdW2NIXVtjSF1uMg==

> <s_epik_cmdline>
J2VwaWtfcHl0aG9uJywgJy1waCcsICc3LjAnLCAnLXRuJywgJzgnLCAnLW1hJywgJzIwMCcsICctbWV0YWxfYmluZGluZycsICctaW1hZScsICc8aW5maWxlLm1hZT4nLCAnLW9tYWUnLCAnPG91dGZpbGUubWFlPic=

> <r_lp_tautomer_probability>
1

> <r_epik_Ionization_Penalty>
0.0995066

> <r_epik_Ionization_Penalty_Charging>
0.0994921

> <r_epik_Ionization_Penalty_Neutral>
1.44634e-05

> <r_epik_State_Penalty>
0.0895432

> <r_epik_Charging_Adjusted_Penalty>
0.189035

> <i_epik_Tot_Q>
1

> <i_epik_Tot_abs_Q>
1

> <r_epik_Metal_State_Penalty>
0.0895432

> <b_epik_Metal_Only>
0

> <s_lp_Force_Field>
OPLS_2005

> <r_lp_Energy>
22.0385

> <b_lp_Chiralities_Consistent>
1

> <s_lp_Variant>
AV-unprocessed.smi:1218-2

> <Gold.Version>
5.8.1

> <Gold.Id.Protein>
6NUR|6NUR_protein|mol2

> <Gold.PLP.Fitness>
48.9557

> <Gold.PLP.PLP>
-36.6428

> <Gold.PLP.part.hbond>
-4.0000

> <Gold.PLP.part.metal>
0.0000

> <Gold.PLP.part.buried>
-2.5320

> <Gold.PLP.part.nonpolar>
-29.0492

> <Gold.PLP.part.repulsive>
0.0611

> <Gold.PLP.ligand.clash>
0.0000

> <Gold.PLP.ligand.torsion>
0.7228

> <Gold.PLP.Chemscore.Hbond>
4.5170

> <Gold.PLP.Chemscore.CHOScore>
0.0000

> <Gold.PLP.Chemscore.Metal>
0.0000

> <Gold.Chemscore.Hbonds>
donor molecule, donor type, donor heavy atom, donor atom, acceptor molecule, acceptor atom, score
      L1  H     5    45       P1  7948  1.98
      P1  H  6896  6907       L1    13  1.00
      P1  H  6931  6943       L1    19  0.75
      P1  H  6934  6947       L1    19  0.23

> <Gold.PLP.Chemscore.Internal.Correction>
0.2076

> <Gold.Rescore>
     Score         DG    S(hbond)    S(metal)    S(lipo)     H(rot)  DE(clash)    DE(int)     intcor
     17.59     -18.60       2.85        0.00      73.80       1.96       0.04       0.96       ----

> <Gold.Chemscore.Fitness>
17.5942

> <Gold.Chemscore.DG>
-18.5983

> <Gold.Chemscore.ZeroCoef>
-5.4800

> <Gold.Chemscore.Hbond>
2.8465

> <Gold.Chemscore.Metal>
0.0000

> <Gold.Chemscore.Lipo>
73.8014

> <Gold.Chemscore.Internal_Hbond>
0.0000

> <Gold.Chemscore.DEClash>
0.0406

> <Gold.Chemscore.DEInternal>
0.9635

> <Gold.Chemscore.Rot>
1.9624

> <Gold.Chemscore.Internal.Correction>
   9.000000E+99

> <Gold.Chemscore.Hbonds>
donor molecule, donor type, donor heavy atom, donor atom, acceptor molecule, acceptor atom, score
      L1  H     5    45       P1  7948  0.70
      P1  H  6896  6907       L1    13  1.00
      P1  H  6931  6943       L1    19  0.58
      P1  H  6934  6947       L1    19  0.16

> <Gold.Chemscore.Hbond.Weighted>
-9.5073

> <Gold.Chemscore.Metal.Weighted>
-0.0000

> <Gold.Chemscore.Lipo.Weighted>
-8.6348

> <Gold.Chemscore.Internal_Hbond.Weighted>
0.0000

> <Gold.Chemscore.DEClash.Weighted>
0.0406

> <Gold.Chemscore.DEInternal.Weighted>
0.9635

> <Gold.Chemscore.Rot.Weighted>
5.0237

> <Gold.Chemscore.Internal.Correction.Weighted>
   9.000000E+99

> <Gold.Protein.RotatedTorsions>
[ 6907 6896 6895 6894 ] final  -43.18 input  -60.11 | X-H torsion
[ 7974 7965 7964 7962 ] final   63.40 input  175.53 | X-H torsion
[ 8008 7997 7996 7995 ] final  -17.35 input   59.86 | X-H torsion
[ 10167 10162 10161 10158 ] final  -95.46 input  -65.29 | X-H torsion
[ 10718 10713 10712 10709 ] final -132.70 input   66.30 | X-H torsion
[ 10763 10752 10751 10750 ] final   21.92 input  -60.55 | X-H torsion
[ 11005 11000 10999 10996 ] final  -74.33 input  -57.11 | X-H torsion

> <Gold.Protein.ActiveResidues>
 VAL166  LYS551  ARG553  GLY616  TRP617  ASP618  TYR619  PRO620  LYS621  CYS622 
 ASP623  PHE694  ASN695  SER759  ASP760  ASP761  ALA762  ILE779  LEU786  VAL792 
 PHE793  MET794  SER795  GLU796  ALA797  LYS798  CYS799  TRP800  GLU811  SER814 

> <Gold.Protein.RotatedAtoms>
  150.9469  134.8873  159.7647 H   0  0  0  0  0  0  0  0  0  0  0  0  # atno 6907 bound_to 6896
  152.5103  134.3862  159.9378 H   0  0  0  0  0  0  0  0  0  0  0  0  # atno 6908 bound_to 6896
  151.3880  133.3758  159.2752 H   0  0  0  0  0  0  0  0  0  0  0  0  # atno 6909 bound_to 6896
  145.8622  139.3322  143.0812 H   0  0  0  0  0  0  0  0  0  0  0  0  # atno 7974 bound_to 7965
  154.4985  140.2145  155.9397 H   0  0  0  0  0  0  0  0  0  0  0  0  # atno 8008 bound_to 7997
  156.1402  140.3181  155.8451 H   0  0  0  0  0  0  0  0  0  0  0  0  # atno 8009 bound_to 7997
  155.4134  140.0492  157.3021 H   0  0  0  0  0  0  0  0  0  0  0  0  # atno 8010 bound_to 7997
  140.3040  143.3145  152.0219 H   0  0  0  0  0  0  0  0  0  0  0  0  # atno 10167 bound_to 10162
  156.2372  130.7074  151.0920 H   0  0  0  0  0  0  0  0  0  0  0  0  # atno 10718 bound_to 10713
  153.0956  135.6659  153.9769 H   0  0  0  0  0  0  0  0  0  0  0  0  # atno 10763 bound_to 10752
  153.9354  135.2999  155.3446 H   0  0  0  0  0  0  0  0  0  0  0  0  # atno 10764 bound_to 10752
  154.7375  135.5095  153.9140 H   0  0  0  0  0  0  0  0  0  0  0  0  # atno 10765 bound_to 10752
  141.1634  133.6908  156.7348 H   0  0  0  0  0  0  0  0  0  0  0  0  # atno 11005 bound_to 11000
  145.9235  140.9099  143.0393 LP  0  0  0  0  0  0  0  0  0  0  0  0  # atno 17320 bound_to 7965
  144.6726  140.1320  143.7443 LP  0  0  0  0  0  0  0  0  0  0  0  0  # atno 17321 bound_to 7965
  139.4908  144.6435  151.6828 LP  0  0  0  0  0  0  0  0  0  0  0  0  # atno 17342 bound_to 10162
  140.5626  144.0242  150.6177 LP  0  0  0  0  0  0  0  0  0  0  0  0  # atno 17343 bound_to 10162
  157.7160  131.0709  150.6326 LP  0  0  0  0  0  0  0  0  0  0  0  0  # atno 17370 bound_to 10713
  156.6397  130.4455  149.5757 LP  0  0  0  0  0  0  0  0  0  0  0  0  # atno 17371 bound_to 10713
  140.2718  134.8386  157.3854 LP  0  0  0  0  0  0  0  0  0  0  0  0  # atno 17394 bound_to 11000
  140.1514  134.4845  155.7959 LP  0  0  0  0  0  0  0  0  0  0  0  0  # atno 17395 bound_to 11000

$$$$
