AV-unprocessed.smi:2202|AV-procd|sdf|8930|dock1
  -GOLD-   2272012143D 1   1.00000     0.00000
 Structure written by MMmdl.
 42 44  0  0  0  0  0  0  0  0  1 V2000
  152.0906  137.2474  157.0817 O   0  0  0  0  0  0  0  0  0  0  0  0
  151.2949  138.1869  157.1266 C   0  0  0  0  0  0  0  0  0  0  0  0
  151.5208  139.4540  156.2897 C   0  0  0  0  0  0  0  0  0  0  0  0
  151.6651  140.6668  157.1048 N   0  0  0  0  0  0  0  0  0  0  0  0
  150.9218  141.7805  156.9496 C   0  0  0  0  0  0  0  0  0  0  0  0
  150.1054  142.0127  156.0587 O   0  0  0  0  0  0  0  0  0  0  0  0
  151.1803  142.7147  158.1221 C   0  0  2  0  0  0  0  0  0  0  0  0
  151.2045  144.2412  157.9778 C   0  0  0  0  0  0  0  0  0  0  0  0
  151.7459  144.8332  159.2835 C   0  0  0  0  0  0  0  0  0  0  0  0
  152.3971  144.1078  160.2257 C   0  0  0  0  0  0  0  0  0  0  0  0
  152.7097  142.6144  160.0834 C   0  0  0  0  0  0  0  0  0  0  0  0
  152.5313  142.2310  158.6096 C   0  0  1  0  0  0  0  0  0  0  0  0
  152.5321  140.7879  158.1293 C   0  0  0  0  0  0  0  0  0  0  0  0
  153.2667  139.9140  158.5892 O   0  0  0  0  0  0  0  0  0  0  0  0
  150.1983  138.1829  157.8989 N   0  0  0  0  0  0  0  0  0  0  0  0
  149.7883  137.0822  158.7631 C   0  0  0  0  0  0  0  0  0  0  0  0
  148.2789  137.1245  159.0569 C   0  0  0  0  0  0  0  0  0  0  0  0
  147.9253  136.4148  160.3500 C   0  0  0  0  0  0  0  0  0  0  0  0
  147.9099  135.0053  160.4178 C   0  0  0  0  0  0  0  0  0  0  0  0
  147.5693  134.3965  161.6413 C   0  0  0  0  0  0  0  0  0  0  0  0
  147.2574  135.2159  162.7433 C   0  0  0  0  0  0  0  0  0  0  0  0
  147.2998  136.6140  162.5720 C   0  0  0  0  0  0  0  0  0  0  0  0
  147.6253  137.2078  161.4035 N   0  0  0  0  0  0  0  0  0  0  0  0
  152.4107  139.3225  155.6711 H   0  0  0  0  0  0  0  0  0  0  0  0
  150.6876  139.5616  155.5931 H   0  0  0  0  0  0  0  0  0  0  0  0
  150.4165  142.4646  158.8625 H   0  0  0  0  0  0  0  0  0  0  0  0
  151.8295  144.5582  157.1423 H   0  0  0  0  0  0  0  0  0  0  0  0
  150.1974  144.6188  157.7998 H   0  0  0  0  0  0  0  0  0  0  0  0
  151.5823  145.8892  159.4408 H   0  0  0  0  0  0  0  0  0  0  0  0
  152.7289  144.5874  161.1349 H   0  0  0  0  0  0  0  0  0  0  0  0
  153.7361  142.4270  160.4003 H   0  0  0  0  0  0  0  0  0  0  0  0
  152.0517  142.0369  160.7338 H   0  0  0  0  0  0  0  0  0  0  0  0
  153.3220  142.7261  158.0405 H   0  0  0  0  0  0  0  0  0  0  0  0
  149.6030  138.9984  157.8831 H   0  0  0  0  0  0  0  0  0  0  0  0
  150.0652  136.1292  158.3091 H   0  0  0  0  0  0  0  0  0  0  0  0
  150.3493  137.1567  159.6952 H   0  0  0  0  0  0  0  0  0  0  0  0
  147.9387  138.1594  159.1109 H   0  0  0  0  0  0  0  0  0  0  0  0
  147.7207  136.6621  158.2414 H   0  0  0  0  0  0  0  0  0  0  0  0
  148.1523  134.4032  159.5544 H   0  0  0  0  0  0  0  0  0  0  0  0
  147.5468  133.3206  161.7324 H   0  0  0  0  0  0  0  0  0  0  0  0
  146.9914  134.7841  163.6966 H   0  0  0  0  0  0  0  0  0  0  0  0
  147.0659  137.2730  163.3951 H   0  0  0  0  0  0  0  0  0  0  0  0
  1  2  2  0  0  0  0
  2  3  1  0  0  0  0
  2 15  1  0  0  0  0
  3  4  1  0  0  0  0
  3 24  1  0  0  0  0
  3 25  1  0  0  0  0
  4 13  1  0  0  0  0
  4  5  1  0  0  0  0
  5  6  2  0  0  0  0
  5  7  1  0  0  0  0
  7 12  1  0  0  0  0
  7  8  1  0  0  0  0
  7 26  1  0  0  0  0
  8  9  1  0  0  0  0
  8 27  1  0  0  0  0
  8 28  1  0  0  0  0
  9 10  2  0  0  0  0
  9 29  1  0  0  0  0
 10 11  1  0  0  0  0
 10 30  1  0  0  0  0
 11 12  1  0  0  0  0
 11 31  1  0  0  0  0
 11 32  1  0  0  0  0
 12 13  1  0  0  0  0
 12 33  1  0  0  0  0
 13 14  2  0  0  0  0
 15 16  1  0  0  0  0
 15 34  1  0  0  0  0
 16 17  1  0  0  0  0
 16 35  1  0  0  0  0
 16 36  1  0  0  0  0
 17 18  1  0  0  0  0
 17 37  1  0  0  0  0
 17 38  1  0  0  0  0
 18 23  1  0  0  0  0
 18 19  2  0  0  0  0
 19 20  1  0  0  0  0
 19 39  1  0  0  0  0
 20 21  2  0  0  0  0
 20 40  1  0  0  0  0
 21 22  1  0  0  0  0
 21 41  1  0  0  0  0
 22 23  2  0  0  0  0
 22 42  1  0  0  0  0
M  END
> <s_m_source_file>
AV-unprocessed.smi

> <i_m_source_file_index>
2202

> <i_lp_mmshare_version>
43012

> <i_f3d_flags>
0

> <s_epik_input>
W0NIMl0xW0NIXT1bQ0hdW0NIMl1bQ0BIXShbQ0BIXTEyKUMoPU8pTihDMj1PKVtDSDJdQyg9TylbTkhdW0NIMl1bQ0gyXWMzW2NIXVtjSF1bY0hdW2NIXW4z

> <s_epik_cmdline>
J2VwaWtfcHl0aG9uJywgJy1waCcsICc3LjAnLCAnLXRuJywgJzgnLCAnLW1hJywgJzIwMCcsICctbWV0YWxfYmluZGluZycsICctaW1hZScsICc8aW5maWxlLm1hZT4nLCAnLW9tYWUnLCAnPG91dGZpbGUubWFlPic=

> <r_lp_tautomer_probability>
1

> <r_epik_Ionization_Penalty>
0.0244696

> <r_epik_Ionization_Penalty_Charging>
0

> <r_epik_Ionization_Penalty_Neutral>
0.0244696

> <r_epik_State_Penalty>
0.0198648

> <r_epik_Charging_Adjusted_Penalty>
0.0198648

> <i_epik_Tot_Q>
0

> <i_epik_Tot_abs_Q>
0

> <r_epik_Metal_State_Penalty>
0.0190699

> <b_epik_Metal_Only>
0

> <s_lp_Force_Field>
OPLS_2005

> <r_lp_Energy>
19.074

> <b_lp_Chiralities_Consistent>
1

> <s_lp_Variant>
AV-unprocessed.smi:2202-2

> <Gold.Version>
5.8.1

> <Gold.Id.Protein>
6NUR|6NUR_protein|mol2

> <Gold.PLP.Fitness>
56.6379

> <Gold.PLP.PLP>
-49.2042

> <Gold.PLP.part.hbond>
-3.0000

> <Gold.PLP.part.metal>
0.0000

> <Gold.PLP.part.buried>
-5.4819

> <Gold.PLP.part.nonpolar>
-39.7265

> <Gold.PLP.part.repulsive>
1.0085

> <Gold.PLP.ligand.clash>
0.0000

> <Gold.PLP.ligand.torsion>
0.5322

> <Gold.PLP.Chemscore.Hbond>
2.7840

> <Gold.PLP.Chemscore.CHOScore>
0.0000

> <Gold.PLP.Chemscore.Metal>
0.0000

> <Gold.Chemscore.Hbonds>
donor molecule, donor type, donor heavy atom, donor atom, acceptor molecule, acceptor atom, score
      P1  H  6931  6943       L1    23  0.96
      P1  H  6934  6947       L1    23  0.83
      P1  H  7997  8009       L1    14  0.86

> <Gold.PLP.Chemscore.Internal.Correction>
0.1461

> <Gold.Rescore>
     Score         DG    S(hbond)    S(metal)    S(lipo)     H(rot)  DE(clash)    DE(int)     intcor
     18.87     -20.46       1.71        0.00     119.69       1.85       0.25       1.34       ----

> <Gold.Chemscore.Fitness>
18.8745

> <Gold.Chemscore.DG>
-20.4609

> <Gold.Chemscore.ZeroCoef>
-5.4800

> <Gold.Chemscore.Hbond>
1.7135

> <Gold.Chemscore.Metal>
0.0000

> <Gold.Chemscore.Lipo>
119.6940

> <Gold.Chemscore.Internal_Hbond>
0.0000

> <Gold.Chemscore.DEClash>
0.2466

> <Gold.Chemscore.DEInternal>
1.3398

> <Gold.Chemscore.Rot>
1.8540

> <Gold.Chemscore.Internal.Correction>
   9.000000E+99

> <Gold.Chemscore.Hbonds>
donor molecule, donor type, donor heavy atom, donor atom, acceptor molecule, acceptor atom, score
      P1  H  6931  6943       L1    23  0.24
      P1  H  6934  6947       L1    23  0.73
      P1  H  7997  8009       L1    14  0.18

> <Gold.Chemscore.Hbond.Weighted>
-5.7230

> <Gold.Chemscore.Metal.Weighted>
-0.0000

> <Gold.Chemscore.Lipo.Weighted>
-14.0042

> <Gold.Chemscore.Internal_Hbond.Weighted>
0.0000

> <Gold.Chemscore.DEClash.Weighted>
0.2466

> <Gold.Chemscore.DEInternal.Weighted>
1.3398

> <Gold.Chemscore.Rot.Weighted>
4.7462

> <Gold.Chemscore.Internal.Correction.Weighted>
   9.000000E+99

> <Gold.Protein.RotatedTorsions>
[ 6907 6896 6895 6894 ] final   25.99 input  -60.11 | X-H torsion
[ 7974 7965 7964 7962 ] final   37.34 input  175.53 | X-H torsion
[ 8008 7997 7996 7995 ] final  138.61 input   59.86 | X-H torsion
[ 10167 10162 10161 10158 ] final -150.13 input  -65.29 | X-H torsion
[ 10718 10713 10712 10709 ] final   30.25 input   66.30 | X-H torsion
[ 10763 10752 10751 10750 ] final -102.03 input  -60.55 | X-H torsion
[ 11005 11000 10999 10996 ] final   -5.71 input  -57.11 | X-H torsion

> <Gold.Protein.ActiveResidues>
 VAL166  LYS551  ARG553  GLY616  TRP617  ASP618  TYR619  PRO620  LYS621  CYS622 
 ASP623  PHE694  ASN695  SER759  ASP760  ASP761  ALA762  ILE779  LEU786  VAL792 
 PHE793  MET794  SER795  GLU796  ALA797  LYS798  CYS799  TRP800  GLU811  SER814 

> <Gold.Protein.RotatedAtoms>
  151.9808  135.0030  160.0557 H   0  0  0  0  0  0  0  0  0  0  0  0  # atno 6907 bound_to 6896
  152.1698  133.4631  159.4912 H   0  0  0  0  0  0  0  0  0  0  0  0  # atno 6908 bound_to 6896
  150.6900  134.1885  159.4319 H   0  0  0  0  0  0  0  0  0  0  0  0  # atno 6909 bound_to 6896
  146.1144  139.5905  142.9331 H   0  0  0  0  0  0  0  0  0  0  0  0  # atno 7974 bound_to 7965
  156.2996  140.2389  156.4101 H   0  0  0  0  0  0  0  0  0  0  0  0  # atno 8008 bound_to 7997
  154.8449  140.0426  157.1586 H   0  0  0  0  0  0  0  0  0  0  0  0  # atno 8009 bound_to 7997
  154.9062  140.2984  155.5294 H   0  0  0  0  0  0  0  0  0  0  0  0  # atno 8010 bound_to 7997
  139.7381  143.8704  152.2554 H   0  0  0  0  0  0  0  0  0  0  0  0  # atno 10167 bound_to 10162
  157.2571  130.7143  149.6435 H   0  0  0  0  0  0  0  0  0  0  0  0  # atno 10718 bound_to 10713
  154.7703  135.4876  153.9635 H   0  0  0  0  0  0  0  0  0  0  0  0  # atno 10763 bound_to 10752
  153.1359  135.6762  153.9111 H   0  0  0  0  0  0  0  0  0  0  0  0  # atno 10764 bound_to 10752
  153.8800  135.3133  155.3423 H   0  0  0  0  0  0  0  0  0  0  0  0  # atno 10765 bound_to 10752
  140.6942  133.9045  155.8638 H   0  0  0  0  0  0  0  0  0  0  0  0  # atno 11005 bound_to 11000
  145.5596  141.0405  143.2233 LP  0  0  0  0  0  0  0  0  0  0  0  0  # atno 17320 bound_to 7965
  144.7540  139.7121  143.7261 LP  0  0  0  0  0  0  0  0  0  0  0  0  # atno 17321 bound_to 7965
  139.8647  144.7099  150.9058 LP  0  0  0  0  0  0  0  0  0  0  0  0  # atno 17342 bound_to 10162
  140.7782  143.3788  151.1514 LP  0  0  0  0  0  0  0  0  0  0  0  0  # atno 17343 bound_to 10162
  155.9664  130.4409  150.5318 LP  0  0  0  0  0  0  0  0  0  0  0  0  # atno 17370 bound_to 10713
  157.3215  131.0683  151.1928 LP  0  0  0  0  0  0  0  0  0  0  0  0  # atno 17371 bound_to 10713
  141.0217  134.0880  157.4113 LP  0  0  0  0  0  0  0  0  0  0  0  0  # atno 17394 bound_to 11000
  139.8915  135.0119  156.6794 LP  0  0  0  0  0  0  0  0  0  0  0  0  # atno 17395 bound_to 11000

$$$$
