AV-unprocessed.smi:1604|AV-procd|sdf|6447|dock1
  -GOLD-   22720 7 93D 1   1.00000     0.00000
 Structure written by MMmdl.
 46 48  0  0  0  0  0  0  0  0  1 V2000
  150.5480  136.4486  158.8238 O   0  0  0  0  0  0  0  0  0  0  0  0
  149.5346  136.8589  158.2573 C   0  0  0  0  0  0  0  0  0  0  0  0
  149.5150  137.5213  157.0891 N   0  0  0  0  0  0  0  0  0  0  0  0
  150.6173  137.8435  156.2492 C   0  0  0  0  0  0  0  0  0  0  0  0
  151.9167  137.3477  156.5163 C   0  0  0  0  0  0  0  0  0  0  0  0
  152.9889  137.7485  155.7010 C   0  0  0  0  0  0  0  0  0  0  0  0
  152.7270  138.6467  154.6534 C   0  0  0  0  0  0  0  0  0  0  0  0
  151.4988  139.1384  154.3948 N   0  0  0  0  0  0  0  0  0  0  0  0
  150.4511  138.7501  155.1631 C   0  0  0  0  0  0  0  0  0  0  0  0
  149.1842  139.2842  154.8324 N   0  0  0  0  0  0  0  0  0  0  0  0
  148.1500  138.3612  154.3722 C   0  0  0  0  0  0  0  0  0  0  0  0
  147.3535  139.1037  153.2939 C   0  0  0  0  0  0  0  0  0  0  0  0
  147.6386  140.5742  153.5832 C   0  0  0  0  0  0  0  0  0  0  0  0
  149.0795  140.5325  154.0841 C   0  0  0  0  0  0  0  0  0  0  0  0
  148.2930  136.6760  158.7281 N   0  0  0  0  0  0  0  0  0  0  0  0
  147.9421  135.9923  159.9724 C   0  0  2  0  0  0  0  0  0  0  0  0
  147.5223  134.5269  159.6887 C   0  0  0  0  0  0  0  0  0  0  0  0
  146.5953  133.8722  160.7340 C   0  0  0  0  0  0  0  0  0  0  0  0
  147.0957  133.9268  162.1915 C   0  0  0  0  0  0  0  0  0  0  0  0
  147.4293  135.3265  162.7613 C   0  0  0  0  0  0  0  0  0  0  0  0
  146.7462  136.4322  162.0903 N   0  0  0  0  0  0  0  0  0  0  0  0
  146.9472  136.8119  160.8166 C   0  0  0  0  0  0  0  0  0  0  0  0
  146.3435  137.7666  160.3290 O   0  0  0  0  0  0  0  0  0  0  0  0
  148.6034  137.7115  156.6992 H   0  0  0  0  0  0  0  0  0  0  0  0
  152.1108  136.6864  157.3471 H   0  0  0  0  0  0  0  0  0  0  0  0
  153.9896  137.3863  155.8835 H   0  0  0  0  0  0  0  0  0  0  0  0
  153.5252  138.9857  154.0097 H   0  0  0  0  0  0  0  0  0  0  0  0
  148.5698  137.4307  153.9869 H   0  0  0  0  0  0  0  0  0  0  0  0
  147.4986  138.1166  155.2115 H   0  0  0  0  0  0  0  0  0  0  0  0
  147.7406  138.8447  152.3075 H   0  0  0  0  0  0  0  0  0  0  0  0
  146.2903  138.8631  153.3112 H   0  0  0  0  0  0  0  0  0  0  0  0
  147.5098  141.2154  152.7111 H   0  0  0  0  0  0  0  0  0  0  0  0
  146.9776  140.9349  154.3725 H   0  0  0  0  0  0  0  0  0  0  0  0
  149.3173  141.3932  154.7098 H   0  0  0  0  0  0  0  0  0  0  0  0
  149.7580  140.5305  153.2302 H   0  0  0  0  0  0  0  0  0  0  0  0
  147.5230  137.0501  158.1926 H   0  0  0  0  0  0  0  0  0  0  0  0
  148.8572  135.9610  160.5653 H   0  0  0  0  0  0  0  0  0  0  0  0
  147.0122  134.4776  158.7257 H   0  0  0  0  0  0  0  0  0  0  0  0
  148.4207  133.9190  159.5750 H   0  0  0  0  0  0  0  0  0  0  0  0
  145.6056  134.3271  160.6756 H   0  0  0  0  0  0  0  0  0  0  0  0
  146.4414  132.8290  160.4571 H   0  0  0  0  0  0  0  0  0  0  0  0
  146.3254  133.4767  162.8186 H   0  0  0  0  0  0  0  0  0  0  0  0
  147.9699  133.2842  162.3006 H   0  0  0  0  0  0  0  0  0  0  0  0
  147.1728  135.3575  163.8206 H   0  0  0  0  0  0  0  0  0  0  0  0
  148.5055  135.4980  162.7233 H   0  0  0  0  0  0  0  0  0  0  0  0
  146.0830  136.9596  162.6395 H   0  0  0  0  0  0  0  0  0  0  0  0
  1  2  2  0  0  0  0
  2  3  1  0  0  0  0
  2 15  1  0  0  0  0
  3  4  1  0  0  0  0
  3 24  1  0  0  0  0
  4  9  1  0  0  0  0
  4  5  2  0  0  0  0
  5  6  1  0  0  0  0
  5 25  1  0  0  0  0
  6  7  2  0  0  0  0
  6 26  1  0  0  0  0
  7  8  1  0  0  0  0
  7 27  1  0  0  0  0
  8  9  2  0  0  0  0
  9 10  1  0  0  0  0
 10 14  1  0  0  0  0
 10 11  1  0  0  0  0
 11 12  1  0  0  0  0
 11 28  1  0  0  0  0
 11 29  1  0  0  0  0
 12 13  1  0  0  0  0
 12 30  1  0  0  0  0
 12 31  1  0  0  0  0
 13 14  1  0  0  0  0
 13 32  1  0  0  0  0
 13 33  1  0  0  0  0
 14 34  1  0  0  0  0
 14 35  1  0  0  0  0
 15 16  1  0  0  0  0
 15 36  1  0  0  0  0
 16 22  1  0  0  0  0
 16 17  1  0  0  0  0
 16 37  1  0  0  0  0
 17 18  1  0  0  0  0
 17 38  1  0  0  0  0
 17 39  1  0  0  0  0
 18 19  1  0  0  0  0
 18 40  1  0  0  0  0
 18 41  1  0  0  0  0
 19 20  1  0  0  0  0
 19 42  1  0  0  0  0
 19 43  1  0  0  0  0
 20 21  1  0  0  0  0
 20 44  1  0  0  0  0
 20 45  1  0  0  0  0
 21 22  1  0  0  0  0
 21 46  1  0  0  0  0
 22 23  2  0  0  0  0
M  END
> <s_m_source_file>
AV-unprocessed.smi

> <i_m_source_file_index>
1604

> <i_lp_mmshare_version>
43012

> <i_f3d_flags>
0

> <s_epik_input>
Tz1DMVtOSF1bQ0gyXVtDSDJdW0NIMl1bQ0gyXVtDQEhdMVtOSF1DKD1PKVtOSF1jMltjSF1bY0hdW2NIXW5jMk4zW0NIMl1bQ0gyXVtDSDJdW0NIMl0z

> <s_epik_cmdline>
J2VwaWtfcHl0aG9uJywgJy1waCcsICc3LjAnLCAnLXRuJywgJzgnLCAnLW1hJywgJzIwMCcsICctbWV0YWxfYmluZGluZycsICctaW1hZScsICc8aW5maWxlLm1hZT4nLCAnLW9tYWUnLCAnPG91dGZpbGUubWFlPic=

> <r_lp_tautomer_probability>
1

> <r_epik_Ionization_Penalty>
0.0837267

> <r_epik_Ionization_Penalty_Charging>
0

> <r_epik_Ionization_Penalty_Neutral>
0.0837267

> <r_epik_State_Penalty>
0.0738331

> <r_epik_Charging_Adjusted_Penalty>
0.0738331

> <i_epik_Tot_Q>
0

> <i_epik_Tot_abs_Q>
0

> <r_epik_Metal_State_Penalty>
0.0646802

> <b_epik_Metal_Only>
0

> <s_lp_Force_Field>
OPLS_2005

> <r_lp_Energy>
41.479

> <b_lp_Chiralities_Consistent>
1

> <s_lp_Variant>
AV-unprocessed.smi:1604-1

> <Gold.Version>
5.8.1

> <Gold.Id.Protein>
6NUR|6NUR_protein|mol2

> <Gold.PLP.Fitness>
43.4175

> <Gold.PLP.PLP>
-35.4159

> <Gold.PLP.part.hbond>
-2.9712

> <Gold.PLP.part.metal>
0.0000

> <Gold.PLP.part.buried>
-4.3227

> <Gold.PLP.part.nonpolar>
-28.7532

> <Gold.PLP.part.repulsive>
0.4196

> <Gold.PLP.ligand.clash>
0.0000

> <Gold.PLP.ligand.torsion>
0.5761

> <Gold.PLP.Chemscore.Hbond>
2.9280

> <Gold.PLP.Chemscore.CHOScore>
0.0000

> <Gold.PLP.Chemscore.Metal>
0.0000

> <Gold.Chemscore.Hbonds>
donor molecule, donor type, donor heavy atom, donor atom, acceptor molecule, acceptor atom, score
      P1  H  6896  6909       L1     1  0.93
      P1  H  6934  6947       L1    23  1.00
      P1  H  7989  7998       L1     8  1.00

> <Gold.PLP.Chemscore.Internal.Correction>
0.3698

> <Gold.Rescore>
     Score         DG    S(hbond)    S(metal)    S(lipo)     H(rot)  DE(clash)    DE(int)     intcor
     18.18     -20.41       2.71        0.00      77.44       1.25       0.35       1.88       ----

> <Gold.Chemscore.Fitness>
18.1767

> <Gold.Chemscore.DG>
-20.4078

> <Gold.Chemscore.ZeroCoef>
-5.4800

> <Gold.Chemscore.Hbond>
2.7117

> <Gold.Chemscore.Metal>
0.0000

> <Gold.Chemscore.Lipo>
77.4402

> <Gold.Chemscore.Internal_Hbond>
0.0000

> <Gold.Chemscore.DEClash>
0.3511

> <Gold.Chemscore.DEInternal>
1.8800

> <Gold.Chemscore.Rot>
1.2461

> <Gold.Chemscore.Internal.Correction>
   9.000000E+99

> <Gold.Chemscore.Hbonds>
donor molecule, donor type, donor heavy atom, donor atom, acceptor molecule, acceptor atom, score
      P1  H  6896  6909       L1     1  0.90
      P1  H  6934  6947       L1    23  0.39
      P1  H  7989  7998       L1     8  0.72

> <Gold.Chemscore.Hbond.Weighted>
-9.0572

> <Gold.Chemscore.Metal.Weighted>
-0.0000

> <Gold.Chemscore.Lipo.Weighted>
-9.0605

> <Gold.Chemscore.Internal_Hbond.Weighted>
0.0000

> <Gold.Chemscore.DEClash.Weighted>
0.3511

> <Gold.Chemscore.DEInternal.Weighted>
1.8800

> <Gold.Chemscore.Rot.Weighted>
3.1899

> <Gold.Chemscore.Internal.Correction.Weighted>
   9.000000E+99

> <Gold.Protein.RotatedTorsions>
[ 6907 6896 6895 6894 ] final   68.97 input  -60.11 | X-H torsion
[ 7974 7965 7964 7962 ] final   79.35 input  175.53 | X-H torsion
[ 8008 7997 7996 7995 ] final  165.03 input   59.86 | X-H torsion
[ 10167 10162 10161 10158 ] final  -79.24 input  -65.29 | X-H torsion
[ 10718 10713 10712 10709 ] final   79.60 input   66.30 | X-H torsion
[ 10763 10752 10751 10750 ] final  121.77 input  -60.55 | X-H torsion
[ 11005 11000 10999 10996 ] final -113.30 input  -57.11 | X-H torsion

> <Gold.Protein.ActiveResidues>
 VAL166  LYS551  ARG553  GLY616  TRP617  ASP618  TYR619  PRO620  LYS621  CYS622 
 ASP623  PHE694  ASN695  SER759  ASP760  ASP761  ALA762  ILE779  LEU786  VAL792 
 PHE793  MET794  SER795  GLU796  ALA797  LYS798  CYS799  TRP800  GLU811  SER814 

> <Gold.Protein.RotatedAtoms>
  152.4655  134.5085  159.9746 H   0  0  0  0  0  0  0  0  0  0  0  0  # atno 6907 bound_to 6896
  151.5123  133.3476  159.2895 H   0  0  0  0  0  0  0  0  0  0  0  0  # atno 6908 bound_to 6896
  150.8638  134.8025  159.7165 H   0  0  0  0  0  0  0  0  0  0  0  0  # atno 6909 bound_to 6896
  145.6654  139.2482  143.1899 H   0  0  0  0  0  0  0  0  0  0  0  0  # atno 7974 bound_to 7965
  156.1833  140.1681  156.8233 H   0  0  0  0  0  0  0  0  0  0  0  0  # atno 8008 bound_to 7997
  154.5385  140.0742  156.8501 H   0  0  0  0  0  0  0  0  0  0  0  0  # atno 8009 bound_to 7997
  155.3263  140.3376  155.4242 H   0  0  0  0  0  0  0  0  0  0  0  0  # atno 8010 bound_to 7997
  140.4611  143.2453  151.8347 H   0  0  0  0  0  0  0  0  0  0  0  0  # atno 10167 bound_to 10162
  157.6781  130.9921  150.1956 H   0  0  0  0  0  0  0  0  0  0  0  0  # atno 10718 bound_to 10713
  153.6193  135.3416  155.3005 H   0  0  0  0  0  0  0  0  0  0  0  0  # atno 10763 bound_to 10752
  154.8603  135.4269  154.2225 H   0  0  0  0  0  0  0  0  0  0  0  0  # atno 10764 bound_to 10752
  153.3094  135.7030  153.7202 H   0  0  0  0  0  0  0  0  0  0  0  0  # atno 10765 bound_to 10752
  141.0623  133.9516  157.2644 H   0  0  0  0  0  0  0  0  0  0  0  0  # atno 11005 bound_to 11000
  146.1090  140.7451  142.9512 LP  0  0  0  0  0  0  0  0  0  0  0  0  # atno 17320 bound_to 7965
  144.7075  140.3909  143.7107 LP  0  0  0  0  0  0  0  0  0  0  0  0  # atno 17321 bound_to 7965
  139.4806  144.5007  151.9064 LP  0  0  0  0  0  0  0  0  0  0  0  0  # atno 17342 bound_to 10162
  140.4092  144.2391  150.5889 LP  0  0  0  0  0  0  0  0  0  0  0  0  # atno 17343 bound_to 10162
  156.2658  130.3716  149.8082 LP  0  0  0  0  0  0  0  0  0  0  0  0  # atno 17370 bound_to 10713
  156.5814  130.8467  151.3384 LP  0  0  0  0  0  0  0  0  0  0  0  0  # atno 17371 bound_to 10713
  139.9444  135.0186  156.8806 LP  0  0  0  0  0  0  0  0  0  0  0  0  # atno 17394 bound_to 11000
  140.5844  134.0321  155.7476 LP  0  0  0  0  0  0  0  0  0  0  0  0  # atno 17395 bound_to 11000

$$$$
