AV-unprocessed.smi:970|AV-procd|sdf|4291|dock5
  -GOLD-   22720 2193D 1   1.00000     0.00000
 Structure written by MMmdl.
 31 31  0  0  0  0  0  0  0  0  1 V2000
  153.6477  141.4994  160.9954 C   0  0  0  0  0  0  0  0  0  0  0  0
  153.2709  142.3655  159.8890 N   0  0  0  0  0  0  0  0  0  0  0  0
  152.4233  143.3988  159.9955 C   0  0  0  0  0  0  0  0  0  0  0  0
  151.8821  143.7185  161.0556 O   0  0  0  0  0  0  0  0  0  0  0  0
  152.1650  144.2020  158.7104 C   0  0  2  0  0  0  0  0  0  0  0  0
  151.1448  145.3052  159.0370 C   0  0  0  0  0  0  0  0  0  0  0  0
  151.5838  143.3451  157.6789 N   0  0  0  0  0  0  0  0  0  0  0  0
  150.4398  142.6503  157.7973 C   0  0  0  0  0  0  0  0  0  0  0  0
  149.7505  142.6683  158.8181 O   0  0  0  0  0  0  0  0  0  0  0  0
  150.0119  141.8255  156.5700 C   0  0  2  0  0  0  0  0  0  0  0  0
  148.6154  141.1897  156.7242 C   0  0  0  0  0  0  0  0  0  0  0  0
  151.0218  140.8273  156.2368 N   0  0  0  0  0  0  0  0  0  0  0  0
  151.9555  140.2612  157.0046 C   0  0  0  0  0  0  0  0  0  0  0  0
  152.6913  139.3544  156.3775 N   0  0  0  0  0  0  0  0  0  0  0  0
  152.1149  139.4091  155.1403 C   0  0  0  0  0  0  0  0  0  0  0  0
  151.1069  140.2702  155.0029 N   0  0  0  0  0  0  0  0  0  0  0  0
  154.3152  140.7135  160.6425 H   0  0  0  0  0  0  0  0  0  0  0  0
  152.7693  141.0272  161.4377 H   0  0  0  0  0  0  0  0  0  0  0  0
  154.1665  142.0654  161.7703 H   0  0  0  0  0  0  0  0  0  0  0  0
  153.6770  142.1665  158.9860 H   0  0  0  0  0  0  0  0  0  0  0  0
  153.0912  144.6536  158.3492 H   0  0  0  0  0  0  0  0  0  0  0  0
  151.5282  145.9858  159.7983 H   0  0  0  0  0  0  0  0  0  0  0  0
  150.2020  144.8944  159.4015 H   0  0  0  0  0  0  0  0  0  0  0  0
  150.9223  145.9027  158.1523 H   0  0  0  0  0  0  0  0  0  0  0  0
  152.0859  143.2850  156.8051 H   0  0  0  0  0  0  0  0  0  0  0  0
  149.9603  142.5217  155.7314 H   0  0  0  0  0  0  0  0  0  0  0  0
  147.8518  141.9497  156.8933 H   0  0  0  0  0  0  0  0  0  0  0  0
  148.5764  140.4888  157.5589 H   0  0  0  0  0  0  0  0  0  0  0  0
  148.3365  140.6445  155.8223 H   0  0  0  0  0  0  0  0  0  0  0  0
  152.0967  140.5145  158.0452 H   0  0  0  0  0  0  0  0  0  0  0  0
  152.4446  138.7921  154.3174 H   0  0  0  0  0  0  0  0  0  0  0  0
  1  2  1  0  0  0  0
  1 17  1  0  0  0  0
  1 18  1  0  0  0  0
  1 19  1  0  0  0  0
  2  3  1  0  0  0  0
  2 20  1  0  0  0  0
  3  4  2  0  0  0  0
  3  5  1  0  0  0  0
  5  6  1  0  0  0  0
  5  7  1  0  0  0  0
  5 21  1  0  0  0  0
  6 22  1  0  0  0  0
  6 23  1  0  0  0  0
  6 24  1  0  0  0  0
  7  8  1  0  0  0  0
  7 25  1  0  0  0  0
  8  9  2  0  0  0  0
  8 10  1  0  0  0  0
 10 11  1  0  0  0  0
 10 12  1  0  0  0  0
 10 26  1  0  0  0  0
 11 27  1  0  0  0  0
 11 28  1  0  0  0  0
 11 29  1  0  0  0  0
 12 16  1  0  0  0  0
 12 13  1  0  0  0  0
 13 14  2  0  0  0  0
 13 30  1  0  0  0  0
 14 15  1  0  0  0  0
 15 16  2  0  0  0  0
 15 31  1  0  0  0  0
M  END
> <s_m_source_file>
AV-unprocessed.smi

> <i_m_source_file_index>
970

> <i_lp_mmshare_version>
43012

> <i_f3d_flags>
0

> <s_epik_input>
W0NIM11bTkhdQyg9TylbQ0BIXShbQ0gzXSlbTkhdQyg9TylbQ0BIXShbQ0gzXSluMVtjSF1uW2NIXW4x

> <s_epik_cmdline>
J2VwaWtfcHl0aG9uJywgJy1waCcsICc3LjAnLCAnLXRuJywgJzgnLCAnLW1hJywgJzIwMCcsICctbWV0YWxfYmluZGluZycsICctaW1hZScsICc8aW5maWxlLm1hZT4nLCAnLW9tYWUnLCAnPG91dGZpbGUubWFlPic=

> <r_lp_tautomer_probability>
1

> <r_epik_Ionization_Penalty>
1.07271e-05

> <r_epik_Ionization_Penalty_Charging>
0

> <r_epik_Ionization_Penalty_Neutral>
1.07271e-05

> <r_epik_State_Penalty>
-0

> <r_epik_Charging_Adjusted_Penalty>
0

> <i_epik_Tot_Q>
0

> <i_epik_Tot_abs_Q>
0

> <r_epik_Metal_State_Penalty>
-0

> <b_epik_Metal_Only>
0

> <s_lp_Force_Field>
OPLS_2005

> <r_lp_Energy>
8.61602

> <b_lp_Chiralities_Consistent>
1

> <s_lp_Variant>
AV-unprocessed.smi:970-1

> <Gold.Version>
5.8.1

> <Gold.Id.Protein>
6NUR|6NUR_protein|mol2

> <Gold.PLP.Fitness>
39.5443

> <Gold.PLP.PLP>
-34.5364

> <Gold.PLP.part.hbond>
-2.7336

> <Gold.PLP.part.metal>
0.0000

> <Gold.PLP.part.buried>
-5.2752

> <Gold.PLP.part.nonpolar>
-26.4037

> <Gold.PLP.part.repulsive>
0.3137

> <Gold.PLP.ligand.clash>
0.0000

> <Gold.PLP.ligand.torsion>
0.5538

> <Gold.PLP.Chemscore.Hbond>
2.0000

> <Gold.PLP.Chemscore.CHOScore>
0.0000

> <Gold.PLP.Chemscore.Metal>
0.0000

> <Gold.Chemscore.Hbonds>
donor molecule, donor type, donor heavy atom, donor atom, acceptor molecule, acceptor atom, score
      P1  H  7989  7998       L1    16  0.75
      P1  H  7997  8009       L1    14  1.00

> <Gold.PLP.Chemscore.Internal.Correction>
0.1154

> <Gold.Rescore>
     Score         DG    S(hbond)    S(metal)    S(lipo)     H(rot)  DE(clash)    DE(int)     intcor
      5.38      -7.48       0.98        0.00      45.62       2.59       0.03       2.08       ----

> <Gold.Chemscore.Fitness>
5.3774

> <Gold.Chemscore.DG>
-7.4821

> <Gold.Chemscore.ZeroCoef>
-5.4800

> <Gold.Chemscore.Hbond>
0.9830

> <Gold.Chemscore.Metal>
0.0000

> <Gold.Chemscore.Lipo>
45.6163

> <Gold.Chemscore.Internal_Hbond>
0.0000

> <Gold.Chemscore.DEClash>
0.0294

> <Gold.Chemscore.DEInternal>
2.0753

> <Gold.Chemscore.Rot>
2.5852

> <Gold.Chemscore.Internal.Correction>
   9.000000E+99

> <Gold.Chemscore.Hbonds>
donor molecule, donor type, donor heavy atom, donor atom, acceptor molecule, acceptor atom, score
      P1  H  7989  7998       L1    16  0.09
      P1  H  7997  8009       L1    14  0.25

> <Gold.Chemscore.Hbond.Weighted>
-3.2832

> <Gold.Chemscore.Metal.Weighted>
-0.0000

> <Gold.Chemscore.Lipo.Weighted>
-5.3371

> <Gold.Chemscore.Internal_Hbond.Weighted>
0.0000

> <Gold.Chemscore.DEClash.Weighted>
0.0294

> <Gold.Chemscore.DEInternal.Weighted>
2.0753

> <Gold.Chemscore.Rot.Weighted>
6.6182

> <Gold.Chemscore.Internal.Correction.Weighted>
   9.000000E+99

> <Gold.Protein.RotatedTorsions>
[ 6907 6896 6895 6894 ] final   46.16 input  -60.11 | X-H torsion
[ 7974 7965 7964 7962 ] final -107.88 input  175.53 | X-H torsion
[ 8008 7997 7996 7995 ] final  176.05 input   59.86 | X-H torsion
[ 10167 10162 10161 10158 ] final   81.58 input  -65.29 | X-H torsion
[ 10718 10713 10712 10709 ] final   59.42 input   66.30 | X-H torsion
[ 10763 10752 10751 10750 ] final  -18.63 input  -60.55 | X-H torsion
[ 11005 11000 10999 10996 ] final -150.26 input  -57.11 | X-H torsion

> <Gold.Protein.ActiveResidues>
 VAL166  LYS551  ARG553  GLY616  TRP617  ASP618  TYR619  PRO620  LYS621  CYS622 
 ASP623  PHE694  ASN695  SER759  ASP760  ASP761  ALA762  ILE779  LEU786  VAL792 
 PHE793  MET794  SER795  GLU796  ALA797  LYS798  CYS799  TRP800  GLU811  SER814 

> <Gold.Protein.RotatedAtoms>
  152.2531  134.8112  160.0442 H   0  0  0  0  0  0  0  0  0  0  0  0  # atno 6907 bound_to 6896
  151.8785  133.3485  159.3766 H   0  0  0  0  0  0  0  0  0  0  0  0  # atno 6908 bound_to 6896
  150.7090  134.4969  159.5586 H   0  0  0  0  0  0  0  0  0  0  0  0  # atno 6909 bound_to 6896
  145.1998  140.9051  143.3376 H   0  0  0  0  0  0  0  0  0  0  0  0  # atno 7974 bound_to 7965
  156.0806  140.1393  156.9717 H   0  0  0  0  0  0  0  0  0  0  0  0  # atno 8008 bound_to 7997
  154.4583  140.0953  156.6869 H   0  0  0  0  0  0  0  0  0  0  0  0  # atno 8009 bound_to 7997
  155.5082  140.3453  155.4385 H   0  0  0  0  0  0  0  0  0  0  0  0  # atno 8010 bound_to 7997
  139.9378  144.6110  150.8282 H   0  0  0  0  0  0  0  0  0  0  0  0  # atno 10167 bound_to 10162
  157.5674  130.8881  149.9209 H   0  0  0  0  0  0  0  0  0  0  0  0  # atno 10718 bound_to 10713
  153.5923  135.7002  153.5418 H   0  0  0  0  0  0  0  0  0  0  0  0  # atno 10763 bound_to 10752
  153.3168  135.4085  155.1382 H   0  0  0  0  0  0  0  0  0  0  0  0  # atno 10764 bound_to 10752
  154.8598  135.3685  154.5455 H   0  0  0  0  0  0  0  0  0  0  0  0  # atno 10765 bound_to 10752
  140.7421  134.3502  157.5145 H   0  0  0  0  0  0  0  0  0  0  0  0  # atno 11005 bound_to 11000
  144.9959  139.3645  143.6192 LP  0  0  0  0  0  0  0  0  0  0  0  0  # atno 17320 bound_to 7965
  146.3420  139.9161  142.8773 LP  0  0  0  0  0  0  0  0  0  0  0  0  # atno 17321 bound_to 7965
  140.7619  143.3187  151.2673 LP  0  0  0  0  0  0  0  0  0  0  0  0  # atno 17342 bound_to 10162
  139.6730  143.9988  152.2764 LP  0  0  0  0  0  0  0  0  0  0  0  0  # atno 17343 bound_to 10162
  156.0721  130.3684  150.0754 LP  0  0  0  0  0  0  0  0  0  0  0  0  # atno 17370 bound_to 10713
  156.8911  130.9589  151.3588 LP  0  0  0  0  0  0  0  0  0  0  0  0  # atno 17371 bound_to 10713
  139.8804  134.9087  156.2975 LP  0  0  0  0  0  0  0  0  0  0  0  0  # atno 17394 bound_to 11000
  140.9827  133.7257  156.0696 LP  0  0  0  0  0  0  0  0  0  0  0  0  # atno 17395 bound_to 11000

$$$$
