AV-unprocessed.smi:2204|AV-procd|sdf|8938|dock10
  -GOLD-   2272012153D 1   1.00000     0.00000
 Structure written by MMmdl.
 39 40  0  0  0  0  0  0  0  0  1 V2000
  154.1920  141.0842  160.6476 C   0  0  0  0  0  0  0  0  0  0  0  0
  153.3411  142.1638  160.0469 C   0  0  0  0  0  0  0  0  0  0  0  0
  152.9578  143.4070  160.6227 C   0  0  0  0  0  0  0  0  0  0  0  0
  152.1910  144.0025  159.6611 C   0  0  0  0  0  0  0  0  0  0  0  0
  151.4983  145.3257  159.6674 C   0  0  0  0  0  0  0  0  0  0  0  0
  152.1421  143.1288  158.5884 N   0  0  0  0  0  0  0  0  0  0  0  0
  151.4539  143.2727  157.3125 C   0  0  0  0  0  0  0  0  0  0  0  0
  150.6526  142.0213  156.9375 C   0  0  0  0  0  0  0  0  0  0  0  0
  150.8587  140.9642  157.5332 O   0  0  0  0  0  0  0  0  0  0  0  0
  149.7619  142.1463  155.9394 N   0  0  0  0  0  0  0  0  0  0  0  0
  148.9084  141.0850  155.4134 C   0  0  1  0  0  0  0  0  0  0  0  0
  148.0522  141.6693  154.2791 C   0  0  0  0  0  0  0  0  0  0  0  0
  149.7777  139.8985  154.9463 C   0  0  2  0  0  0  0  0  0  0  0  0
  149.8521  138.7360  155.9399 C   0  0  0  0  0  0  0  0  0  0  0  0
  151.1861  138.1143  155.5969 C   0  0  0  0  0  0  0  0  0  0  0  0
  152.0299  139.3517  155.3183 C   0  0  0  0  0  0  0  0  0  0  0  0
  151.1335  140.3078  154.7606 O   0  0  0  0  0  0  0  0  0  0  0  0
  152.8499  142.0036  158.8295 N   0  0  0  0  0  0  0  0  0  0  0  0
  154.6458  141.4140  161.5823 H   0  0  0  0  0  0  0  0  0  0  0  0
  154.9978  140.7953  159.9723 H   0  0  0  0  0  0  0  0  0  0  0  0
  153.6004  140.1941  160.8623 H   0  0  0  0  0  0  0  0  0  0  0  0
  153.2085  143.8024  161.5958 H   0  0  0  0  0  0  0  0  0  0  0  0
  151.6314  145.8304  160.6243 H   0  0  0  0  0  0  0  0  0  0  0  0
  150.4281  145.2075  159.4983 H   0  0  0  0  0  0  0  0  0  0  0  0
  151.8961  145.9762  158.8884 H   0  0  0  0  0  0  0  0  0  0  0  0
  150.7839  144.1315  157.3550 H   0  0  0  0  0  0  0  0  0  0  0  0
  152.1910  143.4873  156.5369 H   0  0  0  0  0  0  0  0  0  0  0  0
  149.6663  143.0550  155.5104 H   0  0  0  0  0  0  0  0  0  0  0  0
  148.2296  140.7361  156.1936 H   0  0  0  0  0  0  0  0  0  0  0  0
  147.3524  140.9316  153.8867 H   0  0  0  0  0  0  0  0  0  0  0  0
  148.6715  142.0152  153.4508 H   0  0  0  0  0  0  0  0  0  0  0  0
  147.4641  142.5176  154.6313 H   0  0  0  0  0  0  0  0  0  0  0  0
  149.4174  139.5225  153.9871 H   0  0  0  0  0  0  0  0  0  0  0  0
  149.8701  139.1064  156.9661 H   0  0  0  0  0  0  0  0  0  0  0  0
  149.0195  138.0385  155.8426 H   0  0  0  0  0  0  0  0  0  0  0  0
  151.5904  137.4923  156.3959 H   0  0  0  0  0  0  0  0  0  0  0  0
  151.0977  137.5052  154.6963 H   0  0  0  0  0  0  0  0  0  0  0  0
  152.4305  139.7556  156.2488 H   0  0  0  0  0  0  0  0  0  0  0  0
  152.8660  139.1474  154.6493 H   0  0  0  0  0  0  0  0  0  0  0  0
  1  2  1  0  0  0  0
  1 19  1  0  0  0  0
  1 20  1  0  0  0  0
  1 21  1  0  0  0  0
  2 18  2  0  0  0  0
  2  3  1  0  0  0  0
  3  4  2  0  0  0  0
  3 22  1  0  0  0  0
  4  5  1  0  0  0  0
  4  6  1  0  0  0  0
  5 23  1  0  0  0  0
  5 24  1  0  0  0  0
  5 25  1  0  0  0  0
  6  7  1  0  0  0  0
  6 18  1  0  0  0  0
  7  8  1  0  0  0  0
  7 26  1  0  0  0  0
  7 27  1  0  0  0  0
  8  9  2  0  0  0  0
  8 10  1  0  0  0  0
 10 11  1  0  0  0  0
 10 28  1  0  0  0  0
 11 12  1  0  0  0  0
 11 13  1  0  0  0  0
 11 29  1  0  0  0  0
 12 30  1  0  0  0  0
 12 31  1  0  0  0  0
 12 32  1  0  0  0  0
 13 17  1  0  0  0  0
 13 14  1  0  0  0  0
 13 33  1  0  0  0  0
 14 15  1  0  0  0  0
 14 34  1  0  0  0  0
 14 35  1  0  0  0  0
 15 16  1  0  0  0  0
 15 36  1  0  0  0  0
 15 37  1  0  0  0  0
 16 17  1  0  0  0  0
 16 38  1  0  0  0  0
 16 39  1  0  0  0  0
M  END
> <s_m_source_file>
AV-unprocessed.smi

> <i_m_source_file_index>
2204

> <i_lp_mmshare_version>
43012

> <i_f3d_flags>
0

> <s_epik_input>
W0NIM11jMVtjSF1jKFtDSDNdKW4objEpW0NIMl1DKD1PKVtOSF1bQ0BIXShbQ0gzXSlbQ0BASF0yW0NIMl1bQ0gyXVtDSDJdTzI=

> <s_epik_cmdline>
J2VwaWtfcHl0aG9uJywgJy1waCcsICc3LjAnLCAnLXRuJywgJzgnLCAnLW1hJywgJzIwMCcsICctbWV0YWxfYmluZGluZycsICctaW1hZScsICc8aW5maWxlLm1hZT4nLCAnLW9tYWUnLCAnPG91dGZpbGUubWFlPic=

> <r_lp_tautomer_probability>
1

> <r_epik_Ionization_Penalty>
0.000433354

> <r_epik_Ionization_Penalty_Charging>
0

> <r_epik_Ionization_Penalty_Neutral>
0.000433354

> <r_epik_State_Penalty>
-0

> <r_epik_Charging_Adjusted_Penalty>
0

> <i_epik_Tot_Q>
0

> <i_epik_Tot_abs_Q>
0

> <r_epik_Metal_State_Penalty>
-0

> <b_epik_Metal_Only>
0

> <s_lp_Force_Field>
OPLS_2005

> <r_lp_Energy>
17.6032

> <b_lp_Chiralities_Consistent>
1

> <s_lp_Variant>
AV-unprocessed.smi:2204-2

> <Gold.Version>
5.8.1

> <Gold.Id.Protein>
6NUR|6NUR_protein|mol2

> <Gold.PLP.Fitness>
45.0560

> <Gold.PLP.PLP>
-42.2914

> <Gold.PLP.part.hbond>
-1.8836

> <Gold.PLP.part.metal>
0.0000

> <Gold.PLP.part.buried>
-6.8405

> <Gold.PLP.part.nonpolar>
-34.8544

> <Gold.PLP.part.repulsive>
0.2041

> <Gold.PLP.ligand.clash>
0.0000

> <Gold.PLP.ligand.torsion>
1.4820

> <Gold.PLP.Chemscore.Hbond>
1.9033

> <Gold.PLP.Chemscore.CHOScore>
0.0000

> <Gold.PLP.Chemscore.Metal>
0.0000

> <Gold.Chemscore.Hbonds>
donor molecule, donor type, donor heavy atom, donor atom, acceptor molecule, acceptor atom, score
      L1  H    10    28       P1  8028  0.91
      P1  H  7989  7998       L1    17  0.84

> <Gold.PLP.Chemscore.Internal.Correction>
0.0189

> <Gold.Rescore>
     Score         DG    S(hbond)    S(metal)    S(lipo)     H(rot)  DE(clash)    DE(int)     intcor
     13.98     -19.27       1.70        0.00     102.28       1.50       0.11       5.18       ----

> <Gold.Chemscore.Fitness>
13.9790

> <Gold.Chemscore.DG>
-19.2701

> <Gold.Chemscore.ZeroCoef>
-5.4800

> <Gold.Chemscore.Hbond>
1.6958

> <Gold.Chemscore.Metal>
0.0000

> <Gold.Chemscore.Lipo>
102.2842

> <Gold.Chemscore.Internal_Hbond>
0.0000

> <Gold.Chemscore.DEClash>
0.1140

> <Gold.Chemscore.DEInternal>
5.1770

> <Gold.Chemscore.Rot>
1.5005

> <Gold.Chemscore.Internal.Correction>
   9.000000E+99

> <Gold.Chemscore.Hbonds>
donor molecule, donor type, donor heavy atom, donor atom, acceptor molecule, acceptor atom, score
      L1  H    10    28       P1  8028  0.90
      P1  H  7989  7998       L1    17  0.67

> <Gold.Chemscore.Hbond.Weighted>
-5.6640

> <Gold.Chemscore.Metal.Weighted>
-0.0000

> <Gold.Chemscore.Lipo.Weighted>
-11.9673

> <Gold.Chemscore.Internal_Hbond.Weighted>
0.0000

> <Gold.Chemscore.DEClash.Weighted>
0.1140

> <Gold.Chemscore.DEInternal.Weighted>
5.1770

> <Gold.Chemscore.Rot.Weighted>
3.8412

> <Gold.Chemscore.Internal.Correction.Weighted>
   9.000000E+99

> <Gold.Protein.RotatedTorsions>
[ 6907 6896 6895 6894 ] final  159.38 input  -60.11 | X-H torsion
[ 7974 7965 7964 7962 ] final  -42.53 input  175.53 | X-H torsion
[ 8008 7997 7996 7995 ] final  -43.93 input   59.86 | X-H torsion
[ 10167 10162 10161 10158 ] final   32.33 input  -65.29 | X-H torsion
[ 10718 10713 10712 10709 ] final    5.04 input   66.30 | X-H torsion
[ 10763 10752 10751 10750 ] final  -90.99 input  -60.55 | X-H torsion
[ 11005 11000 10999 10996 ] final  137.34 input  -57.11 | X-H torsion

> <Gold.Protein.ActiveResidues>
 VAL166  LYS551  ARG553  GLY616  TRP617  ASP618  TYR619  PRO620  LYS621  CYS622 
 ASP623  PHE694  ASN695  SER759  ASP760  ASP761  ALA762  ILE779  LEU786  VAL792 
 PHE793  MET794  SER795  GLU796  ALA797  LYS798  CYS799  TRP800  GLU811  SER814 

> <Gold.Protein.RotatedAtoms>
  151.9865  133.3776  159.4127 H   0  0  0  0  0  0  0  0  0  0  0  0  # atno 6907 bound_to 6896
  150.6927  134.3983  159.5116 H   0  0  0  0  0  0  0  0  0  0  0  0  # atno 6908 bound_to 6896
  152.1710  134.8834  160.0585 H   0  0  0  0  0  0  0  0  0  0  0  0  # atno 6909 bound_to 6896
  146.0106  140.6968  142.9226 H   0  0  0  0  0  0  0  0  0  0  0  0  # atno 7974 bound_to 7965
  154.3997  140.1435  156.3601 H   0  0  0  0  0  0  0  0  0  0  0  0  # atno 8008 bound_to 7997
  155.8189  140.3470  155.5481 H   0  0  0  0  0  0  0  0  0  0  0  0  # atno 8009 bound_to 7997
  155.8308  140.0912  157.1784 H   0  0  0  0  0  0  0  0  0  0  0  0  # atno 8010 bound_to 7997
  140.4508  144.1051  150.6191 H   0  0  0  0  0  0  0  0  0  0  0  0  # atno 10167 bound_to 10162
  156.9015  130.5723  149.5648 H   0  0  0  0  0  0  0  0  0  0  0  0  # atno 10718 bound_to 10713
  154.6715  135.5284  153.8144 H   0  0  0  0  0  0  0  0  0  0  0  0  # atno 10763 bound_to 10752
  153.0504  135.6530  154.0717 H   0  0  0  0  0  0  0  0  0  0  0  0  # atno 10764 bound_to 10752
  154.0616  135.2961  155.3304 H   0  0  0  0  0  0  0  0  0  0  0  0  # atno 10765 bound_to 10752
  140.0107  134.9440  157.0272 H   0  0  0  0  0  0  0  0  0  0  0  0  # atno 11005 bound_to 11000
  144.6952  140.3392  143.7202 LP  0  0  0  0  0  0  0  0  0  0  0  0  # atno 17320 bound_to 7965
  145.7347  139.1746  143.2410 LP  0  0  0  0  0  0  0  0  0  0  0  0  # atno 17321 bound_to 7965
  140.4209  143.2612  151.9716 LP  0  0  0  0  0  0  0  0  0  0  0  0  # atno 17342 bound_to 10162
  139.4796  144.5831  151.7899 LP  0  0  0  0  0  0  0  0  0  0  0  0  # atno 17343 bound_to 10162
  156.0580  130.5638  150.9132 LP  0  0  0  0  0  0  0  0  0  0  0  0  # atno 17370 bound_to 10713
  157.6023  131.0940  150.8939 LP  0  0  0  0  0  0  0  0  0  0  0  0  # atno 17371 bound_to 10713
  140.4559  134.1534  155.7186 LP  0  0  0  0  0  0  0  0  0  0  0  0  # atno 17394 bound_to 11000
  141.1709  133.8611  157.1573 LP  0  0  0  0  0  0  0  0  0  0  0  0  # atno 17395 bound_to 11000

$$$$
