#       Name:                AV-unprocessed.smi:137
#       Creating user name   scv26
#       Creation time:       Thu Mar 26 18:32:26 2020


#       File generated by GOLD software.
#

@<TRIPOS>MOLECULE
AV-unprocessed.smi:137
    58    61     1
SMALL
NO_CHARGES


@<TRIPOS>ATOM
      1 ****        -6.2263   2.1046  -0.7393 C.3            1 S1                 0.0000
      2 ****        -5.3252   1.0946  -0.0113 C.3            1 S1                 0.0000
      3 ****        -3.8797   1.6330   0.0204 C.3            1 S1                 0.0000
      4 ****        -2.8739   0.7117   0.5587 N.pl3          1 S1                 0.0000
      5 ****        -1.5568   1.0068   0.3512 C.ar           1 S1                 0.0000
      6 ****        -1.2221   2.2694  -0.0326 N.ar           1 S1                 0.0000
      7 ****         0.0530   2.6133  -0.2285 C.ar           1 S1                 0.0000
      8 ****         1.1460   1.8616  -0.1052 N.ar           1 S1                 0.0000
      9 ****         0.8287   0.5883   0.2630 C.ar           1 S1                 0.0000
     10 ****        -0.4803   0.0800   0.5127 C.ar           1 S1                 0.0000
     11 ****        -0.3910  -1.2621   0.8691 N.2            1 S1                 0.0000
     12 ****         0.8867  -1.5233   0.8503 C.2            1 S1                 0.0000
     13 ****         1.6909  -0.4745   0.4709 N.pl3          1 S1                 0.0000
     14 ****         3.1233  -0.4707   0.4125 C.3            1 S1                 0.0000
     15 ****         3.8729   0.2174  -0.7309 C.3            1 S1                 0.0000
     16 ****         4.9965  -0.8364  -0.6153 C.3            1 S1                 0.0000
     17 ****         5.5643  -1.3394  -1.9526 C.3            1 S1                 0.0000
     18 ****         6.1977  -0.2957  -2.6646 O.3            1 S1                 0.0000
     19 ****         6.1643  -0.4515   0.3159 C.3            1 S1                 0.0000
     20 ****         6.9100  -1.5875   0.7031 O.3            1 S1                 0.0000
     21 ****         3.9070  -1.7269   0.0252 C.3            1 S1                 0.0000
     22 ****        -3.2129  -0.1984   1.6517 C.3            1 S1                 0.0000
     23 ****        -3.6118  -1.5923   1.1365 C.3            1 S1                 0.0000
     24 ****        -5.4022  -1.6327   0.6437 S.o            1 S1                 0.0000
     25 ****        -6.2287  -1.1683   1.8449 O.2            1 S1                 0.0000
     26 ****        -5.4412  -0.3043  -0.6593 C.3            1 S1                 0.0000
     27 ****        -5.9413   2.2091  -1.7868 H              1 S1                 0.0000
     28 ****        -6.1656   3.0905  -0.2774 H              1 S1                 0.0000
     29 ****        -7.2714   1.7947  -0.7073 H              1 S1                 0.0000
     30 ****        -5.6998   1.0572   1.0107 H              1 S1                 0.0000
     31 ****        -3.5939   1.8897  -1.0011 H              1 S1                 0.0000
     32 ****        -3.8513   2.5598   0.5954 H              1 S1                 0.0000
     33 ****         0.2211   3.6381  -0.5251 H              1 S1                 0.0000
     34 ****         1.2775  -2.4964   1.1104 H              1 S1                 0.0000
     35 ****         3.4594  -0.0896   1.3781 H              1 S1                 0.0000
     36 ****         3.3306   0.1617  -1.6768 H              1 S1                 0.0000
     37 ****         4.1807   1.2417  -0.5179 H              1 S1                 0.0000
     38 ****         6.2764  -2.1520  -1.8071 H              1 S1                 0.0000
     39 ****         4.7712  -1.7390  -2.5851 H              1 S1                 0.0000
     40 ****         5.5583   0.3772  -2.8415 H              1 S1                 0.0000
     41 ****         6.8363   0.2635  -0.1590 H              1 S1                 0.0000
     42 ****         5.8036   0.0328   1.2234 H              1 S1                 0.0000
     43 ****         7.6141  -1.3061   1.2674 H              1 S1                 0.0000
     44 ****         4.2376  -2.3288   0.8723 H              1 S1                 0.0000
     45 ****         3.3764  -2.3415  -0.7045 H              1 S1                 0.0000
     46 ****        -2.3659  -0.2909   2.3315 H              1 S1                 0.0000
     47 ****        -4.0078   0.2258   2.2648 H              1 S1                 0.0000
     48 ****        -2.9928  -1.9039   0.2953 H              1 S1                 0.0000
     49 ****        -3.4731  -2.3296   1.9271 H              1 S1                 0.0000
     50 ****        -6.4008  -0.4045  -1.1673 H              1 S1                 0.0000
     51 ****        -4.6692  -0.4765  -1.4102 H              1 S1                 0.0000
     52 ****        -1.9422   2.9495  -0.1699 LP             1 S1                 0.0000
     53 ****         2.0778   2.1889  -0.2623 LP             1 S1                 0.0000
     54 ****        -1.1396  -1.8871   1.0904 LP             1 S1                 0.0000
     55 ****         6.5635  -0.6484  -3.5259 LP             1 S1                 0.0000
     56 ****         6.9432   0.0830  -2.1161 LP             1 S1                 0.0000
     57 ****         7.2862  -2.0364  -0.1074 LP             1 S1                 0.0000
     58 ****         6.3192  -2.2274   1.1945 LP             1 S1                 0.0000
@<TRIPOS>BOND
    1    1    2 1     
    2    1   27 1     
    3    1   28 1     
    4    1   29 1     
    5    2   26 1     
    6    2    3 1     
    7    2   30 1     
    8    3    4 1     
    9    3   31 1     
   10    3   32 1     
   11    4    5 1     
   12    4   22 1     
   13    5   10 ar    
   14    5    6 ar    
   15    6    7 ar    
   16    7    8 ar    
   17    7   33 1     
   18    8    9 ar    
   19    9   13 1     
   20    9   10 ar    
   21   10   11 1     
   22   11   12 2     
   23   12   13 1     
   24   12   34 1     
   25   13   14 1     
   26   14   21 1     
   27   14   15 1     
   28   14   35 1     
   29   15   16 1     
   30   15   36 1     
   31   15   37 1     
   32   16   17 1     
   33   16   19 1     
   34   16   21 1     
   35   17   18 1     
   36   17   38 1     
   37   17   39 1     
   38   18   40 1     
   39   19   20 1     
   40   19   41 1     
   41   19   42 1     
   42   20   43 1     
   43   21   44 1     
   44   21   45 1     
   45   22   23 1     
   46   22   46 1     
   47   22   47 1     
   48   23   24 1     
   49   23   48 1     
   50   23   49 1     
   51   24   25 2     
   52   24   26 1     
   53   26   50 1     
   54   26   51 1     
   55    6   52 1     
   56    8   53 1     
   57   11   54 1     
   58   18   55 1     
   59   18   56 1     
   60   20   57 1     
   61   20   58 1     
@<TRIPOS>SUBSTRUCTURE
      1 S1             1
@<TRIPOS>SET
LONE_PAIRS      STATIC     ATOMS    <user>   **** ""
8 52 53 54 55 56 57 58 25
DONOR_HYDROGENS      STATIC     ATOMS    <user>   **** ""
2 40 43
ATOM$BLUE        STATIC     ATOMS    COLORGROUP SYSTEM
8 52 53 54 55 56 57 58 25
ATOM$RED        STATIC     ATOMS    COLORGROUP SYSTEM
2 40 43
