AV-unprocessed.smi:3147|AV-procd|sdf|11990|dock8
  -GOLD-   2272017393D 1   1.00000     0.00000
 Structure written by MMmdl.
 36 37  0  0  0  0  0  0  0  0  1 V2000
  154.0420  142.6645  162.7467 C   0  0  0  0  0  0  0  0  0  0  0  0
  153.5524  142.5474  161.3357 C   0  0  0  0  0  0  0  0  0  0  0  0
  153.9106  141.4536  160.5514 N   0  0  0  0  0  0  0  0  0  0  0  0
  153.3082  141.6819  159.3932 C   0  0  0  0  0  0  0  0  0  0  0  0
  152.5984  142.8174  159.3499 N   0  0  0  0  0  0  0  0  0  0  0  0
  151.8394  143.3188  158.2136 C   0  0  0  0  0  0  0  0  0  0  0  0
  150.7830  142.3250  157.7149 C   0  0  0  0  0  0  0  0  0  0  0  0
  149.9464  141.8443  158.4810 O   0  0  0  0  0  0  0  0  0  0  0  0
  150.8335  142.0296  156.4074 N   0  0  0  0  0  0  0  0  0  0  0  0
  149.9269  141.1203  155.7157 C   0  0  0  0  0  0  0  0  0  0  0  0
  150.4935  139.6924  155.6483 C   0  0  1  0  0  0  0  0  0  0  0  0
  149.6026  138.7121  154.8914 C   0  0  0  0  0  0  0  0  0  0  0  0
  150.5875  137.6181  154.5441 C   0  0  0  0  0  0  0  0  0  0  0  0
  151.8737  138.4012  154.2792 C   0  0  0  0  0  0  0  0  0  0  0  0
  151.7168  139.6653  154.9212 O   0  0  0  0  0  0  0  0  0  0  0  0
  152.7414  143.3968  160.6100 C   0  0  0  0  0  0  0  0  0  0  0  0
  152.0927  144.6900  160.9906 C   0  0  0  0  0  0  0  0  0  0  0  0
  153.6893  143.5759  163.2278 H   0  0  0  0  0  0  0  0  0  0  0  0
  155.1314  142.6770  162.7830 H   0  0  0  0  0  0  0  0  0  0  0  0
  153.7012  141.8229  163.3501 H   0  0  0  0  0  0  0  0  0  0  0  0
  153.3867  141.0062  158.5542 H   0  0  0  0  0  0  0  0  0  0  0  0
  151.3557  144.2558  158.4912 H   0  0  0  0  0  0  0  0  0  0  0  0
  152.5356  143.5478  157.4053 H   0  0  0  0  0  0  0  0  0  0  0  0
  151.5544  142.4640  155.8496 H   0  0  0  0  0  0  0  0  0  0  0  0
  148.9566  141.1174  156.2151 H   0  0  0  0  0  0  0  0  0  0  0  0
  149.7557  141.5045  154.7096 H   0  0  0  0  0  0  0  0  0  0  0  0
  150.6793  139.3031  156.6510 H   0  0  0  0  0  0  0  0  0  0  0  0
  148.7590  138.3572  155.4844 H   0  0  0  0  0  0  0  0  0  0  0  0
  149.2144  139.1691  153.9799 H   0  0  0  0  0  0  0  0  0  0  0  0
  150.7227  136.9565  155.4008 H   0  0  0  0  0  0  0  0  0  0  0  0
  150.2734  137.0126  153.6935 H   0  0  0  0  0  0  0  0  0  0  0  0
  152.7514  137.8768  154.6581 H   0  0  0  0  0  0  0  0  0  0  0  0
  152.0149  138.5682  153.2110 H   0  0  0  0  0  0  0  0  0  0  0  0
  152.2666  144.9339  162.0378 H   0  0  0  0  0  0  0  0  0  0  0  0
  151.0144  144.6418  160.8381 H   0  0  0  0  0  0  0  0  0  0  0  0
  152.4827  145.5107  160.3885 H   0  0  0  0  0  0  0  0  0  0  0  0
  1  2  1  0  0  0  0
  1 18  1  0  0  0  0
  1 19  1  0  0  0  0
  1 20  1  0  0  0  0
  2 16  2  0  0  0  0
  2  3  1  0  0  0  0
  3  4  2  0  0  0  0
  4  5  1  0  0  0  0
  4 21  1  0  0  0  0
  5  6  1  0  0  0  0
  5 16  1  0  0  0  0
  6  7  1  0  0  0  0
  6 22  1  0  0  0  0
  6 23  1  0  0  0  0
  7  8  2  0  0  0  0
  7  9  1  0  0  0  0
  9 10  1  0  0  0  0
  9 24  1  0  0  0  0
 10 11  1  0  0  0  0
 10 25  1  0  0  0  0
 10 26  1  0  0  0  0
 11 15  1  0  0  0  0
 11 12  1  0  0  0  0
 11 27  1  0  0  0  0
 12 13  1  0  0  0  0
 12 28  1  0  0  0  0
 12 29  1  0  0  0  0
 13 14  1  0  0  0  0
 13 30  1  0  0  0  0
 13 31  1  0  0  0  0
 14 15  1  0  0  0  0
 14 32  1  0  0  0  0
 14 33  1  0  0  0  0
 16 17  1  0  0  0  0
 17 34  1  0  0  0  0
 17 35  1  0  0  0  0
 17 36  1  0  0  0  0
M  END
> <s_m_source_file>
AV-unprocessed.smi

> <i_m_source_file_index>
3147

> <i_lp_mmshare_version>
43012

> <i_f3d_flags>
0

> <s_epik_input>
W0NIM11jMW5bY0hdbihjMVtDSDNdKVtDSDJdQyg9TylbTkhdW0NIMl1bQ0BASF0yW0NIMl1bQ0gyXVtDSDJdTzI=

> <s_epik_cmdline>
J2VwaWtfcHl0aG9uJywgJy1waCcsICc3LjAnLCAnLXRuJywgJzgnLCAnLW1hJywgJzIwMCcsICctbWV0YWxfYmluZGluZycsICctaW1hZScsICc8aW5maWxlLm1hZT4nLCAnLW9tYWUnLCAnPG91dGZpbGUubWFlPic=

> <r_lp_tautomer_probability>
1

> <r_epik_Ionization_Penalty>
0.957393

> <r_epik_Ionization_Penalty_Charging>
0.957393

> <r_epik_Ionization_Penalty_Neutral>
1.43432e-07

> <r_epik_State_Penalty>
1.0022

> <r_epik_Charging_Adjusted_Penalty>
1.9596

> <i_epik_Tot_Q>
0

> <i_epik_Tot_abs_Q>
0

> <r_epik_Metal_State_Penalty>
0.374967

> <b_epik_Metal_Only>
0

> <s_lp_Force_Field>
OPLS_2005

> <r_lp_Energy>
18.0511

> <b_lp_Chiralities_Consistent>
1

> <s_lp_Variant>
AV-unprocessed.smi:3147-4

> <Gold.Version>
5.8.1

> <Gold.Id.Protein>
6NUR|6NUR_protein|mol2

> <Gold.PLP.Fitness>
45.9474

> <Gold.PLP.PLP>
-43.3964

> <Gold.PLP.part.hbond>
-1.0129

> <Gold.PLP.part.metal>
0.0000

> <Gold.PLP.part.buried>
-5.1826

> <Gold.PLP.part.nonpolar>
-37.2475

> <Gold.PLP.part.repulsive>
0.2583

> <Gold.PLP.ligand.clash>
0.0000

> <Gold.PLP.ligand.torsion>
0.2340

> <Gold.PLP.Chemscore.Hbond>
1.0000

> <Gold.PLP.Chemscore.CHOScore>
0.0000

> <Gold.PLP.Chemscore.Metal>
0.0000

> <Gold.Chemscore.Hbonds>
donor molecule, donor type, donor heavy atom, donor atom, acceptor molecule, acceptor atom, score
      P1  H  7989  7998       L1    15  1.00

> <Gold.PLP.Chemscore.Internal.Correction>
0.0191

> <Gold.Rescore>
     Score         DG    S(hbond)    S(metal)    S(lipo)     H(rot)  DE(clash)    DE(int)     intcor
     14.25     -14.68       0.91        0.00      89.91       1.70       0.04       0.39       ----

> <Gold.Chemscore.Fitness>
14.2467

> <Gold.Chemscore.DG>
-14.6826

> <Gold.Chemscore.ZeroCoef>
-5.4800

> <Gold.Chemscore.Hbond>
0.9112

> <Gold.Chemscore.Metal>
0.0000

> <Gold.Chemscore.Lipo>
89.9133

> <Gold.Chemscore.Internal_Hbond>
0.0000

> <Gold.Chemscore.DEClash>
0.0444

> <Gold.Chemscore.DEInternal>
0.3916

> <Gold.Chemscore.Rot>
1.7034

> <Gold.Chemscore.Internal.Correction>
   9.000000E+99

> <Gold.Chemscore.Hbonds>
donor molecule, donor type, donor heavy atom, donor atom, acceptor molecule, acceptor atom, score
      P1  H  7989  7998       L1    15  0.30

> <Gold.Chemscore.Hbond.Weighted>
-3.0435

> <Gold.Chemscore.Metal.Weighted>
-0.0000

> <Gold.Chemscore.Lipo.Weighted>
-10.5199

> <Gold.Chemscore.Internal_Hbond.Weighted>
0.0000

> <Gold.Chemscore.DEClash.Weighted>
0.0444

> <Gold.Chemscore.DEInternal.Weighted>
0.3916

> <Gold.Chemscore.Rot.Weighted>
4.3607

> <Gold.Chemscore.Internal.Correction.Weighted>
   9.000000E+99

> <Gold.Protein.RotatedTorsions>
[ 6907 6896 6895 6894 ] final   62.63 input  -60.11 | X-H torsion
[ 7974 7965 7964 7962 ] final  -74.24 input  175.53 | X-H torsion
[ 8008 7997 7996 7995 ] final -115.36 input   59.86 | X-H torsion
[ 10167 10162 10161 10158 ] final  134.75 input  -65.29 | X-H torsion
[ 10718 10713 10712 10709 ] final -165.98 input   66.30 | X-H torsion
[ 10763 10752 10751 10750 ] final  125.82 input  -60.55 | X-H torsion
[ 11005 11000 10999 10996 ] final  172.97 input  -57.11 | X-H torsion

> <Gold.Protein.ActiveResidues>
 VAL166  LYS551  ARG553  GLY616  TRP617  ASP618  TYR619  PRO620  LYS621  CYS622 
 ASP623  PHE694  ASN695  SER759  ASP760  ASP761  ALA762  ILE779  LEU786  VAL792 
 PHE793  MET794  SER795  GLU796  ALA797  LYS798  CYS799  TRP800  GLU811  SER814 

> <Gold.Protein.RotatedAtoms>
  152.4187  134.5994  159.9995 H   0  0  0  0  0  0  0  0  0  0  0  0  # atno 6907 bound_to 6896
  151.6150  133.3338  159.3083 H   0  0  0  0  0  0  0  0  0  0  0  0  # atno 6908 bound_to 6896
  150.8076  134.7249  159.6724 H   0  0  0  0  0  0  0  0  0  0  0  0  # atno 6909 bound_to 6896
  145.6417  140.9309  143.1032 H   0  0  0  0  0  0  0  0  0  0  0  0  # atno 7974 bound_to 7965
  155.0508  140.0393  157.2543 H   0  0  0  0  0  0  0  0  0  0  0  0  # atno 8008 bound_to 7997
  154.7139  140.2698  155.6579 H   0  0  0  0  0  0  0  0  0  0  0  0  # atno 8009 bound_to 7997
  156.2797  140.2716  156.1790 H   0  0  0  0  0  0  0  0  0  0  0  0  # atno 8010 bound_to 7997
  139.5244  144.6552  151.5184 H   0  0  0  0  0  0  0  0  0  0  0  0  # atno 10167 bound_to 10162
  156.6612  130.9047  151.3029 H   0  0  0  0  0  0  0  0  0  0  0  0  # atno 10718 bound_to 10713
  153.6834  135.3310  155.3184 H   0  0  0  0  0  0  0  0  0  0  0  0  # atno 10763 bound_to 10752
  154.8460  135.4414  154.1583 H   0  0  0  0  0  0  0  0  0  0  0  0  # atno 10764 bound_to 10752
  153.2605  135.6990  153.7660 H   0  0  0  0  0  0  0  0  0  0  0  0  # atno 10765 bound_to 10752
  140.3354  134.7321  157.4165 H   0  0  0  0  0  0  0  0  0  0  0  0  # atno 11005 bound_to 11000
  144.7155  139.8214  143.7400 LP  0  0  0  0  0  0  0  0  0  0  0  0  # atno 17320 bound_to 7965
  146.1275  139.4304  143.0189 LP  0  0  0  0  0  0  0  0  0  0  0  0  # atno 17321 bound_to 7965
  140.6374  143.8956  150.6660 LP  0  0  0  0  0  0  0  0  0  0  0  0  # atno 17342 bound_to 10162
  140.2280  143.3757  152.1589 LP  0  0  0  0  0  0  0  0  0  0  0  0  # atno 17343 bound_to 10162
  157.7109  130.9439  150.1086 LP  0  0  0  0  0  0  0  0  0  0  0  0  # atno 17370 bound_to 10713
  156.2009  130.3660  149.8789 LP  0  0  0  0  0  0  0  0  0  0  0  0  # atno 17371 bound_to 10713
  140.0825  134.5711  155.8526 LP  0  0  0  0  0  0  0  0  0  0  0  0  # atno 17394 bound_to 11000
  141.2052  133.6645  156.6169 LP  0  0  0  0  0  0  0  0  0  0  0  0  # atno 17395 bound_to 11000

$$$$
