#       Name:                AV-unprocessed.smi:171
#       Creating user name   scv26
#       Creation time:       Thu Mar 26 19:18:51 2020


#       File generated by GOLD software.
#

@<TRIPOS>MOLECULE
AV-unprocessed.smi:171
    66    69     1
SMALL
NO_CHARGES


@<TRIPOS>ATOM
      1 ****        -5.2838  -3.5568   1.0706 C.3            1 S1                 0.0000
      2 ****        -4.1444  -2.9299   1.8891 C.3            1 S1                 0.0000
      3 ****        -4.3706  -3.1743   3.3897 C.3            1 S1                 0.0000
      4 ****        -3.9801  -1.4343   1.5356 C.3            1 S1                 0.0000
      5 ****        -2.7044  -0.7585   2.1126 C.3            1 S1                 0.0000
      6 ****        -3.0559   0.1956   3.2819 C.2            1 S1                 0.0000
      7 ****        -3.3903  -0.2675   4.3699 O.2            1 S1                 0.0000
      8 ****        -2.9835   1.5251   3.0886 N.am           1 S1                 0.0000
      9 ****        -2.5755   2.1920   1.8525 C.3            1 S1                 0.0000
     10 ****        -2.5545   1.2432   0.6417 C.3            1 S1                 0.0000
     11 ****        -2.0027  -0.0529   1.0275 N.3            1 S1                 0.0000
     12 ****        -0.6482  -0.1308   0.9585 C.ar           1 S1                 0.0000
     13 ****         0.0909  -0.2453   2.0942 N.ar           1 S1                 0.0000
     14 ****         1.4240  -0.3066   2.0279 C.ar           1 S1                 0.0000
     15 ****         2.2083  -0.2695   0.9492 N.ar           1 S1                 0.0000
     16 ****         1.4728  -0.1525  -0.1934 C.ar           1 S1                 0.0000
     17 ****         0.0540  -0.0781  -0.2775 C.ar           1 S1                 0.0000
     18 ****        -0.3376   0.0232  -1.6070 N.2            1 S1                 0.0000
     19 ****         0.7860   0.0133  -2.2707 C.2            1 S1                 0.0000
     20 ****         1.9233  -0.0808  -1.5001 N.pl3          1 S1                 0.0000
     21 ****         3.2988  -0.1113  -1.9738 C.3            1 S1                 0.0000
     22 ****         3.9348   1.2966  -2.1163 C.3            1 S1                 0.0000
     23 ****         3.9322   1.9126  -0.8394 O.3            1 S1                 0.0000
     24 ****         3.1779   2.2120  -3.0753 C.3            1 S1                 0.0000
     25 ****         4.2687   3.1249  -3.6138 C.3            1 S1                 0.0000
     26 ****         5.3581   2.2342  -3.7727 O.3            1 S1                 0.0000
     27 ****         5.3912   1.3445  -2.6600 C.3            1 S1                 0.0000
     28 ****         5.9973   0.0162  -3.1399 C.3            1 S1                 0.0000
     29 ****        -6.2418  -3.0907   1.3033 H              1 S1                 0.0000
     30 ****        -5.3745  -4.6239   1.2749 H              1 S1                 0.0000
     31 ****        -5.1099  -3.4444  -0.0000 H              1 S1                 0.0000
     32 ****        -3.2265  -3.4454   1.6031 H              1 S1                 0.0000
     33 ****        -5.2330  -2.6176   3.7577 H              1 S1                 0.0000
     34 ****        -3.5025  -2.8790   3.9778 H              1 S1                 0.0000
     35 ****        -4.5461  -4.2310   3.5930 H              1 S1                 0.0000
     36 ****        -3.9585  -1.3645   0.4466 H              1 S1                 0.0000
     37 ****        -4.8790  -0.8877   1.8270 H              1 S1                 0.0000
     38 ****        -2.0590  -1.5434   2.5100 H              1 S1                 0.0000
     39 ****        -3.2179   2.1223   3.8683 H              1 S1                 0.0000
     40 ****        -3.2308   3.0418   1.6607 H              1 S1                 0.0000
     41 ****        -1.5759   2.5965   2.0157 H              1 S1                 0.0000
     42 ****        -3.5719   1.0891   0.2813 H              1 S1                 0.0000
     43 ****        -2.0111   1.7004  -0.1857 H              1 S1                 0.0000
     44 ****         1.9354  -0.3968   2.9751 H              1 S1                 0.0000
     45 ****         0.8158   0.0772  -3.3487 H              1 S1                 0.0000
     46 ****         3.8819  -0.7250  -1.2860 H              1 S1                 0.0000
     47 ****         3.3034  -0.6314  -2.9321 H              1 S1                 0.0000
     48 ****         4.3268   2.7677  -0.9183 H              1 S1                 0.0000
     49 ****         2.7696   1.6318  -3.9036 H              1 S1                 0.0000
     50 ****         2.3527   2.7540  -2.6110 H              1 S1                 0.0000
     51 ****         3.9961   3.6004  -4.5562 H              1 S1                 0.0000
     52 ****         4.5265   3.9021  -2.8927 H              1 S1                 0.0000
     53 ****         6.0610   1.7767  -1.9141 H              1 S1                 0.0000
     54 ****         6.0645  -0.7079  -2.3279 H              1 S1                 0.0000
     55 ****         7.0069   0.1708  -3.5213 H              1 S1                 0.0000
     56 ****         5.4098  -0.4252  -3.9451 H              1 S1                 0.0000
     57 ****        -3.4351  -1.2581   4.4992 LP             1 S1                 0.0000
     58 ****        -3.6176   0.3462   5.1260 LP             1 S1                 0.0000
     59 ****        -2.2543  -0.6716   0.2832 LP             1 S1                 0.0000
     60 ****        -0.3654  -0.2838   2.9831 LP             1 S1                 0.0000
     61 ****         3.2067  -0.3209   0.9751 LP             1 S1                 0.0000
     62 ****        -1.2666   0.0886  -1.9713 LP             1 S1                 0.0000
     63 ****         4.4579   1.3566  -0.1956 LP             1 S1                 0.0000
     64 ****         2.9922   2.0039  -0.5108 LP             1 S1                 0.0000
     65 ****         6.2124   2.7523  -3.8141 LP             1 S1                 0.0000
     66 ****         5.2442   1.7114  -4.6176 LP             1 S1                 0.0000
@<TRIPOS>BOND
    1    1    2 1     
    2    1   29 1     
    3    1   30 1     
    4    1   31 1     
    5    2    3 1     
    6    2    4 1     
    7    2   32 1     
    8    3   33 1     
    9    3   34 1     
   10    3   35 1     
   11    4    5 1     
   12    4   36 1     
   13    4   37 1     
   14    5   11 1     
   15    5    6 1     
   16    5   38 1     
   17    6    7 2     
   18    6    8 am    
   19    8    9 1     
   20    8   39 1     
   21    9   10 1     
   22    9   40 1     
   23    9   41 1     
   24   10   11 1     
   25   10   42 1     
   26   10   43 1     
   27   11   12 1     
   28   12   17 ar    
   29   12   13 ar    
   30   13   14 ar    
   31   14   15 ar    
   32   14   44 1     
   33   15   16 ar    
   34   16   20 1     
   35   16   17 ar    
   36   17   18 1     
   37   18   19 2     
   38   19   20 1     
   39   19   45 1     
   40   20   21 1     
   41   21   22 1     
   42   21   46 1     
   43   21   47 1     
   44   22   27 1     
   45   22   23 1     
   46   22   24 1     
   47   23   48 1     
   48   24   25 1     
   49   24   49 1     
   50   24   50 1     
   51   25   26 1     
   52   25   51 1     
   53   25   52 1     
   54   26   27 1     
   55   27   28 1     
   56   27   53 1     
   57   28   54 1     
   58   28   55 1     
   59   28   56 1     
   60    7   57 1     
   61    7   58 1     
   62   11   59 1     
   63   13   60 1     
   64   15   61 1     
   65   18   62 1     
   66   23   63 1     
   67   23   64 1     
   68   26   65 1     
   69   26   66 1     
@<TRIPOS>SUBSTRUCTURE
      1 S1             1
@<TRIPOS>SET
LONE_PAIRS      STATIC     ATOMS    <user>   **** ""
10 57 58 59 60 61 62 63 64 65 66
DONOR_HYDROGENS      STATIC     ATOMS    <user>   **** ""
2 39 48
ATOM$BLUE        STATIC     ATOMS    COLORGROUP SYSTEM
10 57 58 59 60 61 62 63 64 65 66
ATOM$RED        STATIC     ATOMS    COLORGROUP SYSTEM
2 39 48
