AV-unprocessed.smi:3287|AV-procd|sdf|12595|dock6
  -GOLD-   2272018523D 1   1.00000     0.00000
 Structure written by MMmdl.
 43 44  0  0  0  0  0  0  0  0  2 V2000
  151.9672  143.0567  161.2980 C   0  0  0  0  0  0  0  0  0  0  0  0
  152.8269  143.5500  160.1166 C   0  0  1  0  0  0  0  0  0  0  0  0
  153.1579  142.4061  159.1359 C   0  0  0  0  0  0  0  0  0  0  0  0
  151.9415  141.9894  158.2916 C   0  0  0  0  0  0  0  0  0  0  0  0
  151.3478  143.1854  157.5263 C   0  0  1  0  0  0  0  0  0  0  0  0
  150.1699  142.7459  156.7454 N   0  3  0  0  0  0  0  0  0  0  0  0
  149.1504  141.9916  157.5069 C   0  0  0  0  0  0  0  0  0  0  0  0
  148.1640  141.2717  156.5711 C   0  0  1  0  0  0  0  0  0  0  0  0
  147.7481  142.1743  155.5644 O   0  0  0  0  0  0  0  0  0  0  0  0
  148.7879  140.0161  155.9818 C   0  0  0  0  0  0  0  0  0  0  0  0
  148.8387  139.8101  154.5857 C   0  0  0  0  0  0  0  0  0  0  0  0
  149.4377  138.6307  154.0998 C   0  0  0  0  0  0  0  0  0  0  0  0
  149.9707  137.6853  154.9025 N   0  0  0  0  0  0  0  0  0  0  0  0
  149.9219  137.8882  156.2362 C   0  0  0  0  0  0  0  0  0  0  0  0
  149.3455  139.0319  156.8245 C   0  0  0  0  0  0  0  0  0  0  0  0
  150.9980  144.3297  158.5019 C   0  0  0  0  0  0  0  0  0  0  0  0
  152.2186  144.7499  159.3464 C   0  0  1  0  0  0  0  0  0  0  0  0
  151.9021  145.9550  160.2474 C   0  0  0  0  0  0  0  0  0  0  0  0
  150.9665  142.7608  160.9856 H   0  0  0  0  0  0  0  0  0  0  0  0
  151.8614  143.8256  162.0630 H   0  0  0  0  0  0  0  0  0  0  0  0
  152.4284  142.1944  161.7800 H   0  0  0  0  0  0  0  0  0  0  0  0
  153.7730  143.8826  160.5458 H   0  0  0  0  0  0  0  0  0  0  0  0
  153.9586  142.7274  158.4687 H   0  0  0  0  0  0  0  0  0  0  0  0
  153.5483  141.5441  159.6782 H   0  0  0  0  0  0  0  0  0  0  0  0
  152.2398  141.2104  157.5889 H   0  0  0  0  0  0  0  0  0  0  0  0
  151.1821  141.5435  158.9351 H   0  0  0  0  0  0  0  0  0  0  0  0
  152.1034  143.5395  156.8231 H   0  0  0  0  0  0  0  0  0  0  0  0
  149.7208  143.5733  156.3796 H   0  0  0  0  0  0  0  0  0  0  0  0
  149.6326  141.2702  158.1670 H   0  0  0  0  0  0  0  0  0  0  0  0
  148.6025  142.6897  158.1415 H   0  0  0  0  0  0  0  0  0  0  0  0
  147.2763  140.9825  157.1358 H   0  0  0  0  0  0  0  0  0  0  0  0
  148.2947  142.9448  155.6089 H   0  0  0  0  0  0  0  0  0  0  0  0
  148.4305  140.5363  153.8979 H   0  0  0  0  0  0  0  0  0  0  0  0
  149.4927  138.4436  153.0375 H   0  0  0  0  0  0  0  0  0  0  0  0
  150.3577  137.1168  156.8537 H   0  0  0  0  0  0  0  0  0  0  0  0
  149.3357  139.1450  157.8987 H   0  0  0  0  0  0  0  0  0  0  0  0
  150.6419  145.1983  157.9484 H   0  0  0  0  0  0  0  0  0  0  0  0
  150.1770  144.0274  159.1534 H   0  0  0  0  0  0  0  0  0  0  0  0
  152.9834  145.0902  158.6462 H   0  0  0  0  0  0  0  0  0  0  0  0
  151.0811  145.7442  160.9327 H   0  0  0  0  0  0  0  0  0  0  0  0
  151.6136  146.8212  159.6512 H   0  0  0  0  0  0  0  0  0  0  0  0
  152.7707  146.2416  160.8408 H   0  0  0  0  0  0  0  0  0  0  0  0
  150.4804  142.1826  155.9664 H   0  0  0  0  0  0  0  0  0  0  0  0
  1  2  1  0  0  0  0
  1 19  1  0  0  0  0
  1 20  1  0  0  0  0
  1 21  1  0  0  0  0
  2 17  1  0  0  0  0
  2  3  1  0  0  0  0
  2 22  1  0  0  0  0
  3  4  1  0  0  0  0
  3 23  1  0  0  0  0
  3 24  1  0  0  0  0
  4  5  1  0  0  0  0
  4 25  1  0  0  0  0
  4 26  1  0  0  0  0
  5  6  1  0  0  0  0
  5 16  1  0  0  0  0
  5 27  1  0  0  0  0
  6  7  1  0  0  0  0
  6 28  1  0  0  0  0
  6 43  1  0  0  0  0
  7  8  1  0  0  0  0
  7 29  1  0  0  0  0
  7 30  1  0  0  0  0
  8  9  1  0  0  0  0
  8 10  1  0  0  0  0
  8 31  1  0  0  0  0
  9 32  1  0  0  0  0
 10 15  1  0  0  0  0
 10 11  2  0  0  0  0
 11 12  1  0  0  0  0
 11 33  1  0  0  0  0
 12 13  2  0  0  0  0
 12 34  1  0  0  0  0
 13 14  1  0  0  0  0
 14 15  2  0  0  0  0
 14 35  1  0  0  0  0
 15 36  1  0  0  0  0
 16 17  1  0  0  0  0
 16 37  1  0  0  0  0
 16 38  1  0  0  0  0
 17 18  1  0  0  0  0
 17 39  1  0  0  0  0
 18 40  1  0  0  0  0
 18 41  1  0  0  0  0
 18 42  1  0  0  0  0
M  CHG  1   6   1
M  END
> <s_m_source_file>
AV-unprocessed.smi

> <i_m_source_file_index>
3287

> <i_lp_mmshare_version>
43012

> <i_f3d_flags>
0

> <s_epik_input>
W0NIM11bQ0BASF0xW0NIMl1bQ0gyXVtDQEhdKFtDSDJdW0NASF0xW0NIM10pW05IXVtDSDJdW0NASF0oW09IXSljMltjSF1bY0hdbltjSF1bY0hdMg==

> <s_epik_cmdline>
J2VwaWtfcHl0aG9uJywgJy1waCcsICc3LjAnLCAnLXRuJywgJzgnLCAnLW1hJywgJzIwMCcsICctbWV0YWxfYmluZGluZycsICctaW1hZScsICc8aW5maWxlLm1hZT4nLCAnLW9tYWUnLCAnPG91dGZpbGUubWFlPic=

> <r_lp_tautomer_probability>
1

> <r_epik_Ionization_Penalty>
0.00537262

> <r_epik_Ionization_Penalty_Charging>
0.00321624

> <r_epik_Ionization_Penalty_Neutral>
0.00215638

> <r_epik_State_Penalty>
-0

> <r_epik_Charging_Adjusted_Penalty>
0.00321624

> <i_epik_Tot_Q>
1

> <i_epik_Tot_abs_Q>
1

> <r_epik_Metal_State_Penalty>
-0

> <b_epik_Metal_Only>
0

> <s_lp_Force_Field>
OPLS_2005

> <r_lp_Energy>
17.7653

> <b_lp_Chiralities_Consistent>
1

> <s_lp_Variant>
AV-unprocessed.smi:3287-6

> <Gold.Version>
5.8.1

> <Gold.Id.Protein>
6NUR|6NUR_protein|mol2

> <Gold.PLP.Fitness>
48.2402

> <Gold.PLP.PLP>
-33.9257

> <Gold.PLP.part.hbond>
-2.0000

> <Gold.PLP.part.metal>
0.0000

> <Gold.PLP.part.buried>
-3.7958

> <Gold.PLP.part.nonpolar>
-29.4797

> <Gold.PLP.part.repulsive>
0.2007

> <Gold.PLP.ligand.clash>
0.0000

> <Gold.PLP.ligand.torsion>
0.2694

> <Gold.PLP.Chemscore.Hbond>
3.0000

> <Gold.PLP.Chemscore.CHOScore>
1.9442

> <Gold.PLP.Chemscore.Metal>
0.0000

> <Gold.Chemscore.Hbonds>
donor molecule, donor type, donor heavy atom, donor atom, acceptor molecule, acceptor atom, score
      L1  H     6    28       P1  8028  2.00
      L1  H     9    32       P1  8028  1.00
      L1  C    12    34       P1  7948  0.95
      L1  C    12    34       P1  7957  1.00

> <Gold.PLP.Chemscore.Internal.Correction>
0.0206

> <Gold.Rescore>
     Score         DG    S(hbond)    S(metal)    S(lipo)     H(rot)  DE(clash)    DE(int)     intcor
     21.77     -22.13       1.99        0.00     127.20       1.90       0.14       0.22       ----

> <Gold.Chemscore.Fitness>
21.7724

> <Gold.Chemscore.DG>
-22.1288

> <Gold.Chemscore.ZeroCoef>
-5.4800

> <Gold.Chemscore.Hbond>
1.9877

> <Gold.Chemscore.Metal>
0.0000

> <Gold.Chemscore.Lipo>
127.2038

> <Gold.Chemscore.Internal_Hbond>
0.0000

> <Gold.Chemscore.DEClash>
0.1352

> <Gold.Chemscore.DEInternal>
0.2212

> <Gold.Chemscore.Rot>
1.9035

> <Gold.Chemscore.Internal.Correction>
   9.000000E+99

> <Gold.Chemscore.Hbonds>
donor molecule, donor type, donor heavy atom, donor atom, acceptor molecule, acceptor atom, score
      L1  H     6    28       P1  8028  0.98
      L1  H     9    32       P1  8028  0.97

> <Gold.Chemscore.Hbond.Weighted>
-6.6388

> <Gold.Chemscore.Metal.Weighted>
-0.0000

> <Gold.Chemscore.Lipo.Weighted>
-14.8828

> <Gold.Chemscore.Internal_Hbond.Weighted>
0.0000

> <Gold.Chemscore.DEClash.Weighted>
0.1352

> <Gold.Chemscore.DEInternal.Weighted>
0.2212

> <Gold.Chemscore.Rot.Weighted>
4.8729

> <Gold.Chemscore.Internal.Correction.Weighted>
   9.000000E+99

> <Gold.Protein.RotatedTorsions>
[ 6907 6896 6895 6894 ] final  -51.29 input  -60.11 | X-H torsion
[ 7974 7965 7964 7962 ] final  148.77 input  175.53 | X-H torsion
[ 8008 7997 7996 7995 ] final   31.80 input   59.86 | X-H torsion
[ 10167 10162 10161 10158 ] final -138.29 input  -65.29 | X-H torsion
[ 10718 10713 10712 10709 ] final   94.66 input   66.30 | X-H torsion
[ 10763 10752 10751 10750 ] final -164.52 input  -60.55 | X-H torsion
[ 11005 11000 10999 10996 ] final -102.48 input  -57.11 | X-H torsion

> <Gold.Protein.ActiveResidues>
 VAL166  LYS551  ARG553  GLY616  TRP617  ASP618  TYR619  PRO620  LYS621  CYS622 
 ASP623  PHE694  ASN695  SER759  ASP760  ASP761  ALA762  ILE779  LEU786  VAL792 
 PHE793  MET794  SER795  GLU796  ALA797  LYS798  CYS799  TRP800  GLU811  SER814 

> <Gold.Protein.RotatedAtoms>
  150.8625  134.7981  159.7093 H   0  0  0  0  0  0  0  0  0  0  0  0  # atno 6907 bound_to 6896
  152.4657  134.5076  159.9754 H   0  0  0  0  0  0  0  0  0  0  0  0  # atno 6908 bound_to 6896
  151.5178  133.3434  159.2931 H   0  0  0  0  0  0  0  0  0  0  0  0  # atno 6909 bound_to 6896
  144.8489  139.6195  143.5983 H   0  0  0  0  0  0  0  0  0  0  0  0  # atno 7974 bound_to 7965
  155.1122  140.3240  155.4518 H   0  0  0  0  0  0  0  0  0  0  0  0  # atno 8008 bound_to 7997
  156.2687  140.2042  156.6194 H   0  0  0  0  0  0  0  0  0  0  0  0  # atno 8009 bound_to 7997
  154.6747  140.0532  157.0190 H   0  0  0  0  0  0  0  0  0  0  0  0  # atno 8010 bound_to 7997
  139.8493  143.7220  152.2659 H   0  0  0  0  0  0  0  0  0  0  0  0  # atno 10167 bound_to 10162
  157.6946  131.0520  150.4220 H   0  0  0  0  0  0  0  0  0  0  0  0  # atno 10718 bound_to 10713
  154.7020  135.2990  154.9327 H   0  0  0  0  0  0  0  0  0  0  0  0  # atno 10763 bound_to 10752
  154.0256  135.6677  153.4780 H   0  0  0  0  0  0  0  0  0  0  0  0  # atno 10764 bound_to 10752
  153.0688  135.5072  154.8169 H   0  0  0  0  0  0  0  0  0  0  0  0  # atno 10765 bound_to 10752
  141.1187  133.8562  157.1365 H   0  0  0  0  0  0  0  0  0  0  0  0  # atno 11005 bound_to 11000
  146.2768  139.6773  142.9257 LP  0  0  0  0  0  0  0  0  0  0  0  0  # atno 17320 bound_to 7965
  145.4541  141.0430  143.2788 LP  0  0  0  0  0  0  0  0  0  0  0  0  # atno 17321 bound_to 7965
  139.7481  144.7541  151.0548 LP  0  0  0  0  0  0  0  0  0  0  0  0  # atno 17342 bound_to 10162
  140.7789  143.4892  150.9916 LP  0  0  0  0  0  0  0  0  0  0  0  0  # atno 17343 bound_to 10162
  156.4595  130.4029  149.6585 LP  0  0  0  0  0  0  0  0  0  0  0  0  # atno 17370 bound_to 10713
  156.3706  130.7528  151.2511 LP  0  0  0  0  0  0  0  0  0  0  0  0  # atno 17371 bound_to 10713
  140.0128  134.9981  157.0430 LP  0  0  0  0  0  0  0  0  0  0  0  0  # atno 17394 bound_to 11000
  140.4571  134.1523  155.7187 LP  0  0  0  0  0  0  0  0  0  0  0  0  # atno 17395 bound_to 11000

$$$$
