#       Name:                AV-unprocessed.smi:250
#       Creating user name   scv26
#       Creation time:       Thu Mar 26 21:05:00 2020


#       File generated by GOLD software.
#

@<TRIPOS>MOLECULE
AV-unprocessed.smi:250
    65    69     1
SMALL
NO_CHARGES


@<TRIPOS>ATOM
      1 ****        -7.5991   0.0865   0.7714 C.3            1 S1                 0.0000
      2 ****        -6.3153  -0.4780   0.3765 N.am           1 S1                 0.0000
      3 ****        -6.1049  -1.6204  -0.3107 C.2            1 S1                 0.0000
      4 ****        -6.9669  -2.4043  -0.7029 O.2            1 S1                 0.0000
      5 ****        -4.7817  -1.7629  -0.4997 N.am           1 S1                 0.0000
      6 ****        -4.0634  -0.8092   0.3126 C.3            1 S1                 0.0000
      7 ****        -2.7359  -0.2117  -0.1457 C.3            1 S1                 0.0000
      8 ****        -2.3297   0.7729   0.8703 N.pl3          1 S1                 0.0000
      9 ****        -1.0274   1.1479   0.8153 C.ar           1 S1                 0.0000
     10 ****        -0.7093   2.4530   0.6035 N.ar           1 S1                 0.0000
     11 ****         0.5698   2.8328   0.5343 C.ar           1 S1                 0.0000
     12 ****         1.6691   2.0855   0.6478 N.ar           1 S1                 0.0000
     13 ****         1.3582   0.7760   0.8674 C.ar           1 S1                 0.0000
     14 ****         0.0481   0.2284   0.9723 C.ar           1 S1                 0.0000
     15 ****         0.1254  -1.1346   1.2325 N.2            1 S1                 0.0000
     16 ****         1.4061  -1.3799   1.2683 C.2            1 S1                 0.0000
     17 ****         2.2206  -0.2944   1.0362 N.pl3          1 S1                 0.0000
     18 ****         3.6762  -0.2886   1.0208 C.3            1 S1                 0.0000
     19 ****         4.3394  -0.4826  -0.3770 C.3            1 S1                 0.0000
     20 ****         4.0243  -1.8968  -0.9518 C.3            1 S1                 0.0000
     21 ****         2.7035  -2.0369  -1.4349 O.3            1 S1                 0.0000
     22 ****         3.9185   0.6441  -1.3554 C.3            1 S1                 0.0000
     23 ****         4.7846   0.6788  -2.6259 C.3            1 S1                 0.0000
     24 ****         6.1501   0.8521  -2.2708 O.3            1 S1                 0.0000
     25 ****         6.6582  -0.2226  -1.4916 C.3            1 S1                 0.0000
     26 ****         5.8700  -0.3445  -0.1723 C.3            1 S1                 0.0000
     27 ****        -3.3200   1.7892   1.2833 C.3            1 S1                 0.0000
     28 ****        -4.7153   1.1833   1.5983 C.3            1 S1                 0.0000
     29 ****        -5.0888   0.2951   0.4102 C.3            1 S1                 0.0000
     30 ****        -3.9126  -1.2872   1.2842 H              1 S1                 0.0000
     31 ****        -5.0856   0.9056  -0.4968 H              1 S1                 0.0000
     32 ****        -8.3890  -0.6658   0.7688 H              1 S1                 0.0000
     33 ****        -7.8855   0.8857   0.0876 H              1 S1                 0.0000
     34 ****        -7.5389   0.5010   1.7778 H              1 S1                 0.0000
     35 ****        -4.3433  -2.5440  -0.9655 H              1 S1                 0.0000
     36 ****        -1.9977  -1.0032  -0.2659 H              1 S1                 0.0000
     37 ****        -2.8407   0.2816  -1.1130 H              1 S1                 0.0000
     38 ****         0.7364   3.8858   0.3610 H              1 S1                 0.0000
     39 ****         1.7961  -2.3702   1.4535 H              1 S1                 0.0000
     40 ****         3.9998   0.6555   1.4611 H              1 S1                 0.0000
     41 ****         4.0211  -1.0644   1.7058 H              1 S1                 0.0000
     42 ****         4.6796  -2.1444  -1.7846 H              1 S1                 0.0000
     43 ****         4.1996  -2.6609  -0.1940 H              1 S1                 0.0000
     44 ****         2.6025  -2.9089  -1.7852 H              1 S1                 0.0000
     45 ****         2.8673   0.5581  -1.6303 H              1 S1                 0.0000
     46 ****         4.0174   1.6088  -0.8563 H              1 S1                 0.0000
     47 ****         4.6577  -0.2260  -3.2214 H              1 S1                 0.0000
     48 ****         4.4816   1.5142  -3.2571 H              1 S1                 0.0000
     49 ****         6.6349  -1.1476  -2.0673 H              1 S1                 0.0000
     50 ****         7.7081  -0.0247  -1.2750 H              1 S1                 0.0000
     51 ****         6.0791   0.5490   0.4180 H              1 S1                 0.0000
     52 ****         6.2528  -1.1835   0.4101 H              1 S1                 0.0000
     53 ****        -2.9537   2.3254   2.1598 H              1 S1                 0.0000
     54 ****        -3.4195   2.5231   0.4823 H              1 S1                 0.0000
     55 ****        -4.6840   0.6036   2.5218 H              1 S1                 0.0000
     56 ****        -5.4490   1.9768   1.7405 H              1 S1                 0.0000
     57 ****        -7.9321  -2.2194  -0.5183 LP             1 S1                 0.0000
     58 ****        -6.7028  -3.2269  -1.2066 LP             1 S1                 0.0000
     59 ****        -1.4362   3.1317   0.4990 LP             1 S1                 0.0000
     60 ****         2.6017   2.4401   0.5804 LP             1 S1                 0.0000
     61 ****        -0.6279  -1.7794   1.3624 LP             1 S1                 0.0000
     62 ****         2.5343  -1.3630  -2.1541 LP             1 S1                 0.0000
     63 ****         2.0544  -1.8967  -0.6873 LP             1 S1                 0.0000
     64 ****         6.2384   1.6978  -1.7445 LP             1 S1                 0.0000
     65 ****         6.6914   0.9229  -3.1087 LP             1 S1                 0.0000
@<TRIPOS>BOND
    1    1    2 1     
    2    1   32 1     
    3    1   33 1     
    4    1   34 1     
    5    2   29 1     
    6    2    3 am    
    7    3    4 2     
    8    3    5 am    
    9    5    6 1     
   10    5   35 1     
   11    6   30 1     
   12    6   29 1     
   13    6    7 1     
   14    7    8 1     
   15    7   36 1     
   16    7   37 1     
   17    8    9 1     
   18    8   27 1     
   19    9   14 ar    
   20    9   10 ar    
   21   10   11 ar    
   22   11   12 ar    
   23   11   38 1     
   24   12   13 ar    
   25   13   17 1     
   26   13   14 ar    
   27   14   15 1     
   28   15   16 2     
   29   16   17 1     
   30   16   39 1     
   31   17   18 1     
   32   18   19 1     
   33   18   40 1     
   34   18   41 1     
   35   19   26 1     
   36   19   20 1     
   37   19   22 1     
   38   20   21 1     
   39   20   42 1     
   40   20   43 1     
   41   21   44 1     
   42   22   23 1     
   43   22   45 1     
   44   22   46 1     
   45   23   24 1     
   46   23   47 1     
   47   23   48 1     
   48   24   25 1     
   49   25   26 1     
   50   25   49 1     
   51   25   50 1     
   52   26   51 1     
   53   26   52 1     
   54   27   28 1     
   55   27   53 1     
   56   27   54 1     
   57   28   29 1     
   58   28   55 1     
   59   28   56 1     
   60   29   31 1     
   61    4   57 1     
   62    4   58 1     
   63   10   59 1     
   64   12   60 1     
   65   15   61 1     
   66   21   62 1     
   67   21   63 1     
   68   24   64 1     
   69   24   65 1     
@<TRIPOS>SUBSTRUCTURE
      1 S1             1
@<TRIPOS>SET
LONE_PAIRS      STATIC     ATOMS    <user>   **** ""
9 57 58 59 60 61 62 63 64 65
DONOR_HYDROGENS      STATIC     ATOMS    <user>   **** ""
2 35 44
ATOM$BLUE        STATIC     ATOMS    COLORGROUP SYSTEM
9 57 58 59 60 61 62 63 64 65
ATOM$RED        STATIC     ATOMS    COLORGROUP SYSTEM
2 35 44
