#       Name:                AV-unprocessed.smi:1802
#       Creating user name   scv26
#       Creation time:       Fri Mar 27 08:53:58 2020


#       File generated by GOLD software.
#

@<TRIPOS>MOLECULE
AV-unprocessed.smi:1802
    45    46     1
SMALL
NO_CHARGES


@<TRIPOS>ATOM
      1 ****        -1.9996   3.9943  -1.8951 C.3            1 S1                 0.0000
      2 ****        -2.0946   3.2158  -0.5752 C.3            1 S1                 0.0000
      3 ****        -3.5089   3.2961   0.0235 C.3            1 S1                 0.0000
      4 ****        -3.5799   2.4889   1.3256 C.3            1 S1                 0.0000
      5 ****        -3.1256   1.0385   1.0984 C.3            1 S1                 0.0000
      6 ****        -1.7565   0.9900   0.5237 N.4            1 S1                 1.0000
      7 ****        -1.2410  -0.3982   0.4184 C.3            1 S1                 0.0000
      8 ****         0.2955  -0.4533   0.4141 C.3            1 S1                 0.0000
      9 ****         0.8234  -1.8921   0.3594 C.3            1 S1                 0.0000
     10 ****         2.2798  -1.8997   0.3478 N.am           1 S1                 0.0000
     11 ****         3.0450  -2.9706   0.0997 C.2            1 S1                 0.0000
     12 ****         2.5183  -4.0612  -0.1323 O.2            1 S1                 0.0000
     13 ****         4.3713  -2.7100   0.1354 N.pl3          1 S1                -1.0000
     14 ****         5.2555  -3.6881  -0.1216 C.2            1 S1                 0.0000
     15 ****         5.8370  -3.8308  -1.3234 N.2            1 S1                 0.0000
     16 ****         6.7224  -4.8987  -1.3785 N.2            1 S1                 0.0000
     17 ****         6.7923  -5.5324  -0.2081 C.2            1 S1                 0.0000
     18 ****         5.7850  -4.8814   1.0676 S.3            1 S1                 0.0000
     19 ****        -1.6747   1.7432  -0.7572 C.3            1 S1                 0.0000
     20 ****        -2.6695   3.5803  -2.6494 H              1 S1                 0.0000
     21 ****        -0.9867   3.9646  -2.2974 H              1 S1                 0.0000
     22 ****        -2.2660   5.0422  -1.7532 H              1 S1                 0.0000
     23 ****        -1.4023   3.6792   0.1296 H              1 S1                 0.0000
     24 ****        -3.7813   4.3346   0.2155 H              1 S1                 0.0000
     25 ****        -4.2386   2.9081  -0.6888 H              1 S1                 0.0000
     26 ****        -2.9489   2.9568   2.0824 H              1 S1                 0.0000
     27 ****        -4.5968   2.5043   1.7186 H              1 S1                 0.0000
     28 ****        -3.1464   0.5065   2.0504 H              1 S1                 0.0000
     29 ****        -3.8203   0.5247   0.4319 H              1 S1                 0.0000
     30 ****        -1.5930  -0.9783   1.2727 H              1 S1                 0.0000
     31 ****        -1.6508  -0.8814  -0.4699 H              1 S1                 0.0000
     32 ****         0.6942   0.0965  -0.4381 H              1 S1                 0.0000
     33 ****         0.6794   0.0399   1.3083 H              1 S1                 0.0000
     34 ****         0.4708  -2.4611   1.2208 H              1 S1                 0.0000
     35 ****         0.4460  -2.3902  -0.5352 H              1 S1                 0.0000
     36 ****         2.7491  -1.0259   0.5358 H              1 S1                 0.0000
     37 ****         7.4418  -6.3874  -0.0947 H              1 S1                 0.0000
     38 ****        -2.3083   1.2597  -1.5026 H              1 S1                 0.0000
     39 ****        -0.6570   1.7125  -1.1447 H              1 S1                 0.0000
     40 ****        -1.1587   1.4653   1.1849 H              1 S1                 0.0000
     41 ****         1.5218  -4.1448  -0.1349 LP             1 S1                 0.0000
     42 ****         3.0876  -4.8621  -0.3178 LP             1 S1                 0.0000
     43 ****         4.6940  -1.7889   0.3532 LP             1 S1                 0.0000
     44 ****         5.6511  -3.2289  -2.1000 LP             1 S1                 0.0000
     45 ****         7.2415  -5.1592  -2.1925 LP             1 S1                 0.0000
@<TRIPOS>BOND
    1    1    2 1     
    2    1   20 1     
    3    1   21 1     
    4    1   22 1     
    5    2   19 1     
    6    2    3 1     
    7    2   23 1     
    8    3    4 1     
    9    3   24 1     
   10    3   25 1     
   11    4    5 1     
   12    4   26 1     
   13    4   27 1     
   14    5    6 1     
   15    5   28 1     
   16    5   29 1     
   17    6    7 1     
   18    6   19 1     
   19    6   40 1     
   20    7    8 1     
   21    7   30 1     
   22    7   31 1     
   23    8    9 1     
   24    8   32 1     
   25    8   33 1     
   26    9   10 1     
   27    9   34 1     
   28    9   35 1     
   29   10   11 am    
   30   10   36 1     
   31   11   12 2     
   32   11   13 1     
   33   13   14 1     
   34   14   18 1     
   35   14   15 2     
   36   15   16 1     
   37   16   17 2     
   38   17   18 1     
   39   17   37 1     
   40   19   38 1     
   41   19   39 1     
   42   12   41 1     
   43   12   42 1     
   44   13   43 1     
   45   15   44 1     
   46   16   45 1     
@<TRIPOS>SUBSTRUCTURE
      1 S1             1
@<TRIPOS>SET
LONE_PAIRS      STATIC     ATOMS    <user>   **** ""
5 41 42 43 44 45
DONOR_HYDROGENS      STATIC     ATOMS    <user>   **** ""
2 40 36
ATOM$BLUE        STATIC     ATOMS    COLORGROUP SYSTEM
5 41 42 43 44 45
ATOM$RED        STATIC     ATOMS    COLORGROUP SYSTEM
2 40 36
