AV-unprocessed.smi:72|AV-procd|sdf|666|dock5
  -GOLD-   2262016563D 1   1.00000     0.00000
 Structure written by MMmdl.
 29 30  0  0  0  0  0  0  0  0  1 V2000
  146.2781  139.6108  151.4794 N   0  0  0  0  0  0  0  0  0  0  0  0
  145.9488  138.3683  151.4836 C   0  0  0  0  0  0  0  0  0  0  0  0
  146.4941  137.3829  150.6468 N   0  0  0  0  0  0  0  0  0  0  0  0
  146.0607  136.1650  150.7567 C   0  0  0  0  0  0  0  0  0  0  0  0
  145.0269  135.7923  151.7100 N   0  0  0  0  0  0  0  0  0  0  0  0
  144.5408  134.3615  151.8123 C   0  0  1  0  0  0  0  0  0  0  0  0
  143.9961  133.9814  150.5833 O   0  0  0  0  0  0  0  0  0  0  0  0
  144.3889  132.6471  150.2862 C   0  0  1  0  0  0  0  0  0  0  0  0
  144.2499  132.3537  148.7819 C   0  0  0  0  0  0  0  0  0  0  0  0
  142.8911  132.3857  148.4002 O   0  0  0  0  0  0  0  0  0  0  0  0
  145.7940  132.5271  150.8954 C   0  0  1  0  0  0  0  0  0  0  0  0
  146.7820  133.0303  150.0119 O   0  0  0  0  0  0  0  0  0  0  0  0
  145.6614  133.3594  152.1684 C   0  0  1  0  0  0  0  0  0  0  0  0
  146.8852  133.9282  152.6043 O   0  0  0  0  0  0  0  0  0  0  0  0
  144.4773  136.7715  152.5732 C   0  0  0  0  0  0  0  0  0  0  0  0
  143.6192  136.5089  153.4156 O   0  0  0  0  0  0  0  0  0  0  0  0
  144.9627  138.0225  152.4177 N   0  0  0  0  0  0  0  0  0  0  0  0
  143.7346  134.3582  152.5468 H   0  0  0  0  0  0  0  0  0  0  0  0
  143.7138  131.9913  150.8396 H   0  0  0  0  0  0  0  0  0  0  0  0
  146.0447  131.4900  151.1203 H   0  0  0  0  0  0  0  0  0  0  0  0
  145.2773  132.7227  152.9666 H   0  0  0  0  0  0  0  0  0  0  0  0
  145.7484  140.1205  152.1711 H   0  0  0  0  0  0  0  0  0  0  0  0
  146.4415  135.3457  150.1460 H   0  0  0  0  0  0  0  0  0  0  0  0
  144.7855  133.1093  148.2067 H   0  0  0  0  0  0  0  0  0  0  0  0
  144.6847  131.3896  148.5176 H   0  0  0  0  0  0  0  0  0  0  0  0
  142.4468  133.0335  148.9257 H   0  0  0  0  0  0  0  0  0  0  0  0
  147.5105  132.4281  150.0050 H   0  0  0  0  0  0  0  0  0  0  0  0
  147.4892  133.2277  152.7974 H   0  0  0  0  0  0  0  0  0  0  0  0
  144.5903  138.7432  153.0182 H   0  0  0  0  0  0  0  0  0  0  0  0
  1  2  2  0  0  0  0
  1 22  1  0  0  0  0
  2 17  1  0  0  0  0
  2  3  1  0  0  0  0
  3  4  2  0  0  0  0
  4  5  1  0  0  0  0
  4 23  1  0  0  0  0
  5  6  1  0  0  0  0
  5 15  1  0  0  0  0
  6 18  1  0  0  0  0
  6 13  1  0  0  0  0
  6  7  1  0  0  0  0
  7  8  1  0  0  0  0
  8 19  1  0  0  0  0
  8  9  1  0  0  0  0
  8 11  1  0  0  0  0
  9 10  1  0  0  0  0
  9 24  1  0  0  0  0
  9 25  1  0  0  0  0
 10 26  1  0  0  0  0
 11 20  1  0  0  0  0
 11 12  1  0  0  0  0
 11 13  1  0  0  0  0
 12 27  1  0  0  0  0
 13 21  1  0  0  0  0
 13 14  1  0  0  0  0
 14 28  1  0  0  0  0
 15 16  2  0  0  0  0
 15 17  1  0  0  0  0
 17 29  1  0  0  0  0
M  END
> <s_m_source_file>
AV-unprocessed.smi

> <i_m_source_file_index>
72

> <i_lp_mmshare_version>
43012

> <i_f3d_flags>
0

> <s_epik_input>
W05IMl1jMW5bY0hdbihjKD1PKW4xKVtDQEBIXTJPW0NASF0oW0NIMl1bT0hdKVtDQEBIXShbT0hdKVtDQEhdMltPSF0=

> <s_epik_cmdline>
J2VwaWtfcHl0aG9uJywgJy1waCcsICc3LjAnLCAnLXRuJywgJzgnLCAnLW1hJywgJzIwMCcsICctbWV0YWxfYmluZGluZycsICctaW1hZScsICc8aW5maWxlLm1hZT4nLCAnLW9tYWUnLCAnPG91dGZpbGUubWFlPic=

> <r_lp_tautomer_probability>
7.17554e-07

> <r_epik_Ionization_Penalty>
0.0066451

> <r_epik_Ionization_Penalty_Charging>
0.00663793

> <r_epik_Ionization_Penalty_Neutral>
7.17052e-06

> <r_epik_State_Penalty>
0.419231

> <r_epik_Charging_Adjusted_Penalty>
0.425868

> <i_epik_Tot_Q>
0

> <i_epik_Tot_abs_Q>
0

> <r_epik_Metal_State_Penalty>
1.44144

> <b_epik_Metal_Only>
0

> <s_epik_Chemistry_Notes>
This compound contains an acetal/aminal-like group ( X-CH(R)-Y where X, Y are N, S, or O) that may be acid/base labile, releasing an aldehyde.

> <s_lp_Force_Field>
OPLS_2005

> <r_lp_Energy>
49.4218

> <b_lp_Chiralities_Consistent>
1

> <s_lp_Variant>
AV-unprocessed.smi:72-4

> <Gold.Version>
5.8.1

> <Gold.Id.Protein>
6NUR|6NUR_protein|mol2

> <Gold.PLP.Fitness>
40.3522

> <Gold.PLP.PLP>
-26.6676

> <Gold.PLP.part.hbond>
-11.5178

> <Gold.PLP.part.metal>
0.0000

> <Gold.PLP.part.buried>
1.1948

> <Gold.PLP.part.nonpolar>
-19.9348

> <Gold.PLP.part.repulsive>
2.7046

> <Gold.PLP.ligand.clash>
0.0000

> <Gold.PLP.ligand.torsion>
0.0176

> <Gold.PLP.Chemscore.Hbond>
3.5728

> <Gold.PLP.Chemscore.CHOScore>
1.0000

> <Gold.PLP.Chemscore.Metal>
0.0000

> <Gold.Chemscore.Hbonds>
donor molecule, donor type, donor heavy atom, donor atom, acceptor molecule, acceptor atom, score
      L1  H     1    22       P1 10175  0.55
      L1  H    10    26       P1 10186  0.86
      L1  H    12    27       P1 10747  0.70
      L1  H    17    29       P1 10175  0.54
      P1  H  7954  7966       L1     3  1.00
      L1  C     4    23       P1  7921  0.91

> <Gold.PLP.Chemscore.Internal.Correction>
0.0014

> <Gold.Rescore>
     Score         DG    S(hbond)    S(metal)    S(lipo)     H(rot)  DE(clash)    DE(int)     intcor
      5.60      -8.56       2.86        0.00      33.65       4.06       2.86       0.10       ----

> <Gold.Chemscore.Fitness>
5.5953

> <Gold.Chemscore.DG>
-8.5600

> <Gold.Chemscore.ZeroCoef>
-5.4800

> <Gold.Chemscore.Hbond>
2.8552

> <Gold.Chemscore.Metal>
0.0000

> <Gold.Chemscore.Lipo>
33.6528

> <Gold.Chemscore.Internal_Hbond>
0.0000

> <Gold.Chemscore.DEClash>
2.8611

> <Gold.Chemscore.DEInternal>
0.1036

> <Gold.Chemscore.Rot>
4.0600

> <Gold.Chemscore.Internal.Correction>
   9.000000E+99

> <Gold.Chemscore.Hbonds>
donor molecule, donor type, donor heavy atom, donor atom, acceptor molecule, acceptor atom, score
      L1  H     1    22       P1 10175  0.32
      L1  H    10    26       P1 10186  0.84
      L1  H    12    27       P1 10747  0.71
      L1  H    17    29       P1 10175  0.51
      P1  H  7954  7966       L1     3  0.83

> <Gold.Chemscore.Hbond.Weighted>
-9.5362

> <Gold.Chemscore.Metal.Weighted>
-0.0000

> <Gold.Chemscore.Lipo.Weighted>
-3.9374

> <Gold.Chemscore.Internal_Hbond.Weighted>
0.0000

> <Gold.Chemscore.DEClash.Weighted>
2.8611

> <Gold.Chemscore.DEInternal.Weighted>
0.1036

> <Gold.Chemscore.Rot.Weighted>
10.3936

> <Gold.Chemscore.Internal.Correction.Weighted>
   9.000000E+99

> <Gold.Protein.RotatedTorsions>
[ 6907 6896 6895 6894 ] final  -94.92 input  -60.11 | X-H torsion
[ 7974 7965 7964 7962 ] final  -38.92 input  175.53 | X-H torsion
[ 8008 7997 7996 7995 ] final  -27.05 input   59.86 | X-H torsion
[ 10167 10162 10161 10158 ] final  -66.97 input  -65.29 | X-H torsion
[ 10718 10713 10712 10709 ] final  160.78 input   66.30 | X-H torsion
[ 10763 10752 10751 10750 ] final  -56.01 input  -60.55 | X-H torsion
[ 11005 11000 10999 10996 ] final  -12.70 input  -57.11 | X-H torsion

> <Gold.Protein.ActiveResidues>
 VAL166  LYS551  ARG553  GLY616  TRP617  ASP618  TYR619  PRO620  LYS621  CYS622 
 ASP623  PHE694  ASN695  SER759  ASP760  ASP761  ALA762  ILE779  LEU786  VAL792 
 PHE793  MET794  SER795  GLU796  ALA797  LYS798  CYS799  TRP800  GLU811  SER814 

> <Gold.Protein.RotatedAtoms>
  150.6952  134.1737  159.4221 H   0  0  0  0  0  0  0  0  0  0  0  0  # atno 6907 bound_to 6896
  151.9714  135.0072  160.0562 H   0  0  0  0  0  0  0  0  0  0  0  0  # atno 6908 bound_to 6896
  152.1838  133.4690  159.5009 H   0  0  0  0  0  0  0  0  0  0  0  0  # atno 6909 bound_to 6896
  146.0443  140.6567  142.9072 H   0  0  0  0  0  0  0  0  0  0  0  0  # atno 7974 bound_to 7965
  154.4396  140.1883  156.0871 H   0  0  0  0  0  0  0  0  0  0  0  0  # atno 8008 bound_to 7997
  156.0394  140.3321  155.7201 H   0  0  0  0  0  0  0  0  0  0  0  0  # atno 8009 bound_to 7997
  155.5721  140.0613  157.2794 H   0  0  0  0  0  0  0  0  0  0  0  0  # atno 8010 bound_to 7997
  140.5617  143.2313  151.6714 H   0  0  0  0  0  0  0  0  0  0  0  0  # atno 10167 bound_to 10162
  157.1456  131.0551  151.2305 H   0  0  0  0  0  0  0  0  0  0  0  0  # atno 10718 bound_to 10713
  154.1999  135.6413  153.5084 H   0  0  0  0  0  0  0  0  0  0  0  0  # atno 10763 bound_to 10752
  153.0014  135.5449  154.6326 H   0  0  0  0  0  0  0  0  0  0  0  0  # atno 10764 bound_to 10752
  154.5736  135.2919  155.0776 H   0  0  0  0  0  0  0  0  0  0  0  0  # atno 10765 bound_to 10752
  140.7684  133.8458  155.9185 H   0  0  0  0  0  0  0  0  0  0  0  0  # atno 11005 bound_to 11000
  144.7090  140.3966  143.7095 LP  0  0  0  0  0  0  0  0  0  0  0  0  # atno 17320 bound_to 7965
  145.6832  139.1623  143.2689 LP  0  0  0  0  0  0  0  0  0  0  0  0  # atno 17321 bound_to 7965
  139.5073  144.3650  152.0526 LP  0  0  0  0  0  0  0  0  0  0  0  0  # atno 17342 bound_to 10162
  140.2777  144.3894  150.6129 LP  0  0  0  0  0  0  0  0  0  0  0  0  # atno 17343 bound_to 10162
  157.4267  130.7467  149.6957 LP  0  0  0  0  0  0  0  0  0  0  0  0  # atno 17370 bound_to 10713
  155.9780  130.4056  150.3676 LP  0  0  0  0  0  0  0  0  0  0  0  0  # atno 17371 bound_to 10713
  140.9597  134.1672  157.4664 LP  0  0  0  0  0  0  0  0  0  0  0  0  # atno 17394 bound_to 11000
  139.8759  134.9940  156.5672 LP  0  0  0  0  0  0  0  0  0  0  0  0  # atno 17395 bound_to 11000

$$$$
