AV-unprocessed.smi:1506|AV-procd|sdf|6079|dock7
  -GOLD-   22720 6203D 1   1.00000     0.00000
 Structure written by MMmdl.
 40 42  0  0  0  0  0  0  0  0  2 V2000
  146.8881  134.1491  162.9455 C   0  0  0  0  0  0  0  0  0  0  0  0
  147.4867  134.5061  161.6006 C   0  0  0  0  0  0  0  0  0  0  0  0
  147.6774  133.5133  160.6193 C   0  0  0  0  0  0  0  0  0  0  0  0
  148.2331  133.8560  159.3729 C   0  0  0  0  0  0  0  0  0  0  0  0
  148.5991  135.1886  159.1021 C   0  0  0  0  0  0  0  0  0  0  0  0
  148.4103  136.1971  160.0808 C   0  0  0  0  0  0  0  0  0  0  0  0
  148.7381  137.5240  159.9001 O   0  0  0  0  0  0  0  0  0  0  0  0
  149.2070  137.9329  158.6219 C   0  0  0  0  0  0  0  0  0  0  0  0
  150.7207  138.1813  158.6970 C   0  0  1  0  0  0  0  0  0  0  0  0
  151.3662  136.9410  158.9075 O   0  0  0  0  0  0  0  0  0  0  0  0
  151.2712  138.8585  157.4257 C   0  0  0  0  0  0  0  0  0  0  0  0
  150.9188  140.2833  157.3432 N   0  0  0  0  0  0  0  0  0  0  0  0
  150.0178  140.9064  156.5360 C   0  0  0  0  0  0  0  0  0  0  0  0
  150.0469  142.2348  156.8342 N   0  3  0  0  0  0  0  0  0  0  0  0
  150.9801  142.4651  157.8470 C   0  0  0  0  0  0  0  0  0  0  0  0
  151.3622  143.6431  158.4817 C   0  0  0  0  0  0  0  0  0  0  0  0
  152.3478  143.5311  159.4842 C   0  0  0  0  0  0  0  0  0  0  0  0
  152.9133  142.2846  159.8219 C   0  0  0  0  0  0  0  0  0  0  0  0
  152.5189  141.0967  159.1714 C   0  0  0  0  0  0  0  0  0  0  0  0
  151.5449  141.2153  158.1801 C   0  0  0  0  0  0  0  0  0  0  0  0
  147.8524  135.8396  161.3258 C   0  0  0  0  0  0  0  0  0  0  0  0
  146.8899  133.0705  163.1064 H   0  0  0  0  0  0  0  0  0  0  0  0
  145.8585  134.5027  163.0042 H   0  0  0  0  0  0  0  0  0  0  0  0
  147.4577  134.6121  163.7516 H   0  0  0  0  0  0  0  0  0  0  0  0
  147.3992  132.4885  160.8177 H   0  0  0  0  0  0  0  0  0  0  0  0
  148.3797  133.0942  158.6213 H   0  0  0  0  0  0  0  0  0  0  0  0
  149.0235  135.4103  158.1350 H   0  0  0  0  0  0  0  0  0  0  0  0
  149.0008  137.1456  157.8944 H   0  0  0  0  0  0  0  0  0  0  0  0
  148.6960  138.8400  158.2943 H   0  0  0  0  0  0  0  0  0  0  0  0
  150.9349  138.8094  159.5628 H   0  0  0  0  0  0  0  0  0  0  0  0
  151.7010  136.6322  158.0798 H   0  0  0  0  0  0  0  0  0  0  0  0
  152.3528  138.7464  157.3516 H   0  0  0  0  0  0  0  0  0  0  0  0
  150.8553  138.3773  156.5397 H   0  0  0  0  0  0  0  0  0  0  0  0
  149.3913  140.4320  155.7944 H   0  0  0  0  0  0  0  0  0  0  0  0
  150.9295  144.5991  158.2258 H   0  0  0  0  0  0  0  0  0  0  0  0
  152.6757  144.4190  160.0054 H   0  0  0  0  0  0  0  0  0  0  0  0
  153.6649  142.2381  160.5966 H   0  0  0  0  0  0  0  0  0  0  0  0
  152.9573  140.1480  159.4423 H   0  0  0  0  0  0  0  0  0  0  0  0
  147.7037  136.5998  162.0788 H   0  0  0  0  0  0  0  0  0  0  0  0
  149.4693  142.9304  156.3797 H   0  0  0  0  0  0  0  0  0  0  0  0
  1  2  1  0  0  0  0
  1 22  1  0  0  0  0
  1 23  1  0  0  0  0
  1 24  1  0  0  0  0
  2 21  1  0  0  0  0
  2  3  2  0  0  0  0
  3  4  1  0  0  0  0
  3 25  1  0  0  0  0
  4  5  2  0  0  0  0
  4 26  1  0  0  0  0
  5  6  1  0  0  0  0
  5 27  1  0  0  0  0
  6  7  1  0  0  0  0
  6 21  2  0  0  0  0
  7  8  1  0  0  0  0
  8  9  1  0  0  0  0
  8 28  1  0  0  0  0
  8 29  1  0  0  0  0
  9 10  1  0  0  0  0
  9 11  1  0  0  0  0
  9 30  1  0  0  0  0
 10 31  1  0  0  0  0
 11 12  1  0  0  0  0
 11 32  1  0  0  0  0
 11 33  1  0  0  0  0
 12 20  1  0  0  0  0
 12 13  1  0  0  0  0
 13 14  2  0  0  0  0
 13 34  1  0  0  0  0
 14 15  1  0  0  0  0
 14 40  1  0  0  0  0
 15 20  2  0  0  0  0
 15 16  1  0  0  0  0
 16 17  2  0  0  0  0
 16 35  1  0  0  0  0
 17 18  1  0  0  0  0
 17 36  1  0  0  0  0
 18 19  2  0  0  0  0
 18 37  1  0  0  0  0
 19 20  1  0  0  0  0
 19 38  1  0  0  0  0
 21 39  1  0  0  0  0
M  CHG  1  14   1
M  END
> <s_m_source_file>
AV-unprocessed.smi

> <i_m_source_file_index>
1506

> <i_lp_mmshare_version>
43012

> <i_f3d_flags>
0

> <s_epik_input>
W0NIM11jMVtjSF1bY0hdW2NIXWMoW2NIXTEpT1tDSDJdW0NASF0oW09IXSlbQ0gyXW4oW2NIXW4yKWMoYzIzKVtjSF1bY0hdW2NIXVtjSF0z

> <s_epik_cmdline>
J2VwaWtfcHl0aG9uJywgJy1waCcsICc3LjAnLCAnLXRuJywgJzgnLCAnLW1hJywgJzIwMCcsICctbWV0YWxfYmluZGluZycsICctaW1hZScsICc8aW5maWxlLm1hZT4nLCAnLW9tYWUnLCAnPG91dGZpbGUubWFlPic=

> <r_lp_tautomer_probability>
1

> <r_epik_Ionization_Penalty>
1.37864

> <r_epik_Ionization_Penalty_Charging>
1.37864

> <r_epik_Ionization_Penalty_Neutral>
2.3993e-06

> <r_epik_State_Penalty>
1.45896

> <r_epik_Charging_Adjusted_Penalty>
2.8376

> <i_epik_Tot_Q>
1

> <i_epik_Tot_abs_Q>
1

> <r_epik_Metal_State_Penalty>
5.49899

> <b_epik_Metal_Only>
0

> <s_lp_Force_Field>
OPLS_2005

> <r_lp_Energy>
20.0977

> <b_lp_Chiralities_Consistent>
1

> <s_lp_Variant>
AV-unprocessed.smi:1506-4

> <Gold.Version>
5.8.1

> <Gold.Id.Protein>
6NUR|6NUR_protein|mol2

> <Gold.PLP.Fitness>
49.5192

> <Gold.PLP.PLP>
-40.8883

> <Gold.PLP.part.hbond>
-4.0000

> <Gold.PLP.part.metal>
0.0000

> <Gold.PLP.part.buried>
-4.4286

> <Gold.PLP.part.nonpolar>
-34.2559

> <Gold.PLP.part.repulsive>
0.0237

> <Gold.PLP.ligand.clash>
0.0000

> <Gold.PLP.ligand.torsion>
0.6430

> <Gold.PLP.Chemscore.Hbond>
3.2875

> <Gold.PLP.Chemscore.CHOScore>
0.0000

> <Gold.PLP.Chemscore.Metal>
0.0000

> <Gold.Chemscore.Hbonds>
donor molecule, donor type, donor heavy atom, donor atom, acceptor molecule, acceptor atom, score
      L1  H    14    40       P1  8028  2.00
      P1  H  6896  6907       L1    10  0.85
      P1  H  6931  6943       L1     7  0.28
      P1  H  6934  6947       L1     7  0.05

> <Gold.PLP.Chemscore.Internal.Correction>
0.0543

> <Gold.Rescore>
     Score         DG    S(hbond)    S(metal)    S(lipo)     H(rot)  DE(clash)    DE(int)     intcor
     16.87     -17.55       1.60        0.00     107.20       2.27       0.03       0.65       ----

> <Gold.Chemscore.Fitness>
16.8740

> <Gold.Chemscore.DG>
-17.5544

> <Gold.Chemscore.ZeroCoef>
-5.4800

> <Gold.Chemscore.Hbond>
1.6017

> <Gold.Chemscore.Metal>
0.0000

> <Gold.Chemscore.Lipo>
107.1951

> <Gold.Chemscore.Internal_Hbond>
0.0000

> <Gold.Chemscore.DEClash>
0.0276

> <Gold.Chemscore.DEInternal>
0.6528

> <Gold.Chemscore.Rot>
2.2723

> <Gold.Chemscore.Internal.Correction>
   9.000000E+99

> <Gold.Chemscore.Hbonds>
donor molecule, donor type, donor heavy atom, donor atom, acceptor molecule, acceptor atom, score
      L1  H    14    40       P1  8028  0.94
      P1  H  6896  6907       L1    10  0.15
      P1  H  6931  6943       L1     7  0.13
      P1  H  6934  6947       L1     7  0.05

> <Gold.Chemscore.Hbond.Weighted>
-5.3496

> <Gold.Chemscore.Metal.Weighted>
-0.0000

> <Gold.Chemscore.Lipo.Weighted>
-12.5418

> <Gold.Chemscore.Internal_Hbond.Weighted>
0.0000

> <Gold.Chemscore.DEClash.Weighted>
0.0276

> <Gold.Chemscore.DEInternal.Weighted>
0.6528

> <Gold.Chemscore.Rot.Weighted>
5.8170

> <Gold.Chemscore.Internal.Correction.Weighted>
   9.000000E+99

> <Gold.Protein.RotatedTorsions>
[ 6907 6896 6895 6894 ] final  -13.99 input  -60.11 | X-H torsion
[ 7974 7965 7964 7962 ] final  -83.02 input  175.53 | X-H torsion
[ 8008 7997 7996 7995 ] final   50.15 input   59.86 | X-H torsion
[ 10167 10162 10161 10158 ] final  167.12 input  -65.29 | X-H torsion
[ 10718 10713 10712 10709 ] final   75.28 input   66.30 | X-H torsion
[ 10763 10752 10751 10750 ] final  -62.31 input  -60.55 | X-H torsion
[ 11005 11000 10999 10996 ] final   14.33 input  -57.11 | X-H torsion

> <Gold.Protein.ActiveResidues>
 VAL166  LYS551  ARG553  GLY616  TRP617  ASP618  TYR619  PRO620  LYS621  CYS622 
 ASP623  PHE694  ASN695  SER759  ASP760  ASP761  ALA762  ILE779  LEU786  VAL792 
 PHE793  MET794  SER795  GLU796  ALA797  LYS798  CYS799  TRP800  GLU811  SER814 

> <Gold.Protein.RotatedAtoms>
  151.3463  135.0875  159.9387 H   0  0  0  0  0  0  0  0  0  0  0  0  # atno 6907 bound_to 6896
  152.5198  133.9397  159.7630 H   0  0  0  0  0  0  0  0  0  0  0  0  # atno 6908 bound_to 6896
  150.9763  133.6237  159.2759 H   0  0  0  0  0  0  0  0  0  0  0  0  # atno 6909 bound_to 6896
  145.5256  140.9527  143.1631 H   0  0  0  0  0  0  0  0  0  0  0  0  # atno 7974 bound_to 7965
  155.4141  140.3443  155.4266 H   0  0  0  0  0  0  0  0  0  0  0  0  # atno 8008 bound_to 7997
  156.1432  140.1548  156.8920 H   0  0  0  0  0  0  0  0  0  0  0  0  # atno 8009 bound_to 7997
  154.4988  140.0820  156.7735 H   0  0  0  0  0  0  0  0  0  0  0  0  # atno 8010 bound_to 7997
  139.4938  144.3955  151.9469 H   0  0  0  0  0  0  0  0  0  0  0  0  # atno 10167 bound_to 10162
  157.6627  130.9718  150.1331 H   0  0  0  0  0  0  0  0  0  0  0  0  # atno 10718 bound_to 10713
  154.2979  135.6240  153.5412 H   0  0  0  0  0  0  0  0  0  0  0  0  # atno 10763 bound_to 10752
  152.9844  135.5671  154.5317 H   0  0  0  0  0  0  0  0  0  0  0  0  # atno 10764 bound_to 10752
  154.4941  135.2869  155.1449 H   0  0  0  0  0  0  0  0  0  0  0  0  # atno 10765 bound_to 10752
  140.4708  134.1033  155.7732 H   0  0  0  0  0  0  0  0  0  0  0  0  # atno 11005 bound_to 11000
  144.7653  139.6860  143.7217 LP  0  0  0  0  0  0  0  0  0  0  0  0  # atno 17320 bound_to 7965
  146.2078  139.5413  142.9701 LP  0  0  0  0  0  0  0  0  0  0  0  0  # atno 17321 bound_to 7965
  140.3393  144.3222  150.5970 LP  0  0  0  0  0  0  0  0  0  0  0  0  # atno 17342 bound_to 10162
  140.5579  143.2196  151.7816 LP  0  0  0  0  0  0  0  0  0  0  0  0  # atno 17343 bound_to 10162
  156.2172  130.3671  149.8599 LP  0  0  0  0  0  0  0  0  0  0  0  0  # atno 17370 bound_to 10713
  156.6461  130.8725  151.3523 LP  0  0  0  0  0  0  0  0  0  0  0  0  # atno 17371 bound_to 10713
  141.1578  133.8850  157.1931 LP  0  0  0  0  0  0  0  0  0  0  0  0  # atno 17394 bound_to 11000
  139.9886  135.0073  156.9923 LP  0  0  0  0  0  0  0  0  0  0  0  0  # atno 17395 bound_to 11000

$$$$
