AV-unprocessed.smi:562|AV-procd|sdf|2945|dock5
  -GOLD-   2262023443D 1   1.00000     0.00000
 Structure written by MMmdl.
 40 42  0  0  0  0  0  0  0  0  2 V2000
  151.8575  138.4740  154.8382 C   0  0  0  0  0  0  0  0  0  0  0  0
  151.4145  138.9291  156.1036 O   0  0  0  0  0  0  0  0  0  0  0  0
  152.4831  139.1518  157.0087 C   0  0  0  0  0  0  0  0  0  0  0  0
  151.9371  139.7629  158.3065 C   0  0  0  0  0  0  0  0  0  0  0  0
  152.8688  139.6064  159.4208 N   0  0  0  0  0  0  0  0  0  0  0  0
  153.3621  140.5699  160.2418 C   0  0  0  0  0  0  0  0  0  0  0  0
  152.9933  141.9248  160.1023 N   0  0  0  0  0  0  0  0  0  0  0  0
  152.6587  142.4193  158.8902 N   0  0  0  0  0  0  0  0  0  0  0  0
  152.3860  143.6951  159.1075 C   0  0  0  0  0  0  0  0  0  0  0  0
  151.9562  144.5632  157.9620 C   0  0  0  0  0  0  0  0  0  0  0  0
  152.5572  144.0579  160.4727 C   0  0  0  0  0  0  0  0  0  0  0  0
  152.9565  142.9013  161.0812 C   0  0  0  0  0  0  0  0  0  0  0  0
  153.3074  142.6342  162.5089 C   0  0  0  0  0  0  0  0  0  0  0  0
  154.1819  140.1302  161.1985 N   0  0  0  0  0  0  0  0  0  0  0  0
  154.2167  138.7633  160.9641 C   0  0  0  0  0  0  0  0  0  0  0  0
  153.4317  138.4229  159.9063 C   0  0  0  0  0  0  0  0  0  0  0  0
  153.2454  137.0349  159.4306 C   0  0  0  0  0  0  0  0  0  0  0  0
  152.5136  136.7843  158.4750 O   0  0  0  0  0  0  0  0  0  0  0  0
  153.9615  136.1338  160.1748 N   0  5  0  0  0  0  0  0  0  0  0  0
  154.7688  136.4323  161.2518 C   0  0  0  0  0  0  0  0  0  0  0  0
  155.3756  135.5574  161.8712 O   0  0  0  0  0  0  0  0  0  0  0  0
  154.9091  137.7336  161.6582 N   0  0  0  0  0  0  0  0  0  0  0  0
  155.7565  138.0793  162.8031 C   0  0  0  0  0  0  0  0  0  0  0  0
  150.9991  138.3237  154.1835 H   0  0  0  0  0  0  0  0  0  0  0  0
  152.3849  137.5232  154.9249 H   0  0  0  0  0  0  0  0  0  0  0  0
  152.5190  139.2018  154.3667 H   0  0  0  0  0  0  0  0  0  0  0  0
  152.9959  138.2127  157.2216 H   0  0  0  0  0  0  0  0  0  0  0  0
  153.2131  139.8277  156.5611 H   0  0  0  0  0  0  0  0  0  0  0  0
  151.7189  140.8212  158.1704 H   0  0  0  0  0  0  0  0  0  0  0  0
  150.9815  139.3042  158.5539 H   0  0  0  0  0  0  0  0  0  0  0  0
  151.8137  145.5955  158.2820 H   0  0  0  0  0  0  0  0  0  0  0  0
  151.0145  144.2146  157.5376 H   0  0  0  0  0  0  0  0  0  0  0  0
  152.7024  144.5631  157.1670 H   0  0  0  0  0  0  0  0  0  0  0  0
  152.4131  145.0230  160.9352 H   0  0  0  0  0  0  0  0  0  0  0  0
  152.9240  143.4217  163.1577 H   0  0  0  0  0  0  0  0  0  0  0  0
  154.3889  142.5873  162.6370 H   0  0  0  0  0  0  0  0  0  0  0  0
  152.8874  141.6877  162.8493 H   0  0  0  0  0  0  0  0  0  0  0  0
  156.7791  137.7358  162.6411 H   0  0  0  0  0  0  0  0  0  0  0  0
  155.3780  137.6096  163.7117 H   0  0  0  0  0  0  0  0  0  0  0  0
  155.8006  139.1525  162.9852 H   0  0  0  0  0  0  0  0  0  0  0  0
  1  2  1  0  0  0  0
  1 24  1  0  0  0  0
  1 25  1  0  0  0  0
  1 26  1  0  0  0  0
  2  3  1  0  0  0  0
  3  4  1  0  0  0  0
  3 27  1  0  0  0  0
  3 28  1  0  0  0  0
  4  5  1  0  0  0  0
  4 29  1  0  0  0  0
  4 30  1  0  0  0  0
  5 16  1  0  0  0  0
  5  6  1  0  0  0  0
  6  7  1  0  0  0  0
  6 14  2  0  0  0  0
  7 12  1  0  0  0  0
  7  8  1  0  0  0  0
  8  9  2  0  0  0  0
  9 10  1  0  0  0  0
  9 11  1  0  0  0  0
 10 31  1  0  0  0  0
 10 32  1  0  0  0  0
 10 33  1  0  0  0  0
 11 12  2  0  0  0  0
 11 34  1  0  0  0  0
 12 13  1  0  0  0  0
 13 35  1  0  0  0  0
 13 36  1  0  0  0  0
 13 37  1  0  0  0  0
 14 15  1  0  0  0  0
 15 22  1  0  0  0  0
 15 16  2  0  0  0  0
 16 17  1  0  0  0  0
 17 18  2  0  0  0  0
 17 19  1  0  0  0  0
 19 20  1  0  0  0  0
 20 21  2  0  0  0  0
 20 22  1  0  0  0  0
 22 23  1  0  0  0  0
 23 38  1  0  0  0  0
 23 39  1  0  0  0  0
 23 40  1  0  0  0  0
M  CHG  1  19  -1
M  END
> <s_m_source_file>
AV-unprocessed.smi

> <i_m_source_file_index>
562

> <i_lp_mmshare_version>
43012

> <i_f3d_flags>
0

> <s_epik_input>
W0NIM11uMWMoPU8pW25IXWMoPU8pYyhjMTIpbihbQ0gyXVtDSDJdT1tDSDNdKWMobjIpLW4zbmMoW0NIM10pW2NIXWMzW0NIM10=

> <s_epik_cmdline>
J2VwaWtfcHl0aG9uJywgJy1waCcsICc3LjAnLCAnLXRuJywgJzgnLCAnLW1hJywgJzIwMCcsICctbWV0YWxfYmluZGluZycsICctaW1hZScsICc8aW5maWxlLm1hZT4nLCAnLW9tYWUnLCAnPG91dGZpbGUubWFlPic=

> <r_lp_tautomer_probability>
1

> <r_epik_Ionization_Penalty>
3.9873

> <r_epik_Ionization_Penalty_Charging>
0.0180637

> <r_epik_Ionization_Penalty_Neutral>
3.96924

> <r_epik_State_Penalty>
3.96767

> <r_epik_Charging_Adjusted_Penalty>
3.98573

> <i_epik_Tot_Q>
-1

> <i_epik_Tot_abs_Q>
1

> <r_epik_Metal_State_Penalty>
0.612149

> <b_epik_Metal_Only>
1

> <s_lp_Force_Field>
OPLS_2005

> <r_lp_Energy>
28.5769

> <b_lp_Chiralities_Consistent>
1

> <s_lp_Variant>
AV-unprocessed.smi:562-2

> <Gold.Version>
5.8.1

> <Gold.Id.Protein>
6NUR|6NUR_protein|mol2

> <Gold.PLP.Fitness>
52.3083

> <Gold.PLP.PLP>
-46.8341

> <Gold.PLP.part.hbond>
-1.1625

> <Gold.PLP.part.metal>
0.0000

> <Gold.PLP.part.buried>
-5.5211

> <Gold.PLP.part.nonpolar>
-38.2495

> <Gold.PLP.part.repulsive>
0.0000

> <Gold.PLP.ligand.clash>
0.0000

> <Gold.PLP.ligand.torsion>
0.4476

> <Gold.PLP.Chemscore.Hbond>
2.0000

> <Gold.PLP.Chemscore.CHOScore>
0.0000

> <Gold.PLP.Chemscore.Metal>
0.0000

> <Gold.Chemscore.Hbonds>
donor molecule, donor type, donor heavy atom, donor atom, acceptor molecule, acceptor atom, score
      P1  H  6896  6908       L1    19  0.99

> <Gold.PLP.Chemscore.Internal.Correction>
0.3695

> <Gold.Rescore>
     Score         DG    S(hbond)    S(metal)    S(lipo)     H(rot)  DE(clash)    DE(int)     intcor
     10.43     -14.67       0.68        0.00      92.37       1.52       0.01       4.22       ----

> <Gold.Chemscore.Fitness>
10.4300

> <Gold.Chemscore.DG>
-14.6669

> <Gold.Chemscore.ZeroCoef>
-5.4800

> <Gold.Chemscore.Hbond>
0.6766

> <Gold.Chemscore.Metal>
0.0000

> <Gold.Chemscore.Lipo>
92.3727

> <Gold.Chemscore.Internal_Hbond>
0.0000

> <Gold.Chemscore.DEClash>
0.0123

> <Gold.Chemscore.DEInternal>
4.2246

> <Gold.Chemscore.Rot>
1.5159

> <Gold.Chemscore.Internal.Correction>
   9.000000E+99

> <Gold.Chemscore.Hbonds>
donor molecule, donor type, donor heavy atom, donor atom, acceptor molecule, acceptor atom, score
      P1  H  6896  6908       L1    19  0.04

> <Gold.Chemscore.Hbond.Weighted>
-2.2599

> <Gold.Chemscore.Metal.Weighted>
-0.0000

> <Gold.Chemscore.Lipo.Weighted>
-10.8076

> <Gold.Chemscore.Internal_Hbond.Weighted>
0.0000

> <Gold.Chemscore.DEClash.Weighted>
0.0123

> <Gold.Chemscore.DEInternal.Weighted>
4.2246

> <Gold.Chemscore.Rot.Weighted>
3.8806

> <Gold.Chemscore.Internal.Correction.Weighted>
   9.000000E+99

> <Gold.Protein.RotatedTorsions>
[ 6907 6896 6895 6894 ] final  -55.78 input  -60.11 | X-H torsion
[ 7974 7965 7964 7962 ] final   34.07 input  175.53 | X-H torsion
[ 8008 7997 7996 7995 ] final  -90.58 input   59.86 | X-H torsion
[ 10167 10162 10161 10158 ] final   37.99 input  -65.29 | X-H torsion
[ 10718 10713 10712 10709 ] final -150.97 input   66.30 | X-H torsion
[ 10763 10752 10751 10750 ] final -142.34 input  -60.55 | X-H torsion
[ 11005 11000 10999 10996 ] final  -98.98 input  -57.11 | X-H torsion

> <Gold.Protein.ActiveResidues>
 VAL166  LYS551  ARG553  GLY616  TRP617  ASP618  TYR619  PRO620  LYS621  CYS622 
 ASP623  PHE694  ASN695  SER759  ASP760  ASP761  ALA762  ILE779  LEU786  VAL792 
 PHE793  MET794  SER795  GLU796  ALA797  LYS798  CYS799  TRP800  GLU811  SER814 

> <Gold.Protein.RotatedAtoms>
  150.8223  134.7437  159.6782 H   0  0  0  0  0  0  0  0  0  0  0  0  # atno 6907 bound_to 6896
  152.4337  134.5724  159.9935 H   0  0  0  0  0  0  0  0  0  0  0  0  # atno 6908 bound_to 6896
  151.5905  133.3329  159.3063 H   0  0  0  0  0  0  0  0  0  0  0  0  # atno 6909 bound_to 6896
  146.1378  139.6315  142.9184 H   0  0  0  0  0  0  0  0  0  0  0  0  # atno 7974 bound_to 7965
  154.7003  140.0529  157.0452 H   0  0  0  0  0  0  0  0  0  0  0  0  # atno 8008 bound_to 7997
  155.0693  140.3198  155.4616 H   0  0  0  0  0  0  0  0  0  0  0  0  # atno 8009 bound_to 7997
  156.2758  140.2084  156.5821 H   0  0  0  0  0  0  0  0  0  0  0  0  # atno 8010 bound_to 7997
  140.3980  144.1762  150.6132 H   0  0  0  0  0  0  0  0  0  0  0  0  # atno 10167 bound_to 10162
  156.4530  130.8177  151.2408 H   0  0  0  0  0  0  0  0  0  0  0  0  # atno 10718 bound_to 10713
  154.8512  135.3498  154.6012 H   0  0  0  0  0  0  0  0  0  0  0  0  # atno 10763 bound_to 10752
  153.6621  135.6989  153.5179 H   0  0  0  0  0  0  0  0  0  0  0  0  # atno 10764 bound_to 10752
  153.2809  135.4264  155.1035 H   0  0  0  0  0  0  0  0  0  0  0  0  # atno 10765 bound_to 10752
  141.1325  133.8287  157.0912 H   0  0  0  0  0  0  0  0  0  0  0  0  # atno 11005 bound_to 11000
  145.5117  141.0435  143.2484 LP  0  0  0  0  0  0  0  0  0  0  0  0  # atno 17320 bound_to 7965
  144.7758  139.6633  143.7175 LP  0  0  0  0  0  0  0  0  0  0  0  0  # atno 17321 bound_to 7965
  140.4770  143.2392  151.9009 LP  0  0  0  0  0  0  0  0  0  0  0  0  # atno 17342 bound_to 10162
  139.4786  144.5310  151.8667 LP  0  0  0  0  0  0  0  0  0  0  0  0  # atno 17343 bound_to 10162
  157.7502  131.0131  150.3413 LP  0  0  0  0  0  0  0  0  0  0  0  0  # atno 17370 bound_to 10713
  156.3796  130.3878  149.7112 LP  0  0  0  0  0  0  0  0  0  0  0  0  # atno 17371 bound_to 10713
  140.0391  134.9863  157.0928 LP  0  0  0  0  0  0  0  0  0  0  0  0  # atno 17394 bound_to 11000
  140.4163  134.1928  155.7163 LP  0  0  0  0  0  0  0  0  0  0  0  0  # atno 17395 bound_to 11000

$$$$
