AV-unprocessed.smi:910|AV-procd|sdf|4130|dock4
  -GOLD-   22720 2 33D 1   1.00000     0.00000
 Structure written by MMmdl.
 47 48  0  0  0  0  0  0  0  0  2 V2000
  145.8490  129.4128  151.9206 C   0  0  0  0  0  0  0  0  0  0  0  0
  146.1383  130.8787  152.0036 C   0  0  0  0  0  0  0  0  0  0  0  0
  147.2018  131.5114  152.6034 N   0  3  0  0  0  0  0  0  0  0  0  0
  147.0787  132.8277  152.4527 C   0  0  0  0  0  0  0  0  0  0  0  0
  148.0131  133.7733  152.9323 N   0  0  0  0  0  0  0  0  0  0  0  0
  148.5387  133.7839  154.1660 C   0  0  0  0  0  0  0  0  0  0  0  0
  148.4010  132.8786  154.9895 O   0  0  0  0  0  0  0  0  0  0  0  0
  149.2227  134.9129  154.4056 N   0  0  0  0  0  0  0  0  0  0  0  0
  149.7779  135.2896  155.7024 C   0  0  0  0  0  0  0  0  0  0  0  0
  150.8800  136.3491  155.5455 C   0  0  0  0  0  0  0  0  0  0  0  0
  150.2813  137.6357  155.5365 O   0  0  0  0  0  0  0  0  0  0  0  0
  150.7559  138.5183  154.5283 C   0  0  2  0  0  0  0  0  0  0  0  0
  152.1999  138.9026  154.8998 C   0  0  0  0  0  0  0  0  0  0  0  0
  152.2585  139.7230  156.2000 C   0  0  0  0  0  0  0  0  0  0  0  0
  151.3628  140.9676  156.1152 C   0  0  0  0  0  0  0  0  0  0  0  0
  149.9170  140.5919  155.7550 C   0  0  0  0  0  0  0  0  0  0  0  0
  149.8526  139.7740  154.4490 C   0  0  2  0  0  0  0  0  0  0  0  0
  148.4032  139.4472  154.0587 C   0  0  0  0  0  0  0  0  0  0  0  0
  145.9508  133.1256  151.7536 O   0  0  0  0  0  0  0  0  0  0  0  0
  145.3767  131.9014  151.4797 C   0  0  0  0  0  0  0  0  0  0  0  0
  144.1018  131.9127  150.7065 C   0  0  0  0  0  0  0  0  0  0  0  0
  144.8547  129.1851  152.3053 H   0  0  0  0  0  0  0  0  0  0  0  0
  146.5670  128.8324  152.5005 H   0  0  0  0  0  0  0  0  0  0  0  0
  145.8945  129.0607  150.8898 H   0  0  0  0  0  0  0  0  0  0  0  0
  147.9448  131.0135  153.0771 H   0  0  0  0  0  0  0  0  0  0  0  0
  149.2995  135.5955  153.6657 H   0  0  0  0  0  0  0  0  0  0  0  0
  148.9953  135.6434  156.3758 H   0  0  0  0  0  0  0  0  0  0  0  0
  150.1973  134.3933  156.1594 H   0  0  0  0  0  0  0  0  0  0  0  0
  151.5850  136.2874  156.3755 H   0  0  0  0  0  0  0  0  0  0  0  0
  151.4419  136.1693  154.6281 H   0  0  0  0  0  0  0  0  0  0  0  0
  150.7773  138.0202  153.5567 H   0  0  0  0  0  0  0  0  0  0  0  0
  152.8100  138.0046  154.9998 H   0  0  0  0  0  0  0  0  0  0  0  0
  152.6402  139.4832  154.0881 H   0  0  0  0  0  0  0  0  0  0  0  0
  151.9432  139.1034  157.0406 H   0  0  0  0  0  0  0  0  0  0  0  0
  153.2875  140.0189  156.4058 H   0  0  0  0  0  0  0  0  0  0  0  0
  151.3819  141.5042  157.0641 H   0  0  0  0  0  0  0  0  0  0  0  0
  151.7598  141.6524  155.3649 H   0  0  0  0  0  0  0  0  0  0  0  0
  149.4740  140.0235  156.5730 H   0  0  0  0  0  0  0  0  0  0  0  0
  149.3211  141.4996  155.6562 H   0  0  0  0  0  0  0  0  0  0  0  0
  150.2533  140.4042  153.6536 H   0  0  0  0  0  0  0  0  0  0  0  0
  147.9042  138.8580  154.8277 H   0  0  0  0  0  0  0  0  0  0  0  0
  148.3645  138.8845  153.1256 H   0  0  0  0  0  0  0  0  0  0  0  0
  147.8229  140.3593  153.9165 H   0  0  0  0  0  0  0  0  0  0  0  0
  143.8333  130.9094  150.3757 H   0  0  0  0  0  0  0  0  0  0  0  0
  144.1910  132.5451  149.8230 H   0  0  0  0  0  0  0  0  0  0  0  0
  143.2847  132.2968  151.3173 H   0  0  0  0  0  0  0  0  0  0  0  0
  148.2356  134.5425  152.3181 H   0  0  0  0  0  0  0  0  0  0  0  0
  1 22  1  0  0  0  0
  1 23  1  0  0  0  0
  1 24  1  0  0  0  0
  1  2  1  0  0  0  0
  2  3  1  0  0  0  0
  2 20  2  0  0  0  0
  3 25  1  0  0  0  0
  3  4  2  0  0  0  0
  4 19  1  0  0  0  0
  4  5  1  0  0  0  0
  5  6  1  0  0  0  0
  5 47  1  0  0  0  0
  6  8  1  0  0  0  0
  6  7  2  0  0  0  0
  8  9  1  0  0  0  0
  8 26  1  0  0  0  0
  9 10  1  0  0  0  0
  9 27  1  0  0  0  0
  9 28  1  0  0  0  0
 10 11  1  0  0  0  0
 10 29  1  0  0  0  0
 10 30  1  0  0  0  0
 11 12  1  0  0  0  0
 12 17  1  0  0  0  0
 12 13  1  0  0  0  0
 12 31  1  0  0  0  0
 13 14  1  0  0  0  0
 13 32  1  0  0  0  0
 13 33  1  0  0  0  0
 14 15  1  0  0  0  0
 14 34  1  0  0  0  0
 14 35  1  0  0  0  0
 15 16  1  0  0  0  0
 15 36  1  0  0  0  0
 15 37  1  0  0  0  0
 16 17  1  0  0  0  0
 16 38  1  0  0  0  0
 16 39  1  0  0  0  0
 17 18  1  0  0  0  0
 17 40  1  0  0  0  0
 18 41  1  0  0  0  0
 18 42  1  0  0  0  0
 18 43  1  0  0  0  0
 19 20  1  0  0  0  0
 20 21  1  0  0  0  0
 21 44  1  0  0  0  0
 21 45  1  0  0  0  0
 21 46  1  0  0  0  0
M  CHG  1   3   1
M  END
> <s_m_source_file>
AV-unprocessed.smi

> <i_m_source_file_index>
910

> <i_lp_mmshare_version>
43012

> <i_f3d_flags>
0

> <s_epik_input>
W0NIM11jMW5jKG9jMVtDSDNdKVtOSF1DKD1PKVtOSF1bQ0gyXVtDSDJdT1tDQEBIXTJbQ0gyXVtDSDJdW0NIMl1bQ0gyXVtDQEhdMltDSDNd

> <s_epik_cmdline>
J2VwaWtfcHl0aG9uJywgJy1waCcsICc3LjAnLCAnLXRuJywgJzgnLCAnLW1hJywgJzIwMCcsICctbWV0YWxfYmluZGluZycsICctaW1hZScsICc8aW5maWxlLm1hZT4nLCAnLW9tYWUnLCAnPG91dGZpbGUubWFlPic=

> <r_epik_Ionization_Penalty>
7.32931

> <r_epik_Ionization_Penalty_Charging>
7.12214

> <r_epik_Ionization_Penalty_Neutral>
0.207166

> <r_epik_State_Penalty>
2.61278

> <r_epik_Charging_Adjusted_Penalty>
9.73492

> <i_epik_Tot_Q>
1

> <i_epik_Tot_abs_Q>
1

> <r_epik_Metal_State_Penalty>
2.64585

> <b_epik_Metal_Only>
0

> <s_lp_Force_Field>
OPLS_2005

> <r_lp_Energy>
15.8254

> <b_lp_Chiralities_Consistent>
1

> <s_lp_Variant>
AV-unprocessed.smi:910-15

> <Gold.Version>
5.8.1

> <Gold.Id.Protein>
6NUR|6NUR_protein|mol2

> <Gold.PLP.Fitness>
43.6992

> <Gold.PLP.PLP>
-40.2292

> <Gold.PLP.part.hbond>
-3.0000

> <Gold.PLP.part.metal>
0.0000

> <Gold.PLP.part.buried>
-3.0019

> <Gold.PLP.part.nonpolar>
-32.8858

> <Gold.PLP.part.repulsive>
0.2416

> <Gold.PLP.ligand.clash>
0.0000

> <Gold.PLP.ligand.torsion>
1.0649

> <Gold.PLP.Chemscore.Hbond>
1.8500

> <Gold.PLP.Chemscore.CHOScore>
0.0000

> <Gold.PLP.Chemscore.Metal>
0.0000

> <Gold.Chemscore.Hbonds>
donor molecule, donor type, donor heavy atom, donor atom, acceptor molecule, acceptor atom, score
      L1  H     5    47       P1  7948  0.85
      L1  H     8    26       P1  7948  1.00

> <Gold.PLP.Chemscore.Internal.Correction>
0.0498

> <Gold.Rescore>
     Score         DG    S(hbond)    S(metal)    S(lipo)     H(rot)  DE(clash)    DE(int)     intcor
     15.16     -17.03       1.62        0.00      89.66       1.69       0.04       1.83       ----

> <Gold.Chemscore.Fitness>
15.1588

> <Gold.Chemscore.DG>
-17.0266

> <Gold.Chemscore.ZeroCoef>
-5.4800

> <Gold.Chemscore.Hbond>
1.6152

> <Gold.Chemscore.Metal>
0.0000

> <Gold.Chemscore.Lipo>
89.6641

> <Gold.Chemscore.Internal_Hbond>
0.0000

> <Gold.Chemscore.DEClash>
0.0402

> <Gold.Chemscore.DEInternal>
1.8276

> <Gold.Chemscore.Rot>
1.6949

> <Gold.Chemscore.Internal.Correction>
   9.000000E+99

> <Gold.Chemscore.Hbonds>
donor molecule, donor type, donor heavy atom, donor atom, acceptor molecule, acceptor atom, score
      L1  H     5    47       P1  7948  0.14
      L1  H     8    26       P1  7948  0.48

> <Gold.Chemscore.Hbond.Weighted>
-5.3949

> <Gold.Chemscore.Metal.Weighted>
-0.0000

> <Gold.Chemscore.Lipo.Weighted>
-10.4907

> <Gold.Chemscore.Internal_Hbond.Weighted>
0.0000

> <Gold.Chemscore.DEClash.Weighted>
0.0402

> <Gold.Chemscore.DEInternal.Weighted>
1.8276

> <Gold.Chemscore.Rot.Weighted>
4.3390

> <Gold.Chemscore.Internal.Correction.Weighted>
   9.000000E+99

> <Gold.Protein.RotatedTorsions>
[ 6907 6896 6895 6894 ] final  -79.14 input  -60.11 | X-H torsion
[ 7974 7965 7964 7962 ] final -117.70 input  175.53 | X-H torsion
[ 8008 7997 7996 7995 ] final  113.09 input   59.86 | X-H torsion
[ 10167 10162 10161 10158 ] final   79.08 input  -65.29 | X-H torsion
[ 10718 10713 10712 10709 ] final  -23.33 input   66.30 | X-H torsion
[ 10763 10752 10751 10750 ] final   28.77 input  -60.55 | X-H torsion
[ 11005 11000 10999 10996 ] final   38.05 input  -57.11 | X-H torsion

> <Gold.Protein.ActiveResidues>
 VAL166  LYS551  ARG553  GLY616  TRP617  ASP618  TYR619  PRO620  LYS621  CYS622 
 ASP623  PHE694  ASN695  SER759  ASP760  ASP761  ALA762  ILE779  LEU786  VAL792 
 PHE793  MET794  SER795  GLU796  ALA797  LYS798  CYS799  TRP800  GLU811  SER814 

> <Gold.Protein.RotatedAtoms>
  150.6956  134.4165  159.5185 H   0  0  0  0  0  0  0  0  0  0  0  0  # atno 6907 bound_to 6896
  152.1915  134.8665  160.0526 H   0  0  0  0  0  0  0  0  0  0  0  0  # atno 6908 bound_to 6896
  151.9618  133.3663  159.4075 H   0  0  0  0  0  0  0  0  0  0  0  0  # atno 6909 bound_to 6896
  145.0823  140.8434  143.4032 H   0  0  0  0  0  0  0  0  0  0  0  0  # atno 7974 bound_to 7965
  156.2235  140.2986  156.0011 H   0  0  0  0  0  0  0  0  0  0  0  0  # atno 8008 bound_to 7997
  155.2417  140.0422  157.2993 H   0  0  0  0  0  0  0  0  0  0  0  0  # atno 8009 bound_to 7997
  154.5879  140.2393  155.7970 H   0  0  0  0  0  0  0  0  0  0  0  0  # atno 8010 bound_to 7997
  139.9641  144.5940  150.8045 H   0  0  0  0  0  0  0  0  0  0  0  0  # atno 10167 bound_to 10162
  156.4925  130.4569  149.6747 H   0  0  0  0  0  0  0  0  0  0  0  0  # atno 10718 bound_to 10713
  153.0471  135.6505  154.0789 H   0  0  0  0  0  0  0  0  0  0  0  0  # atno 10763 bound_to 10752
  154.0484  135.2897  155.3346 H   0  0  0  0  0  0  0  0  0  0  0  0  # atno 10764 bound_to 10752
  154.6736  135.5347  153.8236 H   0  0  0  0  0  0  0  0  0  0  0  0  # atno 10765 bound_to 10752
  140.2164  134.3693  155.8025 H   0  0  0  0  0  0  0  0  0  0  0  0  # atno 11005 bound_to 11000
  145.1164  139.2723  143.5611 LP  0  0  0  0  0  0  0  0  0  0  0  0  # atno 17320 bound_to 7965
  146.3531  140.0775  142.8619 LP  0  0  0  0  0  0  0  0  0  0  0  0  # atno 17321 bound_to 7965
  140.7544  143.3025  151.3043 LP  0  0  0  0  0  0  0  0  0  0  0  0  # atno 17342 bound_to 10162
  139.6531  144.0325  152.2641 LP  0  0  0  0  0  0  0  0  0  0  0  0  # atno 17343 bound_to 10162
  156.3412  130.7383  151.2329 LP  0  0  0  0  0  0  0  0  0  0  0  0  # atno 17370 bound_to 10713
  157.7472  131.0403  150.4591 LP  0  0  0  0  0  0  0  0  0  0  0  0  # atno 17371 bound_to 10713
  141.2224  133.7170  156.8504 LP  0  0  0  0  0  0  0  0  0  0  0  0  # atno 17394 bound_to 11000
  140.1895  134.8975  157.3044 LP  0  0  0  0  0  0  0  0  0  0  0  0  # atno 17395 bound_to 11000

$$$$
