#       Name:                AV-unprocessed.smi:745
#       Creating user name   scv26
#       Creation time:       Fri Mar 27 00:56:41 2020


#       File generated by GOLD software.
#

@<TRIPOS>MOLECULE
AV-unprocessed.smi:745
    45    46     1
SMALL
NO_CHARGES


@<TRIPOS>ATOM
      1 ****        -1.4835  -1.0379  -2.6870 C.3            1 S1                 0.0000
      2 ****        -1.0284  -0.3053  -1.4128 C.3            1 S1                 0.0000
      3 ****         0.4302  -0.1923  -1.4620 N.am           1 S1                 0.0000
      4 ****         1.1399   0.9325  -1.2815 C.2            1 S1                 0.0000
      5 ****         0.6325   2.0200  -1.0056 O.2            1 S1                 0.0000
      6 ****         2.4563   0.7049  -1.4341 N.am           1 S1                 0.0000
      7 ****         3.5267   1.6312  -1.3165 C.ar           1 S1                 0.0000
      8 ****         4.8122   1.0930  -1.5508 C.ar           1 S1                 0.0000
      9 ****         5.9412   1.9299  -1.4583 C.ar           1 S1                 0.0000
     10 ****         5.7555   3.2853  -1.1330 C.ar           1 S1                 0.0000
     11 ****         4.4422   3.7405  -0.9144 C.ar           1 S1                 0.0000
     12 ****         3.3588   2.9401  -1.0019 N.ar           1 S1                 0.0000
     13 ****        -1.4911  -1.0001  -0.1016 C.3            1 S1                 0.0000
     14 ****        -3.0300  -1.1015  -0.0056 C.3            1 S1                 0.0000
     15 ****        -3.4866  -1.7479   1.3126 C.3            1 S1                 0.0000
     16 ****        -2.9552  -1.0059   2.4798 N.4            1 S1                 1.0000
     17 ****        -3.4813  -1.5190   3.7628 C.3            1 S1                 0.0000
     18 ****        -1.4750  -0.9448   2.4584 C.3            1 S1                 0.0000
     19 ****        -0.9701  -0.2826   1.1663 C.3            1 S1                 0.0000
     20 ****        -2.5671  -1.0255  -2.7983 H              1 S1                 0.0000
     21 ****        -1.1561  -2.0780  -2.6880 H              1 S1                 0.0000
     22 ****        -1.0731  -0.5611  -3.5781 H              1 S1                 0.0000
     23 ****        -1.4705   0.6923  -1.4434 H              1 S1                 0.0000
     24 ****         0.9384  -1.0374  -1.6784 H              1 S1                 0.0000
     25 ****         2.7249  -0.2402  -1.6644 H              1 S1                 0.0000
     26 ****         4.9370   0.0491  -1.7998 H              1 S1                 0.0000
     27 ****         6.9319   1.5375  -1.6342 H              1 S1                 0.0000
     28 ****         6.5966   3.9580  -1.0529 H              1 S1                 0.0000
     29 ****         4.2559   4.7739  -0.6618 H              1 S1                 0.0000
     30 ****        -1.0881  -2.0144  -0.0980 H              1 S1                 0.0000
     31 ****        -3.4711  -0.1077  -0.0952 H              1 S1                 0.0000
     32 ****        -3.4283  -1.6918  -0.8303 H              1 S1                 0.0000
     33 ****        -4.5765  -1.7592   1.3524 H              1 S1                 0.0000
     34 ****        -3.1568  -2.7873   1.3568 H              1 S1                 0.0000
     35 ****        -3.1650  -2.5492   3.9316 H              1 S1                 0.0000
     36 ****        -4.5714  -1.4895   3.7709 H              1 S1                 0.0000
     37 ****        -3.1262  -0.9104   4.5950 H              1 S1                 0.0000
     38 ****        -1.1206  -0.3761   3.3192 H              1 S1                 0.0000
     39 ****        -1.0642  -1.9515   2.5513 H              1 S1                 0.0000
     40 ****         0.1195  -0.2809   1.1874 H              1 S1                 0.0000
     41 ****        -1.2787   0.7638   1.1495 H              1 S1                 0.0000
     42 ****        -3.2852  -0.0551   2.3936 H              1 S1                 0.0000
     43 ****        -0.3593   2.0978  -0.9047 LP             1 S1                 0.0000
     44 ****         1.2123   2.8254  -0.8824 LP             1 S1                 0.0000
     45 ****         2.4435   3.3075  -0.8368 LP             1 S1                 0.0000
@<TRIPOS>BOND
    1    1    2 1     
    2    1   20 1     
    3    1   21 1     
    4    1   22 1     
    5    2    3 1     
    6    2   13 1     
    7    2   23 1     
    8    3    4 am    
    9    3   24 1     
   10    4    5 2     
   11    4    6 am    
   12    6    7 1     
   13    6   25 1     
   14    7   12 ar    
   15    7    8 ar    
   16    8    9 ar    
   17    8   26 1     
   18    9   10 ar    
   19    9   27 1     
   20   10   11 ar    
   21   10   28 1     
   22   11   12 ar    
   23   11   29 1     
   24   13   19 1     
   25   13   14 1     
   26   13   30 1     
   27   14   15 1     
   28   14   31 1     
   29   14   32 1     
   30   15   16 1     
   31   15   33 1     
   32   15   34 1     
   33   16   17 1     
   34   16   18 1     
   35   16   42 1     
   36   17   35 1     
   37   17   36 1     
   38   17   37 1     
   39   18   19 1     
   40   18   38 1     
   41   18   39 1     
   42   19   40 1     
   43   19   41 1     
   44    5   43 1     
   45    5   44 1     
   46   12   45 1     
@<TRIPOS>SUBSTRUCTURE
      1 S1             1
@<TRIPOS>SET
LONE_PAIRS      STATIC     ATOMS    <user>   **** ""
3 43 44 45
DONOR_HYDROGENS      STATIC     ATOMS    <user>   **** ""
3 24 25 42
ATOM$BLUE        STATIC     ATOMS    COLORGROUP SYSTEM
3 43 44 45
ATOM$RED        STATIC     ATOMS    COLORGROUP SYSTEM
3 24 25 42
