#       Name:                AV-unprocessed.smi:2588
#       Creating user name   scv26
#       Creation time:       Fri Mar 27 14:16:25 2020


#       File generated by GOLD software.
#

@<TRIPOS>MOLECULE
AV-unprocessed.smi:2588
    45    46     1
SMALL
NO_CHARGES


@<TRIPOS>ATOM
      1 ****        -4.6008  -1.2128   0.3458 C.3            1 S1                 0.0000
      2 ****        -3.9642  -0.1805  -0.6117 C.3            1 S1                 0.0000
      3 ****        -4.6131  -0.3514  -2.0038 C.3            1 S1                 0.0000
      4 ****        -2.4931  -0.3148  -0.6706 N.3            1 S1                 0.0000
      5 ****        -1.8850  -0.1601   0.6614 C.3            1 S1                 0.0000
      6 ****        -0.3629  -0.3802   0.6200 C.3            1 S1                 0.0000
      7 ****         0.3131   0.6084  -0.3386 C.3            1 S1                 0.0000
      8 ****         1.7362   0.3148  -0.4772 N.am           1 S1                 0.0000
      9 ****         2.6897   0.6833   0.3919 C.2            1 S1                 0.0000
     10 ****         2.4586   1.3398   1.4084 O.2            1 S1                 0.0000
     11 ****         4.1217   0.2577   0.0419 C.3            1 S1                 0.0000
     12 ****         4.9786   0.1113   1.2195 N.am           1 S1                 0.0000
     13 ****         5.9021   1.0788   1.4686 N.2            1 S1                 0.0000
     14 ****         6.5691   0.8275   2.5335 C.2            1 S1                 0.0000
     15 ****         6.1467  -0.6638   3.3853 S.3            1 S1                 0.0000
     16 ****         4.9201  -0.9490   2.1198 C.2            1 S1                 0.0000
     17 ****         4.1798  -1.9308   2.1002 O.2            1 S1                 0.0000
     18 ****        -0.3794   0.5068  -1.7007 C.3            1 S1                 0.0000
     19 ****        -1.9005   0.6935  -1.5647 C.3            1 S1                 0.0000
     20 ****        -5.6876  -1.2114   0.2575 H              1 S1                 0.0000
     21 ****        -4.3909  -0.9958   1.3926 H              1 S1                 0.0000
     22 ****        -4.2569  -2.2248   0.1284 H              1 S1                 0.0000
     23 ****        -4.2096   0.8170  -0.2439 H              1 S1                 0.0000
     24 ****        -5.6989  -0.4130  -1.9251 H              1 S1                 0.0000
     25 ****        -4.2698  -1.2627  -2.4951 H              1 S1                 0.0000
     26 ****        -4.4137   0.4911  -2.6649 H              1 S1                 0.0000
     27 ****        -2.1143   0.8272   1.0658 H              1 S1                 0.0000
     28 ****        -2.2850  -0.8924   1.3597 H              1 S1                 0.0000
     29 ****         0.0480  -0.2714   1.6243 H              1 S1                 0.0000
     30 ****        -0.1539  -1.4053   0.3101 H              1 S1                 0.0000
     31 ****         0.1870   1.6245   0.0407 H              1 S1                 0.0000
     32 ****         2.0142  -0.2174  -1.2890 H              1 S1                 0.0000
     33 ****         4.1007  -0.6897  -0.4993 H              1 S1                 0.0000
     34 ****         4.5438   0.9946  -0.6432 H              1 S1                 0.0000
     35 ****         7.3633   1.4433   2.9556 H              1 S1                 0.0000
     36 ****         0.0233   1.2589  -2.3799 H              1 S1                 0.0000
     37 ****        -0.1740  -0.4636  -2.1557 H              1 S1                 0.0000
     38 ****        -2.3148   0.6158  -2.5676 H              1 S1                 0.0000
     39 ****        -2.1291   1.6963  -1.2005 H              1 S1                 0.0000
     40 ****        -2.3061  -1.2322  -1.0218 LP             1 S1                 0.0000
     41 ****         1.5231   1.6240   1.6182 LP             1 S1                 0.0000
     42 ****         3.2066   1.5885   2.0238 LP             1 S1                 0.0000
     43 ****         6.0427   1.8845   0.8932 LP             1 S1                 0.0000
     44 ****         3.5101  -2.0374   1.3653 LP             1 S1                 0.0000
     45 ****         4.2476  -2.6225   2.8192 LP             1 S1                 0.0000
@<TRIPOS>BOND
    1    1    2 1     
    2    1   20 1     
    3    1   21 1     
    4    1   22 1     
    5    2    3 1     
    6    2    4 1     
    7    2   23 1     
    8    3   24 1     
    9    3   25 1     
   10    3   26 1     
   11    4   19 1     
   12    4    5 1     
   13    5    6 1     
   14    5   27 1     
   15    5   28 1     
   16    6    7 1     
   17    6   29 1     
   18    6   30 1     
   19    7    8 1     
   20    7   18 1     
   21    7   31 1     
   22    8    9 am    
   23    8   32 1     
   24    9   10 2     
   25    9   11 1     
   26   11   12 1     
   27   11   33 1     
   28   11   34 1     
   29   12   16 am    
   30   12   13 1     
   31   13   14 2     
   32   14   15 1     
   33   14   35 1     
   34   15   16 1     
   35   16   17 2     
   36   18   19 1     
   37   18   36 1     
   38   18   37 1     
   39   19   38 1     
   40   19   39 1     
   41    4   40 1     
   42   10   41 1     
   43   10   42 1     
   44   13   43 1     
   45   17   44 1     
   46   17   45 1     
@<TRIPOS>SUBSTRUCTURE
      1 S1             1
@<TRIPOS>SET
LONE_PAIRS      STATIC     ATOMS    <user>   **** ""
6 40 41 42 43 44 45
DONOR_HYDROGENS      STATIC     ATOMS    <user>   **** ""
1 32
ATOM$BLUE        STATIC     ATOMS    COLORGROUP SYSTEM
6 40 41 42 43 44 45
ATOM$RED        STATIC     ATOMS    COLORGROUP SYSTEM
1 32
