AV-unprocessed.smi:128|AV-procd|sdf|1155|dock9
  -GOLD-   2262018293D 1   1.00000     0.00000
 Structure written by MMmdl.
 41 44  0  0  0  0  0  0  0  0  1 V2000
  149.5554  138.8209  153.7823 O   0  0  0  0  0  0  0  0  0  0  0  0
  150.0732  139.6044  154.5801 C   0  0  0  0  0  0  0  0  0  0  0  0
  149.5797  140.9580  154.8090 C   0  0  0  0  0  0  0  0  0  0  0  0
  148.5193  141.4056  154.1154 F   0  0  0  0  0  0  0  0  0  0  0  0
  150.1712  141.7722  155.7094 C   0  0  0  0  0  0  0  0  0  0  0  0
  151.2646  141.3929  156.4680 N   0  0  0  0  0  0  0  0  0  0  0  0
  151.8680  142.3498  157.4680 C   0  0  2  0  0  0  0  0  0  0  0  0
  151.2945  142.0979  158.8689 C   0  0  0  0  0  0  0  0  0  0  0  0
  150.3336  143.2567  159.0414 C   0  0  0  0  0  0  0  0  0  0  0  0
  151.0067  144.3450  158.2147 C   0  0  0  0  0  0  0  0  0  0  0  0
  151.5347  143.6534  157.0902 O   0  0  0  0  0  0  0  0  0  0  0  0
  151.8037  140.0958  156.3231 C   0  0  0  0  0  0  0  0  0  0  0  0
  152.7503  139.7172  157.0170 O   0  0  0  0  0  0  0  0  0  0  0  0
  151.1983  139.2485  155.3648 N   0  0  0  0  0  0  0  0  0  0  0  0
  151.7429  137.9085  155.2084 C   0  0  0  0  0  0  0  0  0  0  0  0
  150.6867  136.8493  155.3325 C   0  0  0  0  0  0  0  0  0  0  0  0
  149.4393  136.9634  155.7982 N   0  0  0  0  0  0  0  0  0  0  0  0
  148.8829  135.7097  155.6935 N   0  0  0  0  0  0  0  0  0  0  0  0
  149.8295  134.9241  155.1687 C   0  0  0  0  0  0  0  0  0  0  0  0
  149.7525  133.5000  154.8450 C   0  0  0  0  0  0  0  0  0  0  0  0
  150.5269  132.5521  155.5533 C   0  0  0  0  0  0  0  0  0  0  0  0
  150.4475  131.1832  155.2313 C   0  0  0  0  0  0  0  0  0  0  0  0
  149.5939  130.7494  154.1994 C   0  0  0  0  0  0  0  0  0  0  0  0
  149.4892  128.9002  153.7626 Br  0  0  0  0  0  0  0  0  0  0  0  0
  148.8181  131.6860  153.4905 C   0  0  0  0  0  0  0  0  0  0  0  0
  148.8970  133.0550  153.8119 C   0  0  0  0  0  0  0  0  0  0  0  0
  150.9892  135.5915  154.9216 O   0  0  0  0  0  0  0  0  0  0  0  0
  149.7631  142.7634  155.8399 H   0  0  0  0  0  0  0  0  0  0  0  0
  152.9514  142.2349  157.4188 H   0  0  0  0  0  0  0  0  0  0  0  0
  150.8237  141.1176  158.9547 H   0  0  0  0  0  0  0  0  0  0  0  0
  152.1074  142.1629  159.5931 H   0  0  0  0  0  0  0  0  0  0  0  0
  149.3600  143.0077  158.6182 H   0  0  0  0  0  0  0  0  0  0  0  0
  150.1892  143.5411  160.0839 H   0  0  0  0  0  0  0  0  0  0  0  0
  150.3183  145.1345  157.9129 H   0  0  0  0  0  0  0  0  0  0  0  0
  151.8261  144.7991  158.7739 H   0  0  0  0  0  0  0  0  0  0  0  0
  152.2430  137.8396  154.2418 H   0  0  0  0  0  0  0  0  0  0  0  0
  152.5221  137.7679  155.9593 H   0  0  0  0  0  0  0  0  0  0  0  0
  151.1893  132.8625  156.3480 H   0  0  0  0  0  0  0  0  0  0  0  0
  151.0438  130.4666  155.7767 H   0  0  0  0  0  0  0  0  0  0  0  0
  148.1625  131.3553  152.6985 H   0  0  0  0  0  0  0  0  0  0  0  0
  148.2953  133.7601  153.2573 H   0  0  0  0  0  0  0  0  0  0  0  0
  1  2  2  0  0  0  0
  2 14  1  0  0  0  0
  2  3  1  0  0  0  0
  3  4  1  0  0  0  0
  3  5  2  0  0  0  0
  5  6  1  0  0  0  0
  5 28  1  0  0  0  0
  6  7  1  0  0  0  0
  6 12  1  0  0  0  0
  7 11  1  0  0  0  0
  7  8  1  0  0  0  0
  7 29  1  0  0  0  0
  8  9  1  0  0  0  0
  8 30  1  0  0  0  0
  8 31  1  0  0  0  0
  9 10  1  0  0  0  0
  9 32  1  0  0  0  0
  9 33  1  0  0  0  0
 10 11  1  0  0  0  0
 10 34  1  0  0  0  0
 10 35  1  0  0  0  0
 12 13  2  0  0  0  0
 12 14  1  0  0  0  0
 14 15  1  0  0  0  0
 15 16  1  0  0  0  0
 15 36  1  0  0  0  0
 15 37  1  0  0  0  0
 16 27  1  0  0  0  0
 16 17  2  0  0  0  0
 17 18  1  0  0  0  0
 18 19  2  0  0  0  0
 19 20  1  0  0  0  0
 19 27  1  0  0  0  0
 20 26  1  0  0  0  0
 20 21  2  0  0  0  0
 21 22  1  0  0  0  0
 21 38  1  0  0  0  0
 22 23  2  0  0  0  0
 22 39  1  0  0  0  0
 23 24  1  0  0  0  0
 23 25  1  0  0  0  0
 25 26  2  0  0  0  0
 25 40  1  0  0  0  0
 26 41  1  0  0  0  0
M  END
> <s_m_source_file>
AV-unprocessed.smi

> <i_m_source_file_index>
128

> <i_lp_mmshare_version>
43012

> <i_f3d_flags>
0

> <s_epik_input>
TzFbQ0gyXVtDSDJdW0NIMl1bQ0BIXTFuKFtjSF1jKEYpYzI9TyljKD1PKW4yW0NIMl1jM25uYyhvMyktYzRbY0hdW2NIXWMoQnIpW2NIXVtjSF00

> <s_epik_cmdline>
J2VwaWtfcHl0aG9uJywgJy1waCcsICc3LjAnLCAnLXRuJywgJzgnLCAnLW1hJywgJzIwMCcsICctbWV0YWxfYmluZGluZycsICctaW1hZScsICc8aW5maWxlLm1hZT4nLCAnLW9tYWUnLCAnPG91dGZpbGUubWFlPic=

> <r_lp_tautomer_probability>
1

> <r_epik_Ionization_Penalty>
2.55537e-09

> <r_epik_Ionization_Penalty_Charging>
2.54231e-09

> <r_epik_Ionization_Penalty_Neutral>
1.30653e-11

> <r_epik_State_Penalty>
-0

> <r_epik_Charging_Adjusted_Penalty>
2.54231e-09

> <i_epik_Tot_Q>
0

> <i_epik_Tot_abs_Q>
0

> <r_epik_Metal_State_Penalty>
-0

> <b_epik_Metal_Only>
0

> <s_epik_Chemistry_Notes>
This compound contains an acetal/aminal-like group ( X-CH(R)-Y where X, Y are N, S, or O) that may be acid/base labile, releasing an aldehyde.

> <s_lp_Force_Field>
OPLS_2005

> <r_lp_Energy>
32.4944

> <b_lp_Chiralities_Consistent>
1

> <s_lp_Variant>
AV-unprocessed.smi:128-1

> <Gold.Version>
5.8.1

> <Gold.Id.Protein>
6NUR|6NUR_protein|mol2

> <Gold.PLP.Fitness>
52.3639

> <Gold.PLP.PLP>
-47.6798

> <Gold.PLP.part.hbond>
-2.0000

> <Gold.PLP.part.metal>
0.0000

> <Gold.PLP.part.buried>
-4.9427

> <Gold.PLP.part.nonpolar>
-42.1725

> <Gold.PLP.part.repulsive>
2.0388

> <Gold.PLP.ligand.clash>
0.0000

> <Gold.PLP.ligand.torsion>
2.1624

> <Gold.PLP.Chemscore.Hbond>
2.0000

> <Gold.PLP.Chemscore.CHOScore>
1.0000

> <Gold.PLP.Chemscore.Metal>
0.0000

> <Gold.Chemscore.Hbonds>
donor molecule, donor type, donor heavy atom, donor atom, acceptor molecule, acceptor atom, score
      P1  H  7997  8009       L1    13  1.00
      P1  H 10752 10764       L1    27  1.00
      L1  C     5    28       P1  8028  1.00

> <Gold.PLP.Chemscore.Internal.Correction>
0.0089

> <Gold.Rescore>
     Score         DG    S(hbond)    S(metal)    S(lipo)     H(rot)  DE(clash)    DE(int)     intcor
     10.86     -17.72       1.94        0.00      86.31       1.70       0.52       6.35       ----

> <Gold.Chemscore.Fitness>
10.8553

> <Gold.Chemscore.DG>
-17.7214

> <Gold.Chemscore.ZeroCoef>
-5.4800

> <Gold.Chemscore.Hbond>
1.9431

> <Gold.Chemscore.Metal>
0.0000

> <Gold.Chemscore.Lipo>
86.3111

> <Gold.Chemscore.Internal_Hbond>
0.0000

> <Gold.Chemscore.DEClash>
0.5211

> <Gold.Chemscore.DEInternal>
6.3450

> <Gold.Chemscore.Rot>
1.6980

> <Gold.Chemscore.Internal.Correction>
   9.000000E+99

> <Gold.Chemscore.Hbonds>
donor molecule, donor type, donor heavy atom, donor atom, acceptor molecule, acceptor atom, score
      P1  H  7997  8009       L1    13  0.98
      P1  H 10752 10764       L1    27  0.59

> <Gold.Chemscore.Hbond.Weighted>
-6.4899

> <Gold.Chemscore.Metal.Weighted>
-0.0000

> <Gold.Chemscore.Lipo.Weighted>
-10.0984

> <Gold.Chemscore.Internal_Hbond.Weighted>
0.0000

> <Gold.Chemscore.DEClash.Weighted>
0.5211

> <Gold.Chemscore.DEInternal.Weighted>
6.3450

> <Gold.Chemscore.Rot.Weighted>
4.3469

> <Gold.Chemscore.Internal.Correction.Weighted>
   9.000000E+99

> <Gold.Protein.RotatedTorsions>
[ 6907 6896 6895 6894 ] final  -93.98 input  -60.11 | X-H torsion
[ 7974 7965 7964 7962 ] final  -96.20 input  175.53 | X-H torsion
[ 8008 7997 7996 7995 ] final  166.01 input   59.86 | X-H torsion
[ 10167 10162 10161 10158 ] final  122.33 input  -65.29 | X-H torsion
[ 10718 10713 10712 10709 ] final  143.16 input   66.30 | X-H torsion
[ 10763 10752 10751 10750 ] final  -55.56 input  -60.55 | X-H torsion
[ 11005 11000 10999 10996 ] final   21.14 input  -57.11 | X-H torsion

> <Gold.Protein.ActiveResidues>
 VAL166  LYS551  ARG553  GLY616  TRP617  ASP618  TYR619  PRO620  LYS621  CYS622 
 ASP623  PHE694  ASN695  SER759  ASP760  ASP761  ALA762  ILE779  LEU786  VAL792 
 PHE793  MET794  SER795  GLU796  ALA797  LYS798  CYS799  TRP800  GLU811  SER814 

> <Gold.Protein.RotatedAtoms>
  150.6933  134.1882  159.4274 H   0  0  0  0  0  0  0  0  0  0  0  0  # atno 6907 bound_to 6896
  151.9854  135.0004  160.0568 H   0  0  0  0  0  0  0  0  0  0  0  0  # atno 6908 bound_to 6896
  152.1716  133.4612  159.4949 H   0  0  0  0  0  0  0  0  0  0  0  0  # atno 6909 bound_to 6896
  145.3499  140.9475  143.2560 H   0  0  0  0  0  0  0  0  0  0  0  0  # atno 7974 bound_to 7965
  156.1753  140.1655  156.8373 H   0  0  0  0  0  0  0  0  0  0  0  0  # atno 8008 bound_to 7997
  154.5301  140.0759  156.8362 H   0  0  0  0  0  0  0  0  0  0  0  0  # atno 8009 bound_to 7997
  155.3425  140.3385  155.4241 H   0  0  0  0  0  0  0  0  0  0  0  0  # atno 8010 bound_to 7997
  139.5865  144.7008  151.3395 H   0  0  0  0  0  0  0  0  0  0  0  0  # atno 10167 bound_to 10162
  157.3722  131.0980  151.0817 H   0  0  0  0  0  0  0  0  0  0  0  0  # atno 10718 bound_to 10713
  154.1928  135.6424  153.5065 H   0  0  0  0  0  0  0  0  0  0  0  0  # atno 10763 bound_to 10752
  153.0031  135.5432  154.6397 H   0  0  0  0  0  0  0  0  0  0  0  0  # atno 10764 bound_to 10752
  154.5790  135.2923  155.0724 H   0  0  0  0  0  0  0  0  0  0  0  0  # atno 10765 bound_to 10752
  140.3948  134.1780  155.7663 H   0  0  0  0  0  0  0  0  0  0  0  0  # atno 11005 bound_to 11000
  144.8725  139.5017  143.6761 LP  0  0  0  0  0  0  0  0  0  0  0  0  # atno 17320 bound_to 7965
  146.2972  139.7314  142.9118 LP  0  0  0  0  0  0  0  0  0  0  0  0  # atno 17321 bound_to 7965
  140.7136  143.7325  150.7613 LP  0  0  0  0  0  0  0  0  0  0  0  0  # atno 17342 bound_to 10162
  140.0871  143.4913  152.2499 LP  0  0  0  0  0  0  0  0  0  0  0  0  # atno 17343 bound_to 10162
  157.1917  130.6355  149.5707 LP  0  0  0  0  0  0  0  0  0  0  0  0  # atno 17370 bound_to 10713
  155.9758  130.4720  150.6483 LP  0  0  0  0  0  0  0  0  0  0  0  0  # atno 17371 bound_to 10713
  141.1878  133.8274  157.1019 LP  0  0  0  0  0  0  0  0  0  0  0  0  # atno 17394 bound_to 11000
  140.0379  134.9869  157.0907 LP  0  0  0  0  0  0  0  0  0  0  0  0  # atno 17395 bound_to 11000

$$$$
