AV-unprocessed.smi:1718|AV-procd|sdf|6926|dock10
  -GOLD-   22720 8133D 1   1.00000     0.00000
 Structure written by MMmdl.
 39 40  0  0  0  0  0  0  0  0  2 V2000
  149.7140  138.1534  156.6117 C   0  0  0  0  0  0  0  0  0  0  0  0
  149.3081  138.4848  158.0559 C   0  0  2  0  0  0  0  0  0  0  0  0
  150.1992  139.4906  158.5313 O   0  0  0  0  0  0  0  0  0  0  0  0
  150.1404  140.7388  157.8472 C   0  0  0  0  0  0  0  0  0  0  0  0
  150.6713  141.8509  158.7617 C   0  0  2  0  0  0  0  0  0  0  0  0
  150.5933  143.2704  158.1787 C   0  0  0  0  0  0  0  0  0  0  0  0
  151.9863  143.8383  158.4032 C   0  0  0  0  0  0  0  0  0  0  0  0
  152.5995  142.8864  159.4239 C   0  0  0  0  0  0  0  0  0  0  0  0
  152.0429  141.6332  159.0658 O   0  0  0  0  0  0  0  0  0  0  0  0
  149.3687  137.2425  158.9601 C   0  0  0  0  0  0  0  0  0  0  0  0
  150.4537  136.7027  159.1743 O   0  0  0  0  0  0  0  0  0  0  0  0
  148.1877  136.8581  159.4836 N   0  0  0  0  0  0  0  0  0  0  0  0
  147.8886  135.8013  160.3606 C   0  0  0  0  0  0  0  0  0  0  0  0
  147.8400  134.4848  160.0141 C   0  0  0  0  0  0  0  0  0  0  0  0
  147.5188  133.4366  160.9748 C   0  0  0  0  0  0  0  0  0  0  0  0
  147.5564  131.9539  160.6492 C   0  0  0  0  0  0  0  0  0  0  0  0
  148.4682  131.3232  161.3899 F   0  0  0  0  0  0  0  0  0  0  0  0
  146.3681  131.4050  160.8973 F   0  0  0  0  0  0  0  0  0  0  0  0
  147.8471  131.7533  159.3637 F   0  0  0  0  0  0  0  0  0  0  0  0
  147.2865  133.9383  162.2405 C   0  0  0  0  0  0  0  0  0  0  0  0
  147.2860  135.2226  162.6597 N   0  5  0  0  0  0  0  0  0  0  0  0
  147.5895  136.1943  161.7536 C   0  0  0  0  0  0  0  0  0  0  0  0
  147.6177  137.3841  162.0711 O   0  0  0  0  0  0  0  0  0  0  0  0
  149.0812  137.3708  156.1912 H   0  0  0  0  0  0  0  0  0  0  0  0
  150.7499  137.8171  156.5520 H   0  0  0  0  0  0  0  0  0  0  0  0
  149.6178  139.0323  155.9739 H   0  0  0  0  0  0  0  0  0  0  0  0
  148.2912  138.8822  158.0398 H   0  0  0  0  0  0  0  0  0  0  0  0
  150.7464  140.6910  156.9415 H   0  0  0  0  0  0  0  0  0  0  0  0
  149.1203  140.9766  157.5445 H   0  0  0  0  0  0  0  0  0  0  0  0
  150.1242  141.8281  159.7058 H   0  0  0  0  0  0  0  0  0  0  0  0
  150.3363  143.2811  157.1190 H   0  0  0  0  0  0  0  0  0  0  0  0
  149.8394  143.8557  158.7065 H   0  0  0  0  0  0  0  0  0  0  0  0
  152.5548  143.7944  157.4734 H   0  0  0  0  0  0  0  0  0  0  0  0
  151.9752  144.8739  158.7445 H   0  0  0  0  0  0  0  0  0  0  0  0
  153.6890  142.8704  159.3852 H   0  0  0  0  0  0  0  0  0  0  0  0
  152.2923  143.1482  160.4377 H   0  0  0  0  0  0  0  0  0  0  0  0
  147.3926  137.4354  159.2510 H   0  0  0  0  0  0  0  0  0  0  0  0
  148.0251  134.1686  159.0015 H   0  0  0  0  0  0  0  0  0  0  0  0
  147.0747  133.1948  163.0383 H   0  0  0  0  0  0  0  0  0  0  0  0
  1  2  1  0  0  0  0
  1 24  1  0  0  0  0
  1 25  1  0  0  0  0
  1 26  1  0  0  0  0
  2  3  1  0  0  0  0
  2 10  1  0  0  0  0
  2 27  1  0  0  0  0
  3  4  1  0  0  0  0
  4  5  1  0  0  0  0
  4 28  1  0  0  0  0
  4 29  1  0  0  0  0
  5  9  1  0  0  0  0
  5  6  1  0  0  0  0
  5 30  1  0  0  0  0
  6  7  1  0  0  0  0
  6 31  1  0  0  0  0
  6 32  1  0  0  0  0
  7  8  1  0  0  0  0
  7 33  1  0  0  0  0
  7 34  1  0  0  0  0
  8  9  1  0  0  0  0
  8 35  1  0  0  0  0
  8 36  1  0  0  0  0
 10 11  2  0  0  0  0
 10 12  1  0  0  0  0
 12 13  1  0  0  0  0
 12 37  1  0  0  0  0
 13 22  1  0  0  0  0
 13 14  2  0  0  0  0
 14 15  1  0  0  0  0
 14 38  1  0  0  0  0
 15 16  1  0  0  0  0
 15 20  2  0  0  0  0
 16 17  1  0  0  0  0
 16 18  1  0  0  0  0
 16 19  1  0  0  0  0
 20 21  1  0  0  0  0
 20 39  1  0  0  0  0
 21 22  1  0  0  0  0
 22 23  2  0  0  0  0
M  CHG  1  21  -1
M  END
> <s_m_source_file>
AV-unprocessed.smi

> <i_m_source_file_index>
1718

> <i_lp_mmshare_version>
43012

> <i_f3d_flags>
0

> <s_epik_input>
TzFbQ0gyXVtDSDJdW0NIMl1bQ0BIXTFbQ0gyXU9bQ0BASF0oW0NIM10pQyg9TylbTkhdYzJbY0hdYyhDKEYpKEYpRilbY0hdW25IXWMyPU8=

> <s_epik_cmdline>
J2VwaWtfcHl0aG9uJywgJy1waCcsICc3LjAnLCAnLXRuJywgJzgnLCAnLW1hJywgJzIwMCcsICctbWV0YWxfYmluZGluZycsICctaW1hZScsICc8aW5maWxlLm1hZT4nLCAnLW9tYWUnLCAnPG91dGZpbGUubWFlPic=

> <r_epik_Ionization_Penalty>
2.5466

> <r_epik_Ionization_Penalty_Charging>
0.0575837

> <r_epik_Ionization_Penalty_Neutral>
2.48901

> <r_epik_State_Penalty>
2.6532

> <r_epik_Charging_Adjusted_Penalty>
2.71078

> <i_epik_Tot_Q>
-1

> <i_epik_Tot_abs_Q>
1

> <r_epik_Metal_State_Penalty>
0.516196

> <b_epik_Metal_Only>
0

> <s_lp_Force_Field>
OPLS_2005

> <r_lp_Energy>
37.3435

> <b_lp_Chiralities_Consistent>
1

> <s_lp_Variant>
AV-unprocessed.smi:1718-5

> <Gold.Version>
5.8.1

> <Gold.Id.Protein>
6NUR|6NUR_protein|mol2

> <Gold.PLP.Fitness>
44.0720

> <Gold.PLP.PLP>
-38.4642

> <Gold.PLP.part.hbond>
-2.9264

> <Gold.PLP.part.metal>
0.0000

> <Gold.PLP.part.buried>
-4.7651

> <Gold.PLP.part.nonpolar>
-31.2088

> <Gold.PLP.part.repulsive>
0.1912

> <Gold.PLP.ligand.clash>
0.0000

> <Gold.PLP.ligand.torsion>
0.8981

> <Gold.PLP.Chemscore.Hbond>
2.4240

> <Gold.PLP.Chemscore.CHOScore>
0.0000

> <Gold.PLP.Chemscore.Metal>
0.0000

> <Gold.Chemscore.Hbonds>
donor molecule, donor type, donor heavy atom, donor atom, acceptor molecule, acceptor atom, score
      P1  H  6896  6908       L1    11  1.00
      P1  H  6931  6943       L1    23  0.86
      P1  H  6934  6947       L1    23  0.58

> <Gold.PLP.Chemscore.Internal.Correction>
0.1319

> <Gold.Rescore>
     Score         DG    S(hbond)    S(metal)    S(lipo)     H(rot)  DE(clash)    DE(int)     intcor
     17.94     -19.03       2.68        0.00      79.79       1.85       0.00       1.10       ----

> <Gold.Chemscore.Fitness>
17.9353

> <Gold.Chemscore.DG>
-19.0338

> <Gold.Chemscore.ZeroCoef>
-5.4800

> <Gold.Chemscore.Hbond>
2.6773

> <Gold.Chemscore.Metal>
0.0000

> <Gold.Chemscore.Lipo>
79.7949

> <Gold.Chemscore.Internal_Hbond>
0.0000

> <Gold.Chemscore.DEClash>
0.0000

> <Gold.Chemscore.DEInternal>
1.0985

> <Gold.Chemscore.Rot>
1.8455

> <Gold.Chemscore.Internal.Correction>
   9.000000E+99

> <Gold.Chemscore.Hbonds>
donor molecule, donor type, donor heavy atom, donor atom, acceptor molecule, acceptor atom, score
      P1  H  6896  6908       L1    11  1.00
      P1  H  6931  6943       L1    23  0.83
      P1  H  6934  6947       L1    23  0.52

> <Gold.Chemscore.Hbond.Weighted>
-8.9423

> <Gold.Chemscore.Metal.Weighted>
-0.0000

> <Gold.Chemscore.Lipo.Weighted>
-9.3360

> <Gold.Chemscore.Internal_Hbond.Weighted>
0.0000

> <Gold.Chemscore.DEClash.Weighted>
0.0000

> <Gold.Chemscore.DEInternal.Weighted>
1.0985

> <Gold.Chemscore.Rot.Weighted>
4.7245

> <Gold.Chemscore.Internal.Correction.Weighted>
   9.000000E+99

> <Gold.Protein.RotatedTorsions>
[ 6907 6896 6895 6894 ] final -149.73 input  -60.11 | X-H torsion
[ 7974 7965 7964 7962 ] final  -84.48 input  175.53 | X-H torsion
[ 8008 7997 7996 7995 ] final  115.90 input   59.86 | X-H torsion
[ 10167 10162 10161 10158 ] final  -77.74 input  -65.29 | X-H torsion
[ 10718 10713 10712 10709 ] final  -98.02 input   66.30 | X-H torsion
[ 10763 10752 10751 10750 ] final   60.32 input  -60.55 | X-H torsion
[ 11005 11000 10999 10996 ] final -141.01 input  -57.11 | X-H torsion

> <Gold.Protein.ActiveResidues>
 VAL166  LYS551  ARG553  GLY616  TRP617  ASP618  TYR619  PRO620  LYS621  CYS622 
 ASP623  PHE694  ASN695  SER759  ASP760  ASP761  ALA762  ILE779  LEU786  VAL792 
 PHE793  MET794  SER795  GLU796  ALA797  LYS798  CYS799  TRP800  GLU811  SER814 

> <Gold.Protein.RotatedAtoms>
  151.1884  133.4682  159.2594 H   0  0  0  0  0  0  0  0  0  0  0  0  # atno 6907 bound_to 6896
  151.1188  135.0068  159.8539 H   0  0  0  0  0  0  0  0  0  0  0  0  # atno 6908 bound_to 6896
  152.5455  134.1797  159.8683 H   0  0  0  0  0  0  0  0  0  0  0  0  # atno 6909 bound_to 6896
  145.5060  140.9543  143.1733 H   0  0  0  0  0  0  0  0  0  0  0  0  # atno 7974 bound_to 7965
  156.2408  140.2929  156.0441 H   0  0  0  0  0  0  0  0  0  0  0  0  # atno 8008 bound_to 7997
  155.1955  140.0408  157.2925 H   0  0  0  0  0  0  0  0  0  0  0  0  # atno 8009 bound_to 7997
  154.6166  140.2465  155.7609 H   0  0  0  0  0  0  0  0  0  0  0  0  # atno 8010 bound_to 7997
  140.4743  143.2418  151.8156 H   0  0  0  0  0  0  0  0  0  0  0  0  # atno 10167 bound_to 10162
  156.0097  130.5219  150.6460 H   0  0  0  0  0  0  0  0  0  0  0  0  # atno 10718 bound_to 10713
  152.9918  135.5540  154.5854 H   0  0  0  0  0  0  0  0  0  0  0  0  # atno 10763 bound_to 10752
  154.5227  135.2808  155.1251 H   0  0  0  0  0  0  0  0  0  0  0  0  # atno 10764 bound_to 10752
  154.2598  135.6383  153.5323 H   0  0  0  0  0  0  0  0  0  0  0  0  # atno 10765 bound_to 10752
  140.8367  134.2452  157.4830 H   0  0  0  0  0  0  0  0  0  0  0  0  # atno 11005 bound_to 11000
  144.7753  139.6643  143.7177 LP  0  0  0  0  0  0  0  0  0  0  0  0  # atno 17320 bound_to 7965
  146.2196  139.5612  142.9627 LP  0  0  0  0  0  0  0  0  0  0  0  0  # atno 17321 bound_to 7965
  139.4823  144.4852  151.9255 LP  0  0  0  0  0  0  0  0  0  0  0  0  # atno 17342 bound_to 10162
  140.3937  144.2582  150.5897 LP  0  0  0  0  0  0  0  0  0  0  0  0  # atno 17343 bound_to 10162
  157.4231  131.0839  151.1112 LP  0  0  0  0  0  0  0  0  0  0  0  0  # atno 17370 bound_to 10713
  157.1708  130.6266  149.5640 LP  0  0  0  0  0  0  0  0  0  0  0  0  # atno 17371 bound_to 10713
  139.8704  134.9614  156.4395 LP  0  0  0  0  0  0  0  0  0  0  0  0  # atno 17394 bound_to 11000
  140.8940  133.7827  155.9604 LP  0  0  0  0  0  0  0  0  0  0  0  0  # atno 17395 bound_to 11000

$$$$
