AV-unprocessed.smi:668|AV-procd|sdf|3259|dock2
  -GOLD-   22720 0213D 1   1.00000     0.00000
 Structure written by MMmdl.
 38 39  0  0  0  0  0  0  0  0  1 V2000
  152.5111  130.9808  158.1339 C   0  0  0  0  0  0  0  0  0  0  0  0
  151.8802  132.1629  157.6538 O   0  0  0  0  0  0  0  0  0  0  0  0
  151.0712  132.0677  156.5401 C   0  0  0  0  0  0  0  0  0  0  0  0
  151.1548  130.9086  155.7434 C   0  0  0  0  0  0  0  0  0  0  0  0
  150.3266  130.7993  154.6102 C   0  0  0  0  0  0  0  0  0  0  0  0
  149.4328  131.8552  154.3125 C   0  0  0  0  0  0  0  0  0  0  0  0
  148.5584  131.8663  153.1932 N   0  0  0  0  0  0  0  0  0  0  0  0
  147.2979  132.3277  153.1296 C   0  0  0  0  0  0  0  0  0  0  0  0
  146.6747  132.8261  154.0668 O   0  0  0  0  0  0  0  0  0  0  0  0
  146.7958  132.1978  151.8939 N   0  0  0  0  0  0  0  0  0  0  0  0
  145.4650  132.6361  151.4805 C   0  0  2  0  0  0  0  0  0  0  0  0
  144.6019  131.4734  150.9659 C   0  0  0  0  0  0  0  0  0  0  0  0
  143.7113  132.0961  149.8957 C   0  0  0  0  0  0  0  0  0  0  0  0
  144.6144  133.1224  149.2152 C   0  0  0  0  0  0  0  0  0  0  0  0
  145.5504  133.6593  150.3173 C   0  0  1  0  0  0  0  0  0  0  0  0
  145.1716  135.0799  150.7669 C   0  0  0  0  0  0  0  0  0  0  0  0
  145.1863  136.0378  149.8364 N   0  0  0  0  0  0  0  0  0  0  0  0
  144.8657  135.3097  151.9354 O   0  0  0  0  0  0  0  0  0  0  0  0
  149.4407  132.9812  155.1611 C   0  0  0  0  0  0  0  0  0  0  0  0
  150.2295  133.0908  156.2508 N   0  0  0  0  0  0  0  0  0  0  0  0
  153.1148  131.2240  159.0082 H   0  0  0  0  0  0  0  0  0  0  0  0
  153.1760  130.5521  157.3827 H   0  0  0  0  0  0  0  0  0  0  0  0
  151.7796  130.2297  158.4358 H   0  0  0  0  0  0  0  0  0  0  0  0
  151.8441  130.1165  155.9962 H   0  0  0  0  0  0  0  0  0  0  0  0
  150.4017  129.9197  153.9897 H   0  0  0  0  0  0  0  0  0  0  0  0
  148.9658  131.5614  152.3214 H   0  0  0  0  0  0  0  0  0  0  0  0
  147.3779  131.7778  151.1843 H   0  0  0  0  0  0  0  0  0  0  0  0
  144.9584  133.0826  152.3394 H   0  0  0  0  0  0  0  0  0  0  0  0
  145.2297  130.7082  150.5063 H   0  0  0  0  0  0  0  0  0  0  0  0
  144.0288  130.9957  151.7611 H   0  0  0  0  0  0  0  0  0  0  0  0
  143.3117  131.3588  149.1988 H   0  0  0  0  0  0  0  0  0  0  0  0
  142.8678  132.6020  150.3678 H   0  0  0  0  0  0  0  0  0  0  0  0
  145.2096  132.6284  148.4458 H   0  0  0  0  0  0  0  0  0  0  0  0
  144.0347  133.9003  148.7155 H   0  0  0  0  0  0  0  0  0  0  0  0
  146.5625  133.6879  149.9083 H   0  0  0  0  0  0  0  0  0  0  0  0
  144.9464  136.9869  150.0834 H   0  0  0  0  0  0  0  0  0  0  0  0
  145.4397  135.8073  148.8865 H   0  0  0  0  0  0  0  0  0  0  0  0
  148.7871  133.8189  154.9663 H   0  0  0  0  0  0  0  0  0  0  0  0
  1  2  1  0  0  0  0
  1 21  1  0  0  0  0
  1 22  1  0  0  0  0
  1 23  1  0  0  0  0
  2  3  1  0  0  0  0
  3 20  1  0  0  0  0
  3  4  2  0  0  0  0
  4  5  1  0  0  0  0
  4 24  1  0  0  0  0
  5  6  2  0  0  0  0
  5 25  1  0  0  0  0
  6  7  1  0  0  0  0
  6 19  1  0  0  0  0
  7  8  1  0  0  0  0
  7 26  1  0  0  0  0
  8  9  2  0  0  0  0
  8 10  1  0  0  0  0
 10 11  1  0  0  0  0
 10 27  1  0  0  0  0
 11 15  1  0  0  0  0
 11 12  1  0  0  0  0
 11 28  1  0  0  0  0
 12 13  1  0  0  0  0
 12 29  1  0  0  0  0
 12 30  1  0  0  0  0
 13 14  1  0  0  0  0
 13 31  1  0  0  0  0
 13 32  1  0  0  0  0
 14 15  1  0  0  0  0
 14 33  1  0  0  0  0
 14 34  1  0  0  0  0
 15 16  1  0  0  0  0
 15 35  1  0  0  0  0
 16 17  1  0  0  0  0
 16 18  2  0  0  0  0
 17 36  1  0  0  0  0
 17 37  1  0  0  0  0
 19 20  2  0  0  0  0
 19 38  1  0  0  0  0
M  END
> <s_m_source_file>
AV-unprocessed.smi

> <i_m_source_file_index>
668

> <i_lp_mmshare_version>
43012

> <i_f3d_flags>
0

> <s_epik_input>
W0NIM11PYzFbY0hdW2NIXWMoW2NIXW4xKVtOSF1DKD1PKVtOSF1bQ0BASF0yW0NIMl1bQ0gyXVtDSDJdW0NASF0yQyg9TylbTkgyXQ==

> <s_epik_cmdline>
J2VwaWtfcHl0aG9uJywgJy1waCcsICc3LjAnLCAnLXRuJywgJzgnLCAnLW1hJywgJzIwMCcsICctbWV0YWxfYmluZGluZycsICctaW1hZScsICc8aW5maWxlLm1hZT4nLCAnLW9tYWUnLCAnPG91dGZpbGUubWFlPic=

> <r_lp_tautomer_probability>
1

> <r_epik_Ionization_Penalty>
9.0916e-05

> <r_epik_Ionization_Penalty_Charging>
0

> <r_epik_Ionization_Penalty_Neutral>
9.0916e-05

> <r_epik_State_Penalty>
-0

> <r_epik_Charging_Adjusted_Penalty>
0

> <i_epik_Tot_Q>
0

> <i_epik_Tot_abs_Q>
0

> <r_epik_Metal_State_Penalty>
-0

> <b_epik_Metal_Only>
0

> <s_lp_Force_Field>
OPLS_2005

> <r_lp_Energy>
16.4016

> <b_lp_Chiralities_Consistent>
1

> <s_lp_Variant>
AV-unprocessed.smi:668-1

> <Gold.Version>
5.8.1

> <Gold.Id.Protein>
6NUR|6NUR_protein|mol2

> <Gold.PLP.Fitness>
46.5985

> <Gold.PLP.PLP>
-33.2881

> <Gold.PLP.part.hbond>
-4.8994

> <Gold.PLP.part.metal>
0.0000

> <Gold.PLP.part.buried>
-2.1493

> <Gold.PLP.part.nonpolar>
-26.2053

> <Gold.PLP.part.repulsive>
0.3396

> <Gold.PLP.ligand.clash>
0.0204

> <Gold.PLP.ligand.torsion>
0.4865

> <Gold.PLP.Chemscore.Hbond>
4.7625

> <Gold.PLP.Chemscore.CHOScore>
0.0000

> <Gold.PLP.Chemscore.Metal>
0.0000

> <Gold.Chemscore.Hbonds>
donor molecule, donor type, donor heavy atom, donor atom, acceptor molecule, acceptor atom, score
      L1  H     7    26       P1 10747  0.73
      L1  H    10    27       P1 10747  0.93
      L1  H    17    36       P1 10171  0.99
      L1  H    17    37       P1  7921  1.00
      P1  H  6896  6907       L1     2  1.00

> <Gold.PLP.Chemscore.Internal.Correction>
0.0162

> <Gold.Rescore>
     Score         DG    S(hbond)    S(metal)    S(lipo)     H(rot)  DE(clash)    DE(int)     intcor
     20.13     -21.71       3.82        0.00      70.31       1.86       0.11       1.46       ----

> <Gold.Chemscore.Fitness>
20.1349

> <Gold.Chemscore.DG>
-21.7056

> <Gold.Chemscore.ZeroCoef>
-5.4800

> <Gold.Chemscore.Hbond>
3.8244

> <Gold.Chemscore.Metal>
0.0000

> <Gold.Chemscore.Lipo>
70.3072

> <Gold.Chemscore.Internal_Hbond>
0.0000

> <Gold.Chemscore.DEClash>
0.1097

> <Gold.Chemscore.DEInternal>
1.4610

> <Gold.Chemscore.Rot>
1.8648

> <Gold.Chemscore.Internal.Correction>
   9.000000E+99

> <Gold.Chemscore.Hbonds>
donor molecule, donor type, donor heavy atom, donor atom, acceptor molecule, acceptor atom, score
      L1  H     7    26       P1 10747  0.54
      L1  H    10    27       P1 10747  0.88
      L1  H    17    36       P1 10171  0.93
      L1  H    17    37       P1  7921  0.99
      P1  H  6896  6907       L1     2  0.39

> <Gold.Chemscore.Hbond.Weighted>
-12.7735

> <Gold.Chemscore.Metal.Weighted>
-0.0000

> <Gold.Chemscore.Lipo.Weighted>
-8.2259

> <Gold.Chemscore.Internal_Hbond.Weighted>
0.0000

> <Gold.Chemscore.DEClash.Weighted>
0.1097

> <Gold.Chemscore.DEInternal.Weighted>
1.4610

> <Gold.Chemscore.Rot.Weighted>
4.7739

> <Gold.Chemscore.Internal.Correction.Weighted>
   9.000000E+99

> <Gold.Protein.RotatedTorsions>
[ 6907 6896 6895 6894 ] final  174.30 input  -60.11 | X-H torsion
[ 7974 7965 7964 7962 ] final   52.24 input  175.53 | X-H torsion
[ 8008 7997 7996 7995 ] final  161.73 input   59.86 | X-H torsion
[ 10167 10162 10161 10158 ] final  -58.96 input  -65.29 | X-H torsion
[ 10718 10713 10712 10709 ] final  161.56 input   66.30 | X-H torsion
[ 10763 10752 10751 10750 ] final  -15.22 input  -60.55 | X-H torsion
[ 11005 11000 10999 10996 ] final   84.77 input  -57.11 | X-H torsion

> <Gold.Protein.ActiveResidues>
 VAL166  LYS551  ARG553  GLY616  TRP617  ASP618  TYR619  PRO620  LYS621  CYS622 
 ASP623  PHE694  ASN695  SER759  ASP760  ASP761  ALA762  ILE779  LEU786  VAL792 
 PHE793  MET794  SER795  GLU796  ALA797  LYS798  CYS799  TRP800  GLU811  SER814 

> <Gold.Protein.RotatedAtoms>
  151.7545  133.3329  159.3400 H   0  0  0  0  0  0  0  0  0  0  0  0  # atno 6907 bound_to 6896
  150.7522  134.6162  159.6121 H   0  0  0  0  0  0  0  0  0  0  0  0  # atno 6908 bound_to 6896
  152.3446  134.7090  160.0305 H   0  0  0  0  0  0  0  0  0  0  0  0  # atno 6909 bound_to 6896
  145.9833  139.4264  143.0118 H   0  0  0  0  0  0  0  0  0  0  0  0  # atno 7974 bound_to 7965
  156.2082  140.1769  156.7754 H   0  0  0  0  0  0  0  0  0  0  0  0  # atno 8008 bound_to 7997
  154.5684  140.0687  156.8958 H   0  0  0  0  0  0  0  0  0  0  0  0  # atno 8009 bound_to 7997
  155.2717  140.3343  155.4267 H   0  0  0  0  0  0  0  0  0  0  0  0  # atno 8010 bound_to 7997
  140.6165  143.2404  151.5586 H   0  0  0  0  0  0  0  0  0  0  0  0  # atno 10167 bound_to 10162
  157.1347  131.0525  151.2355 H   0  0  0  0  0  0  0  0  0  0  0  0  # atno 10718 bound_to 10713
  153.5400  135.7013  153.5641 H   0  0  0  0  0  0  0  0  0  0  0  0  # atno 10763 bound_to 10752
  153.3611  135.3969  155.1719 H   0  0  0  0  0  0  0  0  0  0  0  0  # atno 10764 bound_to 10752
  154.8674  135.3789  154.4904 H   0  0  0  0  0  0  0  0  0  0  0  0  # atno 10765 bound_to 10752
  139.8990  134.8240  156.2491 H   0  0  0  0  0  0  0  0  0  0  0  0  # atno 11005 bound_to 11000
  145.7737  140.9886  143.1136 LP  0  0  0  0  0  0  0  0  0  0  0  0  # atno 17320 bound_to 7965
  144.6867  139.9479  143.7477 LP  0  0  0  0  0  0  0  0  0  0  0  0  # atno 17321 bound_to 7965
  139.5402  144.2668  152.1336 LP  0  0  0  0  0  0  0  0  0  0  0  0  # atno 17342 bound_to 10162
  140.1878  144.4781  150.6494 LP  0  0  0  0  0  0  0  0  0  0  0  0  # atno 17343 bound_to 10162
  157.4360  130.7517  149.7030 LP  0  0  0  0  0  0  0  0  0  0  0  0  # atno 17370 bound_to 10713
  155.9800  130.4033  150.3551 LP  0  0  0  0  0  0  0  0  0  0  0  0  # atno 17371 bound_to 10713
  141.0236  133.7028  156.1309 LP  0  0  0  0  0  0  0  0  0  0  0  0  # atno 17394 bound_to 11000
  140.7199  134.4370  157.5575 LP  0  0  0  0  0  0  0  0  0  0  0  0  # atno 17395 bound_to 11000

$$$$
