AV-unprocessed.smi:1228|AV-procd|sdf|5148|dock3
  -GOLD-   22720 4213D 1   1.00000     0.00000
 Structure written by MMmdl.
 44 46  0  0  0  0  0  0  0  0  2 V2000
  149.8317  142.3340  155.6076 C   0  0  0  0  0  0  0  0  0  0  0  0
  149.7092  140.9668  155.0026 C   0  0  0  0  0  0  0  0  0  0  0  0
  148.5488  140.3546  154.4459 C   0  0  0  0  0  0  0  0  0  0  0  0
  149.0141  139.1295  154.0529 C   0  0  0  0  0  0  0  0  0  0  0  0
  148.3431  138.1134  153.4479 N   0  0  0  0  0  0  0  0  0  0  0  0
  147.0312  138.0230  153.1678 C   0  0  0  0  0  0  0  0  0  0  0  0
  146.1819  138.8721  153.4390 O   0  0  0  0  0  0  0  0  0  0  0  0
  146.7460  136.8684  152.5475 N   0  0  0  0  0  0  0  0  0  0  0  0
  145.4163  136.4620  152.1018 C   0  0  2  0  0  0  0  0  0  0  0  0
  144.8260  135.3918  153.0390 C   0  0  0  0  0  0  0  0  0  0  0  0
  143.4668  134.8858  152.5200 C   0  0  0  0  0  0  0  0  0  0  0  0
  143.5513  134.3842  151.1242 N   0  3  2  0  0  0  0  0  0  0  0  0
  144.2096  133.0612  151.0149 C   0  0  0  0  0  0  0  0  0  0  0  0
  144.6668  132.7270  149.6142 C   0  0  0  0  0  0  0  0  0  0  0  0
  143.4337  132.0642  150.1860 C   0  0  0  0  0  0  0  0  0  0  0  0
  144.1143  135.4004  150.1977 C   0  0  0  0  0  0  0  0  0  0  0  0
  145.4883  135.9157  150.6664 C   0  0  0  0  0  0  0  0  0  0  0  0
  150.3537  139.0428  154.3599 N   0  0  0  0  0  0  0  0  0  0  0  0
  151.2803  137.9499  154.1383 C   0  0  0  0  0  0  0  0  0  0  0  0
  150.7790  140.1812  154.9494 N   0  0  0  0  0  0  0  0  0  0  0  0
  148.9175  142.9108  155.4655 H   0  0  0  0  0  0  0  0  0  0  0  0
  150.6502  142.8938  155.1543 H   0  0  0  0  0  0  0  0  0  0  0  0
  150.0216  142.2721  156.6792 H   0  0  0  0  0  0  0  0  0  0  0  0
  147.5539  140.7647  154.3589 H   0  0  0  0  0  0  0  0  0  0  0  0
  148.9124  137.3249  153.1785 H   0  0  0  0  0  0  0  0  0  0  0  0
  147.5046  136.2274  152.3652 H   0  0  0  0  0  0  0  0  0  0  0  0
  144.7586  137.3335  152.1001 H   0  0  0  0  0  0  0  0  0  0  0  0
  145.5204  134.5560  153.1347 H   0  0  0  0  0  0  0  0  0  0  0  0
  144.7014  135.7990  154.0431 H   0  0  0  0  0  0  0  0  0  0  0  0
  143.0768  134.1047  153.1737 H   0  0  0  0  0  0  0  0  0  0  0  0
  142.7412  135.6997  152.5488 H   0  0  0  0  0  0  0  0  0  0  0  0
  144.7861  132.7261  151.8747 H   0  0  0  0  0  0  0  0  0  0  0  0
  144.5198  133.4698  148.8320 H   0  0  0  0  0  0  0  0  0  0  0  0
  145.5593  132.1135  149.5097 H   0  0  0  0  0  0  0  0  0  0  0  0
  143.5139  131.0142  150.4597 H   0  0  0  0  0  0  0  0  0  0  0  0
  142.4691  132.3667  149.7823 H   0  0  0  0  0  0  0  0  0  0  0  0
  144.1862  134.9878  149.1907 H   0  0  0  0  0  0  0  0  0  0  0  0
  143.4147  136.2351  150.1377 H   0  0  0  0  0  0  0  0  0  0  0  0
  145.8351  136.6967  149.9886 H   0  0  0  0  0  0  0  0  0  0  0  0
  146.2243  135.1127  150.6073 H   0  0  0  0  0  0  0  0  0  0  0  0
  150.9337  137.0631  154.6694 H   0  0  0  0  0  0  0  0  0  0  0  0
  152.2763  138.2115  154.4984 H   0  0  0  0  0  0  0  0  0  0  0  0
  151.3373  137.7284  153.0722 H   0  0  0  0  0  0  0  0  0  0  0  0
  142.5989  134.2308  150.8245 H   0  0  0  0  0  0  0  0  0  0  0  0
  1  2  1  0  0  0  0
  1 21  1  0  0  0  0
  1 22  1  0  0  0  0
  1 23  1  0  0  0  0
  2 20  2  0  0  0  0
  2  3  1  0  0  0  0
  3  4  2  0  0  0  0
  3 24  1  0  0  0  0
  4  5  1  0  0  0  0
  4 18  1  0  0  0  0
  5  6  1  0  0  0  0
  5 25  1  0  0  0  0
  6  7  2  0  0  0  0
  6  8  1  0  0  0  0
  8  9  1  0  0  0  0
  8 26  1  0  0  0  0
  9 17  1  0  0  0  0
  9 10  1  0  0  0  0
  9 27  1  0  0  0  0
 10 11  1  0  0  0  0
 10 28  1  0  0  0  0
 10 29  1  0  0  0  0
 11 12  1  0  0  0  0
 11 30  1  0  0  0  0
 11 31  1  0  0  0  0
 12 13  1  0  0  0  0
 12 16  1  0  0  0  0
 12 44  1  0  0  0  0
 13 15  1  0  0  0  0
 13 14  1  0  0  0  0
 13 32  1  0  0  0  0
 14 15  1  0  0  0  0
 14 33  1  0  0  0  0
 14 34  1  0  0  0  0
 15 35  1  0  0  0  0
 15 36  1  0  0  0  0
 16 17  1  0  0  0  0
 16 37  1  0  0  0  0
 16 38  1  0  0  0  0
 17 39  1  0  0  0  0
 17 40  1  0  0  0  0
 18 19  1  0  0  0  0
 18 20  1  0  0  0  0
 19 41  1  0  0  0  0
 19 42  1  0  0  0  0
 19 43  1  0  0  0  0
M  CHG  1  12   1
M  END
> <s_m_source_file>
AV-unprocessed.smi

> <i_m_source_file_index>
1228

> <i_lp_mmshare_version>
43012

> <i_f3d_flags>
0

> <s_epik_input>
W0NIM11jMVtjSF1jKG4objEpW0NIM10pW05IXUMoPU8pW05IXVtDSF0yW0NIMl1bQ0gyXU4oW0NIMl1bQ0gyXTIpW0NIXTNbQ0gyXVtDSDJdMw==

> <s_epik_cmdline>
J2VwaWtfcHl0aG9uJywgJy1waCcsICc3LjAnLCAnLXRuJywgJzgnLCAnLW1hJywgJzIwMCcsICctbWV0YWxfYmluZGluZycsICctaW1hZScsICc8aW5maWxlLm1hZT4nLCAnLW9tYWUnLCAnPG91dGZpbGUubWFlPic=

> <r_lp_tautomer_probability>
1

> <r_epik_Ionization_Penalty>
0.11882

> <r_epik_Ionization_Penalty_Charging>
0.11874

> <r_epik_Ionization_Penalty_Neutral>
8.03064e-05

> <r_epik_State_Penalty>
0.108313

> <r_epik_Charging_Adjusted_Penalty>
0.227053

> <i_epik_Tot_Q>
1

> <i_epik_Tot_abs_Q>
1

> <r_epik_Metal_State_Penalty>
0.108316

> <b_epik_Metal_Only>
0

> <s_lp_Force_Field>
OPLS_2005

> <r_lp_Energy>
29.8379

> <b_lp_Chiralities_Consistent>
1

> <s_lp_Variant>
AV-unprocessed.smi:1228-2

> <Gold.Version>
5.8.1

> <Gold.Id.Protein>
6NUR|6NUR_protein|mol2

> <Gold.PLP.Fitness>
46.0439

> <Gold.PLP.PLP>
-33.5331

> <Gold.PLP.part.hbond>
-3.7856

> <Gold.PLP.part.metal>
0.0000

> <Gold.PLP.part.buried>
3.4639

> <Gold.PLP.part.nonpolar>
-33.8046

> <Gold.PLP.part.repulsive>
0.3968

> <Gold.PLP.ligand.clash>
0.0000

> <Gold.PLP.ligand.torsion>
1.0313

> <Gold.PLP.Chemscore.Hbond>
4.4360

> <Gold.PLP.Chemscore.CHOScore>
0.0000

> <Gold.PLP.Chemscore.Metal>
0.0000

> <Gold.Chemscore.Hbonds>
donor molecule, donor type, donor heavy atom, donor atom, acceptor molecule, acceptor atom, score
      L1  H     5    25       P1  7948  0.74
      L1  H     8    26       P1  7948  0.80
      L1  H    12    44       P1 10186  1.95
      P1  H  7989  7998       L1    20  0.85

> <Gold.PLP.Chemscore.Internal.Correction>
1.2653

> <Gold.Rescore>
     Score         DG    S(hbond)    S(metal)    S(lipo)     H(rot)  DE(clash)    DE(int)     intcor
     14.54     -19.59       2.13        0.00      86.37       1.21       2.84       2.21       ----

> <Gold.Chemscore.Fitness>
14.5360

> <Gold.Chemscore.DG>
-19.5879

> <Gold.Chemscore.ZeroCoef>
-5.4800

> <Gold.Chemscore.Hbond>
2.1256

> <Gold.Chemscore.Metal>
0.0000

> <Gold.Chemscore.Lipo>
86.3706

> <Gold.Chemscore.Internal_Hbond>
0.0000

> <Gold.Chemscore.DEClash>
2.8383

> <Gold.Chemscore.DEInternal>
2.2137

> <Gold.Chemscore.Rot>
1.2097

> <Gold.Chemscore.Internal.Correction>
   9.000000E+99

> <Gold.Chemscore.Hbonds>
donor molecule, donor type, donor heavy atom, donor atom, acceptor molecule, acceptor atom, score
      L1  H     5    25       P1  7948  0.72
      L1  H     8    26       P1  7948  0.73
      L1  H    12    44       P1 10186  0.36
      P1  H  7989  7998       L1    20  0.04

> <Gold.Chemscore.Hbond.Weighted>
-7.0995

> <Gold.Chemscore.Metal.Weighted>
-0.0000

> <Gold.Chemscore.Lipo.Weighted>
-10.1054

> <Gold.Chemscore.Internal_Hbond.Weighted>
0.0000

> <Gold.Chemscore.DEClash.Weighted>
2.8383

> <Gold.Chemscore.DEInternal.Weighted>
2.2137

> <Gold.Chemscore.Rot.Weighted>
3.0969

> <Gold.Chemscore.Internal.Correction.Weighted>
   9.000000E+99

> <Gold.Protein.RotatedTorsions>
[ 6907 6896 6895 6894 ] final -134.31 input  -60.11 | X-H torsion
[ 7974 7965 7964 7962 ] final  171.07 input  175.53 | X-H torsion
[ 8008 7997 7996 7995 ] final   32.37 input   59.86 | X-H torsion
[ 10167 10162 10161 10158 ] final  -97.72 input  -65.29 | X-H torsion
[ 10718 10713 10712 10709 ] final   -9.55 input   66.30 | X-H torsion
[ 10763 10752 10751 10750 ] final -100.80 input  -60.55 | X-H torsion
[ 11005 11000 10999 10996 ] final  121.91 input  -57.11 | X-H torsion

> <Gold.Protein.ActiveResidues>
 VAL166  LYS551  ARG553  GLY616  TRP617  ASP618  TYR619  PRO620  LYS621  CYS622 
 ASP623  PHE694  ASN695  SER759  ASP760  ASP761  ALA762  ILE779  LEU786  VAL792 
 PHE793  MET794  SER795  GLU796  ALA797  LYS798  CYS799  TRP800  GLU811  SER814 

> <Gold.Protein.RotatedAtoms>
  150.9843  133.6214  159.2717 H   0  0  0  0  0  0  0  0  0  0  0  0  # atno 6907 bound_to 6896
  151.3457  135.0872  159.9396 H   0  0  0  0  0  0  0  0  0  0  0  0  # atno 6908 bound_to 6896
  152.5225  133.9445  159.7697 H   0  0  0  0  0  0  0  0  0  0  0  0  # atno 6909 bound_to 6896
  144.7305  139.9295  143.6424 H   0  0  0  0  0  0  0  0  0  0  0  0  # atno 7974 bound_to 7965
  155.1214  140.3248  155.4496 H   0  0  0  0  0  0  0  0  0  0  0  0  # atno 8008 bound_to 7997
  156.2662  140.2026  156.6284 H   0  0  0  0  0  0  0  0  0  0  0  0  # atno 8009 bound_to 7997
  154.6681  140.0539  157.0122 H   0  0  0  0  0  0  0  0  0  0  0  0  # atno 8010 bound_to 7997
  140.2805  143.3285  152.0446 H   0  0  0  0  0  0  0  0  0  0  0  0  # atno 10167 bound_to 10162
  156.6864  130.5052  149.5956 H   0  0  0  0  0  0  0  0  0  0  0  0  # atno 10718 bound_to 10713
  154.7608  135.4921  153.9461 H   0  0  0  0  0  0  0  0  0  0  0  0  # atno 10763 bound_to 10752
  153.1249  135.6740  153.9281 H   0  0  0  0  0  0  0  0  0  0  0  0  # atno 10764 bound_to 10752
  153.9002  135.3110  155.3427 H   0  0  0  0  0  0  0  0  0  0  0  0  # atno 10765 bound_to 10752
  139.9246  134.9640  156.8030 H   0  0  0  0  0  0  0  0  0  0  0  0  # atno 11005 bound_to 11000
  146.0868  139.3857  143.0430 LP  0  0  0  0  0  0  0  0  0  0  0  0  # atno 17320 bound_to 7965
  145.7766  140.9874  143.1121 LP  0  0  0  0  0  0  0  0  0  0  0  0  # atno 17321 bound_to 7965
  139.4964  144.6595  151.6497 LP  0  0  0  0  0  0  0  0  0  0  0  0  # atno 17342 bound_to 10162
  140.5816  143.9936  150.6271 LP  0  0  0  0  0  0  0  0  0  0  0  0  # atno 17343 bound_to 10162
  156.1829  130.6511  151.0973 LP  0  0  0  0  0  0  0  0  0  0  0  0  # atno 17370 bound_to 10713
  157.7025  131.0770  150.6775 LP  0  0  0  0  0  0  0  0  0  0  0  0  # atno 17371 bound_to 10713
  140.6374  133.9849  155.7691 LP  0  0  0  0  0  0  0  0  0  0  0  0  # atno 17394 bound_to 11000
  141.0793  134.0086  157.3410 LP  0  0  0  0  0  0  0  0  0  0  0  0  # atno 17395 bound_to 11000

$$$$
