AV-unprocessed.smi:3311|AV-procd|sdf|12721|dock3
  -GOLD-   2272019 63D 1   1.00000     0.00000
 Structure written by MMmdl.
 44 45  0  0  0  0  0  0  0  0  2 V2000
  148.4298  132.8963  152.8544 C   0  0  0  0  0  0  0  0  0  0  0  0
  148.1283  133.8504  154.0244 C   0  0  2  0  0  0  0  0  0  0  0  0
  147.3910  135.0225  153.5028 N   0  3  0  0  0  0  0  0  0  0  0  0
  145.9760  134.7660  153.1548 C   0  0  0  0  0  0  0  0  0  0  0  0
  145.7116  134.9010  151.6355 C   0  0  0  0  0  0  0  0  0  0  0  0
  146.1420  136.1956  151.2582 O   0  0  0  0  0  0  0  0  0  0  0  0
  146.4778  133.8637  150.7781 C   0  0  0  0  0  0  0  0  0  0  0  0
  145.9232  132.4386  150.9495 C   0  0  0  0  0  0  0  0  0  0  0  0
  144.4207  132.3863  150.6316 C   0  0  0  0  0  0  0  0  0  0  0  0
  143.6327  133.4014  151.4741 C   0  0  0  0  0  0  0  0  0  0  0  0
  144.2003  134.8239  151.3144 C   0  0  0  0  0  0  0  0  0  0  0  0
  149.4057  134.3019  154.7836 C   0  0  1  0  0  0  0  0  0  0  0  0
  149.1160  135.3336  155.8907 C   0  0  0  0  0  0  0  0  0  0  0  0
  150.1389  133.1713  155.3394 N   0  0  0  0  0  0  0  0  0  0  0  0
  151.2519  133.1913  156.1550 C   0  0  0  0  0  0  0  0  0  0  0  0
  151.5834  131.8946  156.4258 C   0  0  0  0  0  0  0  0  0  0  0  0
  150.6000  131.1408  155.7267 C   0  0  0  0  0  0  0  0  0  0  0  0
  149.7364  131.9064  155.0800 N   0  0  0  0  0  0  0  0  0  0  0  0
  148.8823  131.9649  153.1954 H   0  0  0  0  0  0  0  0  0  0  0  0
  149.1104  133.3533  152.1354 H   0  0  0  0  0  0  0  0  0  0  0  0
  147.5158  132.6295  152.3229 H   0  0  0  0  0  0  0  0  0  0  0  0
  147.4847  133.3076  154.7191 H   0  0  0  0  0  0  0  0  0  0  0  0
  147.4218  135.7584  154.1944 H   0  0  0  0  0  0  0  0  0  0  0  0
  145.7126  133.7685  153.5061 H   0  0  0  0  0  0  0  0  0  0  0  0
  145.3423  135.4641  153.7039 H   0  0  0  0  0  0  0  0  0  0  0  0
  147.0654  136.2730  151.4471 H   0  0  0  0  0  0  0  0  0  0  0  0
  146.3983  134.1371  149.7245 H   0  0  0  0  0  0  0  0  0  0  0  0
  147.5441  133.8767  151.0054 H   0  0  0  0  0  0  0  0  0  0  0  0
  146.4613  131.7525  150.2947 H   0  0  0  0  0  0  0  0  0  0  0  0
  146.0984  132.0875  151.9667 H   0  0  0  0  0  0  0  0  0  0  0  0
  144.2657  132.5958  149.5723 H   0  0  0  0  0  0  0  0  0  0  0  0
  144.0379  131.3804  150.8059 H   0  0  0  0  0  0  0  0  0  0  0  0
  142.5835  133.3893  151.1773 H   0  0  0  0  0  0  0  0  0  0  0  0
  143.6529  133.1036  152.5227 H   0  0  0  0  0  0  0  0  0  0  0  0
  143.6408  135.5183  151.9428 H   0  0  0  0  0  0  0  0  0  0  0  0
  144.0295  135.1462  150.2858 H   0  0  0  0  0  0  0  0  0  0  0  0
  150.0715  134.7781  154.0619 H   0  0  0  0  0  0  0  0  0  0  0  0
  148.7050  136.2563  155.4812 H   0  0  0  0  0  0  0  0  0  0  0  0
  150.0288  135.5993  156.4248 H   0  0  0  0  0  0  0  0  0  0  0  0
  148.4049  134.9478  156.6221 H   0  0  0  0  0  0  0  0  0  0  0  0
  151.7119  134.1158  156.4715 H   0  0  0  0  0  0  0  0  0  0  0  0
  152.4027  131.5383  157.0324 H   0  0  0  0  0  0  0  0  0  0  0  0
  150.4884  130.0679  155.6707 H   0  0  0  0  0  0  0  0  0  0  0  0
  147.8607  135.3482  152.6701 H   0  0  0  0  0  0  0  0  0  0  0  0
  1  2  1  0  0  0  0
  1 19  1  0  0  0  0
  1 20  1  0  0  0  0
  1 21  1  0  0  0  0
  2  3  1  0  0  0  0
  2 12  1  0  0  0  0
  2 22  1  0  0  0  0
  3  4  1  0  0  0  0
  3 23  1  0  0  0  0
  3 44  1  0  0  0  0
  4  5  1  0  0  0  0
  4 24  1  0  0  0  0
  4 25  1  0  0  0  0
  5 11  1  0  0  0  0
  5  6  1  0  0  0  0
  5  7  1  0  0  0  0
  6 26  1  0  0  0  0
  7  8  1  0  0  0  0
  7 27  1  0  0  0  0
  7 28  1  0  0  0  0
  8  9  1  0  0  0  0
  8 29  1  0  0  0  0
  8 30  1  0  0  0  0
  9 10  1  0  0  0  0
  9 31  1  0  0  0  0
  9 32  1  0  0  0  0
 10 11  1  0  0  0  0
 10 33  1  0  0  0  0
 10 34  1  0  0  0  0
 11 35  1  0  0  0  0
 11 36  1  0  0  0  0
 12 13  1  0  0  0  0
 12 14  1  0  0  0  0
 12 37  1  0  0  0  0
 13 38  1  0  0  0  0
 13 39  1  0  0  0  0
 13 40  1  0  0  0  0
 14 18  1  0  0  0  0
 14 15  1  0  0  0  0
 15 16  2  0  0  0  0
 15 41  1  0  0  0  0
 16 17  1  0  0  0  0
 16 42  1  0  0  0  0
 17 18  2  0  0  0  0
 17 43  1  0  0  0  0
M  CHG  1   3   1
M  END
> <s_m_source_file>
AV-unprocessed.smi

> <i_m_source_file_index>
3311

> <i_lp_mmshare_version>
43012

> <i_f3d_flags>
0

> <s_epik_input>
bjFbY0hdW2NIXVtjSF1uMVtDQEBIXShbQ0gzXSlbQ0BIXShbQ0gzXSlbTkhdW0NIMl1DMihbT0hdKVtDSDJdW0NIMl1bQ0gyXVtDSDJdW0NIMl0y

> <s_epik_cmdline>
J2VwaWtfcHl0aG9uJywgJy1waCcsICc3LjAnLCAnLXRuJywgJzgnLCAnLW1hJywgJzIwMCcsICctbWV0YWxfYmluZGluZycsICctaW1hZScsICc8aW5maWxlLm1hZT4nLCAnLW9tYWUnLCAnPG91dGZpbGUubWFlPic=

> <r_lp_tautomer_probability>
1

> <r_epik_Ionization_Penalty>
0.0141403

> <r_epik_Ionization_Penalty_Charging>
0.0141276

> <r_epik_Ionization_Penalty_Neutral>
1.27139e-05

> <r_epik_State_Penalty>
0.0110334

> <r_epik_Charging_Adjusted_Penalty>
0.025161

> <i_epik_Tot_Q>
1

> <i_epik_Tot_abs_Q>
1

> <r_epik_Metal_State_Penalty>
0.0110573

> <b_epik_Metal_Only>
0

> <s_lp_Force_Field>
OPLS_2005

> <r_lp_Energy>
22.4961

> <b_lp_Chiralities_Consistent>
1

> <s_lp_Variant>
AV-unprocessed.smi:3311-3

> <Gold.Version>
5.8.1

> <Gold.Id.Protein>
6NUR|6NUR_protein|mol2

> <Gold.PLP.Fitness>
41.1370

> <Gold.PLP.PLP>
-33.3526

> <Gold.PLP.part.hbond>
-1.8430

> <Gold.PLP.part.metal>
0.0000

> <Gold.PLP.part.buried>
-4.8900

> <Gold.PLP.part.nonpolar>
-25.5863

> <Gold.PLP.part.repulsive>
0.0000

> <Gold.PLP.ligand.clash>
0.0000

> <Gold.PLP.ligand.torsion>
0.6861

> <Gold.PLP.Chemscore.Hbond>
3.0000

> <Gold.PLP.Chemscore.CHOScore>
0.0000

> <Gold.PLP.Chemscore.Metal>
0.0000

> <Gold.Chemscore.Hbonds>
donor molecule, donor type, donor heavy atom, donor atom, acceptor molecule, acceptor atom, score
      L1  H     3    44       P1  7948  2.00
      L1  H     6    26       P1  7948  1.00

> <Gold.PLP.Chemscore.Internal.Correction>
0.1567

> <Gold.Rescore>
     Score         DG    S(hbond)    S(metal)    S(lipo)     H(rot)  DE(clash)    DE(int)     intcor
     13.16     -15.11       1.98        0.00      72.51       2.14       0.00       1.95       ----

> <Gold.Chemscore.Fitness>
13.1559

> <Gold.Chemscore.DG>
-15.1060

> <Gold.Chemscore.ZeroCoef>
-5.4800

> <Gold.Chemscore.Hbond>
1.9841

> <Gold.Chemscore.Metal>
0.0000

> <Gold.Chemscore.Lipo>
72.5101

> <Gold.Chemscore.Internal_Hbond>
0.0000

> <Gold.Chemscore.DEClash>
0.0009

> <Gold.Chemscore.DEInternal>
1.9492

> <Gold.Chemscore.Rot>
2.1424

> <Gold.Chemscore.Internal.Correction>
   9.000000E+99

> <Gold.Chemscore.Hbonds>
donor molecule, donor type, donor heavy atom, donor atom, acceptor molecule, acceptor atom, score
      L1  H     3    44       P1  7948  0.97
      L1  H     6    26       P1  7948  1.00

> <Gold.Chemscore.Hbond.Weighted>
-6.6269

> <Gold.Chemscore.Metal.Weighted>
-0.0000

> <Gold.Chemscore.Lipo.Weighted>
-8.4837

> <Gold.Chemscore.Internal_Hbond.Weighted>
0.0000

> <Gold.Chemscore.DEClash.Weighted>
0.0009

> <Gold.Chemscore.DEInternal.Weighted>
1.9492

> <Gold.Chemscore.Rot.Weighted>
5.4846

> <Gold.Chemscore.Internal.Correction.Weighted>
   9.000000E+99

> <Gold.Protein.RotatedTorsions>
[ 6907 6896 6895 6894 ] final  -45.02 input  -60.11 | X-H torsion
[ 7974 7965 7964 7962 ] final   26.48 input  175.53 | X-H torsion
[ 8008 7997 7996 7995 ] final   60.64 input   59.86 | X-H torsion
[ 10167 10162 10161 10158 ] final    0.09 input  -65.29 | X-H torsion
[ 10718 10713 10712 10709 ] final   12.52 input   66.30 | X-H torsion
[ 10763 10752 10751 10750 ] final   55.47 input  -60.55 | X-H torsion
[ 11005 11000 10999 10996 ] final -138.57 input  -57.11 | X-H torsion

> <Gold.Protein.ActiveResidues>
 VAL166  LYS551  ARG553  GLY616  TRP617  ASP618  TYR619  PRO620  LYS621  CYS622 
 ASP623  PHE694  ASN695  SER759  ASP760  ASP761  ALA762  ILE779  LEU786  VAL792 
 PHE793  MET794  SER795  GLU796  ALA797  LYS798  CYS799  TRP800  GLU811  SER814 

> <Gold.Protein.RotatedAtoms>
  150.9265  134.8681  159.7522 H   0  0  0  0  0  0  0  0  0  0  0  0  # atno 6907 bound_to 6896
  152.5017  134.4142  159.9469 H   0  0  0  0  0  0  0  0  0  0  0  0  # atno 6908 bound_to 6896
  151.4172  133.3669  159.2786 H   0  0  0  0  0  0  0  0  0  0  0  0  # atno 6909 bound_to 6896
  146.1835  139.7323  142.8883 H   0  0  0  0  0  0  0  0  0  0  0  0  # atno 7974 bound_to 7965
  155.5856  140.3492  155.4552 H   0  0  0  0  0  0  0  0  0  0  0  0  # atno 8008 bound_to 7997
  156.0340  140.1281  157.0252 H   0  0  0  0  0  0  0  0  0  0  0  0  # atno 8009 bound_to 7997
  154.4364  140.1037  156.6127 H   0  0  0  0  0  0  0  0  0  0  0  0  # atno 8010 bound_to 7997
  140.6744  143.6958  150.7991 H   0  0  0  0  0  0  0  0  0  0  0  0  # atno 10167 bound_to 10162
  157.0114  130.6118  149.5708 H   0  0  0  0  0  0  0  0  0  0  0  0  # atno 10718 bound_to 10713
  152.9817  135.5710  154.5071 H   0  0  0  0  0  0  0  0  0  0  0  0  # atno 10763 bound_to 10752
  154.4581  135.2780  155.1734 H   0  0  0  0  0  0  0  0  0  0  0  0  # atno 10764 bound_to 10752
  154.3334  135.6244  153.5615 H   0  0  0  0  0  0  0  0  0  0  0  0  # atno 10765 bound_to 10752
  140.8603  134.2177  157.4711 H   0  0  0  0  0  0  0  0  0  0  0  0  # atno 11005 bound_to 11000
  145.4006  141.0384  143.3072 LP  0  0  0  0  0  0  0  0  0  0  0  0  # atno 17320 bound_to 7965
  144.8356  139.5555  143.6923 LP  0  0  0  0  0  0  0  0  0  0  0  0  # atno 17321 bound_to 7965
  140.0649  143.5119  152.2609 LP  0  0  0  0  0  0  0  0  0  0  0  0  # atno 17342 bound_to 10162
  139.6028  144.7588  151.3131 LP  0  0  0  0  0  0  0  0  0  0  0  0  # atno 17343 bound_to 10162
  156.0135  130.5228  150.8062 LP  0  0  0  0  0  0  0  0  0  0  0  0  # atno 17370 bound_to 10713
  157.5318  131.0937  150.9945 LP  0  0  0  0  0  0  0  0  0  0  0  0  # atno 17371 bound_to 10713
  139.8707  134.9726  156.4779 LP  0  0  0  0  0  0  0  0  0  0  0  0  # atno 17394 bound_to 11000
  140.8690  133.8002  155.9344 LP  0  0  0  0  0  0  0  0  0  0  0  0  # atno 17395 bound_to 11000

$$$$
