#       Name:                AV-unprocessed.smi:3335
#       Creating user name   scv26
#       Creation time:       Fri Mar 27 19:24:18 2020


#       File generated by GOLD software.
#

@<TRIPOS>MOLECULE
AV-unprocessed.smi:3335
    50    51     1
SMALL
NO_CHARGES


@<TRIPOS>ATOM
      1 ****        -2.5855  -1.9703  -1.5007 C.3            1 S1                 0.0000
      2 ****        -2.3094  -0.6329  -0.8778 C.2            1 S1                 0.0000
      3 ****        -2.1265   0.6182  -1.5314 C.2            1 S1                 0.0000
      4 ****        -1.8560   1.6025  -0.6903 N.2            1 S1                 0.0000
      5 ****        -1.8838   1.0249   0.5320 N.pl3          1 S1                 0.0000
      6 ****        -1.5703   1.7989   1.7307 C.3            1 S1                 0.0000
      7 ****        -2.3632   3.1213   1.7439 C.3            1 S1                 0.0000
      8 ****        -0.0377   2.0090   1.8978 C.3            1 S1                 0.0000
      9 ****         0.3294   2.7131   3.2151 C.3            1 S1                 0.0000
     10 ****         0.6365   0.7111   1.9241 N.3            1 S1                 0.0000
     11 ****         1.3754   0.4007   0.6869 C.3            1 S1                 0.0000
     12 ****         2.7663   1.0596   0.7147 C.3            1 S1                 0.0000
     13 ****         1.5076  -1.1243   0.5005 C.2            1 S1                 0.0000
     14 ****         1.6206  -1.8432   1.4954 O.2            1 S1                 0.0000
     15 ****         1.4791  -1.6426  -0.7475 N.am           1 S1                 0.0000
     16 ****         1.5288  -3.0787  -1.0176 C.3            1 S1                 0.0000
     17 ****         1.2154  -3.2343  -2.5056 C.3            1 S1                 0.0000
     18 ****         1.6516  -1.9100  -3.1140 C.3            1 S1                 0.0000
     19 ****         1.4052  -0.8917  -2.0015 C.3            1 S1                 0.0000
     20 ****        -2.1569  -0.3247   0.4436 C.2            1 S1                 0.0000
     21 ****        -2.4215  -1.9573  -2.5784 H              1 S1                 0.0000
     22 ****        -3.6151  -2.2868  -1.3341 H              1 S1                 0.0000
     23 ****        -1.9380  -2.7450  -1.0891 H              1 S1                 0.0000
     24 ****        -2.1600   0.8341  -2.5890 H              1 S1                 0.0000
     25 ****        -1.9239   1.2099   2.5786 H              1 S1                 0.0000
     26 ****        -2.3016   3.6160   2.7128 H              1 S1                 0.0000
     27 ****        -3.4207   2.9446   1.5447 H              1 S1                 0.0000
     28 ****        -1.9946   3.8187   0.9911 H              1 S1                 0.0000
     29 ****         0.3378   2.6267   1.0801 H              1 S1                 0.0000
     30 ****        -0.0559   3.7319   3.2460 H              1 S1                 0.0000
     31 ****         1.4113   2.7817   3.3348 H              1 S1                 0.0000
     32 ****        -0.0671   2.1790   4.0795 H              1 S1                 0.0000
     33 ****        -0.0513   0.0000   2.1275 H              1 S1                 0.0000
     34 ****         0.8124   0.7972  -0.1565 H              1 S1                 0.0000
     35 ****         3.3399   0.8240  -0.1819 H              1 S1                 0.0000
     36 ****         3.3475   0.7253   1.5750 H              1 S1                 0.0000
     37 ****         2.6898   2.1455   0.7715 H              1 S1                 0.0000
     38 ****         2.5316  -3.4471  -0.7963 H              1 S1                 0.0000
     39 ****         0.8188  -3.6365  -0.4048 H              1 S1                 0.0000
     40 ****         1.7141  -4.0929  -2.9562 H              1 S1                 0.0000
     41 ****         0.1408  -3.3614  -2.6430 H              1 S1                 0.0000
     42 ****         2.7167  -1.9486  -3.3464 H              1 S1                 0.0000
     43 ****         1.1165  -1.6694  -4.0331 H              1 S1                 0.0000
     44 ****         0.4096  -0.4614  -2.1044 H              1 S1                 0.0000
     45 ****         2.1335  -0.0815  -2.0453 H              1 S1                 0.0000
     46 ****        -2.1981  -0.9540   1.3204 H              1 S1                 0.0000
     47 ****        -1.6719   2.5607  -0.9096 LP             1 S1                 0.0000
     48 ****         1.3350   0.7409   2.6391 LP             1 S1                 0.0000
     49 ****         1.6257  -1.4358   2.4086 LP             1 S1                 0.0000
     50 ****         1.7072  -2.8338   1.3892 LP             1 S1                 0.0000
@<TRIPOS>BOND
    1    1    2 1     
    2    1   21 1     
    3    1   22 1     
    4    1   23 1     
    5    2   20 2     
    6    2    3 1     
    7    3    4 2     
    8    3   24 1     
    9    4    5 1     
   10    5    6 1     
   11    5   20 1     
   12    6    7 1     
   13    6    8 1     
   14    6   25 1     
   15    7   26 1     
   16    7   27 1     
   17    7   28 1     
   18    8    9 1     
   19    8   10 1     
   20    8   29 1     
   21    9   30 1     
   22    9   31 1     
   23    9   32 1     
   24   10   11 1     
   25   10   33 1     
   26   11   12 1     
   27   11   13 1     
   28   11   34 1     
   29   12   35 1     
   30   12   36 1     
   31   12   37 1     
   32   13   14 2     
   33   13   15 am    
   34   15   19 1     
   35   15   16 1     
   36   16   17 1     
   37   16   38 1     
   38   16   39 1     
   39   17   18 1     
   40   17   40 1     
   41   17   41 1     
   42   18   19 1     
   43   18   42 1     
   44   18   43 1     
   45   19   44 1     
   46   19   45 1     
   47   20   46 1     
   48    4   47 1     
   49   10   48 1     
   50   14   49 1     
   51   14   50 1     
@<TRIPOS>SUBSTRUCTURE
      1 S1             1
@<TRIPOS>SET
LONE_PAIRS      STATIC     ATOMS    <user>   **** ""
4 47 48 49 50
DONOR_HYDROGENS      STATIC     ATOMS    <user>   **** ""
1 33
ATOM$BLUE        STATIC     ATOMS    COLORGROUP SYSTEM
4 47 48 49 50
ATOM$RED        STATIC     ATOMS    COLORGROUP SYSTEM
1 33
