#       Name:                AV-unprocessed.smi:2703
#       Creating user name   scv26
#       Creation time:       Fri Mar 27 14:48:24 2020


#       File generated by GOLD software.
#

@<TRIPOS>MOLECULE
AV-unprocessed.smi:2703
    47    49     1
SMALL
NO_CHARGES


@<TRIPOS>ATOM
      1 ****        -2.5368   4.7317   3.5379 C.3            1 S1                 0.0000
      2 ****        -2.2654   3.7346   2.4244 C.ar           1 S1                 0.0000
      3 ****        -2.5493   4.1158   1.0936 C.ar           1 S1                 0.0000
      4 ****        -2.2900   3.1822   0.0971 C.ar           1 S1                 0.0000
      5 ****        -2.4551   3.2534  -1.2879 N.pl3          1 S1                 1.0000
      6 ****        -2.0618   2.0788  -1.8534 C.2            1 S1                 0.0000
      7 ****        -1.6494   1.2576  -0.8501 N.pl3          1 S1                 0.0000
      8 ****        -1.1377  -0.1188  -0.9157 C.3            1 S1                 0.0000
      9 ****         0.3774  -0.1859  -1.1896 C.3            1 S1                 0.0000
     10 ****         1.0854   0.4819  -0.1629 O.3            1 S1                 0.0000
     11 ****         0.8763  -1.6368  -1.2788 C.3            1 S1                 0.0000
     12 ****         2.6120  -1.7312  -1.8065 S.3            1 S1                 0.0000
     13 ****         3.0493  -3.4469  -1.9556 C.ar           1 S1                 0.0000
     14 ****         2.1972  -4.4807  -1.5073 C.ar           1 S1                 0.0000
     15 ****         2.5933  -5.8197  -1.6481 C.ar           1 S1                 0.0000
     16 ****         3.8357  -6.1002  -2.2355 C.ar           1 S1                 0.0000
     17 ****         4.6536  -5.0384  -2.6666 C.ar           1 S1                 0.0000
     18 ****         4.2671  -3.7326  -2.5283 N.pl3          1 S1                 1.0000
     19 ****         5.0509  -2.7972  -2.9387 O.2            1 S1                -1.0000
     20 ****        -1.7701   1.9052   0.3854 C.ar           1 S1                 0.0000
     21 ****        -1.4824   1.5152   1.6915 C.ar           1 S1                 0.0000
     22 ****        -1.7362   2.4515   2.7192 C.ar           1 S1                 0.0000
     23 ****        -1.4279   2.0545   4.1529 C.3            1 S1                 0.0000
     24 ****        -2.9530   5.6616   3.1489 H              1 S1                 0.0000
     25 ****        -1.6148   4.9748   4.0665 H              1 S1                 0.0000
     26 ****        -3.2497   4.3220   4.2539 H              1 S1                 0.0000
     27 ****        -2.9499   5.0918   0.8615 H              1 S1                 0.0000
     28 ****        -2.0771   1.8404  -2.9073 H              1 S1                 0.0000
     29 ****        -1.3991  -0.6445   0.0031 H              1 S1                 0.0000
     30 ****        -1.6801  -0.6213  -1.7176 H              1 S1                 0.0000
     31 ****         0.5892   0.3237  -2.1306 H              1 S1                 0.0000
     32 ****         2.0090   0.4373  -0.3604 H              1 S1                 0.0000
     33 ****         0.7635  -2.1335  -0.3143 H              1 S1                 0.0000
     34 ****         0.2746  -2.1901  -2.0005 H              1 S1                 0.0000
     35 ****         1.2430  -4.2636  -1.0537 H              1 S1                 0.0000
     36 ****         1.9527  -6.6207  -1.3094 H              1 S1                 0.0000
     37 ****         4.1635  -7.1223  -2.3556 H              1 S1                 0.0000
     38 ****         5.6216  -5.1770  -3.1264 H              1 S1                 0.0000
     39 ****        -1.0743   0.5410   1.9164 H              1 S1                 0.0000
     40 ****        -1.0111   1.0483   4.2078 H              1 S1                 0.0000
     41 ****        -2.3338   2.0732   4.7593 H              1 S1                 0.0000
     42 ****        -0.7020   2.7387   4.5925 H              1 S1                 0.0000
     43 ****        -2.8093   4.0441  -1.8110 H              1 S1                 0.0000
     44 ****         0.9058   0.0383   0.7151 LP             1 S1                 0.0000
     45 ****         0.7951   1.4379  -0.1189 LP             1 S1                 0.0000
     46 ****         4.7789  -1.8395  -2.8442 LP             1 S1                 0.0000
     47 ****         5.9317  -3.0283  -3.3520 LP             1 S1                 0.0000
@<TRIPOS>BOND
    1    1    2 1     
    2    1   24 1     
    3    1   25 1     
    4    1   26 1     
    5    2   22 ar    
    6    2    3 ar    
    7    3    4 ar    
    8    3   27 1     
    9    4   20 ar    
   10    4    5 1     
   11    5    6 2     
   12    5   43 1     
   13    6    7 1     
   14    6   28 1     
   15    7    8 1     
   16    7   20 1     
   17    8    9 1     
   18    8   29 1     
   19    8   30 1     
   20    9   10 1     
   21    9   11 1     
   22    9   31 1     
   23   10   32 1     
   24   11   12 1     
   25   11   33 1     
   26   11   34 1     
   27   12   13 1     
   28   13   18 ar    
   29   13   14 ar    
   30   14   15 ar    
   31   14   35 1     
   32   15   16 ar    
   33   15   36 1     
   34   16   17 ar    
   35   16   37 1     
   36   17   18 ar    
   37   17   38 1     
   38   18   19 1     
   39   20   21 ar    
   40   21   22 ar    
   41   21   39 1     
   42   22   23 1     
   43   23   40 1     
   44   23   41 1     
   45   23   42 1     
   46   10   44 1     
   47   10   45 1     
   48   19   46 1     
   49   19   47 1     
@<TRIPOS>SUBSTRUCTURE
      1 S1             1
@<TRIPOS>SET
LONE_PAIRS      STATIC     ATOMS    <user>   **** ""
4 44 45 46 47
DONOR_HYDROGENS      STATIC     ATOMS    <user>   **** ""
2 43 32
ATOM$BLUE        STATIC     ATOMS    COLORGROUP SYSTEM
4 44 45 46 47
ATOM$RED        STATIC     ATOMS    COLORGROUP SYSTEM
2 43 32
