AV-unprocessed.smi:1198|AV-procd|sdf|5010|dock9
  -GOLD-   22720 4 23D 1   1.00000     0.00000
 Structure written by MMmdl.
 40 41  0  0  0  0  0  0  0  0  2 V2000
  151.3421  141.6823  158.1525 C   0  0  0  0  0  0  0  0  0  0  0  0
  151.3298  141.5419  156.7362 O   0  0  0  0  0  0  0  0  0  0  0  0
  150.9049  140.3437  156.1998 C   0  0  0  0  0  0  0  0  0  0  0  0
  150.8102  139.2221  157.0473 C   0  0  0  0  0  0  0  0  0  0  0  0
  150.3763  137.9954  156.5092 C   0  0  0  0  0  0  0  0  0  0  0  0
  150.0567  137.9275  155.1319 C   0  0  0  0  0  0  0  0  0  0  0  0
  149.5871  136.7583  154.4744 N   0  0  0  0  0  0  0  0  0  0  0  0
  149.3497  135.5420  154.9943 C   0  0  0  0  0  0  0  0  0  0  0  0
  149.5608  135.2109  156.1606 O   0  0  0  0  0  0  0  0  0  0  0  0
  148.8588  134.7066  154.0678 N   0  0  0  0  0  0  0  0  0  0  0  0
  148.5137  133.3069  154.2959 C   0  0  0  0  0  0  0  0  0  0  0  0
  148.0144  132.6059  153.0167 C   0  0  2  0  0  0  0  0  0  0  0  0
  146.7518  133.2264  152.4221 C   0  0  0  0  0  0  0  0  0  0  0  0
  146.1510  132.1090  151.5601 C   0  0  0  0  0  0  0  0  0  0  0  0
  146.7480  130.8380  152.0335 N   0  3  2  0  0  0  0  0  0  0  0  0
  145.7748  129.7494  152.2601 C   0  0  0  0  0  0  0  0  0  0  0  0
  147.5973  131.1460  153.2023 C   0  0  0  0  0  0  0  0  0  0  0  0
  150.1738  139.1104  154.3728 C   0  0  0  0  0  0  0  0  0  0  0  0
  150.5893  140.2891  154.8822 N   0  0  0  0  0  0  0  0  0  0  0  0
  151.7003  142.6780  158.4133 H   0  0  0  0  0  0  0  0  0  0  0  0
  152.0105  140.9577  158.6198 H   0  0  0  0  0  0  0  0  0  0  0  0
  150.3417  141.5702  158.5727 H   0  0  0  0  0  0  0  0  0  0  0  0
  151.0615  139.3024  158.0947 H   0  0  0  0  0  0  0  0  0  0  0  0
  150.2850  137.1433  157.1642 H   0  0  0  0  0  0  0  0  0  0  0  0
  149.4521  136.8495  153.4779 H   0  0  0  0  0  0  0  0  0  0  0  0
  148.7284  135.0607  153.1313 H   0  0  0  0  0  0  0  0  0  0  0  0
  149.4018  132.8018  154.6769 H   0  0  0  0  0  0  0  0  0  0  0  0
  147.7601  133.2395  155.0821 H   0  0  0  0  0  0  0  0  0  0  0  0
  148.7952  132.6443  152.2550 H   0  0  0  0  0  0  0  0  0  0  0  0
  146.0528  133.4862  153.2185 H   0  0  0  0  0  0  0  0  0  0  0  0
  146.9563  134.1331  151.8518 H   0  0  0  0  0  0  0  0  0  0  0  0
  145.0620  132.1091  151.6273 H   0  0  0  0  0  0  0  0  0  0  0  0
  146.4167  132.2430  150.5112 H   0  0  0  0  0  0  0  0  0  0  0  0
  145.0543  130.0214  153.0326 H   0  0  0  0  0  0  0  0  0  0  0  0
  146.2879  128.8396  152.5730 H   0  0  0  0  0  0  0  0  0  0  0  0
  145.2283  129.5305  151.3422 H   0  0  0  0  0  0  0  0  0  0  0  0
  148.4504  130.4695  153.2628 H   0  0  0  0  0  0  0  0  0  0  0  0
  147.0164  131.0401  154.1203 H   0  0  0  0  0  0  0  0  0  0  0  0
  149.9288  139.1127  153.3207 H   0  0  0  0  0  0  0  0  0  0  0  0
  147.3729  130.5342  151.3000 H   0  0  0  0  0  0  0  0  0  0  0  0
  1  2  1  0  0  0  0
  1 20  1  0  0  0  0
  1 21  1  0  0  0  0
  1 22  1  0  0  0  0
  2  3  1  0  0  0  0
  3 19  1  0  0  0  0
  3  4  2  0  0  0  0
  4  5  1  0  0  0  0
  4 23  1  0  0  0  0
  5  6  2  0  0  0  0
  5 24  1  0  0  0  0
  6  7  1  0  0  0  0
  6 18  1  0  0  0  0
  7  8  1  0  0  0  0
  7 25  1  0  0  0  0
  8  9  2  0  0  0  0
  8 10  1  0  0  0  0
 10 11  1  0  0  0  0
 10 26  1  0  0  0  0
 11 12  1  0  0  0  0
 11 27  1  0  0  0  0
 11 28  1  0  0  0  0
 12 17  1  0  0  0  0
 12 13  1  0  0  0  0
 12 29  1  0  0  0  0
 13 14  1  0  0  0  0
 13 30  1  0  0  0  0
 13 31  1  0  0  0  0
 14 15  1  0  0  0  0
 14 32  1  0  0  0  0
 14 33  1  0  0  0  0
 15 16  1  0  0  0  0
 15 17  1  0  0  0  0
 15 40  1  0  0  0  0
 16 34  1  0  0  0  0
 16 35  1  0  0  0  0
 16 36  1  0  0  0  0
 17 37  1  0  0  0  0
 17 38  1  0  0  0  0
 18 19  2  0  0  0  0
 18 39  1  0  0  0  0
M  CHG  1  15   1
M  END
> <s_m_source_file>
AV-unprocessed.smi

> <i_m_source_file_index>
1198

> <i_lp_mmshare_version>
43012

> <i_f3d_flags>
0

> <s_epik_input>
W0NIM11PYzFbY0hdW2NIXWMoW2NIXW4xKVtOSF1DKD1PKVtOSF1bQ0gyXVtDQEBIXTJbQ0gyXVtDSDJdTihbQ0gzXSlbQ0gyXTI=

> <s_epik_cmdline>
J2VwaWtfcHl0aG9uJywgJy1waCcsICc3LjAnLCAnLXRuJywgJzgnLCAnLW1hJywgJzIwMCcsICctbWV0YWxfYmluZGluZycsICctaW1hZScsICc8aW5maWxlLm1hZT4nLCAnLW9tYWUnLCAnPG91dGZpbGUubWFlPic=

> <r_lp_tautomer_probability>
1

> <r_epik_Ionization_Penalty>
0.00131396

> <r_epik_Ionization_Penalty_Charging>
0.0012301

> <r_epik_Ionization_Penalty_Neutral>
8.38549e-05

> <r_epik_State_Penalty>
0.00081314

> <r_epik_Charging_Adjusted_Penalty>
0.00204324

> <i_epik_Tot_Q>
1

> <i_epik_Tot_abs_Q>
1

> <r_epik_Metal_State_Penalty>
-0

> <b_epik_Metal_Only>
0

> <s_lp_Force_Field>
OPLS_2005

> <r_lp_Energy>
30.1161

> <b_lp_Chiralities_Consistent>
1

> <s_lp_Variant>
AV-unprocessed.smi:1198-1

> <Gold.Version>
5.8.1

> <Gold.Id.Protein>
6NUR|6NUR_protein|mol2

> <Gold.PLP.Fitness>
43.8716

> <Gold.PLP.PLP>
-29.3144

> <Gold.PLP.part.hbond>
-4.0000

> <Gold.PLP.part.metal>
0.0000

> <Gold.PLP.part.buried>
-2.6930

> <Gold.PLP.part.nonpolar>
-22.3393

> <Gold.PLP.part.repulsive>
0.1683

> <Gold.PLP.ligand.clash>
0.0395

> <Gold.PLP.ligand.torsion>
0.1911

> <Gold.PLP.Chemscore.Hbond>
3.9920

> <Gold.PLP.Chemscore.CHOScore>
1.0000

> <Gold.PLP.Chemscore.Metal>
0.0000

> <Gold.Chemscore.Hbonds>
donor molecule, donor type, donor heavy atom, donor atom, acceptor molecule, acceptor atom, score
      L1  H     7    25       P1  7948  1.00
      L1  H    10    26       P1  7948  1.00
      L1  H    15    40       P1 10747  0.98
      P1  H  7989  7998       L1    19  1.00
      L1  C    18    39       P1  7957  1.00

> <Gold.PLP.Chemscore.Internal.Correction>
0.0029

> <Gold.Rescore>
     Score         DG    S(hbond)    S(metal)    S(lipo)     H(rot)  DE(clash)    DE(int)     intcor
     16.97     -18.36       2.79        0.00      63.52       1.51       0.07       1.32       ----

> <Gold.Chemscore.Fitness>
16.9674

> <Gold.Chemscore.DG>
-18.3616

> <Gold.Chemscore.ZeroCoef>
-5.4800

> <Gold.Chemscore.Hbond>
2.7928

> <Gold.Chemscore.Metal>
0.0000

> <Gold.Chemscore.Lipo>
63.5201

> <Gold.Chemscore.Internal_Hbond>
0.0000

> <Gold.Chemscore.DEClash>
0.0737

> <Gold.Chemscore.DEInternal>
1.3206

> <Gold.Chemscore.Rot>
1.5149

> <Gold.Chemscore.Internal.Correction>
   9.000000E+99

> <Gold.Chemscore.Hbonds>
donor molecule, donor type, donor heavy atom, donor atom, acceptor molecule, acceptor atom, score
      L1  H     7    25       P1  7948  0.86
      L1  H    10    26       P1  7948  0.49
      L1  H    15    40       P1 10747  0.93
      P1  H  7989  7998       L1    19  0.25

> <Gold.Chemscore.Hbond.Weighted>
-9.3279

> <Gold.Chemscore.Metal.Weighted>
-0.0000

> <Gold.Chemscore.Lipo.Weighted>
-7.4318

> <Gold.Chemscore.Internal_Hbond.Weighted>
0.0000

> <Gold.Chemscore.DEClash.Weighted>
0.0737

> <Gold.Chemscore.DEInternal.Weighted>
1.3206

> <Gold.Chemscore.Rot.Weighted>
3.8781

> <Gold.Chemscore.Internal.Correction.Weighted>
   9.000000E+99

> <Gold.Protein.RotatedTorsions>
[ 6907 6896 6895 6894 ] final  100.43 input  -60.11 | X-H torsion
[ 7974 7965 7964 7962 ] final  -56.94 input  175.53 | X-H torsion
[ 8008 7997 7996 7995 ] final -122.29 input   59.86 | X-H torsion
[ 10167 10162 10161 10158 ] final  -77.05 input  -65.29 | X-H torsion
[ 10718 10713 10712 10709 ] final -153.26 input   66.30 | X-H torsion
[ 10763 10752 10751 10750 ] final  -79.18 input  -60.55 | X-H torsion
[ 11005 11000 10999 10996 ] final    5.08 input  -57.11 | X-H torsion

> <Gold.Protein.ActiveResidues>
 VAL166  LYS551  ARG553  GLY616  TRP617  ASP618  TYR619  PRO620  LYS621  CYS622 
 ASP623  PHE694  ASN695  SER759  ASP760  ASP761  ALA762  ILE779  LEU786  VAL792 
 PHE793  MET794  SER795  GLU796  ALA797  LYS798  CYS799  TRP800  GLU811  SER814 

> <Gold.Protein.RotatedAtoms>
  152.5372  134.0278  159.8010 H   0  0  0  0  0  0  0  0  0  0  0  0  # atno 6907 bound_to 6896
  151.0454  133.5662  159.2654 H   0  0  0  0  0  0  0  0  0  0  0  0  # atno 6908 bound_to 6896
  151.2617  135.0663  159.9154 H   0  0  0  0  0  0  0  0  0  0  0  0  # atno 6909 bound_to 6896
  145.8569  140.8313  142.9957 H   0  0  0  0  0  0  0  0  0  0  0  0  # atno 7974 bound_to 7965
  155.1618  140.0406  157.2844 H   0  0  0  0  0  0  0  0  0  0  0  0  # atno 8008 bound_to 7997
  154.6331  140.2529  155.7383 H   0  0  0  0  0  0  0  0  0  0  0  0  # atno 8009 bound_to 7997
  156.2495  140.2871  156.0692 H   0  0  0  0  0  0  0  0  0  0  0  0  # atno 8010 bound_to 7997
  140.4803  143.2404  151.8068 H   0  0  0  0  0  0  0  0  0  0  0  0  # atno 10167 bound_to 10162
  156.4835  130.8314  151.2540 H   0  0  0  0  0  0  0  0  0  0  0  0  # atno 10718 bound_to 10713
  154.5353  135.5704  153.6793 H   0  0  0  0  0  0  0  0  0  0  0  0  # atno 10763 bound_to 10752
  152.9949  135.6214  154.2574 H   0  0  0  0  0  0  0  0  0  0  0  0  # atno 10764 bound_to 10752
  154.2503  135.2859  155.2799 H   0  0  0  0  0  0  0  0  0  0  0  0  # atno 10765 bound_to 10752
  140.5747  134.0069  155.8023 H   0  0  0  0  0  0  0  0  0  0  0  0  # atno 11005 bound_to 11000
  144.6727  140.1036  143.7459 LP  0  0  0  0  0  0  0  0  0  0  0  0  # atno 17320 bound_to 7965
  145.9294  139.2596  143.1334 LP  0  0  0  0  0  0  0  0  0  0  0  0  # atno 17321 bound_to 7965
  139.4832  144.4780  151.9342 LP  0  0  0  0  0  0  0  0  0  0  0  0  # atno 17342 bound_to 10162
  140.3866  144.2669  150.5903 LP  0  0  0  0  0  0  0  0  0  0  0  0  # atno 17343 bound_to 10162
  157.7481  131.0037  150.3048 LP  0  0  0  0  0  0  0  0  0  0  0  0  # atno 17370 bound_to 10713
  156.3498  130.3829  149.7339 LP  0  0  0  0  0  0  0  0  0  0  0  0  # atno 17371 bound_to 10713
  141.1034  133.9732  157.3039 LP  0  0  0  0  0  0  0  0  0  0  0  0  # atno 17394 bound_to 11000
  139.9345  135.0197  156.8511 LP  0  0  0  0  0  0  0  0  0  0  0  0  # atno 17395 bound_to 11000

$$$$
