AV-unprocessed.smi:2600|AV-procd|sdf|10181|dock1
  -GOLD-   2272014193D 1   1.00000     0.00000
 Structure written by MMmdl.
 44 45  0  0  0  0  0  0  0  0  1 V2000
  146.5110  139.3232  151.3852 C   0  0  0  0  0  0  0  0  0  0  0  0
  146.7605  138.4944  152.6560 C   0  0  0  0  0  0  0  0  0  0  0  0
  147.3172  139.2807  153.8668 C   0  0  1  0  0  0  0  0  0  0  0  0
  147.9539  138.2689  154.8481 C   0  0  0  0  0  0  0  0  0  0  0  0
  148.3330  140.3694  153.4276 C   0  0  0  0  0  0  0  0  0  0  0  0
  148.6815  141.2130  154.5800 N   0  0  0  0  0  0  0  0  0  0  0  0
  149.8752  141.2698  155.2212 C   0  0  0  0  0  0  0  0  0  0  0  0
  150.7553  140.4184  155.0865 O   0  0  0  0  0  0  0  0  0  0  0  0
  150.0297  142.3363  156.0239 N   0  0  0  0  0  0  0  0  0  0  0  0
  151.2336  142.6483  156.7842 C   0  0  0  0  0  0  0  0  0  0  0  0
  151.0648  142.2937  158.2711 C   0  0  0  0  0  0  0  0  0  0  0  0
  151.3616  143.4368  159.1888 C   0  0  0  0  0  0  0  0  0  0  0  0
  150.9360  144.7345  159.1366 C   0  0  0  0  0  0  0  0  0  0  0  0
  151.5371  145.3427  160.2726 C   0  0  0  0  0  0  0  0  0  0  0  0
  152.2732  144.4961  160.9715 N   0  0  0  0  0  0  0  0  0  0  0  0
  152.1705  143.3250  160.3074 N   0  0  0  0  0  0  0  0  0  0  0  0
  152.8708  142.1633  160.8225 C   0  0  0  0  0  0  0  0  0  0  0  0
  147.4844  141.8953  155.0740 C   0  0  0  0  0  0  0  0  0  0  0  0
  146.4842  140.8289  155.5496 C   0  0  0  0  0  0  0  0  0  0  0  0
  146.1914  139.9127  154.4919 O   0  0  0  0  0  0  0  0  0  0  0  0
  146.0256  138.7138  150.6229 H   0  0  0  0  0  0  0  0  0  0  0  0
  147.4390  139.6952  150.9526 H   0  0  0  0  0  0  0  0  0  0  0  0
  145.8627  140.1769  151.5836 H   0  0  0  0  0  0  0  0  0  0  0  0
  145.8165  138.0283  152.9421 H   0  0  0  0  0  0  0  0  0  0  0  0
  147.4354  137.6730  152.4114 H   0  0  0  0  0  0  0  0  0  0  0  0
  148.7684  137.7234  154.3707 H   0  0  0  0  0  0  0  0  0  0  0  0
  147.2211  137.5356  155.1854 H   0  0  0  0  0  0  0  0  0  0  0  0
  148.3692  138.7417  155.7373 H   0  0  0  0  0  0  0  0  0  0  0  0
  149.1911  139.9024  152.9439 H   0  0  0  0  0  0  0  0  0  0  0  0
  147.9004  141.0215  152.6692 H   0  0  0  0  0  0  0  0  0  0  0  0
  149.2632  142.9896  156.0938 H   0  0  0  0  0  0  0  0  0  0  0  0
  152.0606  142.0791  156.3589 H   0  0  0  0  0  0  0  0  0  0  0  0
  151.4876  143.7019  156.6613 H   0  0  0  0  0  0  0  0  0  0  0  0
  150.0529  141.9331  158.4584 H   0  0  0  0  0  0  0  0  0  0  0  0
  151.7230  141.4597  158.5173 H   0  0  0  0  0  0  0  0  0  0  0  0
  150.2894  145.1822  158.3964 H   0  0  0  0  0  0  0  0  0  0  0  0
  151.4607  146.3665  160.6077 H   0  0  0  0  0  0  0  0  0  0  0  0
  153.2340  141.5456  160.0014 H   0  0  0  0  0  0  0  0  0  0  0  0
  152.1941  141.5732  161.4409 H   0  0  0  0  0  0  0  0  0  0  0  0
  153.7248  142.4714  161.4271 H   0  0  0  0  0  0  0  0  0  0  0  0
  147.6970  142.5934  155.8848 H   0  0  0  0  0  0  0  0  0  0  0  0
  147.0464  142.4913  154.2720 H   0  0  0  0  0  0  0  0  0  0  0  0
  146.8676  140.2987  156.4214 H   0  0  0  0  0  0  0  0  0  0  0  0
  145.5540  141.3032  155.8625 H   0  0  0  0  0  0  0  0  0  0  0  0
  1  2  1  0  0  0  0
  1 21  1  0  0  0  0
  1 22  1  0  0  0  0
  1 23  1  0  0  0  0
  2  3  1  0  0  0  0
  2 24  1  0  0  0  0
  2 25  1  0  0  0  0
  3 20  1  0  0  0  0
  3  4  1  0  0  0  0
  3  5  1  0  0  0  0
  4 26  1  0  0  0  0
  4 27  1  0  0  0  0
  4 28  1  0  0  0  0
  5  6  1  0  0  0  0
  5 29  1  0  0  0  0
  5 30  1  0  0  0  0
  6  7  1  0  0  0  0
  6 18  1  0  0  0  0
  7  8  2  0  0  0  0
  7  9  1  0  0  0  0
  9 10  1  0  0  0  0
  9 31  1  0  0  0  0
 10 11  1  0  0  0  0
 10 32  1  0  0  0  0
 10 33  1  0  0  0  0
 11 12  1  0  0  0  0
 11 34  1  0  0  0  0
 11 35  1  0  0  0  0
 12 16  1  0  0  0  0
 12 13  2  0  0  0  0
 13 14  1  0  0  0  0
 13 36  1  0  0  0  0
 14 15  2  0  0  0  0
 14 37  1  0  0  0  0
 15 16  1  0  0  0  0
 16 17  1  0  0  0  0
 17 38  1  0  0  0  0
 17 39  1  0  0  0  0
 17 40  1  0  0  0  0
 18 19  1  0  0  0  0
 18 41  1  0  0  0  0
 18 42  1  0  0  0  0
 19 20  1  0  0  0  0
 19 43  1  0  0  0  0
 19 44  1  0  0  0  0
M  END
> <s_m_source_file>
AV-unprocessed.smi

> <i_m_source_file_index>
2600

> <i_lp_mmshare_version>
43012

> <i_f3d_flags>
0

> <s_epik_input>
W0NIM11bQ0gyXVtDQEBdMShbQ0gzXSlbQ0gyXU4oW0NIMl1bQ0gyXU8xKUMoPU8pW05IXVtDSDJdW0NIMl1jMltjSF1bY0hdbm4yW0NIM10=

> <s_epik_cmdline>
J2VwaWtfcHl0aG9uJywgJy1waCcsICc3LjAnLCAnLXRuJywgJzgnLCAnLW1hJywgJzIwMCcsICctbWV0YWxfYmluZGluZycsICctaW1hZScsICc8aW5maWxlLm1hZT4nLCAnLW9tYWUnLCAnPG91dGZpbGUubWFlPic=

> <r_lp_tautomer_probability>
1

> <r_epik_Ionization_Penalty>
0.00252014

> <r_epik_Ionization_Penalty_Charging>
0

> <r_epik_Ionization_Penalty_Neutral>
0.00252014

> <r_epik_State_Penalty>
0.00172506

> <r_epik_Charging_Adjusted_Penalty>
0.00172506

> <i_epik_Tot_Q>
0

> <i_epik_Tot_abs_Q>
0

> <r_epik_Metal_State_Penalty>
-0

> <b_epik_Metal_Only>
0

> <s_lp_Force_Field>
OPLS_2005

> <r_lp_Energy>
28.913

> <b_lp_Chiralities_Consistent>
1

> <s_lp_Variant>
AV-unprocessed.smi:2600-1

> <Gold.Version>
5.8.1

> <Gold.Id.Protein>
6NUR|6NUR_protein|mol2

> <Gold.PLP.Fitness>
42.8049

> <Gold.PLP.PLP>
-39.1617

> <Gold.PLP.part.hbond>
-2.0000

> <Gold.PLP.part.metal>
0.0000

> <Gold.PLP.part.buried>
2.8028

> <Gold.PLP.part.nonpolar>
-40.5184

> <Gold.PLP.part.repulsive>
0.4664

> <Gold.PLP.ligand.clash>
0.0000

> <Gold.PLP.ligand.torsion>
1.0946

> <Gold.PLP.Chemscore.Hbond>
1.9120

> <Gold.PLP.Chemscore.CHOScore>
0.0000

> <Gold.PLP.Chemscore.Metal>
0.0000

> <Gold.Chemscore.Hbonds>
donor molecule, donor type, donor heavy atom, donor atom, acceptor molecule, acceptor atom, score
      L1  H     9    31       P1  8028  0.78
      P1  H  7989  7998       L1     8  1.00

> <Gold.PLP.Chemscore.Internal.Correction>
0.0965

> <Gold.Rescore>
     Score         DG    S(hbond)    S(metal)    S(lipo)     H(rot)  DE(clash)    DE(int)     intcor
     15.67     -19.01       1.55        0.00     103.53       1.47       2.26       1.08       ----

> <Gold.Chemscore.Fitness>
15.6723

> <Gold.Chemscore.DG>
-19.0115

> <Gold.Chemscore.ZeroCoef>
-5.4800

> <Gold.Chemscore.Hbond>
1.5540

> <Gold.Chemscore.Metal>
0.0000

> <Gold.Chemscore.Lipo>
103.5316

> <Gold.Chemscore.Internal_Hbond>
0.0000

> <Gold.Chemscore.DEClash>
2.2552

> <Gold.Chemscore.DEInternal>
1.0841

> <Gold.Chemscore.Rot>
1.4735

> <Gold.Chemscore.Internal.Correction>
   9.000000E+99

> <Gold.Chemscore.Hbonds>
donor molecule, donor type, donor heavy atom, donor atom, acceptor molecule, acceptor atom, score
      L1  H     9    31       P1  8028  0.78
      P1  H  7989  7998       L1     8  0.48

> <Gold.Chemscore.Hbond.Weighted>
-5.1904

> <Gold.Chemscore.Metal.Weighted>
-0.0000

> <Gold.Chemscore.Lipo.Weighted>
-12.1132

> <Gold.Chemscore.Internal_Hbond.Weighted>
0.0000

> <Gold.Chemscore.DEClash.Weighted>
2.2552

> <Gold.Chemscore.DEInternal.Weighted>
1.0841

> <Gold.Chemscore.Rot.Weighted>
3.7721

> <Gold.Chemscore.Internal.Correction.Weighted>
   9.000000E+99

> <Gold.Protein.RotatedTorsions>
[ 6907 6896 6895 6894 ] final  -51.90 input  -60.11 | X-H torsion
[ 7974 7965 7964 7962 ] final -176.07 input  175.53 | X-H torsion
[ 8008 7997 7996 7995 ] final -123.92 input   59.86 | X-H torsion
[ 10167 10162 10161 10158 ] final  -85.23 input  -65.29 | X-H torsion
[ 10718 10713 10712 10709 ] final  177.10 input   66.30 | X-H torsion
[ 10763 10752 10751 10750 ] final -123.23 input  -60.55 | X-H torsion
[ 11005 11000 10999 10996 ] final  179.23 input  -57.11 | X-H torsion

> <Gold.Protein.ActiveResidues>
 VAL166  LYS551  ARG553  GLY616  TRP617  ASP618  TYR619  PRO620  LYS621  CYS622 
 ASP623  PHE694  ASN695  SER759  ASP760  ASP761  ALA762  ILE779  LEU786  VAL792 
 PHE793  MET794  SER795  GLU796  ALA797  LYS798  CYS799  TRP800  GLU811  SER814 

> <Gold.Protein.RotatedAtoms>
  150.8568  134.7909  159.7051 H   0  0  0  0  0  0  0  0  0  0  0  0  # atno 6907 bound_to 6896
  152.4617  134.5165  159.9779 H   0  0  0  0  0  0  0  0  0  0  0  0  # atno 6908 bound_to 6896
  151.5276  133.3417  159.2948 H   0  0  0  0  0  0  0  0  0  0  0  0  # atno 6909 bound_to 6896
  144.7127  140.1225  143.6404 H   0  0  0  0  0  0  0  0  0  0  0  0  # atno 7974 bound_to 7965
  155.1884  140.0412  157.2896 H   0  0  0  0  0  0  0  0  0  0  0  0  # atno 8008 bound_to 7997
  154.6155  140.2487  155.7587 H   0  0  0  0  0  0  0  0  0  0  0  0  # atno 8009 bound_to 7997
  156.2404  140.2906  156.0438 H   0  0  0  0  0  0  0  0  0  0  0  0  # atno 8010 bound_to 7997
  140.4057  143.2643  151.9084 H   0  0  0  0  0  0  0  0  0  0  0  0  # atno 10167 bound_to 10162
  156.9103  130.9907  151.3022 H   0  0  0  0  0  0  0  0  0  0  0  0  # atno 10718 bound_to 10713
  154.8704  135.4105  154.2910 H   0  0  0  0  0  0  0  0  0  0  0  0  # atno 10763 bound_to 10752
  153.3786  135.7010  153.6588 H   0  0  0  0  0  0  0  0  0  0  0  0  # atno 10764 bound_to 10752
  153.5420  135.3646  155.2694 H   0  0  0  0  0  0  0  0  0  0  0  0  # atno 10765 bound_to 10752
  140.4038  134.6753  157.4577 H   0  0  0  0  0  0  0  0  0  0  0  0  # atno 11005 bound_to 11000
  145.9358  139.2636  143.1298 LP  0  0  0  0  0  0  0  0  0  0  0  0  # atno 17320 bound_to 7965
  145.9475  140.8933  143.0276 LP  0  0  0  0  0  0  0  0  0  0  0  0  # atno 17321 bound_to 7965
  139.4783  144.5588  151.8271 LP  0  0  0  0  0  0  0  0  0  0  0  0  # atno 17342 bound_to 10162
  140.4692  144.1611  150.5915 LP  0  0  0  0  0  0  0  0  0  0  0  0  # atno 17343 bound_to 10162
  157.5972  130.8486  149.8746 LP  0  0  0  0  0  0  0  0  0  0  0  0  # atno 17370 bound_to 10713
  156.0539  130.3712  150.1136 LP  0  0  0  0  0  0  0  0  0  0  0  0  # atno 17371 bound_to 10713
  140.0317  134.6397  155.9098 LP  0  0  0  0  0  0  0  0  0  0  0  0  # atno 17394 bound_to 11000
  141.1847  133.6553  156.5166 LP  0  0  0  0  0  0  0  0  0  0  0  0  # atno 17395 bound_to 11000

$$$$
