#       Name:                AV-unprocessed.smi:905
#       Creating user name   scv26
#       Creation time:       Fri Mar 27 01:59:05 2020


#       File generated by GOLD software.
#

@<TRIPOS>MOLECULE
AV-unprocessed.smi:905
    43    44     1
SMALL
NO_CHARGES


@<TRIPOS>ATOM
      1 ****        -3.8004   6.5519   2.1774 N.pl3          1 S1                 0.0000
      2 ****        -3.3130   5.4615   1.4387 C.2            1 S1                 0.0000
      3 ****        -3.4004   5.3946   0.1172 N.2            1 S1                 0.0000
      4 ****        -2.7958   4.1656  -0.1838 O.3            1 S1                 0.0000
      5 ****        -2.4321   3.6316   1.0071 C.2            1 S1                 0.0000
      6 ****        -1.7120   2.3252   1.0204 C.3            1 S1                 0.0000
      7 ****        -0.1993   2.4875   0.7976 C.3            1 S1                 0.0000
      8 ****         0.4897   1.2020   0.8111 N.am           1 S1                 0.0000
      9 ****         0.5130   0.3374  -0.2129 C.2            1 S1                 0.0000
     10 ****        -0.0524   0.5306  -1.2893 O.2            1 S1                 0.0000
     11 ****         1.2208  -0.7634   0.0775 N.am           1 S1                 0.0000
     12 ****         1.4260  -1.8912  -0.8269 C.3            1 S1                 0.0000
     13 ****         0.2216  -2.8547  -0.7780 C.3            1 S1                 0.0000
     14 ****         0.4502  -4.0856  -1.6701 C.3            1 S1                 0.0000
     15 ****         1.7534  -4.8107  -1.2993 C.3            1 S1                 0.0000
     16 ****         2.9551  -3.8539  -1.3509 C.3            1 S1                 0.0000
     17 ****         2.7280  -2.6257  -0.4547 C.3            1 S1                 0.0000
     18 ****        -2.7140   4.4058   2.0524 N.2            1 S1                 0.0000
     19 ****        -3.7118   6.5667   3.1831 H              1 S1                 0.0000
     20 ****        -4.2314   7.3350   1.7079 H              1 S1                 0.0000
     21 ****        -1.9008   1.8327   1.9753 H              1 S1                 0.0000
     22 ****        -2.1461   1.6877   0.2493 H              1 S1                 0.0000
     23 ****        -0.0049   3.0024  -0.1450 H              1 S1                 0.0000
     24 ****         0.2270   3.1099   1.5852 H              1 S1                 0.0000
     25 ****         0.9851   0.9569   1.6559 H              1 S1                 0.0000
     26 ****         1.6480  -0.8288   0.9898 H              1 S1                 0.0000
     27 ****         1.5324  -1.5131  -1.8456 H              1 S1                 0.0000
     28 ****         0.0496  -3.1798   0.2490 H              1 S1                 0.0000
     29 ****        -0.6866  -2.3404  -1.0947 H              1 S1                 0.0000
     30 ****        -0.3942  -4.7700  -1.5819 H              1 S1                 0.0000
     31 ****         0.4891  -3.7758  -2.7152 H              1 S1                 0.0000
     32 ****         1.6647  -5.2324  -0.2973 H              1 S1                 0.0000
     33 ****         1.9170  -5.6508  -1.9749 H              1 S1                 0.0000
     34 ****         3.8606  -4.3770  -1.0423 H              1 S1                 0.0000
     35 ****         3.1205  -3.5295  -2.3792 H              1 S1                 0.0000
     36 ****         3.5782  -1.9477  -0.5410 H              1 S1                 0.0000
     37 ****         2.6905  -2.9430   0.5886 H              1 S1                 0.0000
     38 ****        -3.8009   6.0600  -0.5128 LP             1 S1                 0.0000
     39 ****        -1.9925   4.3052  -0.7627 LP             1 S1                 0.0000
     40 ****        -3.4435   3.5643  -0.6519 LP             1 S1                 0.0000
     41 ****        -0.5682   1.3742  -1.4389 LP             1 S1                 0.0000
     42 ****         0.0040  -0.1561  -2.0141 LP             1 S1                 0.0000
     43 ****        -2.5344   4.2529   3.0241 LP             1 S1                 0.0000
@<TRIPOS>BOND
    1    1    2 1     
    2    1   19 1     
    3    1   20 1     
    4    2   18 1     
    5    2    3 2     
    6    3    4 1     
    7    4    5 1     
    8    5    6 1     
    9    5   18 2     
   10    6    7 1     
   11    6   21 1     
   12    6   22 1     
   13    7    8 1     
   14    7   23 1     
   15    7   24 1     
   16    8    9 am    
   17    8   25 1     
   18    9   10 2     
   19    9   11 am    
   20   11   12 1     
   21   11   26 1     
   22   12   17 1     
   23   12   13 1     
   24   12   27 1     
   25   13   14 1     
   26   13   28 1     
   27   13   29 1     
   28   14   15 1     
   29   14   30 1     
   30   14   31 1     
   31   15   16 1     
   32   15   32 1     
   33   15   33 1     
   34   16   17 1     
   35   16   34 1     
   36   16   35 1     
   37   17   36 1     
   38   17   37 1     
   39    3   38 1     
   40    4   39 1     
   41    4   40 1     
   42   10   41 1     
   43   10   42 1     
   44   18   43 1     
@<TRIPOS>SUBSTRUCTURE
      1 S1             1
@<TRIPOS>SET
LONE_PAIRS      STATIC     ATOMS    <user>   **** ""
6 38 39 40 41 42 43
DONOR_HYDROGENS      STATIC     ATOMS    <user>   **** ""
4 19 20 25 26
ATOM$BLUE        STATIC     ATOMS    COLORGROUP SYSTEM
6 38 39 40 41 42 43
ATOM$RED        STATIC     ATOMS    COLORGROUP SYSTEM
4 19 20 25 26
