#       Name:                AV-unprocessed.smi:111
#       Creating user name   scv26
#       Creation time:       Thu Mar 26 18:17:24 2020


#       File generated by GOLD software.
#

@<TRIPOS>MOLECULE
AV-unprocessed.smi:111
    54    56     1
SMALL
NO_CHARGES


@<TRIPOS>ATOM
      1 ****         0.0415   1.1168  -3.7619 O.2            1 S1                 0.0000
      2 ****        -0.4704   1.2880  -2.6542 C.2            1 S1                 0.0000
      3 ****        -0.4108   2.5514  -1.9298 C.2            1 S1                 0.0000
      4 ****         0.1785   3.6165  -2.4992 F              1 S1                 0.0000
      5 ****        -0.9533   2.6764  -0.6996 C.2            1 S1                 0.0000
      6 ****        -1.5726   1.6319  -0.0315 N.am           1 S1                 0.0000
      7 ****        -2.2450   1.8339   1.3115 C.3            1 S1                 0.0000
      8 ****        -1.5837   2.9077   2.1936 C.3            1 S1                 0.0000
      9 ****        -2.5558   4.0658   2.0786 C.3            1 S1                 0.0000
     10 ****        -3.8817   3.3369   1.8977 C.3            1 S1                 0.0000
     11 ****        -3.5616   2.2296   1.0653 O.3            1 S1                 0.0000
     12 ****        -1.7461   0.3947  -0.6941 C.2            1 S1                 0.0000
     13 ****        -2.3608  -0.5294  -0.1562 O.2            1 S1                 0.0000
     14 ****        -1.1717   0.2579  -1.9825 N.am           1 S1                 0.0000
     15 ****        -1.2874  -1.0232  -2.6681 C.3            1 S1                 0.0000
     16 ****        -0.0832  -1.9889  -2.5031 C.3            1 S1                 0.0000
     17 ****         0.7401  -1.8886  -3.6479 O.3            1 S1                 0.0000
     18 ****         0.7598  -1.8203  -1.2210 C.3            1 S1                 0.0000
     19 ****         1.8182  -2.9194  -1.0341 C.3            1 S1                 0.0000
     20 ****         2.5752  -2.7627   0.2709 C.ar           1 S1                 0.0000
     21 ****         3.6831  -1.8924   0.3461 C.ar           1 S1                 0.0000
     22 ****         4.3833  -1.7413   1.5589 C.ar           1 S1                 0.0000
     23 ****         3.9778  -2.4590   2.7008 C.ar           1 S1                 0.0000
     24 ****         2.8713  -3.3277   2.6298 C.ar           1 S1                 0.0000
     25 ****         2.1705  -3.4791   1.4172 C.ar           1 S1                 0.0000
     26 ****        -0.8944   3.6480  -0.2359 H              1 S1                 0.0000
     27 ****        -2.2177   0.8663   1.8150 H              1 S1                 0.0000
     28 ****        -1.5699   2.5399   3.2203 H              1 S1                 0.0000
     29 ****        -0.5571   3.1354   1.9071 H              1 S1                 0.0000
     30 ****        -2.5457   4.7199   2.9510 H              1 S1                 0.0000
     31 ****        -2.3373   4.6696   1.1978 H              1 S1                 0.0000
     32 ****        -4.2513   2.9690   2.8560 H              1 S1                 0.0000
     33 ****        -4.6524   3.9653   1.4511 H              1 S1                 0.0000
     34 ****        -2.1973  -1.5050  -2.3091 H              1 S1                 0.0000
     35 ****        -1.5111  -0.8133  -3.7165 H              1 S1                 0.0000
     36 ****        -0.4810  -3.0043  -2.5168 H              1 S1                 0.0000
     37 ****         1.0576  -1.0003  -3.7123 H              1 S1                 0.0000
     38 ****         1.2458  -0.8437  -1.2151 H              1 S1                 0.0000
     39 ****         0.0957  -1.8419  -0.3567 H              1 S1                 0.0000
     40 ****         1.3454  -3.9022  -1.0577 H              1 S1                 0.0000
     41 ****         2.5327  -2.9025  -1.8581 H              1 S1                 0.0000
     42 ****         3.9965  -1.3368  -0.5259 H              1 S1                 0.0000
     43 ****         5.2309  -1.0742   1.6134 H              1 S1                 0.0000
     44 ****         4.5147  -2.3428   3.6309 H              1 S1                 0.0000
     45 ****         2.5594  -3.8773   3.5057 H              1 S1                 0.0000
     46 ****         1.3211  -4.1448   1.3707 H              1 S1                 0.0000
     47 ****        -0.0316   0.2281  -4.2146 LP             1 S1                 0.0000
     48 ****         0.5300   1.8666  -4.2083 LP             1 S1                 0.0000
     49 ****        -4.1816   1.4709   1.2652 LP             1 S1                 0.0000
     50 ****        -3.6572   2.4942   0.1056 LP             1 S1                 0.0000
     51 ****        -2.7438  -0.4089   0.7596 LP             1 S1                 0.0000
     52 ****        -2.4762  -1.3992  -0.6360 LP             1 S1                 0.0000
     53 ****         0.2111  -2.1178  -4.4650 LP             1 S1                 0.0000
     54 ****         1.5128  -2.5177  -3.5639 LP             1 S1                 0.0000
@<TRIPOS>BOND
    1    1    2 2     
    2    2   14 am    
    3    2    3 1     
    4    3    4 1     
    5    3    5 2     
    6    5    6 1     
    7    5   26 1     
    8    6    7 1     
    9    6   12 am    
   10    7   11 1     
   11    7    8 1     
   12    7   27 1     
   13    8    9 1     
   14    8   28 1     
   15    8   29 1     
   16    9   10 1     
   17    9   30 1     
   18    9   31 1     
   19   10   11 1     
   20   10   32 1     
   21   10   33 1     
   22   12   13 2     
   23   12   14 am    
   24   14   15 1     
   25   15   16 1     
   26   15   34 1     
   27   15   35 1     
   28   16   17 1     
   29   16   18 1     
   30   16   36 1     
   31   17   37 1     
   32   18   19 1     
   33   18   38 1     
   34   18   39 1     
   35   19   20 1     
   36   19   40 1     
   37   19   41 1     
   38   20   25 ar    
   39   20   21 ar    
   40   21   22 ar    
   41   21   42 1     
   42   22   23 ar    
   43   22   43 1     
   44   23   24 ar    
   45   23   44 1     
   46   24   25 ar    
   47   24   45 1     
   48   25   46 1     
   49    1   47 1     
   50    1   48 1     
   51   11   49 1     
   52   11   50 1     
   53   13   51 1     
   54   13   52 1     
   55   17   53 1     
   56   17   54 1     
@<TRIPOS>SUBSTRUCTURE
      1 S1             1
@<TRIPOS>SET
LONE_PAIRS      STATIC     ATOMS    <user>   **** ""
8 47 48 49 50 51 52 53 54
DONOR_HYDROGENS      STATIC     ATOMS    <user>   **** ""
1 37
ATOM$BLUE        STATIC     ATOMS    COLORGROUP SYSTEM
8 47 48 49 50 51 52 53 54
ATOM$RED        STATIC     ATOMS    COLORGROUP SYSTEM
1 37
