#       Name:                AV-unprocessed.smi:1006
#       Creating user name   scv26
#       Creation time:       Fri Mar 27 02:32:58 2020


#       File generated by GOLD software.
#

@<TRIPOS>MOLECULE
AV-unprocessed.smi:1006
    50    52     1
SMALL
NO_CHARGES


@<TRIPOS>ATOM
      1 ****        -7.4961   2.5598   0.3833 C.3            1 S1                 0.0000
      2 ****        -6.2763   1.9377  -0.2625 C.ar           1 S1                 0.0000
      3 ****        -6.2511   1.5844  -1.6270 C.ar           1 S1                 0.0000
      4 ****        -5.0612   1.0153  -2.1131 C.ar           1 S1                 0.0000
      5 ****        -4.9436   0.6366  -3.4479 N.pl3          1 S1                 0.0000
      6 ****        -3.9962   0.8172  -1.3109 N.ar           1 S1                 0.0000
      7 ****        -4.0867   1.1767  -0.0234 C.ar           1 S1                 0.0000
      8 ****        -2.6868   0.9430   1.0583 S.3            1 S1                 0.0000
      9 ****        -1.6049  -0.1495   0.0837 C.3            1 S1                 0.0000
     10 ****        -0.3275  -0.5255   0.8525 C.3            1 S1                 0.0000
     11 ****         0.4572   0.6365   1.0400 O.3            1 S1                 0.0000
     12 ****         0.4963  -1.6000   0.1164 C.3            1 S1                 0.0000
     13 ****         1.7005  -2.0028   0.8582 N.pl3          1 S1                 0.0000
     14 ****         1.8384  -2.9176   1.8563 C.2            1 S1                 0.0000
     15 ****         3.1503  -2.9354   2.2199 N.pl3          1 S1                 1.0000
     16 ****         3.8618  -2.0187   1.4431 C.ar           1 S1                 0.0000
     17 ****         5.2100  -1.6812   1.4421 C.ar           1 S1                 0.0000
     18 ****         5.6274  -0.6954   0.5198 C.ar           1 S1                 0.0000
     19 ****         7.0949  -0.3034   0.4921 C.3            1 S1                 0.0000
     20 ****         4.7004  -0.0818  -0.3621 C.ar           1 S1                 0.0000
     21 ****         5.1592   0.9800  -1.3471 C.3            1 S1                 0.0000
     22 ****         3.3334  -0.4399  -0.3457 C.ar           1 S1                 0.0000
     23 ****         2.9381  -1.4149   0.5675 C.ar           1 S1                 0.0000
     24 ****        -5.1844   1.7274   0.5147 N.pl3          1 S1                 1.0000
     25 ****        -8.3766   2.4427  -0.2494 H              1 S1                 0.0000
     26 ****        -7.3335   3.6250   0.5492 H              1 S1                 0.0000
     27 ****        -7.7053   2.0884   1.3442 H              1 S1                 0.0000
     28 ****        -7.1059   1.7446  -2.2683 H              1 S1                 0.0000
     29 ****        -5.7030   0.7580  -4.1024 H              1 S1                 0.0000
     30 ****        -4.0831   0.2541  -3.8132 H              1 S1                 0.0000
     31 ****        -2.1672  -1.0515  -0.1602 H              1 S1                 0.0000
     32 ****        -1.3469   0.3342  -0.8594 H              1 S1                 0.0000
     33 ****        -0.6027  -0.9073   1.8367 H              1 S1                 0.0000
     34 ****        -0.0519   1.2681   1.5253 H              1 S1                 0.0000
     35 ****        -0.1069  -2.4984  -0.0205 H              1 S1                 0.0000
     36 ****         0.7790  -1.2694  -0.8831 H              1 S1                 0.0000
     37 ****         1.0501  -3.5206   2.2835 H              1 S1                 0.0000
     38 ****         5.9095  -2.1511   2.1181 H              1 S1                 0.0000
     39 ****         7.5313  -0.5259  -0.4818 H              1 S1                 0.0000
     40 ****         7.6669  -0.8459   1.2455 H              1 S1                 0.0000
     41 ****         7.2118   0.7623   0.6896 H              1 S1                 0.0000
     42 ****         4.3327   1.3382  -1.9614 H              1 S1                 0.0000
     43 ****         5.9217   0.5795  -2.0158 H              1 S1                 0.0000
     44 ****         5.5767   1.8372  -0.8187 H              1 S1                 0.0000
     45 ****         2.6285   0.0328  -1.0131 H              1 S1                 0.0000
     46 ****        -5.2065   1.9882   1.5007 H              1 S1                 0.0000
     47 ****         3.5294  -3.5299   2.9459 H              1 S1                 0.0000
     48 ****        -3.1560   0.4103  -1.6693 LP             1 S1                 0.0000
     49 ****         0.7108   1.0190   0.1515 LP             1 S1                 0.0000
     50 ****         1.2846   0.4055   1.5519 LP             1 S1                 0.0000
@<TRIPOS>BOND
    1    1    2 1     
    2    1   25 1     
    3    1   26 1     
    4    1   27 1     
    5    2   24 ar    
    6    2    3 ar    
    7    3    4 ar    
    8    3   28 1     
    9    4    5 1     
   10    4    6 ar    
   11    5   29 1     
   12    5   30 1     
   13    6    7 ar    
   14    7    8 1     
   15    7   24 ar    
   16    8    9 1     
   17    9   10 1     
   18    9   31 1     
   19    9   32 1     
   20   10   11 1     
   21   10   12 1     
   22   10   33 1     
   23   11   34 1     
   24   12   13 1     
   25   12   35 1     
   26   12   36 1     
   27   13   23 1     
   28   13   14 1     
   29   14   15 2     
   30   14   37 1     
   31   15   16 1     
   32   15   47 1     
   33   16   23 ar    
   34   16   17 ar    
   35   17   18 ar    
   36   17   38 1     
   37   18   19 1     
   38   18   20 ar    
   39   19   39 1     
   40   19   40 1     
   41   19   41 1     
   42   20   21 1     
   43   20   22 ar    
   44   21   42 1     
   45   21   43 1     
   46   21   44 1     
   47   22   23 ar    
   48   22   45 1     
   49   24   46 1     
   50    6   48 1     
   51   11   49 1     
   52   11   50 1     
@<TRIPOS>SUBSTRUCTURE
      1 S1             1
@<TRIPOS>SET
LONE_PAIRS      STATIC     ATOMS    <user>   **** ""
3 48 49 50
DONOR_HYDROGENS      STATIC     ATOMS    <user>   **** ""
5 29 30 34 47 46
ATOM$BLUE        STATIC     ATOMS    COLORGROUP SYSTEM
3 48 49 50
ATOM$RED        STATIC     ATOMS    COLORGROUP SYSTEM
5 29 30 34 47 46
