#       Name:                AV-unprocessed.smi:101
#       Creating user name   scv26
#       Creation time:       Thu Mar 26 17:44:59 2020


#       File generated by GOLD software.
#

@<TRIPOS>MOLECULE
AV-unprocessed.smi:101
    56    58     1
SMALL
NO_CHARGES


@<TRIPOS>ATOM
      1 ****        -3.2039   2.2344  -3.3258 C.3            1 S1                 0.0000
      2 ****        -3.4496   2.2823  -1.8277 C.2            1 S1                 0.0000
      3 ****        -2.4435   2.2038  -0.9283 C.2            1 S1                 0.0000
      4 ****        -2.6706   2.2425   0.4387 N.am           1 S1                 0.0000
      5 ****        -1.5351   2.1776   1.4493 C.3            1 S1                 0.0000
      6 ****        -0.3034   2.1618   0.7914 O.3            1 S1                 0.0000
      7 ****         0.1255   0.8189   0.6142 C.3            1 S1                 0.0000
      8 ****         1.6416   0.7927   0.3839 C.3            1 S1                 0.0000
      9 ****         2.0462  -0.5273   0.0590 O.3            1 S1                 0.0000
     10 ****         3.3546  -0.8391  -0.0059 C.2            1 S1                 0.0000
     11 ****         4.2605  -0.0287   0.1999 O.2            1 S1                 0.0000
     12 ****         3.5917  -2.2698  -0.3545 C.ar           1 S1                 0.0000
     13 ****         4.9191  -2.7461  -0.4642 C.ar           1 S1                 0.0000
     14 ****         5.1733  -4.0912  -0.7956 C.ar           1 S1                 0.0000
     15 ****         4.1035  -4.9767  -1.0214 C.ar           1 S1                 0.0000
     16 ****         2.7785  -4.5156  -0.9138 C.ar           1 S1                 0.0000
     17 ****         2.5219  -3.1710  -0.5816 C.ar           1 S1                 0.0000
     18 ****        -0.3291   0.1292   1.9020 C.3            1 S1                 0.0000
     19 ****        -0.6154  -1.2330   1.6528 O.3            1 S1                 0.0000
     20 ****        -1.6013   0.8822   2.2910 C.3            1 S1                 0.0000
     21 ****        -1.5903   1.1633   3.6760 O.3            1 S1                 0.0000
     22 ****        -3.9956   2.4314   0.9156 C.2            1 S1                 0.0000
     23 ****        -4.1635   2.5266   2.1314 O.2            1 S1                 0.0000
     24 ****        -5.0178   2.5020   0.0166 N.pl3          1 S1                -1.0000
     25 ****        -4.8226   2.4254  -1.3304 C.2            1 S1                 0.0000
     26 ****        -5.7560   2.4767  -2.1308 O.2            1 S1                 0.0000
     27 ****        -2.1410   2.1432  -3.5516 H              1 S1                 0.0000
     28 ****        -3.5737   3.1428  -3.8024 H              1 S1                 0.0000
     29 ****        -3.7174   1.3798  -3.7671 H              1 S1                 0.0000
     30 ****        -1.4373   2.1161  -1.3065 H              1 S1                 0.0000
     31 ****        -1.6304   3.0984   2.0277 H              1 S1                 0.0000
     32 ****        -0.3943   0.3977  -0.2478 H              1 S1                 0.0000
     33 ****         1.9050   1.4568  -0.4401 H              1 S1                 0.0000
     34 ****         2.1646   1.1497   1.2723 H              1 S1                 0.0000
     35 ****         5.7569  -2.0847  -0.2965 H              1 S1                 0.0000
     36 ****         6.1911  -4.4434  -0.8769 H              1 S1                 0.0000
     37 ****         4.2991  -6.0077  -1.2767 H              1 S1                 0.0000
     38 ****         1.9562  -5.1944  -1.0860 H              1 S1                 0.0000
     39 ****         1.4929  -2.8504  -0.5065 H              1 S1                 0.0000
     40 ****         0.4370   0.2210   2.6738 H              1 S1                 0.0000
     41 ****        -0.9798  -1.6087   2.4396 H              1 S1                 0.0000
     42 ****        -2.4982   0.3133   2.0400 H              1 S1                 0.0000
     43 ****        -0.8483   1.7175   3.8626 H              1 S1                 0.0000
     44 ****         0.3719   2.6575   1.3375 LP             1 S1                 0.0000
     45 ****        -0.3976   2.6017  -0.1017 LP             1 S1                 0.0000
     46 ****         4.0406   0.9194   0.4296 LP             1 S1                 0.0000
     47 ****         5.2152  -0.3194   0.1371 LP             1 S1                 0.0000
     48 ****         0.2250  -1.7153   1.4057 LP             1 S1                 0.0000
     49 ****        -1.2752  -1.3085   0.9052 LP             1 S1                 0.0000
     50 ****        -1.5133   0.3107   4.1929 LP             1 S1                 0.0000
     51 ****        -2.4353   1.6330   3.9318 LP             1 S1                 0.0000
     52 ****        -3.3800   2.4705   2.7503 LP             1 S1                 0.0000
     53 ****        -5.0834   2.6601   2.5002 LP             1 S1                 0.0000
     54 ****        -5.9503   2.6148   0.3597 LP             1 S1                 0.0000
     55 ****        -5.5762   2.4209  -3.1129 LP             1 S1                 0.0000
     56 ****        -6.6944   2.5742  -1.7991 LP             1 S1                 0.0000
@<TRIPOS>BOND
    1    1    2 1     
    2    1   27 1     
    3    1   28 1     
    4    1   29 1     
    5    2   25 1     
    6    2    3 2     
    7    3    4 1     
    8    3   30 1     
    9    4    5 1     
   10    4   22 am    
   11    5   20 1     
   12    5    6 1     
   13    5   31 1     
   14    6    7 1     
   15    7    8 1     
   16    7   18 1     
   17    7   32 1     
   18    8    9 1     
   19    8   33 1     
   20    8   34 1     
   21    9   10 1     
   22   10   11 2     
   23   10   12 1     
   24   12   17 ar    
   25   12   13 ar    
   26   13   14 ar    
   27   13   35 1     
   28   14   15 ar    
   29   14   36 1     
   30   15   16 ar    
   31   15   37 1     
   32   16   17 ar    
   33   16   38 1     
   34   17   39 1     
   35   18   19 1     
   36   18   20 1     
   37   18   40 1     
   38   19   41 1     
   39   20   21 1     
   40   20   42 1     
   41   21   43 1     
   42   22   23 2     
   43   22   24 1     
   44   24   25 1     
   45   25   26 2     
   46    6   44 1     
   47    6   45 1     
   48   11   46 1     
   49   11   47 1     
   50   19   48 1     
   51   19   49 1     
   52   21   50 1     
   53   21   51 1     
   54   23   52 1     
   55   23   53 1     
   56   24   54 1     
   57   26   55 1     
   58   26   56 1     
@<TRIPOS>SUBSTRUCTURE
      1 S1             1
@<TRIPOS>SET
LONE_PAIRS      STATIC     ATOMS    <user>   **** ""
13 44 45 46 47 48 49 50 51 52 53 54 55 56
DONOR_HYDROGENS      STATIC     ATOMS    <user>   **** ""
2 41 43
ATOM$BLUE        STATIC     ATOMS    COLORGROUP SYSTEM
13 44 45 46 47 48 49 50 51 52 53 54 55 56
ATOM$RED        STATIC     ATOMS    COLORGROUP SYSTEM
2 41 43
