AV-unprocessed.smi:3033|AV-procd|sdf|11576|dock2
  -GOLD-   2272016543D 1   1.00000     0.00000
 Structure written by MMmdl.
 32 33  0  0  0  0  0  0  0  0  2 V2000
  154.1563  140.8075  160.5102 C   0  0  0  0  0  0  0  0  0  0  0  0
  153.8545  142.1948  160.4729 O   0  0  0  0  0  0  0  0  0  0  0  0
  152.9188  142.6304  159.5592 C   0  0  0  0  0  0  0  0  0  0  0  0
  152.6205  144.0081  159.5557 C   0  0  0  0  0  0  0  0  0  0  0  0
  151.6816  144.5390  158.6516 C   0  0  0  0  0  0  0  0  0  0  0  0
  151.0250  143.6923  157.7403 C   0  0  0  0  0  0  0  0  0  0  0  0
  151.3028  142.3085  157.7333 C   0  0  0  0  0  0  0  0  0  0  0  0
  150.6105  141.3775  156.7481 C   0  0  1  0  0  0  0  0  0  0  0  0
  149.6601  142.0658  155.9576 O   0  0  0  0  0  0  0  0  0  0  0  0
  151.6377  140.7050  155.8131 C   0  0  0  0  0  0  0  0  0  0  0  0
  151.3083  139.2965  155.5500 N   0  0  0  0  0  0  0  0  0  0  0  0
  149.9875  138.8836  155.7917 C   0  0  0  0  0  0  0  0  0  0  0  0
  149.5848  137.6153  155.5818 C   0  0  0  0  0  0  0  0  0  0  0  0
  147.9539  137.1357  155.8906 Cl  0  0  0  0  0  0  0  0  0  0  0  0
  150.5703  136.6559  155.0869 C   0  0  0  0  0  0  0  0  0  0  0  0
  150.2350  135.4909  154.8784 O   0  0  0  0  0  0  0  0  0  0  0  0
  151.8423  137.1054  154.8755 N   0  5  0  0  0  0  0  0  0  0  0  0
  152.2335  138.3981  155.0985 C   0  0  0  0  0  0  0  0  0  0  0  0
  153.3896  138.7784  154.9096 O   0  0  0  0  0  0  0  0  0  0  0  0
  152.2515  141.7844  158.6375 C   0  0  0  0  0  0  0  0  0  0  0  0
  154.9092  140.6237  161.2765 H   0  0  0  0  0  0  0  0  0  0  0  0
  154.5633  140.4628  159.5585 H   0  0  0  0  0  0  0  0  0  0  0  0
  153.2767  140.2144  160.7637 H   0  0  0  0  0  0  0  0  0  0  0  0
  153.1200  144.6662  160.2515 H   0  0  0  0  0  0  0  0  0  0  0  0
  151.4669  145.5974  158.6565 H   0  0  0  0  0  0  0  0  0  0  0  0
  150.3106  144.1101  157.0461 H   0  0  0  0  0  0  0  0  0  0  0  0
  150.0707  140.6219  157.3205 H   0  0  0  0  0  0  0  0  0  0  0  0
  149.5680  142.9419  156.2991 H   0  0  0  0  0  0  0  0  0  0  0  0
  151.7440  141.2719  154.8866 H   0  0  0  0  0  0  0  0  0  0  0  0
  152.6273  140.7418  156.2733 H   0  0  0  0  0  0  0  0  0  0  0  0
  149.3282  139.6557  156.1610 H   0  0  0  0  0  0  0  0  0  0  0  0
  152.4558  140.7249  158.6040 H   0  0  0  0  0  0  0  0  0  0  0  0
  1  2  1  0  0  0  0
  1 21  1  0  0  0  0
  1 22  1  0  0  0  0
  1 23  1  0  0  0  0
  2  3  1  0  0  0  0
  3 20  1  0  0  0  0
  3  4  2  0  0  0  0
  4  5  1  0  0  0  0
  4 24  1  0  0  0  0
  5  6  2  0  0  0  0
  5 25  1  0  0  0  0
  6  7  1  0  0  0  0
  6 26  1  0  0  0  0
  7  8  1  0  0  0  0
  7 20  2  0  0  0  0
  8  9  1  0  0  0  0
  8 10  1  0  0  0  0
  8 27  1  0  0  0  0
  9 28  1  0  0  0  0
 10 11  1  0  0  0  0
 10 29  1  0  0  0  0
 10 30  1  0  0  0  0
 11 18  1  0  0  0  0
 11 12  1  0  0  0  0
 12 13  2  0  0  0  0
 12 31  1  0  0  0  0
 13 14  1  0  0  0  0
 13 15  1  0  0  0  0
 15 16  2  0  0  0  0
 15 17  1  0  0  0  0
 17 18  1  0  0  0  0
 18 19  2  0  0  0  0
 20 32  1  0  0  0  0
M  CHG  1  17  -1
M  END
> <s_m_source_file>
AV-unprocessed.smi

> <i_m_source_file_index>
3033

> <i_lp_mmshare_version>
43012

> <i_f3d_flags>
0

> <s_epik_input>
W0NIM11PYzFbY0hdW2NIXVtjSF1jKFtjSF0xKVtDQEhdKFtPSF0pW0NIMl1uMltjSF1jKENsKWMoPU8pW25IXWMyPU8=

> <s_epik_cmdline>
J2VwaWtfcHl0aG9uJywgJy1waCcsICc3LjAnLCAnLXRuJywgJzgnLCAnLW1hJywgJzIwMCcsICctbWV0YWxfYmluZGluZycsICctaW1hZScsICc8aW5maWxlLm1hZT4nLCAnLW9tYWUnLCAnPG91dGZpbGUubWFlPic=

> <r_lp_tautomer_probability>
1

> <r_epik_Ionization_Penalty>
1.7979

> <r_epik_Ionization_Penalty_Charging>
3.23819e-08

> <r_epik_Ionization_Penalty_Neutral>
1.7979

> <r_epik_State_Penalty>
1.91135

> <r_epik_Charging_Adjusted_Penalty>
1.91135

> <i_epik_Tot_Q>
-1

> <i_epik_Tot_abs_Q>
1

> <r_epik_Metal_State_Penalty>
0.014155

> <b_epik_Metal_Only>
0

> <s_lp_Force_Field>
OPLS_2005

> <r_lp_Energy>
25.1118

> <b_lp_Chiralities_Consistent>
1

> <s_lp_Variant>
AV-unprocessed.smi:3033-4

> <Gold.Version>
5.8.1

> <Gold.Id.Protein>
6NUR|6NUR_protein|mol2

> <Gold.PLP.Fitness>
48.9922

> <Gold.PLP.PLP>
-39.5066

> <Gold.PLP.part.hbond>
-3.0000

> <Gold.PLP.part.metal>
0.0000

> <Gold.PLP.part.buried>
-5.1636

> <Gold.PLP.part.nonpolar>
-32.1790

> <Gold.PLP.part.repulsive>
0.4237

> <Gold.PLP.ligand.clash>
0.2669

> <Gold.PLP.ligand.torsion>
0.8070

> <Gold.PLP.Chemscore.Hbond>
3.7760

> <Gold.PLP.Chemscore.CHOScore>
0.0000

> <Gold.PLP.Chemscore.Metal>
0.0000

> <Gold.Chemscore.Hbonds>
donor molecule, donor type, donor heavy atom, donor atom, acceptor molecule, acceptor atom, score
      L1  H     9    28       P1  8028  0.75
      P1  H  7997  8008       L1    19  1.00
      P1  H 10752 10764       L1    17  1.98

> <Gold.PLP.Chemscore.Internal.Correction>
0.0386

> <Gold.Rescore>
     Score         DG    S(hbond)    S(metal)    S(lipo)     H(rot)  DE(clash)    DE(int)     intcor
     17.57     -18.40       2.48        0.00      93.07       2.45       0.01       0.82       ----

> <Gold.Chemscore.Fitness>
17.5686

> <Gold.Chemscore.DG>
-18.3952

> <Gold.Chemscore.ZeroCoef>
-5.4800

> <Gold.Chemscore.Hbond>
2.4837

> <Gold.Chemscore.Metal>
0.0000

> <Gold.Chemscore.Lipo>
93.0699

> <Gold.Chemscore.Internal_Hbond>
0.0000

> <Gold.Chemscore.DEClash>
0.0110

> <Gold.Chemscore.DEInternal>
0.8157

> <Gold.Chemscore.Rot>
2.4491

> <Gold.Chemscore.Internal.Correction>
   9.000000E+99

> <Gold.Chemscore.Hbonds>
donor molecule, donor type, donor heavy atom, donor atom, acceptor molecule, acceptor atom, score
      L1  H     9    28       P1  8028  0.72
      P1  H  7997  8008       L1    19  0.92
      P1  H 10752 10764       L1    17  0.66

> <Gold.Chemscore.Hbond.Weighted>
-8.2957

> <Gold.Chemscore.Metal.Weighted>
-0.0000

> <Gold.Chemscore.Lipo.Weighted>
-10.8892

> <Gold.Chemscore.Internal_Hbond.Weighted>
0.0000

> <Gold.Chemscore.DEClash.Weighted>
0.0110

> <Gold.Chemscore.DEInternal.Weighted>
0.8157

> <Gold.Chemscore.Rot.Weighted>
6.2696

> <Gold.Chemscore.Internal.Correction.Weighted>
   9.000000E+99

> <Gold.Protein.RotatedTorsions>
[ 6907 6896 6895 6894 ] final  155.84 input  -60.11 | X-H torsion
[ 7974 7965 7964 7962 ] final -127.31 input  175.53 | X-H torsion
[ 8008 7997 7996 7995 ] final  -13.24 input   59.86 | X-H torsion
[ 10167 10162 10161 10158 ] final  -83.38 input  -65.29 | X-H torsion
[ 10718 10713 10712 10709 ] final  -42.96 input   66.30 | X-H torsion
[ 10763 10752 10751 10750 ] final  -71.88 input  -60.55 | X-H torsion
[ 11005 11000 10999 10996 ] final  -99.54 input  -57.11 | X-H torsion

> <Gold.Protein.ActiveResidues>
 VAL166  LYS551  ARG553  GLY616  TRP617  ASP618  TYR619  PRO620  LYS621  CYS622 
 ASP623  PHE694  ASN695  SER759  ASP760  ASP761  ALA762  ILE779  LEU786  VAL792 
 PHE793  MET794  SER795  GLU796  ALA797  LYS798  CYS799  TRP800  GLU811  SER814 

> <Gold.Protein.RotatedAtoms>
  152.0384  133.3967  159.4326 H   0  0  0  0  0  0  0  0  0  0  0  0  # atno 6907 bound_to 6896
  150.6877  134.3442  159.4890 H   0  0  0  0  0  0  0  0  0  0  0  0  # atno 6908 bound_to 6896
  152.1238  134.9186  160.0612 H   0  0  0  0  0  0  0  0  0  0  0  0  # atno 6909 bound_to 6896
  144.9784  140.7616  143.4627 H   0  0  0  0  0  0  0  0  0  0  0  0  # atno 7974 bound_to 7965
  154.5309  140.2255  155.8806 H   0  0  0  0  0  0  0  0  0  0  0  0  # atno 8008 bound_to 7997
  156.1763  140.3110  155.9028 H   0  0  0  0  0  0  0  0  0  0  0  0  # atno 8009 bound_to 7997
  155.3453  140.0452  157.3036 H   0  0  0  0  0  0  0  0  0  0  0  0  # atno 8010 bound_to 7997
  140.4232  143.2576  151.8862 H   0  0  0  0  0  0  0  0  0  0  0  0  # atno 10167 bound_to 10162
  156.2540  130.4190  149.8617 H   0  0  0  0  0  0  0  0  0  0  0  0  # atno 10718 bound_to 10713
  154.4379  135.5948  153.6110 H   0  0  0  0  0  0  0  0  0  0  0  0  # atno 10763 bound_to 10752
  152.9803  135.5991  154.3758 H   0  0  0  0  0  0  0  0  0  0  0  0  # atno 10764 bound_to 10752
  154.3604  135.2841  155.2301 H   0  0  0  0  0  0  0  0  0  0  0  0  # atno 10765 bound_to 10752
  141.1305  133.8329  157.0985 H   0  0  0  0  0  0  0  0  0  0  0  0  # atno 11005 bound_to 11000
  145.2456  139.2053  143.4969 LP  0  0  0  0  0  0  0  0  0  0  0  0  # atno 17320 bound_to 7965
  146.3401  140.2360  142.8594 LP  0  0  0  0  0  0  0  0  0  0  0  0  # atno 17321 bound_to 7965
  139.4783  144.5415  151.8521 LP  0  0  0  0  0  0  0  0  0  0  0  0  # atno 17342 bound_to 10162
  140.4511  144.1854  150.5897 LP  0  0  0  0  0  0  0  0  0  0  0  0  # atno 17343 bound_to 10162
  156.6156  130.8605  151.3464 LP  0  0  0  0  0  0  0  0  0  0  0  0  # atno 17370 bound_to 10713
  157.7225  130.9578  150.1498 LP  0  0  0  0  0  0  0  0  0  0  0  0  # atno 17371 bound_to 10713
  140.0348  134.9883  157.0850 LP  0  0  0  0  0  0  0  0  0  0  0  0  # atno 17394 bound_to 11000
  140.4227  134.1863  155.7165 LP  0  0  0  0  0  0  0  0  0  0  0  0  # atno 17395 bound_to 11000

$$$$
