AV-unprocessed.smi:370|AV-procd|sdf|2437|dock2
  -GOLD-   2262022373D 1   1.00000     0.00000
 Structure written by MMmdl.
 43 44  0  0  0  0  0  0  0  0  2 V2000
  153.9104  141.6008  160.4886 C   0  0  0  0  0  0  0  0  0  0  0  0
  152.7853  142.2007  159.7176 C   0  0  0  0  0  0  0  0  0  0  0  0
  151.9870  141.7270  158.7148 C   0  0  0  0  0  0  0  0  0  0  0  0
  151.1258  142.8239  158.4469 C   0  0  0  0  0  0  0  0  0  0  0  0
  150.1212  142.7342  157.4497 N   0  0  0  0  0  0  0  0  0  0  0  0
  149.9050  141.7192  156.5959 C   0  0  0  0  0  0  0  0  0  0  0  0
  150.5449  140.6678  156.5667 O   0  0  0  0  0  0  0  0  0  0  0  0
  148.8931  141.9927  155.7588 N   0  0  0  0  0  0  0  0  0  0  0  0
  148.3931  141.1038  154.7091 C   0  0  0  0  0  0  0  0  0  0  0  0
  146.8612  141.2267  154.4375 C   0  0  0  0  0  0  0  0  0  0  0  0
  146.1233  140.9569  155.7758 C   0  0  0  0  0  0  0  0  0  0  0  0
  146.4925  142.6587  153.9769 C   0  0  0  0  0  0  0  0  0  0  0  0
  146.4805  140.2068  153.3906 N   0  3  0  0  0  0  0  0  0  0  0  0
  147.2794  140.2206  152.1310 C   0  0  0  0  0  0  0  0  0  0  0  0
  146.6961  139.2382  151.0995 C   0  0  0  0  0  0  0  0  0  0  0  0
  146.6266  137.9315  151.6503 O   0  0  0  0  0  0  0  0  0  0  0  0
  145.7811  137.8911  152.7901 C   0  0  0  0  0  0  0  0  0  0  0  0
  146.3608  138.8033  153.8819 C   0  0  0  0  0  0  0  0  0  0  0  0
  151.3750  143.8720  159.2167 N   0  0  0  0  0  0  0  0  0  0  0  0
  152.4401  143.4780  160.0351 O   0  0  0  0  0  0  0  0  0  0  0  0
  154.1438  140.6009  160.1225 H   0  0  0  0  0  0  0  0  0  0  0  0
  153.6562  141.5237  161.5457 H   0  0  0  0  0  0  0  0  0  0  0  0
  154.8086  142.2121  160.3996 H   0  0  0  0  0  0  0  0  0  0  0  0
  152.0173  140.7524  158.2504 H   0  0  0  0  0  0  0  0  0  0  0  0
  149.5096  143.5333  157.3723 H   0  0  0  0  0  0  0  0  0  0  0  0
  148.4269  142.8830  155.8572 H   0  0  0  0  0  0  0  0  0  0  0  0
  148.9797  141.2727  153.8075 H   0  0  0  0  0  0  0  0  0  0  0  0
  148.6248  140.0837  155.0176 H   0  0  0  0  0  0  0  0  0  0  0  0
  146.4637  141.6179  156.5728 H   0  0  0  0  0  0  0  0  0  0  0  0
  146.2770  139.9328  156.1183 H   0  0  0  0  0  0  0  0  0  0  0  0
  145.0499  141.1310  155.6964 H   0  0  0  0  0  0  0  0  0  0  0  0
  146.6336  143.3849  154.7778 H   0  0  0  0  0  0  0  0  0  0  0  0
  145.4485  142.7290  153.6716 H   0  0  0  0  0  0  0  0  0  0  0  0
  147.1077  142.9918  153.1407 H   0  0  0  0  0  0  0  0  0  0  0  0
  147.2754  141.2032  151.6627 H   0  0  0  0  0  0  0  0  0  0  0  0
  148.3180  139.9653  152.3445 H   0  0  0  0  0  0  0  0  0  0  0  0
  145.7050  139.5602  150.7753 H   0  0  0  0  0  0  0  0  0  0  0  0
  147.3264  139.2115  150.2105 H   0  0  0  0  0  0  0  0  0  0  0  0
  144.7661  138.1912  152.5243 H   0  0  0  0  0  0  0  0  0  0  0  0
  145.7260  136.8634  153.1495 H   0  0  0  0  0  0  0  0  0  0  0  0
  147.3401  138.4214  154.1726 H   0  0  0  0  0  0  0  0  0  0  0  0
  145.7216  138.7350  154.7593 H   0  0  0  0  0  0  0  0  0  0  0  0
  145.5494  140.4736  153.1041 H   0  0  0  0  0  0  0  0  0  0  0  0
  1  2  1  0  0  0  0
  1 21  1  0  0  0  0
  1 22  1  0  0  0  0
  1 23  1  0  0  0  0
  2 20  1  0  0  0  0
  2  3  2  0  0  0  0
  3  4  1  0  0  0  0
  3 24  1  0  0  0  0
  4  5  1  0  0  0  0
  4 19  2  0  0  0  0
  5  6  1  0  0  0  0
  5 25  1  0  0  0  0
  6  7  2  0  0  0  0
  6  8  1  0  0  0  0
  8  9  1  0  0  0  0
  8 26  1  0  0  0  0
  9 10  1  0  0  0  0
  9 27  1  0  0  0  0
  9 28  1  0  0  0  0
 10 11  1  0  0  0  0
 10 12  1  0  0  0  0
 10 13  1  0  0  0  0
 11 29  1  0  0  0  0
 11 30  1  0  0  0  0
 11 31  1  0  0  0  0
 12 32  1  0  0  0  0
 12 33  1  0  0  0  0
 12 34  1  0  0  0  0
 13 18  1  0  0  0  0
 13 14  1  0  0  0  0
 13 43  1  0  0  0  0
 14 15  1  0  0  0  0
 14 35  1  0  0  0  0
 14 36  1  0  0  0  0
 15 16  1  0  0  0  0
 15 37  1  0  0  0  0
 15 38  1  0  0  0  0
 16 17  1  0  0  0  0
 17 18  1  0  0  0  0
 17 39  1  0  0  0  0
 17 40  1  0  0  0  0
 18 41  1  0  0  0  0
 18 42  1  0  0  0  0
 19 20  1  0  0  0  0
M  CHG  1  13   1
M  END
> <s_m_source_file>
AV-unprocessed.smi

> <i_m_source_file_index>
370

> <i_lp_mmshare_version>
43012

> <i_f3d_flags>
0

> <s_epik_input>
W0NIM11jMVtjSF1jKG5vMSlbTkhdQyg9TylbTkhdW0NIMl1DKFtDSDNdKShbQ0gzXSlOMltDSDJdW0NIMl1PW0NIMl1bQ0gyXTI=

> <s_epik_cmdline>
J2VwaWtfcHl0aG9uJywgJy1waCcsICc3LjAnLCAnLXRuJywgJzgnLCAnLW1hJywgJzIwMCcsICctbWV0YWxfYmluZGluZycsICctaW1hZScsICc8aW5maWxlLm1hZT4nLCAnLW9tYWUnLCAnPG91dGZpbGUubWFlPic=

> <r_epik_Ionization_Penalty>
0.707076

> <r_epik_Ionization_Penalty_Charging>
0.707039

> <r_epik_Ionization_Penalty_Neutral>
3.67886e-05

> <r_epik_State_Penalty>
0.730276

> <r_epik_Charging_Adjusted_Penalty>
1.43732

> <i_epik_Tot_Q>
1

> <i_epik_Tot_abs_Q>
1

> <r_epik_Metal_State_Penalty>
0.743216

> <b_epik_Metal_Only>
0

> <s_lp_Force_Field>
OPLS_2005

> <r_lp_Energy>
23.7539

> <b_lp_Chiralities_Consistent>
1

> <s_lp_Variant>
AV-unprocessed.smi:370-2

> <Gold.Version>
5.8.1

> <Gold.Id.Protein>
6NUR|6NUR_protein|mol2

> <Gold.PLP.Fitness>
43.8652

> <Gold.PLP.PLP>
-32.8212

> <Gold.PLP.part.hbond>
-3.0000

> <Gold.PLP.part.metal>
0.0000

> <Gold.PLP.part.buried>
-3.2355

> <Gold.PLP.part.nonpolar>
-27.4856

> <Gold.PLP.part.repulsive>
0.8826

> <Gold.PLP.ligand.clash>
0.0000

> <Gold.PLP.ligand.torsion>
0.5046

> <Gold.PLP.Chemscore.Hbond>
3.9840

> <Gold.PLP.Chemscore.CHOScore>
0.0000

> <Gold.PLP.Chemscore.Metal>
0.0000

> <Gold.Chemscore.Hbonds>
donor molecule, donor type, donor heavy atom, donor atom, acceptor molecule, acceptor atom, score
      L1  H     5    25       P1  8028  0.45
      L1  H     8    26       P1  8028  0.75
      L1  H    13    43       P1 10175  2.00

> <Gold.PLP.Chemscore.Internal.Correction>
0.1013

> <Gold.Rescore>
     Score         DG    S(hbond)    S(metal)    S(lipo)     H(rot)  DE(clash)    DE(int)     intcor
     17.33     -19.24       2.89        0.00      70.23       1.60       0.06       1.85       ----

> <Gold.Chemscore.Fitness>
17.3326

> <Gold.Chemscore.DG>
-19.2437

> <Gold.Chemscore.ZeroCoef>
-5.4800

> <Gold.Chemscore.Hbond>
2.8853

> <Gold.Chemscore.Metal>
0.0000

> <Gold.Chemscore.Lipo>
70.2350

> <Gold.Chemscore.Internal_Hbond>
0.0000

> <Gold.Chemscore.DEClash>
0.0628

> <Gold.Chemscore.DEInternal>
1.8483

> <Gold.Chemscore.Rot>
1.5979

> <Gold.Chemscore.Internal.Correction>
   9.000000E+99

> <Gold.Chemscore.Hbonds>
donor molecule, donor type, donor heavy atom, donor atom, acceptor molecule, acceptor atom, score
      L1  H     5    25       P1  8028  0.33
      L1  H     8    26       P1  8028  0.74
      L1  H    13    43       P1 10175  0.89

> <Gold.Chemscore.Hbond.Weighted>
-9.6368

> <Gold.Chemscore.Metal.Weighted>
-0.0000

> <Gold.Chemscore.Lipo.Weighted>
-8.2175

> <Gold.Chemscore.Internal_Hbond.Weighted>
0.0000

> <Gold.Chemscore.DEClash.Weighted>
0.0628

> <Gold.Chemscore.DEInternal.Weighted>
1.8483

> <Gold.Chemscore.Rot.Weighted>
4.0906

> <Gold.Chemscore.Internal.Correction.Weighted>
   9.000000E+99

> <Gold.Protein.RotatedTorsions>
[ 6907 6896 6895 6894 ] final -138.33 input  -60.11 | X-H torsion
[ 7974 7965 7964 7962 ] final  -46.13 input  175.53 | X-H torsion
[ 8008 7997 7996 7995 ] final  164.32 input   59.86 | X-H torsion
[ 10167 10162 10161 10158 ] final   48.17 input  -65.29 | X-H torsion
[ 10718 10713 10712 10709 ] final   69.51 input   66.30 | X-H torsion
[ 10763 10752 10751 10750 ] final -100.49 input  -60.55 | X-H torsion
[ 11005 11000 10999 10996 ] final  157.24 input  -57.11 | X-H torsion

> <Gold.Protein.ActiveResidues>
 VAL166  LYS551  ARG553  GLY616  TRP617  ASP618  TYR619  PRO620  LYS621  CYS622 
 ASP623  PHE694  ASN695  SER759  ASP760  ASP761  ALA762  ILE779  LEU786  VAL792 
 PHE793  MET794  SER795  GLU796  ALA797  LYS798  CYS799  TRP800  GLU811  SER814 

> <Gold.Protein.RotatedAtoms>
  151.0337  133.5767  159.2657 H   0  0  0  0  0  0  0  0  0  0  0  0  # atno 6907 bound_to 6896
  151.2839  135.0721  159.9189 H   0  0  0  0  0  0  0  0  0  0  0  0  # atno 6908 bound_to 6896
  152.5350  134.0047  159.7965 H   0  0  0  0  0  0  0  0  0  0  0  0  # atno 6909 bound_to 6896
  145.9751  140.7343  142.9391 H   0  0  0  0  0  0  0  0  0  0  0  0  # atno 7974 bound_to 7965
  156.1889  140.1700  156.8131 H   0  0  0  0  0  0  0  0  0  0  0  0  # atno 8008 bound_to 7997
  154.5447  140.0729  156.8601 H   0  0  0  0  0  0  0  0  0  0  0  0  # atno 8009 bound_to 7997
  155.3145  140.3369  155.4245 H   0  0  0  0  0  0  0  0  0  0  0  0  # atno 8010 bound_to 7997
  140.2961  144.2989  150.6229 H   0  0  0  0  0  0  0  0  0  0  0  0  # atno 10167 bound_to 10162
  157.6349  130.9429  150.0523 H   0  0  0  0  0  0  0  0  0  0  0  0  # atno 10718 bound_to 10713
  154.7583  135.4933  153.9416 H   0  0  0  0  0  0  0  0  0  0  0  0  # atno 10763 bound_to 10752
  153.1221  135.6734  153.9325 H   0  0  0  0  0  0  0  0  0  0  0  0  # atno 10764 bound_to 10752
  153.9054  135.3105  155.3427 H   0  0  0  0  0  0  0  0  0  0  0  0  # atno 10765 bound_to 10752
  140.1750  134.8516  157.2736 H   0  0  0  0  0  0  0  0  0  0  0  0  # atno 11005 bound_to 11000
  144.6846  140.2813  143.7291 LP  0  0  0  0  0  0  0  0  0  0  0  0  # atno 17320 bound_to 7965
  145.7851  139.1905  143.2135 LP  0  0  0  0  0  0  0  0  0  0  0  0  # atno 17321 bound_to 7965
  140.5691  143.2183  151.7631 LP  0  0  0  0  0  0  0  0  0  0  0  0  # atno 17342 bound_to 10162
  139.4926  144.4242  151.9944 LP  0  0  0  0  0  0  0  0  0  0  0  0  # atno 17343 bound_to 10162
  156.1581  130.3643  149.9339 LP  0  0  0  0  0  0  0  0  0  0  0  0  # atno 17370 bound_to 10713
  156.7344  130.9055  151.3628 LP  0  0  0  0  0  0  0  0  0  0  0  0  # atno 17371 bound_to 10713
  140.2333  134.3883  155.7512 LP  0  0  0  0  0  0  0  0  0  0  0  0  # atno 17394 bound_to 11000
  141.2220  133.7226  156.8674 LP  0  0  0  0  0  0  0  0  0  0  0  0  # atno 17395 bound_to 11000

$$$$
