#       Name:                AV-unprocessed.smi:454
#       Creating user name   scv26
#       Creation time:       Thu Mar 26 23:01:22 2020


#       File generated by GOLD software.
#

@<TRIPOS>MOLECULE
AV-unprocessed.smi:454
    48    49     1
SMALL
NO_CHARGES


@<TRIPOS>ATOM
      1 ****        -3.0764   2.5739  -2.2879 C.3            1 S1                 0.0000
      2 ****        -3.3103   1.1837  -2.1526 O.3            1 S1                 0.0000
      3 ****        -3.9319   0.6192  -3.2955 C.3            1 S1                 0.0000
      4 ****        -4.1542  -0.8865  -3.0842 C.3            1 S1                 0.0000
      5 ****        -2.9248  -1.6582  -3.2294 N.pl3          1 S1                 0.0000
      6 ****        -2.0024  -1.7496  -2.1769 C.ar           1 S1                 0.0000
      7 ****        -0.6820  -2.1547  -2.4717 C.ar           1 S1                 0.0000
      8 ****         0.2576  -2.2310  -1.4249 C.ar           1 S1                 0.0000
      9 ****        -0.1668  -1.9010  -0.1239 C.ar           1 S1                 0.0000
     10 ****         0.9771  -1.9166   1.2467 S.o2           1 S1                 0.0000
     11 ****         0.4176  -2.8031   2.2785 O.2            1 S1                 0.0000
     12 ****         2.3424  -2.1347   0.7443 O.2            1 S1                 0.0000
     13 ****         0.8720  -0.2846   1.8330 N.3            1 S1                 0.0000
     14 ****         1.1670  -0.0357   3.2545 C.3            1 S1                 0.0000
     15 ****         2.6798   0.1589   3.4566 C.3            1 S1                 0.0000
     16 ****         3.1727   1.2800   2.6212 N.4            1 S1                 1.0000
     17 ****         4.5983   1.5868   2.8647 C.3            1 S1                 0.0000
     18 ****         2.8801   1.0334   1.1890 C.3            1 S1                 0.0000
     19 ****         1.3719   0.8002   0.9675 C.3            1 S1                 0.0000
     20 ****        -1.5063  -1.5202   0.0828 C.ar           1 S1                 0.0000
     21 ****        -2.4074  -1.4480  -0.9191 N.ar           1 S1                 0.0000
     22 ****        -2.6003   2.9539  -1.3842 H              1 S1                 0.0000
     23 ****        -4.0103   3.1190  -2.4313 H              1 S1                 0.0000
     24 ****        -2.4150   2.7822  -3.1300 H              1 S1                 0.0000
     25 ****        -4.8969   1.1048  -3.4472 H              1 S1                 0.0000
     26 ****        -3.3357   0.7976  -4.1922 H              1 S1                 0.0000
     27 ****        -4.6389  -1.0802  -2.1268 H              1 S1                 0.0000
     28 ****        -4.8432  -1.2488  -3.8472 H              1 S1                 0.0000
     29 ****        -2.5981  -1.8430  -4.1666 H              1 S1                 0.0000
     30 ****        -0.3883  -2.3941  -3.4834 H              1 S1                 0.0000
     31 ****         1.2768  -2.5259  -1.6246 H              1 S1                 0.0000
     32 ****         0.6292   0.8572   3.5765 H              1 S1                 0.0000
     33 ****         0.7963  -0.8559   3.8689 H              1 S1                 0.0000
     34 ****         2.8814   0.3719   4.5069 H              1 S1                 0.0000
     35 ****         3.2190  -0.7570   3.2084 H              1 S1                 0.0000
     36 ****         5.2320   0.7380   2.6036 H              1 S1                 0.0000
     37 ****         4.7654   1.8287   3.9148 H              1 S1                 0.0000
     38 ****         4.9141   2.4453   2.2709 H              1 S1                 0.0000
     39 ****         3.2027   1.8931   0.6005 H              1 S1                 0.0000
     40 ****         3.4609   0.1805   0.8367 H              1 S1                 0.0000
     41 ****         1.1704   0.5663  -0.0781 H              1 S1                 0.0000
     42 ****         0.8178   1.7122   1.1932 H              1 S1                 0.0000
     43 ****        -1.8609  -1.2569   1.0684 H              1 S1                 0.0000
     44 ****         2.6472   2.0995   2.8906 H              1 S1                 0.0000
     45 ****        -3.9018   1.0345  -1.3603 LP             1 S1                 0.0000
     46 ****        -2.4341   0.7247  -2.0056 LP             1 S1                 0.0000
     47 ****        -0.1240  -0.2265   1.7652 LP             1 S1                 0.0000
     48 ****        -3.3530  -1.1780  -0.7376 LP             1 S1                 0.0000
@<TRIPOS>BOND
    1    1    2 1     
    2    1   22 1     
    3    1   23 1     
    4    1   24 1     
    5    2    3 1     
    6    3    4 1     
    7    3   25 1     
    8    3   26 1     
    9    4    5 1     
   10    4   27 1     
   11    4   28 1     
   12    5    6 1     
   13    5   29 1     
   14    6   21 ar    
   15    6    7 ar    
   16    7    8 ar    
   17    7   30 1     
   18    8    9 ar    
   19    8   31 1     
   20    9   10 1     
   21    9   20 ar    
   22   10   11 2     
   23   10   12 2     
   24   10   13 1     
   25   13   19 1     
   26   13   14 1     
   27   14   15 1     
   28   14   32 1     
   29   14   33 1     
   30   15   16 1     
   31   15   34 1     
   32   15   35 1     
   33   16   17 1     
   34   16   18 1     
   35   16   44 1     
   36   17   36 1     
   37   17   37 1     
   38   17   38 1     
   39   18   19 1     
   40   18   39 1     
   41   18   40 1     
   42   19   41 1     
   43   19   42 1     
   44   20   21 ar    
   45   20   43 1     
   46    2   45 1     
   47    2   46 1     
   48   13   47 1     
   49   21   48 1     
@<TRIPOS>SUBSTRUCTURE
      1 S1             1
@<TRIPOS>SET
LONE_PAIRS      STATIC     ATOMS    <user>   **** ""
6 45 46 11 12 47 48
DONOR_HYDROGENS      STATIC     ATOMS    <user>   **** ""
2 29 44
ATOM$BLUE        STATIC     ATOMS    COLORGROUP SYSTEM
6 45 46 11 12 47 48
ATOM$RED        STATIC     ATOMS    COLORGROUP SYSTEM
2 29 44
