#       Name:                AV-unprocessed.smi:3311
#       Creating user name   scv26
#       Creation time:       Fri Mar 27 19:06:36 2020


#       File generated by GOLD software.
#

@<TRIPOS>MOLECULE
AV-unprocessed.smi:3311
    47    48     1
SMALL
NO_CHARGES


@<TRIPOS>ATOM
      1 ****        -2.4423  -0.2537   1.4855 C.3            1 S1                 0.0000
      2 ****        -2.0112  -0.0249   0.0201 C.3            1 S1                 0.0000
      3 ****        -0.5514   0.0618  -0.1031 N.3            1 S1                 0.0000
      4 ****         0.0962   1.1493   0.6344 C.3            1 S1                 0.0000
      5 ****         1.6239   1.1886   0.4029 C.3            1 S1                 0.0000
      6 ****         2.1670   0.0356   1.0220 O.3            1 S1                 0.0000
      7 ****         1.9997   1.2046  -1.1012 C.3            1 S1                 0.0000
      8 ****         3.5082   1.3930  -1.3426 C.3            1 S1                 0.0000
      9 ****         4.0375   2.6491  -0.6378 C.3            1 S1                 0.0000
     10 ****         3.7270   2.6046   0.8644 C.3            1 S1                 0.0000
     11 ****         2.2191   2.4256   1.1172 C.3            1 S1                 0.0000
     12 ****        -2.5484  -1.1042  -0.9586 C.3            1 S1                 0.0000
     13 ****        -4.0449  -0.9211  -1.2717 C.3            1 S1                 0.0000
     14 ****        -2.2598  -2.4678  -0.5185 N.pl3          1 S1                 0.0000
     15 ****        -2.9883  -3.2936   0.3173 C.2            1 S1                 0.0000
     16 ****        -2.2906  -4.4590   0.4556 C.2            1 S1                 0.0000
     17 ****        -1.1262  -4.2501  -0.3334 C.2            1 S1                 0.0000
     18 ****        -1.1079  -3.0590  -0.9081 N.2            1 S1                 0.0000
     19 ****        -3.5147  -0.4307   1.5618 H              1 S1                 0.0000
     20 ****        -2.2285   0.6149   2.1075 H              1 S1                 0.0000
     21 ****        -1.9327  -1.1102   1.9280 H              1 S1                 0.0000
     22 ****        -2.4298   0.9307  -0.2977 H              1 S1                 0.0000
     23 ****        -0.1311  -0.8240   0.1618 H              1 S1                 0.0000
     24 ****        -0.3404   2.1002   0.3263 H              1 S1                 0.0000
     25 ****        -0.0941   1.0551   1.7036 H              1 S1                 0.0000
     26 ****         3.1042   0.0467   0.9028 H              1 S1                 0.0000
     27 ****         1.6754   0.2851  -1.5900 H              1 S1                 0.0000
     28 ****         1.4618   2.0150  -1.5951 H              1 S1                 0.0000
     29 ****         4.0509   0.5169  -0.9858 H              1 S1                 0.0000
     30 ****         3.7050   1.4591  -2.4130 H              1 S1                 0.0000
     31 ****         5.1129   2.7386  -0.7938 H              1 S1                 0.0000
     32 ****         3.5847   3.5373  -1.0802 H              1 S1                 0.0000
     33 ****         4.2813   1.7893   1.3306 H              1 S1                 0.0000
     34 ****         4.0743   3.5219   1.3403 H              1 S1                 0.0000
     35 ****         1.7037   3.3221   0.7699 H              1 S1                 0.0000
     36 ****         2.0319   2.3695   2.1907 H              1 S1                 0.0000
     37 ****        -2.0374  -0.9644  -1.9138 H              1 S1                 0.0000
     38 ****        -4.2355   0.0654  -1.6949 H              1 S1                 0.0000
     39 ****        -4.6678  -1.0220  -0.3833 H              1 S1                 0.0000
     40 ****        -4.3842  -1.6584  -1.9998 H              1 S1                 0.0000
     41 ****        -3.9320  -2.9887   0.7445 H              1 S1                 0.0000
     42 ****        -2.5675  -5.3262   1.0362 H              1 S1                 0.0000
     43 ****        -0.2976  -4.9221  -0.5019 H              1 S1                 0.0000
     44 ****        -0.3937   0.2765  -1.0670 LP             1 S1                 0.0000
     45 ****         1.7827  -0.7863   0.6015 LP             1 S1                 0.0000
     46 ****         1.9506   0.0428   1.9983 LP             1 S1                 0.0000
     47 ****        -0.3978  -2.6790  -1.5008 LP             1 S1                 0.0000
@<TRIPOS>BOND
    1    1    2 1     
    2    1   19 1     
    3    1   20 1     
    4    1   21 1     
    5    2    3 1     
    6    2   12 1     
    7    2   22 1     
    8    3    4 1     
    9    3   23 1     
   10    4    5 1     
   11    4   24 1     
   12    4   25 1     
   13    5   11 1     
   14    5    6 1     
   15    5    7 1     
   16    6   26 1     
   17    7    8 1     
   18    7   27 1     
   19    7   28 1     
   20    8    9 1     
   21    8   29 1     
   22    8   30 1     
   23    9   10 1     
   24    9   31 1     
   25    9   32 1     
   26   10   11 1     
   27   10   33 1     
   28   10   34 1     
   29   11   35 1     
   30   11   36 1     
   31   12   13 1     
   32   12   14 1     
   33   12   37 1     
   34   13   38 1     
   35   13   39 1     
   36   13   40 1     
   37   14   18 1     
   38   14   15 1     
   39   15   16 2     
   40   15   41 1     
   41   16   17 1     
   42   16   42 1     
   43   17   18 2     
   44   17   43 1     
   45    3   44 1     
   46    6   45 1     
   47    6   46 1     
   48   18   47 1     
@<TRIPOS>SUBSTRUCTURE
      1 S1             1
@<TRIPOS>SET
LONE_PAIRS      STATIC     ATOMS    <user>   **** ""
4 44 45 46 47
DONOR_HYDROGENS      STATIC     ATOMS    <user>   **** ""
2 23 26
ATOM$BLUE        STATIC     ATOMS    COLORGROUP SYSTEM
4 44 45 46 47
ATOM$RED        STATIC     ATOMS    COLORGROUP SYSTEM
2 23 26
