#       Name:                AV-unprocessed.smi:427
#       Creating user name   scv26
#       Creation time:       Thu Mar 26 22:50:22 2020


#       File generated by GOLD software.
#

@<TRIPOS>MOLECULE
AV-unprocessed.smi:427
    59    60     1
SMALL
NO_CHARGES


@<TRIPOS>ATOM
      1 ****        -0.1806   1.9661  -0.3838 C.3            1 S1                 0.0000
      2 ****        -1.2851   0.9252  -0.3838 C.ar           1 S1                 0.0000
      3 ****        -2.6331   1.3408  -0.3842 C.ar           1 S1                 0.0000
      4 ****        -3.6890   0.3974  -0.3777 C.ar           1 S1                 0.0000
      5 ****        -5.1720   0.8157  -0.3771 C.3            1 S1                 0.0000
      6 ****        -5.8567   0.2847  -1.6531 C.3            1 S1                 0.0000
      7 ****        -5.3676   2.3484  -0.3416 C.3            1 S1                 0.0000
      8 ****        -5.8786   0.2280   0.8627 C.3            1 S1                 0.0000
      9 ****        -3.3524  -0.9755  -0.3751 C.ar           1 S1                 0.0000
     10 ****        -2.0099  -1.3963  -0.3729 C.ar           1 S1                 0.0000
     11 ****        -0.9587  -0.4485  -0.3746 C.ar           1 S1                 0.0000
     12 ****         0.3780  -0.7864  -0.3701 O.3            1 S1                 0.0000
     13 ****         0.7334  -2.1551  -0.2264 C.3            1 S1                 0.0000
     14 ****         2.2631  -2.2488  -0.1290 C.3            1 S1                 0.0000
     15 ****         2.6016  -3.6206  -0.1454 O.3            1 S1                 0.0000
     16 ****         2.8013  -1.6178   1.1754 C.3            1 S1                 0.0000
     17 ****         4.0945  -0.9783   1.0063 N.am           1 S1                 0.0000
     18 ****         5.2540  -1.7306   1.3172 C.2            1 S1                 0.0000
     19 ****         5.1951  -2.8931   1.7196 O.2            1 S1                 0.0000
     20 ****         6.5137  -1.0249   1.1073 C.2            1 S1                 0.0000
     21 ****         6.5308   0.2407   0.6353 C.2            1 S1                 0.0000
     22 ****         5.3808   0.9388   0.3226 N.am           1 S1                 0.0000
     23 ****         5.4078   2.2766  -0.1942 C.3            1 S1                 0.0000
     24 ****         4.1136   0.3415   0.4950 C.2            1 S1                 0.0000
     25 ****         3.0768   0.9439   0.2020 O.2            1 S1                 0.0000
     26 ****        -0.5800   2.9755  -0.4861 H              1 S1                 0.0000
     27 ****         0.5089   1.7914  -1.2103 H              1 S1                 0.0000
     28 ****         0.3818   1.9168   0.5489 H              1 S1                 0.0000
     29 ****        -2.8333   2.4007  -0.3879 H              1 S1                 0.0000
     30 ****        -6.9064   0.5777  -1.6918 H              1 S1                 0.0000
     31 ****        -5.8265  -0.8034  -1.7124 H              1 S1                 0.0000
     32 ****        -5.3744   0.6756  -2.5498 H              1 S1                 0.0000
     33 ****        -4.9263   2.8328  -1.2136 H              1 S1                 0.0000
     34 ****        -4.9253   2.7903   0.5522 H              1 S1                 0.0000
     35 ****        -6.4261   2.6114  -0.3359 H              1 S1                 0.0000
     36 ****        -6.9265   0.5282   0.9016 H              1 S1                 0.0000
     37 ****        -5.4062   0.5703   1.7843 H              1 S1                 0.0000
     38 ****        -5.8607  -0.8618   0.8701 H              1 S1                 0.0000
     39 ****        -4.1273  -1.7273  -0.3755 H              1 S1                 0.0000
     40 ****        -1.8133  -2.4574  -0.3722 H              1 S1                 0.0000
     41 ****         0.2741  -2.5846   0.6658 H              1 S1                 0.0000
     42 ****         0.3811  -2.7143  -1.0950 H              1 S1                 0.0000
     43 ****         2.7023  -1.7731  -1.0070 H              1 S1                 0.0000
     44 ****         3.5410  -3.6983  -0.0752 H              1 S1                 0.0000
     45 ****         2.1292  -0.8457   1.5543 H              1 S1                 0.0000
     46 ****         2.8637  -2.3334   1.9972 H              1 S1                 0.0000
     47 ****         7.4453  -1.5245   1.3296 H              1 S1                 0.0000
     48 ****         7.4875   0.7218   0.4936 H              1 S1                 0.0000
     49 ****         4.8510   2.9098   0.4989 H              1 S1                 0.0000
     50 ****         4.9547   2.2545  -1.1870 H              1 S1                 0.0000
     51 ****         6.4496   2.5938  -0.2533 H              1 S1                 0.0000
     52 ****         0.8050  -0.2901   0.3858 LP             1 S1                 0.0000
     53 ****         0.7647  -0.4708  -1.2366 LP             1 S1                 0.0000
     54 ****         2.2919  -4.0343  -1.0015 LP             1 S1                 0.0000
     55 ****         2.1661  -4.0848   0.6259 LP             1 S1                 0.0000
     56 ****         4.3069  -3.3372   1.8369 LP             1 S1                 0.0000
     57 ****         6.0356  -3.3929   1.9291 LP             1 S1                 0.0000
     58 ****         2.1891   0.4999   0.3238 LP             1 S1                 0.0000
     59 ****         3.1246   1.8760  -0.1571 LP             1 S1                 0.0000
@<TRIPOS>BOND
    1    1    2 1     
    2    1   26 1     
    3    1   27 1     
    4    1   28 1     
    5    2   11 ar    
    6    2    3 ar    
    7    3    4 ar    
    8    3   29 1     
    9    4    5 1     
   10    4    9 ar    
   11    5    6 1     
   12    5    7 1     
   13    5    8 1     
   14    6   30 1     
   15    6   31 1     
   16    6   32 1     
   17    7   33 1     
   18    7   34 1     
   19    7   35 1     
   20    8   36 1     
   21    8   37 1     
   22    8   38 1     
   23    9   10 ar    
   24    9   39 1     
   25   10   11 ar    
   26   10   40 1     
   27   11   12 1     
   28   12   13 1     
   29   13   14 1     
   30   13   41 1     
   31   13   42 1     
   32   14   15 1     
   33   14   16 1     
   34   14   43 1     
   35   15   44 1     
   36   16   17 1     
   37   16   45 1     
   38   16   46 1     
   39   17   24 am    
   40   17   18 am    
   41   18   19 2     
   42   18   20 1     
   43   20   21 2     
   44   20   47 1     
   45   21   22 1     
   46   21   48 1     
   47   22   23 1     
   48   22   24 am    
   49   23   49 1     
   50   23   50 1     
   51   23   51 1     
   52   24   25 2     
   53   12   52 1     
   54   12   53 1     
   55   15   54 1     
   56   15   55 1     
   57   19   56 1     
   58   19   57 1     
   59   25   58 1     
   60   25   59 1     
@<TRIPOS>SUBSTRUCTURE
      1 S1             1
@<TRIPOS>SET
LONE_PAIRS      STATIC     ATOMS    <user>   **** ""
8 52 53 54 55 56 57 58 59
DONOR_HYDROGENS      STATIC     ATOMS    <user>   **** ""
1 44
ATOM$BLUE        STATIC     ATOMS    COLORGROUP SYSTEM
8 52 53 54 55 56 57 58 59
ATOM$RED        STATIC     ATOMS    COLORGROUP SYSTEM
1 44
