AV-unprocessed.smi:39|AV-procd|sdf|354|dock9
  -GOLD-   2262016193D 1   1.00000     0.00000
 Structure written by MMmdl.
 32 33  0  0  0  0  0  0  0  0  3 V2000
  153.4165  143.2183  159.8501 C   0  0  0  0  0  0  0  0  0  0  0  0
  152.4106  142.6738  158.8491 C   0  0  0  0  0  0  0  0  0  0  0  0
  152.2032  141.3428  158.6759 C   0  0  0  0  0  0  0  0  0  0  0  0
  151.2903  140.8162  157.7686 N   0  0  0  0  0  0  0  0  0  0  0  0
  151.0833  139.3253  157.5807 C   0  0  2  0  0  0  0  0  0  0  0  0
  150.3944  138.7084  158.8142 C   0  0  0  0  0  0  0  0  0  0  0  0
  151.2995  137.5344  159.1608 C   0  0  1  0  0  0  0  0  0  0  0  0
  150.9005  136.3217  158.4322 N   0  0  0  0  0  0  0  0  0  0  0  0
  151.3803  136.1710  157.3008 N   0  3  0  0  0  0  0  0  0  0  0  0
  151.9113  136.1128  156.2960 N   0  5  0  0  0  0  0  0  0  0  0  0
  152.6560  138.0710  158.6900 C   0  0  1  0  0  0  0  0  0  0  0  0
  153.7542  137.0110  158.5009 C   0  0  0  0  0  0  0  0  0  0  0  0
  154.0612  136.4101  159.7408 O   0  0  0  0  0  0  0  0  0  0  0  0
  152.3173  138.6815  157.4506 O   0  0  0  0  0  0  0  0  0  0  0  0
  150.5432  141.6953  156.9574 C   0  0  0  0  0  0  0  0  0  0  0  0
  149.7323  141.3004  156.1203 O   0  0  0  0  0  0  0  0  0  0  0  0
  150.7538  143.0608  157.1367 N   0  0  0  0  0  0  0  0  0  0  0  0
  151.6485  143.6322  158.0440 C   0  0  0  0  0  0  0  0  0  0  0  0
  151.7450  144.8564  158.1125 O   0  0  0  0  0  0  0  0  0  0  0  0
  150.5196  139.2185  156.6519 H   0  0  0  0  0  0  0  0  0  0  0  0
  151.3181  137.3526  160.2373 H   0  0  0  0  0  0  0  0  0  0  0  0
  152.9895  138.8334  159.3971 H   0  0  0  0  0  0  0  0  0  0  0  0
  150.2163  143.6910  156.5596 H   0  0  0  0  0  0  0  0  0  0  0  0
  153.9184  142.4193  160.3966 H   0  0  0  0  0  0  0  0  0  0  0  0
  152.9202  143.8603  160.5788 H   0  0  0  0  0  0  0  0  0  0  0  0
  154.1811  143.8054  159.3404 H   0  0  0  0  0  0  0  0  0  0  0  0
  152.7915  140.6731  159.2846 H   0  0  0  0  0  0  0  0  0  0  0  0
  150.3857  139.4266  159.6357 H   0  0  0  0  0  0  0  0  0  0  0  0
  149.3644  138.4280  158.5893 H   0  0  0  0  0  0  0  0  0  0  0  0
  153.4044  136.2235  157.8326 H   0  0  0  0  0  0  0  0  0  0  0  0
  154.6524  137.4405  158.0565 H   0  0  0  0  0  0  0  0  0  0  0  0
  154.2677  137.0918  160.3617 H   0  0  0  0  0  0  0  0  0  0  0  0
  1  2  1  0  0  0  0
  1 24  1  0  0  0  0
  1 25  1  0  0  0  0
  1 26  1  0  0  0  0
  2 18  1  0  0  0  0
  2  3  2  0  0  0  0
  3  4  1  0  0  0  0
  3 27  1  0  0  0  0
  4  5  1  0  0  0  0
  4 15  1  0  0  0  0
  5 20  1  0  0  0  0
  5 14  1  0  0  0  0
  5  6  1  0  0  0  0
  6  7  1  0  0  0  0
  6 28  1  0  0  0  0
  6 29  1  0  0  0  0
  7 21  1  0  0  0  0
  7  8  1  0  0  0  0
  7 11  1  0  0  0  0
  8  9  2  0  0  0  0
  9 10  2  0  0  0  0
 11 22  1  0  0  0  0
 11 12  1  0  0  0  0
 11 14  1  0  0  0  0
 12 13  1  0  0  0  0
 12 30  1  0  0  0  0
 12 31  1  0  0  0  0
 13 32  1  0  0  0  0
 15 16  2  0  0  0  0
 15 17  1  0  0  0  0
 17 23  1  0  0  0  0
 17 18  1  0  0  0  0
 18 19  2  0  0  0  0
M  CHG  1   9   1
M  CHG  1  10  -1
M  END
> <s_m_source_file>
AV-unprocessed.smi

> <i_m_source_file_index>
39

> <i_lp_mmshare_version>
43012

> <i_f3d_flags>
0

> <s_epik_input>
Tz1jMVtuSF1jKD1PKW4oW2NIXWMxW0NIM10pW0NASF0yW0NIMl1bQ0BIXShOPVtOK109W04tXSlbQ0BIXShPMilbQ0gyXVtPSF0=

> <s_epik_cmdline>
J2VwaWtfcHl0aG9uJywgJy1waCcsICc3LjAnLCAnLXRuJywgJzgnLCAnLW1hJywgJzIwMCcsICctbWV0YWxfYmluZGluZycsICctaW1hZScsICc8aW5maWxlLm1hZT4nLCAnLW9tYWUnLCAnPG91dGZpbGUubWFlPic=

> <r_lp_tautomer_probability>
0.999537

> <r_epik_Ionization_Penalty>
0.00127512

> <r_epik_Ionization_Penalty_Charging>
0.00127507

> <r_epik_Ionization_Penalty_Neutral>
5.43433e-08

> <r_epik_State_Penalty>
0.000844892

> <r_epik_Charging_Adjusted_Penalty>
0.00211996

> <i_epik_Tot_Q>
0

> <i_epik_Tot_abs_Q>
2

> <r_epik_Metal_State_Penalty>
0.680636

> <b_epik_Metal_Only>
0

> <s_epik_Chemistry_Notes>
This compound contains an acetal/aminal-like group ( X-CH(R)-Y where X, Y are N, S, or O) that may be acid/base labile, releasing an aldehyde.

> <s_lp_Force_Field>
OPLS_2005

> <r_lp_Energy>
25.8418

> <b_lp_Chiralities_Consistent>
1

> <s_lp_Variant>
AV-unprocessed.smi:39-4

> <Gold.Version>
5.8.1

> <Gold.Id.Protein>
6NUR|6NUR_protein|mol2

> <Gold.PLP.Fitness>
39.5128

> <Gold.PLP.PLP>
-29.5455

> <Gold.PLP.part.hbond>
-4.1345

> <Gold.PLP.part.metal>
0.0000

> <Gold.PLP.part.buried>
-5.6597

> <Gold.PLP.part.nonpolar>
-19.9745

> <Gold.PLP.part.repulsive>
0.2148

> <Gold.PLP.ligand.clash>
0.0000

> <Gold.PLP.ligand.torsion>
0.5613

> <Gold.PLP.Chemscore.Hbond>
3.6800

> <Gold.PLP.Chemscore.CHOScore>
0.0000

> <Gold.PLP.Chemscore.Metal>
0.0000

> <Gold.Chemscore.Hbonds>
donor molecule, donor type, donor heavy atom, donor atom, acceptor molecule, acceptor atom, score
      L1  H    17    23       P1  8028  1.00
      P1  H  6896  6907       L1     8  0.58
      P1  H  6896  6908       L1    13  0.11
      P1  H 10752 10763       L1    10  1.00

> <Gold.PLP.Chemscore.Internal.Correction>
0.0499

> <Gold.Rescore>
     Score         DG    S(hbond)    S(metal)    S(lipo)     H(rot)  DE(clash)    DE(int)     intcor
     10.22     -15.32       3.38        0.00      47.74       2.75       0.00       5.10       ----

> <Gold.Chemscore.Fitness>
10.2232

> <Gold.Chemscore.DG>
-15.3202

> <Gold.Chemscore.ZeroCoef>
-5.4800

> <Gold.Chemscore.Hbond>
3.3834

> <Gold.Chemscore.Metal>
0.0000

> <Gold.Chemscore.Lipo>
47.7423

> <Gold.Chemscore.Internal_Hbond>
0.0000

> <Gold.Chemscore.DEClash>
0.0000

> <Gold.Chemscore.DEInternal>
5.0970

> <Gold.Chemscore.Rot>
2.7524

> <Gold.Chemscore.Internal.Correction>
   9.000000E+99

> <Gold.Chemscore.Hbonds>
donor molecule, donor type, donor heavy atom, donor atom, acceptor molecule, acceptor atom, score
      L1  H    17    23       P1  8028  1.00
      P1  H  6896  6907       L1     8  0.45
      P1  H  6896  6908       L1    13  0.07
      P1  H 10752 10763       L1    10  1.00

> <Gold.Chemscore.Hbond.Weighted>
-11.3005

> <Gold.Chemscore.Metal.Weighted>
-0.0000

> <Gold.Chemscore.Lipo.Weighted>
-5.5858

> <Gold.Chemscore.Internal_Hbond.Weighted>
0.0000

> <Gold.Chemscore.DEClash.Weighted>
0.0000

> <Gold.Chemscore.DEInternal.Weighted>
5.0970

> <Gold.Chemscore.Rot.Weighted>
7.0461

> <Gold.Chemscore.Internal.Correction.Weighted>
   9.000000E+99

> <Gold.Protein.RotatedTorsions>
[ 6907 6896 6895 6894 ] final  -59.24 input  -60.11 | X-H torsion
[ 7974 7965 7964 7962 ] final -114.38 input  175.53 | X-H torsion
[ 8008 7997 7996 7995 ] final  146.79 input   59.86 | X-H torsion
[ 10167 10162 10161 10158 ] final  102.13 input  -65.29 | X-H torsion
[ 10718 10713 10712 10709 ] final  178.36 input   66.30 | X-H torsion
[ 10763 10752 10751 10750 ] final   91.79 input  -60.55 | X-H torsion
[ 11005 11000 10999 10996 ] final  -49.04 input  -57.11 | X-H torsion

> <Gold.Protein.ActiveResidues>
 VAL166  LYS551  ARG553  GLY616  TRP617  ASP618  TYR619  PRO620  LYS621  CYS622 
 ASP623  PHE694  ASN695  SER759  ASP760  ASP761  ALA762  ILE779  LEU786  VAL792 
 PHE793  MET794  SER795  GLU796  ALA797  LYS798  CYS799  TRP800  GLU811  SER814 

> <Gold.Protein.RotatedAtoms>
  150.7946  134.6995  159.6541 H   0  0  0  0  0  0  0  0  0  0  0  0  # atno 6907 bound_to 6896
  152.4056  134.6209  160.0060 H   0  0  0  0  0  0  0  0  0  0  0  0  # atno 6908 bound_to 6896
  151.6468  133.3286  159.3179 H   0  0  0  0  0  0  0  0  0  0  0  0  # atno 6909 bound_to 6896
  145.1209  140.8668  143.3814 H   0  0  0  0  0  0  0  0  0  0  0  0  # atno 7974 bound_to 7965
  156.2844  140.2173  156.5434 H   0  0  0  0  0  0  0  0  0  0  0  0  # atno 8008 bound_to 7997
  154.7351  140.0492  157.0783 H   0  0  0  0  0  0  0  0  0  0  0  0  # atno 8009 bound_to 7997
  155.0303  140.3134  155.4764 H   0  0  0  0  0  0  0  0  0  0  0  0  # atno 8010 bound_to 7997
  139.7377  144.7019  151.0623 H   0  0  0  0  0  0  0  0  0  0  0  0  # atno 10167 bound_to 10162
  156.8917  130.9850  151.3048 H   0  0  0  0  0  0  0  0  0  0  0  0  # atno 10718 bound_to 10713
  153.2121  135.4385  155.0392 H   0  0  0  0  0  0  0  0  0  0  0  0  # atno 10763 bound_to 10752
  154.8205  135.3335  154.7053 H   0  0  0  0  0  0  0  0  0  0  0  0  # atno 10764 bound_to 10752
  153.7490  135.6999  153.5005 H   0  0  0  0  0  0  0  0  0  0  0  0  # atno 10765 bound_to 10752
  141.0736  133.6672  156.3528 H   0  0  0  0  0  0  0  0  0  0  0  0  # atno 11005 bound_to 11000
  145.0742  139.3008  143.5817 LP  0  0  0  0  0  0  0  0  0  0  0  0  # atno 17320 bound_to 7965
  146.3521  140.0226  142.8657 LP  0  0  0  0  0  0  0  0  0  0  0  0  # atno 17321 bound_to 7965
  140.7781  143.4963  150.9828 LP  0  0  0  0  0  0  0  0  0  0  0  0  # atno 17342 bound_to 10162
  139.8651  143.7264  152.3170 LP  0  0  0  0  0  0  0  0  0  0  0  0  # atno 17343 bound_to 10162
  157.6079  130.8561  149.8905 LP  0  0  0  0  0  0  0  0  0  0  0  0  # atno 17370 bound_to 10713
  156.0625  130.3697  150.0950 LP  0  0  0  0  0  0  0  0  0  0  0  0  # atno 17371 bound_to 10713
  140.5621  134.5923  157.5436 LP  0  0  0  0  0  0  0  0  0  0  0  0  # atno 17394 bound_to 11000
  139.9548  134.7553  156.0366 LP  0  0  0  0  0  0  0  0  0  0  0  0  # atno 17395 bound_to 11000

$$$$
