AV-unprocessed.smi:290|AV-procd|sdf|2237|dock6
  -GOLD-   2262022103D 1   1.00000     0.00000
 Structure written by MMmdl.
 59 62  0  0  0  0  0  0  0  0  2 V2000
  152.5511  138.6246  154.2845 C   0  0  0  0  0  0  0  0  0  0  0  0
  151.3394  138.6136  155.2308 C   0  0  2  0  0  0  0  0  0  0  0  0
  150.4715  139.7108  154.9487 O   0  0  0  0  0  0  0  0  0  0  0  0
  150.3187  140.5210  156.1050 C   0  0  0  0  0  0  0  0  0  0  0  0
  150.5299  139.5584  157.2658 C   0  0  0  0  0  0  0  0  0  0  0  0
  151.6434  138.6584  156.7478 C   0  0  2  0  0  0  0  0  0  0  0  0
  152.8840  139.3006  156.9959 O   0  0  0  0  0  0  0  0  0  0  0  0
  151.6749  137.2569  157.4030 C   0  0  0  0  0  0  0  0  0  0  0  0
  150.4596  136.4880  157.1814 N   0  0  0  0  0  0  0  0  0  0  0  0
  149.3489  136.4488  157.9943 C   0  0  0  0  0  0  0  0  0  0  0  0
  148.3832  135.6739  157.5811 N   0  0  0  0  0  0  0  0  0  0  0  0
  148.8613  135.1437  156.3890 C   0  0  0  0  0  0  0  0  0  0  0  0
  148.3429  134.2352  155.4234 C   0  0  0  0  0  0  0  0  0  0  0  0
  147.1337  133.6381  155.4925 N   0  0  0  0  0  0  0  0  0  0  0  0
  146.1263  134.3312  156.2893 C   0  0  0  0  0  0  0  0  0  0  0  0
  144.8035  134.1709  155.5381 C   0  0  0  0  0  0  0  0  0  0  0  0
  145.2577  134.0509  154.0799 C   0  0  2  0  0  0  0  0  0  0  0  0
  144.2470  133.5035  153.1270 N   0  3  1  0  0  0  0  0  0  0  0  0
  143.0509  134.3747  152.9967 C   0  0  0  0  0  0  0  0  0  0  0  0
  144.8423  133.1718  151.8024 C   0  0  0  0  0  0  0  0  0  0  0  0
  143.8149  132.6318  150.7902 C   0  0  0  0  0  0  0  0  0  0  0  0
  143.2483  133.6919  150.0505 O   0  0  0  0  0  0  0  0  0  0  0  0
  146.5519  133.2161  154.2211 C   0  0  2  0  0  0  0  0  0  0  0  0
  146.3288  131.6919  154.2452 C   0  0  0  0  0  0  0  0  0  0  0  0
  149.1112  133.9426  154.3467 N   0  0  0  0  0  0  0  0  0  0  0  0
  150.3200  134.4987  154.2180 C   0  0  0  0  0  0  0  0  0  0  0  0
  150.9363  135.3552  155.0358 N   0  0  0  0  0  0  0  0  0  0  0  0
  150.1630  135.6520  156.1192 C   0  0  0  0  0  0  0  0  0  0  0  0
  145.5211  135.0526  153.7375 H   0  0  0  0  0  0  0  0  0  0  0  0
  147.2304  133.4482  153.3983 H   0  0  0  0  0  0  0  0  0  0  0  0
  153.2241  137.7943  154.5003 H   0  0  0  0  0  0  0  0  0  0  0  0
  153.1192  139.5516  154.3678 H   0  0  0  0  0  0  0  0  0  0  0  0
  152.2311  138.5313  153.2467 H   0  0  0  0  0  0  0  0  0  0  0  0
  150.7529  137.7197  155.0151 H   0  0  0  0  0  0  0  0  0  0  0  0
  151.0858  141.2967  156.1021 H   0  0  0  0  0  0  0  0  0  0  0  0
  149.3425  141.0055  156.1295 H   0  0  0  0  0  0  0  0  0  0  0  0
  150.7702  140.0628  158.2027 H   0  0  0  0  0  0  0  0  0  0  0  0
  149.6183  138.9796  157.4210 H   0  0  0  0  0  0  0  0  0  0  0  0
  152.9149  139.5546  157.9055 H   0  0  0  0  0  0  0  0  0  0  0  0
  152.5115  136.6775  157.0105 H   0  0  0  0  0  0  0  0  0  0  0  0
  151.8420  137.3436  158.4775 H   0  0  0  0  0  0  0  0  0  0  0  0
  149.2797  137.0131  158.9130 H   0  0  0  0  0  0  0  0  0  0  0  0
  146.0672  133.9038  157.2906 H   0  0  0  0  0  0  0  0  0  0  0  0
  146.3714  135.3887  156.3977 H   0  0  0  0  0  0  0  0  0  0  0  0
  144.3016  133.2577  155.8608 H   0  0  0  0  0  0  0  0  0  0  0  0
  144.1305  135.0106  155.7144 H   0  0  0  0  0  0  0  0  0  0  0  0
  143.3295  135.3656  152.6361 H   0  0  0  0  0  0  0  0  0  0  0  0
  142.5353  134.4903  153.9495 H   0  0  0  0  0  0  0  0  0  0  0  0
  142.3182  133.9592  152.3074 H   0  0  0  0  0  0  0  0  0  0  0  0
  145.3335  134.0583  151.3984 H   0  0  0  0  0  0  0  0  0  0  0  0
  145.6255  132.4224  151.9129 H   0  0  0  0  0  0  0  0  0  0  0  0
  144.2425  131.8968  150.1099 H   0  0  0  0  0  0  0  0  0  0  0  0
  143.0101  132.1261  151.3242 H   0  0  0  0  0  0  0  0  0  0  0  0
  142.3107  133.6776  150.1721 H   0  0  0  0  0  0  0  0  0  0  0  0
  145.9447  131.3257  153.2946 H   0  0  0  0  0  0  0  0  0  0  0  0
  145.6275  131.3956  155.0259 H   0  0  0  0  0  0  0  0  0  0  0  0
  147.2670  131.1686  154.4321 H   0  0  0  0  0  0  0  0  0  0  0  0
  150.8737  134.2156  153.3349 H   0  0  0  0  0  0  0  0  0  0  0  0
  143.9295  132.6305  153.5249 H   0  0  0  0  0  0  0  0  0  0  0  0
  1  2  1  0  0  0  0
  1 31  1  0  0  0  0
  1 32  1  0  0  0  0
  1 33  1  0  0  0  0
  2  6  1  0  0  0  0
  2  3  1  0  0  0  0
  2 34  1  0  0  0  0
  3  4  1  0  0  0  0
  4  5  1  0  0  0  0
  4 35  1  0  0  0  0
  4 36  1  0  0  0  0
  5  6  1  0  0  0  0
  5 37  1  0  0  0  0
  5 38  1  0  0  0  0
  6  7  1  0  0  0  0
  6  8  1  0  0  0  0
  7 39  1  0  0  0  0
  8  9  1  0  0  0  0
  8 40  1  0  0  0  0
  8 41  1  0  0  0  0
  9 28  1  0  0  0  0
  9 10  1  0  0  0  0
 10 11  2  0  0  0  0
 10 42  1  0  0  0  0
 11 12  1  0  0  0  0
 12 28  2  0  0  0  0
 12 13  1  0  0  0  0
 13 14  1  0  0  0  0
 13 25  2  0  0  0  0
 14 23  1  0  0  0  0
 14 15  1  0  0  0  0
 15 16  1  0  0  0  0
 15 43  1  0  0  0  0
 15 44  1  0  0  0  0
 16 17  1  0  0  0  0
 16 45  1  0  0  0  0
 16 46  1  0  0  0  0
 17 29  1  0  0  0  0
 17 18  1  0  0  0  0
 17 23  1  0  0  0  0
 18 19  1  0  0  0  0
 18 20  1  0  0  0  0
 18 59  1  0  0  0  0
 19 47  1  0  0  0  0
 19 48  1  0  0  0  0
 19 49  1  0  0  0  0
 20 21  1  0  0  0  0
 20 50  1  0  0  0  0
 20 51  1  0  0  0  0
 21 22  1  0  0  0  0
 21 52  1  0  0  0  0
 21 53  1  0  0  0  0
 22 54  1  0  0  0  0
 23 30  1  0  0  0  0
 23 24  1  0  0  0  0
 24 55  1  0  0  0  0
 24 56  1  0  0  0  0
 24 57  1  0  0  0  0
 25 26  1  0  0  0  0
 26 27  2  0  0  0  0
 26 58  1  0  0  0  0
 27 28  1  0  0  0  0
M  CHG  1  18   1
M  END
> <s_m_source_file>
AV-unprocessed.smi

> <i_m_source_file_index>
290

> <i_lp_mmshare_version>
43012

> <i_f3d_flags>
0

> <s_epik_input>
W0NIMl0xW0NIMl1PW0NAQEhdKFtDSDNdKVtDQEBdMShbT0hdKVtDSDJdbihbY0hdbjIpYyhjMjMpbltjSF1uYzNONFtDSDJdW0NIMl1bQ0BIXShbQ0BIXTRbQ0gzXSlOKFtDSDNdKVtDSDJdW0NIMl1bT0hd

> <s_epik_cmdline>
J2VwaWtfcHl0aG9uJywgJy1waCcsICc3LjAnLCAnLXRuJywgJzgnLCAnLW1hJywgJzIwMCcsICctbWV0YWxfYmluZGluZycsICctaW1hZScsICc8aW5maWxlLm1hZT4nLCAnLW9tYWUnLCAnPG91dGZpbGUubWFlPic=

> <r_lp_tautomer_probability>
1

> <r_epik_Ionization_Penalty>
0.0036983

> <r_epik_Ionization_Penalty_Charging>
0.0032725

> <r_epik_Ionization_Penalty_Neutral>
0.000425798

> <r_epik_State_Penalty>
-0

> <r_epik_Charging_Adjusted_Penalty>
0.0032725

> <i_epik_Tot_Q>
1

> <i_epik_Tot_abs_Q>
1

> <r_epik_Metal_State_Penalty>
-0

> <b_epik_Metal_Only>
0

> <s_lp_Force_Field>
OPLS_2005

> <r_lp_Energy>
65.7953

> <b_lp_Chiralities_Consistent>
1

> <s_lp_Variant>
AV-unprocessed.smi:290-23

> <Gold.Version>
5.8.1

> <Gold.Id.Protein>
6NUR|6NUR_protein|mol2

> <Gold.PLP.Fitness>
45.1672

> <Gold.PLP.PLP>
-30.3745

> <Gold.PLP.part.hbond>
-4.5506

> <Gold.PLP.part.metal>
0.0000

> <Gold.PLP.part.buried>
-7.4398

> <Gold.PLP.part.nonpolar>
-18.7597

> <Gold.PLP.part.repulsive>
0.2335

> <Gold.PLP.ligand.clash>
0.0000

> <Gold.PLP.ligand.torsion>
1.3366

> <Gold.PLP.Chemscore.Hbond>
5.7308

> <Gold.PLP.Chemscore.CHOScore>
0.0000

> <Gold.PLP.Chemscore.Metal>
0.0000

> <Gold.Chemscore.Hbonds>
donor molecule, donor type, donor heavy atom, donor atom, acceptor molecule, acceptor atom, score
      L1  H    18    59       P1 10957  1.89
      L1  H    22    54       P1 10186  0.77
      P1  H  7989  7998       L1     3  0.60
      P1  H  7997  8009       L1     7  0.95
      P1  H 10752 10763       L1    27  0.87
      L1  C    26    58       P1  7949  0.26

> <Gold.PLP.Chemscore.Internal.Correction>
0.2736

> <Gold.Rescore>
     Score         DG    S(hbond)    S(metal)    S(lipo)     H(rot)  DE(clash)    DE(int)     intcor
     16.80     -17.88       4.36        0.00      61.73       3.67       0.01       1.07       ----

> <Gold.Chemscore.Fitness>
16.8025

> <Gold.Chemscore.DG>
-17.8814

> <Gold.Chemscore.ZeroCoef>
-5.4800

> <Gold.Chemscore.Hbond>
4.3603

> <Gold.Chemscore.Metal>
0.0000

> <Gold.Chemscore.Lipo>
61.7301

> <Gold.Chemscore.Internal_Hbond>
0.0000

> <Gold.Chemscore.DEClash>
0.0132

> <Gold.Chemscore.DEInternal>
1.0656

> <Gold.Chemscore.Rot>
3.6658

> <Gold.Chemscore.Internal.Correction>
   9.000000E+99

> <Gold.Chemscore.Hbonds>
donor molecule, donor type, donor heavy atom, donor atom, acceptor molecule, acceptor atom, score
      L1  H    18    59       P1 10957  0.40
      L1  H    22    54       P1 10186  0.75
      P1  H  7989  7998       L1     3  0.14
      P1  H  7997  8009       L1     7  0.21
      P1  H 10752 10763       L1    27  0.74

> <Gold.Chemscore.Hbond.Weighted>
-14.5634

> <Gold.Chemscore.Metal.Weighted>
-0.0000

> <Gold.Chemscore.Lipo.Weighted>
-7.2224

> <Gold.Chemscore.Internal_Hbond.Weighted>
0.0000

> <Gold.Chemscore.DEClash.Weighted>
0.0132

> <Gold.Chemscore.DEInternal.Weighted>
1.0656

> <Gold.Chemscore.Rot.Weighted>
9.3844

> <Gold.Chemscore.Internal.Correction.Weighted>
   9.000000E+99

> <Gold.Protein.RotatedTorsions>
[ 6907 6896 6895 6894 ] final  123.45 input  -60.11 | X-H torsion
[ 7974 7965 7964 7962 ] final  -58.97 input  175.53 | X-H torsion
[ 8008 7997 7996 7995 ] final -167.54 input   59.86 | X-H torsion
[ 10167 10162 10161 10158 ] final  163.10 input  -65.29 | X-H torsion
[ 10718 10713 10712 10709 ] final  -81.67 input   66.30 | X-H torsion
[ 10763 10752 10751 10750 ] final   73.40 input  -60.55 | X-H torsion
[ 11005 11000 10999 10996 ] final -161.39 input  -57.11 | X-H torsion

> <Gold.Protein.ActiveResidues>
 VAL166  LYS551  ARG553  GLY616  TRP617  ASP618  TYR619  PRO620  LYS621  CYS622 
 ASP623  PHE694  ASN695  SER759  ASP760  ASP761  ALA762  ILE779  LEU786  VAL792 
 PHE793  MET794  SER795  GLU796  ALA797  LYS798  CYS799  TRP800  GLU811  SER814 

> <Gold.Protein.RotatedAtoms>
  152.4160  133.7039  159.6439 H   0  0  0  0  0  0  0  0  0  0  0  0  # atno 6907 bound_to 6896
  150.8037  133.8539  159.3221 H   0  0  0  0  0  0  0  0  0  0  0  0  # atno 6908 bound_to 6896
  151.6268  135.1029  160.0165 H   0  0  0  0  0  0  0  0  0  0  0  0  # atno 6909 bound_to 6896
  145.8330  140.8467  143.0074 H   0  0  0  0  0  0  0  0  0  0  0  0  # atno 7974 bound_to 7965
  155.8791  140.1006  157.1497 H   0  0  0  0  0  0  0  0  0  0  0  0  # atno 8008 bound_to 7997
  154.4003  140.1332  156.4238 H   0  0  0  0  0  0  0  0  0  0  0  0  # atno 8009 bound_to 7997
  155.7663  140.3462  155.5226 H   0  0  0  0  0  0  0  0  0  0  0  0  # atno 8010 bound_to 7997
  139.4869  144.4371  151.8998 H   0  0  0  0  0  0  0  0  0  0  0  0  # atno 10167 bound_to 10162
  156.0046  130.4611  150.3988 H   0  0  0  0  0  0  0  0  0  0  0  0  # atno 10718 bound_to 10713
  153.0519  135.5064  154.7887 H   0  0  0  0  0  0  0  0  0  0  0  0  # atno 10763 bound_to 10752
  154.6743  135.2958  154.9702 H   0  0  0  0  0  0  0  0  0  0  0  0  # atno 10764 bound_to 10752
  154.0509  135.6704  153.4853 H   0  0  0  0  0  0  0  0  0  0  0  0  # atno 10765 bound_to 10752
  140.6209  134.4751  157.5223 H   0  0  0  0  0  0  0  0  0  0  0  0  # atno 11005 bound_to 11000
  144.6738  140.0700  143.7473 LP  0  0  0  0  0  0  0  0  0  0  0  0  # atno 17320 bound_to 7965
  145.9550  139.2760  143.1189 LP  0  0  0  0  0  0  0  0  0  0  0  0  # atno 17321 bound_to 7965
  140.3821  144.2723  150.5907 LP  0  0  0  0  0  0  0  0  0  0  0  0  # atno 17342 bound_to 10162
  140.5224  143.2262  151.8369 LP  0  0  0  0  0  0  0  0  0  0  0  0  # atno 17343 bound_to 10162
  157.2058  131.0449  151.2626 LP  0  0  0  0  0  0  0  0  0  0  0  0  # atno 17370 bound_to 10713
  157.3934  130.7294  149.6714 LP  0  0  0  0  0  0  0  0  0  0  0  0  # atno 17371 bound_to 10713
  139.9154  134.8258  156.1385 LP  0  0  0  0  0  0  0  0  0  0  0  0  # atno 17394 bound_to 11000
  141.0743  133.6782  156.2204 LP  0  0  0  0  0  0  0  0  0  0  0  0  # atno 17395 bound_to 11000

$$$$
