#       Name:                AV-unprocessed.smi:2446
#       Creating user name   scv26
#       Creation time:       Fri Mar 27 13:27:47 2020


#       File generated by GOLD software.
#

@<TRIPOS>MOLECULE
AV-unprocessed.smi:2446
    42    43     1
SMALL
NO_CHARGES


@<TRIPOS>ATOM
      1 ****        -2.6166  -1.2826  -0.1513 C.3            1 S1                 0.0000
      2 ****        -3.3806   0.0306  -0.1565 C.ar           1 S1                 0.0000
      3 ****        -4.7920   0.0241  -0.1523 C.ar           1 S1                 0.0000
      4 ****        -5.5434   1.1443  -0.1592 N.ar           1 S1                 0.0000
      5 ****        -4.9026   2.3309  -0.1767 C.ar           1 S1                 0.0000
      6 ****        -3.4997   2.4549  -0.1817 C.ar           1 S1                 0.0000
      7 ****        -2.7115   1.2787  -0.1590 C.ar           1 S1                 0.0000
      8 ****        -1.2887   1.2854  -0.1792 N.am           1 S1                 0.0000
      9 ****        -0.4319   2.2628   0.1772 C.2            1 S1                 0.0000
     10 ****        -0.7621   3.3773   0.5761 O.2            1 S1                 0.0000
     11 ****         0.8656   1.9175   0.0803 N.am           1 S1                 0.0000
     12 ****         2.0487   2.7266   0.3839 C.3            1 S1                 0.0000
     13 ****         3.2408   1.7998   0.6817 C.3            1 S1                 0.0000
     14 ****         4.5212   2.6057   0.9484 C.3            1 S1                 0.0000
     15 ****         4.8393   3.5519  -0.2200 C.3            1 S1                 0.0000
     16 ****         3.6574   4.4964  -0.5238 C.3            1 S1                 0.0000
     17 ****         3.9712   5.4657  -1.6821 C.3            1 S1                 0.0000
     18 ****         4.1962   4.7969  -2.8135 F              1 S1                 0.0000
     19 ****         2.9466   6.2979  -1.8698 F              1 S1                 0.0000
     20 ****         5.0492   6.1930  -1.3894 F              1 S1                 0.0000
     21 ****         2.3786   3.6741  -0.7896 C.3            1 S1                 0.0000
     22 ****        -3.2953  -2.1358  -0.1707 H              1 S1                 0.0000
     23 ****        -2.0015  -1.3616   0.7455 H              1 S1                 0.0000
     24 ****        -1.9663  -1.3494  -1.0240 H              1 S1                 0.0000
     25 ****        -5.3379  -0.9080  -0.1450 H              1 S1                 0.0000
     26 ****        -5.5277   3.2116  -0.1934 H              1 S1                 0.0000
     27 ****        -3.0642   3.4412  -0.2152 H              1 S1                 0.0000
     28 ****        -0.8625   0.4039  -0.4240 H              1 S1                 0.0000
     29 ****         1.0525   0.9813  -0.2489 H              1 S1                 0.0000
     30 ****         1.8628   3.3203   1.2808 H              1 S1                 0.0000
     31 ****         3.0184   1.1698   1.5439 H              1 S1                 0.0000
     32 ****         3.4074   1.1254  -0.1597 H              1 S1                 0.0000
     33 ****         4.4050   3.1836   1.8661 H              1 S1                 0.0000
     34 ****         5.3582   1.9270   1.1147 H              1 S1                 0.0000
     35 ****         5.7317   4.1312   0.0181 H              1 S1                 0.0000
     36 ****         5.0813   2.9644  -1.1065 H              1 S1                 0.0000
     37 ****         3.4810   5.1025   0.3663 H              1 S1                 0.0000
     38 ****         2.5004   3.0938  -1.7053 H              1 S1                 0.0000
     39 ****         1.5418   4.3494  -0.9675 H              1 S1                 0.0000
     40 ****        -6.5422   1.0966  -0.1516 LP             1 S1                 0.0000
     41 ****        -1.7306   3.6133   0.6554 LP             1 S1                 0.0000
     42 ****        -0.0623   4.0482   0.8213 LP             1 S1                 0.0000
@<TRIPOS>BOND
    1    1    2 1     
    2    1   22 1     
    3    1   23 1     
    4    1   24 1     
    5    2    7 ar    
    6    2    3 ar    
    7    3    4 ar    
    8    3   25 1     
    9    4    5 ar    
   10    5    6 ar    
   11    5   26 1     
   12    6    7 ar    
   13    6   27 1     
   14    7    8 1     
   15    8    9 am    
   16    8   28 1     
   17    9   10 2     
   18    9   11 am    
   19   11   12 1     
   20   11   29 1     
   21   12   21 1     
   22   12   13 1     
   23   12   30 1     
   24   13   14 1     
   25   13   31 1     
   26   13   32 1     
   27   14   15 1     
   28   14   33 1     
   29   14   34 1     
   30   15   16 1     
   31   15   35 1     
   32   15   36 1     
   33   16   17 1     
   34   16   21 1     
   35   16   37 1     
   36   17   18 1     
   37   17   19 1     
   38   17   20 1     
   39   21   38 1     
   40   21   39 1     
   41    4   40 1     
   42   10   41 1     
   43   10   42 1     
@<TRIPOS>SUBSTRUCTURE
      1 S1             1
@<TRIPOS>SET
LONE_PAIRS      STATIC     ATOMS    <user>   **** ""
3 40 41 42
DONOR_HYDROGENS      STATIC     ATOMS    <user>   **** ""
2 28 29
ATOM$BLUE        STATIC     ATOMS    COLORGROUP SYSTEM
3 40 41 42
ATOM$RED        STATIC     ATOMS    COLORGROUP SYSTEM
2 28 29
