AV-unprocessed.smi:100|AV-procd|sdf|906|dock6
  -GOLD-   2262017403D 1   1.00000     0.00000
 Structure written by MMmdl.
 31 33  0  0  0  0  0  0  0  0  1 V2000
  144.4185  138.0261  154.1223 N   0  0  0  0  0  0  0  0  0  0  0  0
  145.6903  137.7454  154.4385 C   0  0  0  0  0  0  0  0  0  0  0  0
  145.9390  136.6440  155.1853 N   0  0  0  0  0  0  0  0  0  0  0  0
  147.1996  136.3426  155.5132 C   0  0  0  0  0  0  0  0  0  0  0  0
  148.3224  136.9954  155.2021 N   0  0  0  0  0  0  0  0  0  0  0  0
  148.0702  138.1055  154.4495 C   0  0  0  0  0  0  0  0  0  0  0  0
  146.7854  138.5466  154.0273 C   0  0  0  0  0  0  0  0  0  0  0  0
  146.9068  139.7095  153.2788 N   0  0  0  0  0  0  0  0  0  0  0  0
  148.1923  139.9399  153.2640 C   0  0  0  0  0  0  0  0  0  0  0  0
  148.9671  139.0232  153.9410 N   0  0  0  0  0  0  0  0  0  0  0  0
  150.4536  139.0273  154.0933 C   0  0  1  0  0  0  0  0  0  0  0  0
  150.8158  140.1562  154.8287 O   0  0  0  0  0  0  0  0  0  0  0  0
  151.9294  139.8491  155.6692 C   0  0  1  0  0  0  0  0  0  0  0  0
  151.6341  140.2695  157.1233 C   0  0  0  0  0  0  0  0  0  0  0  0
  152.7677  140.1819  157.9619 O   0  0  0  0  0  0  0  0  0  0  0  0
  152.2457  138.3619  155.4463 C   0  0  2  0  0  0  0  0  0  0  0  0
  153.2098  138.2887  154.5237 F   0  0  0  0  0  0  0  0  0  0  0  0
  150.9347  137.8193  154.8954 C   0  0  2  0  0  0  0  0  0  0  0  0
  151.1565  136.6636  154.1112 O   0  0  0  0  0  0  0  0  0  0  0  0
  144.2074  138.8419  153.5658 H   0  0  0  0  0  0  0  0  0  0  0  0
  143.6749  137.4218  154.4403 H   0  0  0  0  0  0  0  0  0  0  0  0
  147.3282  135.4514  156.1095 H   0  0  0  0  0  0  0  0  0  0  0  0
  148.6148  140.7919  152.7512 H   0  0  0  0  0  0  0  0  0  0  0  0
  150.8653  139.0847  153.0838 H   0  0  0  0  0  0  0  0  0  0  0  0
  152.7650  140.4567  155.3182 H   0  0  0  0  0  0  0  0  0  0  0  0
  151.3043  141.3084  157.1391 H   0  0  0  0  0  0  0  0  0  0  0  0
  150.8205  139.6739  157.5386 H   0  0  0  0  0  0  0  0  0  0  0  0
  152.6935  140.8391  158.6370 H   0  0  0  0  0  0  0  0  0  0  0  0
  152.6027  137.8380  156.3335 H   0  0  0  0  0  0  0  0  0  0  0  0
  150.2369  137.6077  155.7064 H   0  0  0  0  0  0  0  0  0  0  0  0
  150.4457  136.5814  153.4939 H   0  0  0  0  0  0  0  0  0  0  0  0
  1  2  1  0  0  0  0
  1 20  1  0  0  0  0
  1 21  1  0  0  0  0
  2  7  1  0  0  0  0
  2  3  2  0  0  0  0
  3  4  1  0  0  0  0
  4  5  2  0  0  0  0
  4 22  1  0  0  0  0
  5  6  1  0  0  0  0
  6 10  1  0  0  0  0
  6  7  2  0  0  0  0
  7  8  1  0  0  0  0
  8  9  2  0  0  0  0
  9 10  1  0  0  0  0
  9 23  1  0  0  0  0
 10 11  1  0  0  0  0
 11 18  1  0  0  0  0
 11 12  1  0  0  0  0
 11 24  1  0  0  0  0
 12 13  1  0  0  0  0
 13 14  1  0  0  0  0
 13 16  1  0  0  0  0
 13 25  1  0  0  0  0
 14 15  1  0  0  0  0
 14 26  1  0  0  0  0
 14 27  1  0  0  0  0
 15 28  1  0  0  0  0
 16 17  1  0  0  0  0
 16 18  1  0  0  0  0
 16 29  1  0  0  0  0
 18 19  1  0  0  0  0
 18 30  1  0  0  0  0
 19 31  1  0  0  0  0
M  END
> <s_m_source_file>
AV-unprocessed.smi

> <i_m_source_file_index>
100

> <i_lp_mmshare_version>
43012

> <i_f3d_flags>
0

> <s_epik_input>
bjFbY0hdbmMoW05IMl0pYyhjMTIpbltjSF1uMltDQEBIXTNPW0NAQEhdKFtDSDJdW09IXSlbQ0BIXShGKVtDQEhdM1tPSF0=

> <s_epik_cmdline>
J2VwaWtfcHl0aG9uJywgJy1waCcsICc3LjAnLCAnLXRuJywgJzgnLCAnLW1hJywgJzIwMCcsICctbWV0YWxfYmluZGluZycsICctaW1hZScsICc8aW5maWxlLm1hZT4nLCAnLW9tYWUnLCAnPG91dGZpbGUubWFlPic=

> <r_lp_tautomer_probability>
1

> <r_epik_Ionization_Penalty>
0.000750324

> <r_epik_Ionization_Penalty_Charging>
0

> <r_epik_Ionization_Penalty_Neutral>
0.000750324

> <r_epik_State_Penalty>
-0

> <r_epik_Charging_Adjusted_Penalty>
0

> <i_epik_Tot_Q>
0

> <i_epik_Tot_abs_Q>
0

> <r_epik_Metal_State_Penalty>
-0

> <b_epik_Metal_Only>
0

> <s_epik_Chemistry_Notes>
This compound contains an acetal/aminal-like group ( X-CH(R)-Y where X, Y are N, S, or O) that may be acid/base labile, releasing an aldehyde.

> <s_lp_Force_Field>
OPLS_2005

> <r_lp_Energy>
36.265

> <b_lp_Chiralities_Consistent>
1

> <s_lp_Variant>
AV-unprocessed.smi:100-10

> <Gold.Version>
5.8.1

> <Gold.Id.Protein>
6NUR|6NUR_protein|mol2

> <Gold.PLP.Fitness>
36.2818

> <Gold.PLP.PLP>
-23.3710

> <Gold.PLP.part.hbond>
-5.6227

> <Gold.PLP.part.metal>
0.0000

> <Gold.PLP.part.buried>
4.0423

> <Gold.PLP.part.nonpolar>
-21.3786

> <Gold.PLP.part.repulsive>
0.3869

> <Gold.PLP.ligand.clash>
0.0000

> <Gold.PLP.ligand.torsion>
0.0601

> <Gold.PLP.Chemscore.Hbond>
3.8200

> <Gold.PLP.Chemscore.CHOScore>
0.5195

> <Gold.PLP.Chemscore.Metal>
0.0000

> <Gold.Chemscore.Hbonds>
donor molecule, donor type, donor heavy atom, donor atom, acceptor molecule, acceptor atom, score
      L1  H     1    20       P1 10175  1.00
      L1  H    19    31       P1  7948  0.22
      P1  H  7989  7998       L1    12  0.65
      P1  H  7997  8009       L1    15  1.00
      P1  H 10752 10763       L1    19  0.96
      L1  C     9    23       P1  7957  0.50

> <Gold.PLP.Chemscore.Internal.Correction>
0.0124

> <Gold.Rescore>
     Score         DG    S(hbond)    S(metal)    S(lipo)     H(rot)  DE(clash)    DE(int)     intcor
      6.55      -9.98       2.75        0.00      29.89       3.19       1.90       1.53       ----

> <Gold.Chemscore.Fitness>
6.5494

> <Gold.Chemscore.DG>
-9.9822

> <Gold.Chemscore.ZeroCoef>
-5.4800

> <Gold.Chemscore.Hbond>
2.7461

> <Gold.Chemscore.Metal>
0.0000

> <Gold.Chemscore.Lipo>
29.8892

> <Gold.Chemscore.Internal_Hbond>
0.0000

> <Gold.Chemscore.DEClash>
1.9003

> <Gold.Chemscore.DEInternal>
1.5326

> <Gold.Chemscore.Rot>
3.1901

> <Gold.Chemscore.Internal.Correction>
   9.000000E+99

> <Gold.Chemscore.Hbonds>
donor molecule, donor type, donor heavy atom, donor atom, acceptor molecule, acceptor atom, score
      L1  H     1    20       P1 10175  0.94
      P1  H  7989  7998       L1    12  0.01
      P1  H  7997  8009       L1    15  0.70
      P1  H 10752 10763       L1    19  0.88

> <Gold.Chemscore.Hbond.Weighted>
-9.1718

> <Gold.Chemscore.Metal.Weighted>
-0.0000

> <Gold.Chemscore.Lipo.Weighted>
-3.4970

> <Gold.Chemscore.Internal_Hbond.Weighted>
0.0000

> <Gold.Chemscore.DEClash.Weighted>
1.9003

> <Gold.Chemscore.DEInternal.Weighted>
1.5326

> <Gold.Chemscore.Rot.Weighted>
8.1667

> <Gold.Chemscore.Internal.Correction.Weighted>
   9.000000E+99

> <Gold.Protein.RotatedTorsions>
[ 6907 6896 6895 6894 ] final  136.77 input  -60.11 | X-H torsion
[ 7974 7965 7964 7962 ] final  -59.23 input  175.53 | X-H torsion
[ 8008 7997 7996 7995 ] final  164.67 input   59.86 | X-H torsion
[ 10167 10162 10161 10158 ] final  108.20 input  -65.29 | X-H torsion
[ 10718 10713 10712 10709 ] final -116.44 input   66.30 | X-H torsion
[ 10763 10752 10751 10750 ] final   38.96 input  -60.55 | X-H torsion
[ 11005 11000 10999 10996 ] final  -80.80 input  -57.11 | X-H torsion

> <Gold.Protein.ActiveResidues>
 VAL166  LYS551  ARG553  GLY616  TRP617  ASP618  TYR619  PRO620  LYS621  CYS622 
 ASP623  PHE694  ASN695  SER759  ASP760  ASP761  ALA762  ILE779  LEU786  VAL792 
 PHE793  MET794  SER795  GLU796  ALA797  LYS798  CYS799  TRP800  GLU811  SER814 

> <Gold.Protein.RotatedAtoms>
  152.2856  133.5512  159.5524 H   0  0  0  0  0  0  0  0  0  0  0  0  # atno 6907 bound_to 6896
  150.7214  134.0502  159.3804 H   0  0  0  0  0  0  0  0  0  0  0  0  # atno 6908 bound_to 6896
  151.8410  135.0590  160.0499 H   0  0  0  0  0  0  0  0  0  0  0  0  # atno 6909 bound_to 6896
  145.8299  140.8486  143.0089 H   0  0  0  0  0  0  0  0  0  0  0  0  # atno 7974 bound_to 7965
  156.1862  140.1690  156.8181 H   0  0  0  0  0  0  0  0  0  0  0  0  # atno 8008 bound_to 7997
  154.5417  140.0735  156.8553 H   0  0  0  0  0  0  0  0  0  0  0  0  # atno 8009 bound_to 7997
  155.3202  140.3373  155.4244 H   0  0  0  0  0  0  0  0  0  0  0  0  # atno 8010 bound_to 7997
  139.6865  144.7113  151.1422 H   0  0  0  0  0  0  0  0  0  0  0  0  # atno 10167 bound_to 10162
  156.0963  130.6135  150.9035 H   0  0  0  0  0  0  0  0  0  0  0  0  # atno 10718 bound_to 10713
  152.9983  135.6234  154.2388 H   0  0  0  0  0  0  0  0  0  0  0  0  # atno 10763 bound_to 10752
  154.2129  135.2799  155.2954 H   0  0  0  0  0  0  0  0  0  0  0  0  # atno 10764 bound_to 10752
  154.5592  135.5710  153.7050 H   0  0  0  0  0  0  0  0  0  0  0  0  # atno 10765 bound_to 10752
  141.1667  133.7167  156.8326 H   0  0  0  0  0  0  0  0  0  0  0  0  # atno 11005 bound_to 11000
  144.6740  140.0657  143.7474 LP  0  0  0  0  0  0  0  0  0  0  0  0  # atno 17320 bound_to 7965
  145.9582  139.2782  143.1171 LP  0  0  0  0  0  0  0  0  0  0  0  0  # atno 17321 bound_to 7965
  140.7669  143.5621  150.9087 LP  0  0  0  0  0  0  0  0  0  0  0  0  # atno 17342 bound_to 10162
  139.9296  143.6509  152.3079 LP  0  0  0  0  0  0  0  0  0  0  0  0  # atno 17343 bound_to 10162
  157.6125  131.0935  150.8769 LP  0  0  0  0  0  0  0  0  0  0  0  0  # atno 17370 bound_to 10713
  156.8907  130.5211  149.5286 LP  0  0  0  0  0  0  0  0  0  0  0  0  # atno 17371 bound_to 10713
  140.2040  134.8876  157.3201 LP  0  0  0  0  0  0  0  0  0  0  0  0  # atno 17394 bound_to 11000
  140.2157  134.4084  155.7590 LP  0  0  0  0  0  0  0  0  0  0  0  0  # atno 17395 bound_to 11000

$$$$
