AV-unprocessed.smi:25|AV-procd|sdf|182|dock2
  -GOLD-   2262015443D 1   1.00000     0.00000
 Structure written by MMmdl.
 47 50  0  0  0  0  0  0  0  0  1 V2000
  154.1074  139.1521  159.4245 C   0  0  0  0  0  0  0  0  0  0  0  0
  152.9762  140.0698  159.9318 C   0  0  1  0  0  0  0  0  0  0  0  0
  153.5194  141.4638  160.3170 C   0  0  0  0  0  0  0  0  0  0  0  0
  152.8070  142.3822  159.3740 C   0  0  0  0  0  0  0  0  0  0  0  0
  152.9963  143.7716  159.2789 C   0  0  0  0  0  0  0  0  0  0  0  0
  152.2391  144.4866  158.3304 C   0  0  0  0  0  0  0  0  0  0  0  0
  151.3173  143.8082  157.5038 C   0  0  0  0  0  0  0  0  0  0  0  0
  151.1405  142.4114  157.6129 C   0  0  0  0  0  0  0  0  0  0  0  0
  151.9035  141.6928  158.5659 C   0  0  0  0  0  0  0  0  0  0  0  0
  151.9399  140.3035  158.8982 N   0  0  0  0  0  0  0  0  0  0  0  0
  151.1129  139.2935  158.5104 C   0  0  0  0  0  0  0  0  0  0  0  0
  150.3258  139.4443  157.5726 O   0  0  0  0  0  0  0  0  0  0  0  0
  151.1435  137.9198  159.2069 C   0  0  0  0  0  0  0  0  0  0  0  0
  150.0410  137.0196  158.7945 N   0  0  0  0  0  0  0  0  0  0  0  0
  149.9862  136.5763  157.4498 C   0  0  0  0  0  0  0  0  0  0  0  0
  150.8226  136.9379  156.6209 O   0  0  0  0  0  0  0  0  0  0  0  0
  148.8875  135.6726  157.1310 C   0  0  0  0  0  0  0  0  0  0  0  0
  148.7944  135.1470  155.8977 F   0  0  0  0  0  0  0  0  0  0  0  0
  147.9696  135.3391  158.0612 C   0  0  0  0  0  0  0  0  0  0  0  0
  147.9878  135.8399  159.3511 N   0  0  0  0  0  0  0  0  0  0  0  0
  146.9893  135.3863  160.3964 C   0  0  1  0  0  0  0  0  0  0  0  0
  147.6162  134.6322  161.5825 C   0  0  0  0  0  0  0  0  0  0  0  0
  147.5596  135.6667  162.6894 C   0  0  0  0  0  0  0  0  0  0  0  0
  146.3074  136.4495  162.3142 C   0  0  0  0  0  0  0  0  0  0  0  0
  146.3577  136.5273  160.8957 O   0  0  0  0  0  0  0  0  0  0  0  0
  149.0694  136.6536  159.7583 C   0  0  0  0  0  0  0  0  0  0  0  0
  149.1607  137.0459  160.9239 O   0  0  0  0  0  0  0  0  0  0  0  0
  154.8842  139.0397  160.1811 H   0  0  0  0  0  0  0  0  0  0  0  0
  154.5743  139.5623  158.5283 H   0  0  0  0  0  0  0  0  0  0  0  0
  153.7485  138.1520  159.1821 H   0  0  0  0  0  0  0  0  0  0  0  0
  152.5172  139.6200  160.8143 H   0  0  0  0  0  0  0  0  0  0  0  0
  153.2691  141.7216  161.3467 H   0  0  0  0  0  0  0  0  0  0  0  0
  154.5994  141.5506  160.1906 H   0  0  0  0  0  0  0  0  0  0  0  0
  153.7052  144.2789  159.9166 H   0  0  0  0  0  0  0  0  0  0  0  0
  152.3645  145.5549  158.2349 H   0  0  0  0  0  0  0  0  0  0  0  0
  150.7415  144.3642  156.7786 H   0  0  0  0  0  0  0  0  0  0  0  0
  150.4253  141.9575  156.9519 H   0  0  0  0  0  0  0  0  0  0  0  0
  152.1108  137.4554  159.0147 H   0  0  0  0  0  0  0  0  0  0  0  0
  151.0914  138.0722  160.2851 H   0  0  0  0  0  0  0  0  0  0  0  0
  147.1992  134.6451  157.7659 H   0  0  0  0  0  0  0  0  0  0  0  0
  146.2764  134.7429  159.8783 H   0  0  0  0  0  0  0  0  0  0  0  0
  146.9667  133.7915  161.8302 H   0  0  0  0  0  0  0  0  0  0  0  0
  148.6091  134.2353  161.3713 H   0  0  0  0  0  0  0  0  0  0  0  0
  147.5034  135.2249  163.6843 H   0  0  0  0  0  0  0  0  0  0  0  0
  148.4329  136.3185  162.6548 H   0  0  0  0  0  0  0  0  0  0  0  0
  145.4100  135.9044  162.6110 H   0  0  0  0  0  0  0  0  0  0  0  0
  146.2747  137.4391  162.7696 H   0  0  0  0  0  0  0  0  0  0  0  0
  1  2  1  0  0  0  0
  1 28  1  0  0  0  0
  1 29  1  0  0  0  0
  1 30  1  0  0  0  0
  2 10  1  0  0  0  0
  2  3  1  0  0  0  0
  2 31  1  0  0  0  0
  3  4  1  0  0  0  0
  3 32  1  0  0  0  0
  3 33  1  0  0  0  0
  4  9  2  0  0  0  0
  4  5  1  0  0  0  0
  5  6  2  0  0  0  0
  5 34  1  0  0  0  0
  6  7  1  0  0  0  0
  6 35  1  0  0  0  0
  7  8  2  0  0  0  0
  7 36  1  0  0  0  0
  8  9  1  0  0  0  0
  8 37  1  0  0  0  0
  9 10  1  0  0  0  0
 10 11  1  0  0  0  0
 11 12  2  0  0  0  0
 11 13  1  0  0  0  0
 13 14  1  0  0  0  0
 13 38  1  0  0  0  0
 13 39  1  0  0  0  0
 14 26  1  0  0  0  0
 14 15  1  0  0  0  0
 15 16  2  0  0  0  0
 15 17  1  0  0  0  0
 17 18  1  0  0  0  0
 17 19  2  0  0  0  0
 19 20  1  0  0  0  0
 19 40  1  0  0  0  0
 20 21  1  0  0  0  0
 20 26  1  0  0  0  0
 21 25  1  0  0  0  0
 21 22  1  0  0  0  0
 21 41  1  0  0  0  0
 22 23  1  0  0  0  0
 22 42  1  0  0  0  0
 22 43  1  0  0  0  0
 23 24  1  0  0  0  0
 23 44  1  0  0  0  0
 23 45  1  0  0  0  0
 24 25  1  0  0  0  0
 24 46  1  0  0  0  0
 24 47  1  0  0  0  0
 26 27  2  0  0  0  0
M  END
> <s_m_source_file>
AV-unprocessed.smi

> <i_m_source_file_index>
25

> <i_lp_mmshare_version>
43012

> <i_f3d_flags>
0

> <s_epik_input>
W2NIXTFbY0hdW2NIXVtjSF1jKGMxMilOKFtDQEhdKFtDSDNdKVtDSDJdMilDKD1PKVtDSDJdbjNjKD1PKWMoRilbY0hdbihjMz1PKVtDQEBIXTRbQ0gyXVtDSDJdW0NIMl1PNA==

> <s_epik_cmdline>
J2VwaWtfcHl0aG9uJywgJy1waCcsICc3LjAnLCAnLXRuJywgJzgnLCAnLW1hJywgJzIwMCcsICctbWV0YWxfYmluZGluZycsICctaW1hZScsICc8aW5maWxlLm1hZT4nLCAnLW9tYWUnLCAnPG91dGZpbGUubWFlPic=

> <r_lp_tautomer_probability>
1

> <r_epik_Ionization_Penalty>
1.67943e-06

> <r_epik_Ionization_Penalty_Charging>
3.79603e-09

> <r_epik_Ionization_Penalty_Neutral>
1.67563e-06

> <r_epik_State_Penalty>
-0

> <r_epik_Charging_Adjusted_Penalty>
3.79603e-09

> <i_epik_Tot_Q>
0

> <i_epik_Tot_abs_Q>
0

> <r_epik_Metal_State_Penalty>
-0

> <b_epik_Metal_Only>
0

> <s_epik_Chemistry_Notes>
This compound contains an acetal/aminal-like group ( X-CH(R)-Y where X, Y are N, S, or O) that may be acid/base labile, releasing an aldehyde.

> <s_lp_Force_Field>
OPLS_2005

> <r_lp_Energy>
55.1146

> <b_lp_Chiralities_Consistent>
1

> <s_lp_Variant>
AV-unprocessed.smi:25-4

> <Gold.Version>
5.8.1

> <Gold.Id.Protein>
6NUR|6NUR_protein|mol2

> <Gold.PLP.Fitness>
50.4498

> <Gold.PLP.PLP>
-48.3609

> <Gold.PLP.part.hbond>
-0.6592

> <Gold.PLP.part.metal>
0.0000

> <Gold.PLP.part.buried>
-4.9732

> <Gold.PLP.part.nonpolar>
-44.3042

> <Gold.PLP.part.repulsive>
0.0000

> <Gold.PLP.ligand.clash>
0.0000

> <Gold.PLP.ligand.torsion>
0.1963

> <Gold.PLP.Chemscore.Hbond>
0.7680

> <Gold.PLP.Chemscore.CHOScore>
0.0000

> <Gold.PLP.Chemscore.Metal>
0.0000

> <Gold.Chemscore.Hbonds>
donor molecule, donor type, donor heavy atom, donor atom, acceptor molecule, acceptor atom, score
      P1  H  6931  6943       L1    27  0.78

> <Gold.PLP.Chemscore.Internal.Correction>
0.1776

> <Gold.Rescore>
     Score         DG    S(hbond)    S(metal)    S(lipo)     H(rot)  DE(clash)    DE(int)     intcor
     14.83     -16.26       0.79        0.00     103.58       1.55       0.00       1.43       ----

> <Gold.Chemscore.Fitness>
14.8293

> <Gold.Chemscore.DG>
-16.2618

> <Gold.Chemscore.ZeroCoef>
-5.4800

> <Gold.Chemscore.Hbond>
0.7870

> <Gold.Chemscore.Metal>
0.0000

> <Gold.Chemscore.Lipo>
103.5757

> <Gold.Chemscore.Internal_Hbond>
0.0000

> <Gold.Chemscore.DEClash>
0.0000

> <Gold.Chemscore.DEInternal>
1.4325

> <Gold.Chemscore.Rot>
1.5489

> <Gold.Chemscore.Internal.Correction>
   9.000000E+99

> <Gold.Chemscore.Hbonds>
donor molecule, donor type, donor heavy atom, donor atom, acceptor molecule, acceptor atom, score
      P1  H  6931  6943       L1    27  0.73

> <Gold.Chemscore.Hbond.Weighted>
-2.6286

> <Gold.Chemscore.Metal.Weighted>
-0.0000

> <Gold.Chemscore.Lipo.Weighted>
-12.1184

> <Gold.Chemscore.Internal_Hbond.Weighted>
0.0000

> <Gold.Chemscore.DEClash.Weighted>
0.0000

> <Gold.Chemscore.DEInternal.Weighted>
1.4325

> <Gold.Chemscore.Rot.Weighted>
3.9651

> <Gold.Chemscore.Internal.Correction.Weighted>
   9.000000E+99

> <Gold.Protein.RotatedTorsions>
[ 6907 6896 6895 6894 ] final  -56.26 input  -60.11 | X-H torsion
[ 7974 7965 7964 7962 ] final -122.07 input  175.53 | X-H torsion
[ 8008 7997 7996 7995 ] final  -98.60 input   59.86 | X-H torsion
[ 10167 10162 10161 10158 ] final -171.55 input  -65.29 | X-H torsion
[ 10718 10713 10712 10709 ] final  -13.29 input   66.30 | X-H torsion
[ 10763 10752 10751 10750 ] final -168.38 input  -60.55 | X-H torsion
[ 11005 11000 10999 10996 ] final  171.69 input  -57.11 | X-H torsion

> <Gold.Protein.ActiveResidues>
 VAL166  LYS551  ARG553  GLY616  TRP617  ASP618  TYR619  PRO620  LYS621  CYS622 
 ASP623  PHE694  ASN695  SER759  ASP760  ASP761  ALA762  ILE779  LEU786  VAL792 
 PHE793  MET794  SER795  GLU796  ALA797  LYS798  CYS799  TRP800  GLU811  SER814 

> <Gold.Protein.RotatedAtoms>
  150.8182  134.7375  159.6748 H   0  0  0  0  0  0  0  0  0  0  0  0  # atno 6907 bound_to 6896
  152.4299  134.5794  159.9953 H   0  0  0  0  0  0  0  0  0  0  0  0  # atno 6908 bound_to 6896
  151.5985  133.3321  159.3078 H   0  0  0  0  0  0  0  0  0  0  0  0  # atno 6909 bound_to 6896
  145.0334  140.8086  143.4309 H   0  0  0  0  0  0  0  0  0  0  0  0  # atno 7974 bound_to 7965
  154.8034  140.0454  157.1289 H   0  0  0  0  0  0  0  0  0  0  0  0  # atno 8008 bound_to 7997
  154.9452  140.3058  155.5081 H   0  0  0  0  0  0  0  0  0  0  0  0  # atno 8009 bound_to 7997
  156.2964  140.2298  156.4525 H   0  0  0  0  0  0  0  0  0  0  0  0  # atno 8010 bound_to 7997
  139.5796  144.1454  152.1497 H   0  0  0  0  0  0  0  0  0  0  0  0  # atno 10167 bound_to 10162
  156.6324  130.4905  149.6124 H   0  0  0  0  0  0  0  0  0  0  0  0  # atno 10718 bound_to 10713
  154.6634  135.2928  154.9837 H   0  0  0  0  0  0  0  0  0  0  0  0  # atno 10763 bound_to 10752
  154.0888  135.6593  153.4853 H   0  0  0  0  0  0  0  0  0  0  0  0  # atno 10764 bound_to 10752
  153.0443  135.5215  154.7596 H   0  0  0  0  0  0  0  0  0  0  0  0  # atno 10765 bound_to 10752
  140.3217  134.7431  157.4069 H   0  0  0  0  0  0  0  0  0  0  0  0  # atno 11005 bound_to 11000
  145.1740  139.2388  143.5327 LP  0  0  0  0  0  0  0  0  0  0  0  0  # atno 17320 bound_to 7965
  146.3501  140.1498  142.8592 LP  0  0  0  0  0  0  0  0  0  0  0  0  # atno 17321 bound_to 7965
  140.1004  144.5544  150.6992 LP  0  0  0  0  0  0  0  0  0  0  0  0  # atno 17342 bound_to 10162
  140.7075  143.2479  151.4681 LP  0  0  0  0  0  0  0  0  0  0  0  0  # atno 17343 bound_to 10162
  156.2224  130.6745  151.1381 LP  0  0  0  0  0  0  0  0  0  0  0  0  # atno 17370 bound_to 10713
  157.7196  131.0690  150.6190 LP  0  0  0  0  0  0  0  0  0  0  0  0  # atno 17371 bound_to 10713
  140.0936  134.5568  155.8420 LP  0  0  0  0  0  0  0  0  0  0  0  0  # atno 17394 bound_to 11000
  141.2085  133.6674  156.6374 LP  0  0  0  0  0  0  0  0  0  0  0  0  # atno 17395 bound_to 11000

$$$$
