AV-unprocessed.smi:157|AV-procd|sdf|1308|dock4
  -GOLD-   2262018593D 1   1.00000     0.00000
 Structure written by MMmdl.
 36 38  0  0  0  0  0  0  0  0  2 V2000
  143.7915  133.1989  147.7612 O   0  0  0  0  0  0  0  0  0  0  0  0
  144.3537  132.2947  148.6882 C   0  0  0  0  0  0  0  0  0  0  0  0
  144.4462  132.9461  150.0789 C   0  0  2  0  0  0  0  0  0  0  0  0
  144.3941  134.3690  149.9838 O   0  0  0  0  0  0  0  0  0  0  0  0
  145.2497  134.9466  150.9232 C   0  0  1  0  0  0  0  0  0  0  0  0
  144.4894  135.9792  151.6922 N   0  0  0  0  0  0  0  0  0  0  0  0
  144.8371  137.2776  151.8030 C   0  0  0  0  0  0  0  0  0  0  0  0
  144.0026  138.0079  152.5229 N   0  3  0  0  0  0  0  0  0  0  0  0
  142.9986  137.1591  152.9375 C   0  0  0  0  0  0  0  0  0  0  0  0
  143.3208  135.9016  152.4199 C   0  0  0  0  0  0  0  0  0  0  0  0
  142.6369  134.6822  152.5434 N   0  0  0  0  0  0  0  0  0  0  0  0
  141.7163  134.4737  153.4273 C   0  0  0  0  0  0  0  0  0  0  0  0
  141.1560  135.3610  154.3309 N   0  0  0  0  0  0  0  0  0  0  0  0
  140.7153  136.6939  153.9603 C   0  0  0  0  0  0  0  0  0  0  0  0
  141.8657  137.6890  153.7601 C   0  0  1  0  0  0  0  0  0  0  0  0
  142.2861  138.1536  155.0261 O   0  0  0  0  0  0  0  0  0  0  0  0
  145.7540  133.8310  151.8402 C   0  0  0  0  0  0  0  0  0  0  0  0
  145.6999  132.6352  150.9129 C   0  0  2  0  0  0  0  0  0  0  0  0
  146.8729  132.5636  150.1239 O   0  0  0  0  0  0  0  0  0  0  0  0
  143.5716  132.6518  150.6613 H   0  0  0  0  0  0  0  0  0  0  0  0
  146.0531  135.4815  150.4145 H   0  0  0  0  0  0  0  0  0  0  0  0
  141.4609  138.5588  153.2417 H   0  0  0  0  0  0  0  0  0  0  0  0
  145.5970  131.6991  151.4626 H   0  0  0  0  0  0  0  0  0  0  0  0
  144.4397  133.8534  147.5489 H   0  0  0  0  0  0  0  0  0  0  0  0
  143.7678  131.3756  148.7116 H   0  0  0  0  0  0  0  0  0  0  0  0
  145.3509  132.0251  148.3396 H   0  0  0  0  0  0  0  0  0  0  0  0
  145.7198  137.6813  151.3400 H   0  0  0  0  0  0  0  0  0  0  0  0
  141.2803  133.4770  153.5095 H   0  0  0  0  0  0  0  0  0  0  0  0
  140.6090  134.9908  155.0954 H   0  0  0  0  0  0  0  0  0  0  0  0
  140.1585  136.6052  153.0261 H   0  0  0  0  0  0  0  0  0  0  0  0
  140.0060  137.0656  154.7005 H   0  0  0  0  0  0  0  0  0  0  0  0
  142.8258  137.4910  155.4290 H   0  0  0  0  0  0  0  0  0  0  0  0
  146.7455  134.0545  152.2355 H   0  0  0  0  0  0  0  0  0  0  0  0
  145.0649  133.6894  152.6737 H   0  0  0  0  0  0  0  0  0  0  0  0
  147.4132  131.8621  150.4551 H   0  0  0  0  0  0  0  0  0  0  0  0
  144.0840  138.9976  152.7182 H   0  0  0  0  0  0  0  0  0  0  0  0
  1  2  1  0  0  0  0
  1 24  1  0  0  0  0
  2  3  1  0  0  0  0
  2 25  1  0  0  0  0
  2 26  1  0  0  0  0
  3 20  1  0  0  0  0
  3 18  1  0  0  0  0
  3  4  1  0  0  0  0
  4  5  1  0  0  0  0
  5 21  1  0  0  0  0
  5  6  1  0  0  0  0
  5 17  1  0  0  0  0
  6 10  1  0  0  0  0
  6  7  1  0  0  0  0
  7  8  2  0  0  0  0
  7 27  1  0  0  0  0
  8  9  1  0  0  0  0
  8 36  1  0  0  0  0
  9 15  1  0  0  0  0
  9 10  2  0  0  0  0
 10 11  1  0  0  0  0
 11 12  2  0  0  0  0
 12 13  1  0  0  0  0
 12 28  1  0  0  0  0
 13 14  1  0  0  0  0
 13 29  1  0  0  0  0
 14 15  1  0  0  0  0
 14 30  1  0  0  0  0
 14 31  1  0  0  0  0
 15 22  1  0  0  0  0
 15 16  1  0  0  0  0
 16 32  1  0  0  0  0
 17 18  1  0  0  0  0
 17 33  1  0  0  0  0
 17 34  1  0  0  0  0
 18 23  1  0  0  0  0
 18 19  1  0  0  0  0
 19 35  1  0  0  0  0
M  CHG  1   8   1
M  END
> <s_m_source_file>
AV-unprocessed.smi

> <i_m_source_file_index>
157

> <i_lp_mmshare_version>
43012

> <i_f3d_flags>
0

> <s_epik_input>
W09IXVtDSDJdW0NASF0xT1tDQEhdKFtDSDJdW0NAQEhdMVtPSF0pbihbY0hdbjIpYyhjMjMpTj1bQ0hdW05IXVtDSDJdW0NASF0zW09IXQ==

> <s_epik_cmdline>
J2VwaWtfcHl0aG9uJywgJy1waCcsICc3LjAnLCAnLXRuJywgJzgnLCAnLW1hJywgJzIwMCcsICctbWV0YWxfYmluZGluZycsICctaW1hZScsICc8aW5maWxlLm1hZT4nLCAnLW9tYWUnLCAnPG91dGZpbGUubWFlPic=

> <r_epik_Ionization_Penalty>
1.68594

> <r_epik_Ionization_Penalty_Charging>
0

> <r_epik_Ionization_Penalty_Neutral>
1.68594

> <r_epik_State_Penalty>
1.79006

> <r_epik_Charging_Adjusted_Penalty>
1.79006

> <i_epik_Tot_Q>
1

> <i_epik_Tot_abs_Q>
1

> <r_epik_Metal_State_Penalty>
5.85324

> <b_epik_Metal_Only>
0

> <s_epik_Chemistry_Notes>
This compound has an imine and may undergo hydrolysis. This compound contains an acetal/aminal-like group ( X-CH(R)-Y where X, Y are N, S, or O) that may be acid/base labile, releasing an aldehyde.

> <s_lp_Force_Field>
OPLS_2005

> <r_lp_Energy>
54.692

> <b_lp_Chiralities_Consistent>
1

> <s_lp_Variant>
AV-unprocessed.smi:157-18

> <Gold.Version>
5.8.1

> <Gold.Id.Protein>
6NUR|6NUR_protein|mol2

> <Gold.PLP.Fitness>
49.9949

> <Gold.PLP.PLP>
-34.2097

> <Gold.PLP.part.hbond>
-6.8478

> <Gold.PLP.part.metal>
0.0000

> <Gold.PLP.part.buried>
-2.6363

> <Gold.PLP.part.nonpolar>
-26.5069

> <Gold.PLP.part.repulsive>
1.6571

> <Gold.PLP.ligand.clash>
0.0000

> <Gold.PLP.ligand.torsion>
0.5720

> <Gold.PLP.Chemscore.Hbond>
4.9120

> <Gold.PLP.Chemscore.CHOScore>
0.7297

> <Gold.PLP.Chemscore.Metal>
0.0000

> <Gold.Chemscore.Hbonds>
donor molecule, donor type, donor heavy atom, donor atom, acceptor molecule, acceptor atom, score
      L1  H     1    24       P1  7921  1.00
      L1  H     8    36       P1 10175  1.97
      L1  H    13    29       P1 11000  1.00
      L1  H    19    35       P1 10747  0.93
      L1  C    12    28       P1 10957  0.74

> <Gold.PLP.Chemscore.Internal.Correction>
0.0040

> <Gold.Rescore>
     Score         DG    S(hbond)    S(metal)    S(lipo)     H(rot)  DE(clash)    DE(int)     intcor
     11.80     -13.69       3.63        0.00      46.65       3.67       1.39       0.50       ----

> <Gold.Chemscore.Fitness>
11.7975

> <Gold.Chemscore.DG>
-13.6859

> <Gold.Chemscore.ZeroCoef>
-5.4800

> <Gold.Chemscore.Hbond>
3.6326

> <Gold.Chemscore.Metal>
0.0000

> <Gold.Chemscore.Lipo>
46.6475

> <Gold.Chemscore.Internal_Hbond>
0.0000

> <Gold.Chemscore.DEClash>
1.3906

> <Gold.Chemscore.DEInternal>
0.4978

> <Gold.Chemscore.Rot>
3.6659

> <Gold.Chemscore.Internal.Correction>
   9.000000E+99

> <Gold.Chemscore.Hbonds>
donor molecule, donor type, donor heavy atom, donor atom, acceptor molecule, acceptor atom, score
      L1  H     1    24       P1  7921  0.98
      L1  H     8    36       P1 10175  0.87
      L1  H    13    29       P1 11000  0.98
      L1  H    19    35       P1 10747  0.91

> <Gold.Chemscore.Hbond.Weighted>
-12.1330

> <Gold.Chemscore.Metal.Weighted>
-0.0000

> <Gold.Chemscore.Lipo.Weighted>
-5.4578

> <Gold.Chemscore.Internal_Hbond.Weighted>
0.0000

> <Gold.Chemscore.DEClash.Weighted>
1.3906

> <Gold.Chemscore.DEInternal.Weighted>
0.4978

> <Gold.Chemscore.Rot.Weighted>
9.3848

> <Gold.Chemscore.Internal.Correction.Weighted>
   9.000000E+99

> <Gold.Protein.RotatedTorsions>
[ 6907 6896 6895 6894 ] final  -96.36 input  -60.11 | X-H torsion
[ 7974 7965 7964 7962 ] final  119.61 input  175.53 | X-H torsion
[ 8008 7997 7996 7995 ] final  -17.73 input   59.86 | X-H torsion
[ 10167 10162 10161 10158 ] final   84.41 input  -65.29 | X-H torsion
[ 10718 10713 10712 10709 ] final    9.13 input   66.30 | X-H torsion
[ 10763 10752 10751 10750 ] final  162.00 input  -60.55 | X-H torsion
[ 11005 11000 10999 10996 ] final -144.29 input  -57.11 | X-H torsion

> <Gold.Protein.ActiveResidues>
 VAL166  LYS551  ARG553  GLY616  TRP617  ASP618  TYR619  PRO620  LYS621  CYS622 
 ASP623  PHE694  ASN695  SER759  ASP760  ASP761  ALA762  ILE779  LEU786  VAL792 
 PHE793  MET794  SER795  GLU796  ALA797  LYS798  CYS799  TRP800  GLU811  SER814 

> <Gold.Protein.RotatedAtoms>
  150.6987  134.1515  159.4141 H   0  0  0  0  0  0  0  0  0  0  0  0  # atno 6907 bound_to 6896
  151.9497  135.0172  160.0550 H   0  0  0  0  0  0  0  0  0  0  0  0  # atno 6908 bound_to 6896
  152.2021  133.4814  159.5101 H   0  0  0  0  0  0  0  0  0  0  0  0  # atno 6909 bound_to 6896
  145.1411  139.3267  143.4615 H   0  0  0  0  0  0  0  0  0  0  0  0  # atno 7974 bound_to 7965
  154.4957  140.2135  155.9452 H   0  0  0  0  0  0  0  0  0  0  0  0  # atno 8008 bound_to 7997
  156.1367  140.3187  155.8399 H   0  0  0  0  0  0  0  0  0  0  0  0  # atno 8009 bound_to 7997
  155.4197  140.0496  157.3017 H   0  0  0  0  0  0  0  0  0  0  0  0  # atno 8010 bound_to 7997
  139.9083  144.6287  150.8564 H   0  0  0  0  0  0  0  0  0  0  0  0  # atno 10167 bound_to 10162
  156.9618  130.5936  149.5662 H   0  0  0  0  0  0  0  0  0  0  0  0  # atno 10718 bound_to 10713
  154.2717  135.2765  155.2735 H   0  0  0  0  0  0  0  0  0  0  0  0  # atno 10763 bound_to 10752
  154.5296  135.5733  153.6751 H   0  0  0  0  0  0  0  0  0  0  0  0  # atno 10764 bound_to 10752
  152.9944  135.6224  154.2871 H   0  0  0  0  0  0  0  0  0  0  0  0  # atno 10765 bound_to 10752
  140.8039  134.2824  157.4968 H   0  0  0  0  0  0  0  0  0  0  0  0  # atno 11005 bound_to 11000
  146.3505  140.1448  142.8593 LP  0  0  0  0  0  0  0  0  0  0  0  0  # atno 17320 bound_to 7965
  145.0531  140.9032  143.4983 LP  0  0  0  0  0  0  0  0  0  0  0  0  # atno 17321 bound_to 7965
  140.7691  143.3384  151.2259 LP  0  0  0  0  0  0  0  0  0  0  0  0  # atno 17342 bound_to 10162
  139.6964  143.9605  152.2885 LP  0  0  0  0  0  0  0  0  0  0  0  0  # atno 17343 bound_to 10162
  156.0319  130.5409  150.8555 LP  0  0  0  0  0  0  0  0  0  0  0  0  # atno 17370 bound_to 10713
  157.5652  131.0946  150.9500 LP  0  0  0  0  0  0  0  0  0  0  0  0  # atno 17371 bound_to 10713
  139.8719  134.9445  156.3883 LP  0  0  0  0  0  0  0  0  0  0  0  0  # atno 17394 bound_to 11000
  140.9266  133.7608  155.9973 LP  0  0  0  0  0  0  0  0  0  0  0  0  # atno 17395 bound_to 11000

$$$$
