AV-unprocessed.smi:37|AV-procd|sdf|304|dock4
  -GOLD-   2262016113D 1   1.00000     0.00000
 Structure written by MMmdl.
 44 45  0  0  0  0  0  0  0  0  1 V2000
  152.2055  145.0593  158.6962 C   0  0  0  0  0  0  0  0  0  0  0  0
  152.3841  143.6338  159.2366 C   0  0  0  0  0  0  0  0  0  0  0  0
  151.4276  142.6417  158.5789 C   0  0  0  0  0  0  0  0  0  0  0  0
  150.2078  142.7383  158.7136 O   0  0  0  0  0  0  0  0  0  0  0  0
  152.0697  141.6940  157.8817 O   0  0  0  0  0  0  0  0  0  0  0  0
  151.3363  140.7859  157.0769 C   0  0  0  0  0  0  0  0  0  0  0  0
  152.2548  139.6743  156.5404 C   0  0  1  0  0  0  0  0  0  0  0  0
  153.0096  139.1080  157.6085 O   0  0  0  0  0  0  0  0  0  0  0  0
  153.3221  137.7972  157.2549 C   0  0  1  0  0  0  0  0  0  0  0  0
  153.8503  137.0438  158.4637 N   0  0  0  0  0  0  0  0  0  0  0  0
  153.8152  137.5909  159.7424 C   0  0  0  0  0  0  0  0  0  0  0  0
  154.2251  136.9248  160.8477 C   0  0  0  0  0  0  0  0  0  0  0  0
  154.1610  137.5271  162.0473 F   0  0  0  0  0  0  0  0  0  0  0  0
  154.7076  135.5515  160.7527 C   0  0  0  0  0  0  0  0  0  0  0  0
  155.1144  134.8711  161.6922 O   0  0  0  0  0  0  0  0  0  0  0  0
  154.6612  135.0153  159.4635 N   0  0  0  0  0  0  0  0  0  0  0  0
  154.2282  135.6872  158.3188 C   0  0  0  0  0  0  0  0  0  0  0  0
  154.1822  135.0867  157.2462 O   0  0  0  0  0  0  0  0  0  0  0  0
  151.9826  137.2894  156.7005 C   0  0  1  0  0  0  0  0  0  0  0  0
  150.6295  137.0353  158.1579 Br  0  0  0  0  0  0  0  0  0  0  0  0
  151.5863  138.4790  155.8267 C   0  0  1  0  0  0  0  0  0  0  0  0
  150.1792  138.6119  155.6505 O   0  0  0  0  0  0  0  0  0  0  0  0
  149.6833  139.5012  154.7737 C   0  0  0  0  0  0  0  0  0  0  0  0
  150.3483  140.2735  154.0806 O   0  0  0  0  0  0  0  0  0  0  0  0
  148.1555  139.4492  154.7119 C   0  0  0  0  0  0  0  0  0  0  0  0
  147.6111  139.0082  153.3451 C   0  0  0  0  0  0  0  0  0  0  0  0
  154.9520  134.0547  159.3529 H   0  0  0  0  0  0  0  0  0  0  0  0
  152.8750  145.7498  159.2089 H   0  0  0  0  0  0  0  0  0  0  0  0
  151.1855  145.4146  158.8466 H   0  0  0  0  0  0  0  0  0  0  0  0
  152.4283  145.1157  157.6300 H   0  0  0  0  0  0  0  0  0  0  0  0
  153.4080  143.2975  159.0708 H   0  0  0  0  0  0  0  0  0  0  0  0
  152.2173  143.6232  160.3138 H   0  0  0  0  0  0  0  0  0  0  0  0
  150.5260  140.3445  157.6591 H   0  0  0  0  0  0  0  0  0  0  0  0
  150.8808  141.3261  156.2462 H   0  0  0  0  0  0  0  0  0  0  0  0
  152.9626  140.1272  155.8449 H   0  0  0  0  0  0  0  0  0  0  0  0
  154.1335  137.7671  156.5241 H   0  0  0  0  0  0  0  0  0  0  0  0
  153.4354  138.5901  159.8902 H   0  0  0  0  0  0  0  0  0  0  0  0
  152.0911  136.3597  156.1420 H   0  0  0  0  0  0  0  0  0  0  0  0
  152.0699  138.3775  154.8534 H   0  0  0  0  0  0  0  0  0  0  0  0
  147.8030  138.7660  155.4849 H   0  0  0  0  0  0  0  0  0  0  0  0
  147.7648  140.4358  154.9623 H   0  0  0  0  0  0  0  0  0  0  0  0
  146.5215  138.9802  153.3577 H   0  0  0  0  0  0  0  0  0  0  0  0
  147.9634  138.0108  153.0792 H   0  0  0  0  0  0  0  0  0  0  0  0
  147.9136  139.6964  152.5550 H   0  0  0  0  0  0  0  0  0  0  0  0
  1  2  1  0  0  0  0
  1 28  1  0  0  0  0
  1 29  1  0  0  0  0
  1 30  1  0  0  0  0
  2  3  1  0  0  0  0
  2 31  1  0  0  0  0
  2 32  1  0  0  0  0
  3  4  2  0  0  0  0
  3  5  1  0  0  0  0
  5  6  1  0  0  0  0
  6  7  1  0  0  0  0
  6 33  1  0  0  0  0
  6 34  1  0  0  0  0
  7 21  1  0  0  0  0
  7  8  1  0  0  0  0
  7 35  1  0  0  0  0
  8  9  1  0  0  0  0
  9 10  1  0  0  0  0
  9 19  1  0  0  0  0
  9 36  1  0  0  0  0
 10 17  1  0  0  0  0
 10 11  1  0  0  0  0
 11 12  2  0  0  0  0
 11 37  1  0  0  0  0
 12 13  1  0  0  0  0
 12 14  1  0  0  0  0
 14 15  2  0  0  0  0
 14 16  1  0  0  0  0
 16 27  1  0  0  0  0
 16 17  1  0  0  0  0
 17 18  2  0  0  0  0
 19 20  1  0  0  0  0
 19 21  1  0  0  0  0
 19 38  1  0  0  0  0
 21 22  1  0  0  0  0
 21 39  1  0  0  0  0
 22 23  1  0  0  0  0
 23 24  2  0  0  0  0
 23 25  1  0  0  0  0
 25 26  1  0  0  0  0
 25 40  1  0  0  0  0
 25 41  1  0  0  0  0
 26 42  1  0  0  0  0
 26 43  1  0  0  0  0
 26 44  1  0  0  0  0
M  END
> <s_m_source_file>
AV-unprocessed.smi

> <i_m_source_file_index>
37

> <i_lp_mmshare_version>
43012

> <i_f3d_flags>
0

> <s_epik_input>
W0NIM11bQ0gyXUMoPU8pT1tDSDJdW0NAQEhdMU9bQ0BASF0objJbY0hdYyhGKWMoPU8pW25IXWMyPU8pW0NAQEhdKEJyKVtDQEhdMU9DKD1PKVtDSDJdW0NIM10=

> <s_epik_cmdline>
J2VwaWtfcHl0aG9uJywgJy1waCcsICc3LjAnLCAnLXRuJywgJzgnLCAnLW1hJywgJzIwMCcsICctbWV0YWxfYmluZGluZycsICctaW1hZScsICc8aW5maWxlLm1hZT4nLCAnLW9tYWUnLCAnPG91dGZpbGUubWFlPic=

> <r_lp_tautomer_probability>
0.999537

> <r_epik_Ionization_Penalty>
0.104106

> <r_epik_Ionization_Penalty_Charging>
0.104106

> <r_epik_Ionization_Penalty_Neutral>
3.94675e-16

> <r_epik_State_Penalty>
0.0940182

> <r_epik_Charging_Adjusted_Penalty>
0.198124

> <i_epik_Tot_Q>
0

> <i_epik_Tot_abs_Q>
0

> <r_epik_Metal_State_Penalty>
3.05314

> <b_epik_Metal_Only>
0

> <s_epik_Chemistry_Notes>
This compound has an ester and may undergo hydrolysis at high or low pH. This compound contains an acetal/aminal-like group ( X-CH(R)-Y where X, Y are N, S, or O) that may be acid/base labile, releasing an aldehyde.

> <s_lp_Force_Field>
OPLS_2005

> <r_lp_Energy>
30.4871

> <b_lp_Chiralities_Consistent>
1

> <s_lp_Variant>
AV-unprocessed.smi:37-2

> <Gold.Version>
5.8.1

> <Gold.Id.Protein>
6NUR|6NUR_protein|mol2

> <Gold.PLP.Fitness>
41.6973

> <Gold.PLP.PLP>
-33.9547

> <Gold.PLP.part.hbond>
-3.3590

> <Gold.PLP.part.metal>
0.0000

> <Gold.PLP.part.buried>
-3.7418

> <Gold.PLP.part.nonpolar>
-26.3810

> <Gold.PLP.part.repulsive>
0.4513

> <Gold.PLP.ligand.clash>
0.0000

> <Gold.PLP.ligand.torsion>
0.3272

> <Gold.PLP.Chemscore.Hbond>
2.7260

> <Gold.PLP.Chemscore.CHOScore>
0.0000

> <Gold.PLP.Chemscore.Metal>
0.0000

> <Gold.Chemscore.Hbonds>
donor molecule, donor type, donor heavy atom, donor atom, acceptor molecule, acceptor atom, score
      P1  H  7989  7998       L1    24  0.94
      P1  H  7997  8008       L1     8  0.74
      P1  H 10752 10764       L1    18  1.00

> <Gold.PLP.Chemscore.Internal.Correction>
0.2190

> <Gold.Rescore>
     Score         DG    S(hbond)    S(metal)    S(lipo)     H(rot)  DE(clash)    DE(int)     intcor
     11.50     -11.77       1.98        0.00      70.25       3.33       0.00       0.27       ----

> <Gold.Chemscore.Fitness>
11.4999

> <Gold.Chemscore.DG>
-11.7746

> <Gold.Chemscore.ZeroCoef>
-5.4800

> <Gold.Chemscore.Hbond>
1.9762

> <Gold.Chemscore.Metal>
0.0000

> <Gold.Chemscore.Lipo>
70.2546

> <Gold.Chemscore.Internal_Hbond>
0.0000

> <Gold.Chemscore.DEClash>
0.0048

> <Gold.Chemscore.DEInternal>
0.2699

> <Gold.Chemscore.Rot>
3.3303

> <Gold.Chemscore.Internal.Correction>
   9.000000E+99

> <Gold.Chemscore.Hbonds>
donor molecule, donor type, donor heavy atom, donor atom, acceptor molecule, acceptor atom, score
      P1  H  7989  7998       L1    24  0.84
      P1  H  7997  8008       L1     8  0.02
      P1  H 10752 10764       L1    18  0.99

> <Gold.Chemscore.Hbond.Weighted>
-6.6004

> <Gold.Chemscore.Metal.Weighted>
-0.0000

> <Gold.Chemscore.Lipo.Weighted>
-8.2198

> <Gold.Chemscore.Internal_Hbond.Weighted>
0.0000

> <Gold.Chemscore.DEClash.Weighted>
0.0048

> <Gold.Chemscore.DEInternal.Weighted>
0.2699

> <Gold.Chemscore.Rot.Weighted>
8.5256

> <Gold.Chemscore.Internal.Correction.Weighted>
   9.000000E+99

> <Gold.Protein.RotatedTorsions>
[ 6907 6896 6895 6894 ] final   54.05 input  -60.11 | X-H torsion
[ 7974 7965 7964 7962 ] final -110.47 input  175.53 | X-H torsion
[ 8008 7997 7996 7995 ] final  -96.11 input   59.86 | X-H torsion
[ 10167 10162 10161 10158 ] final  -41.84 input  -65.29 | X-H torsion
[ 10718 10713 10712 10709 ] final  122.27 input   66.30 | X-H torsion
[ 10763 10752 10751 10750 ] final   14.42 input  -60.55 | X-H torsion
[ 11005 11000 10999 10996 ] final  123.67 input  -57.11 | X-H torsion

> <Gold.Protein.ActiveResidues>
 VAL166  LYS551  ARG553  GLY616  TRP617  ASP618  TYR619  PRO620  LYS621  CYS622 
 ASP623  PHE694  ASN695  SER759  ASP760  ASP761  ALA762  ILE779  LEU786  VAL792 
 PHE793  MET794  SER795  GLU796  ALA797  LYS798  CYS799  TRP800  GLU811  SER814 

> <Gold.Protein.RotatedAtoms>
  152.3399  134.7148  160.0266 H   0  0  0  0  0  0  0  0  0  0  0  0  # atno 6907 bound_to 6896
  151.7536  133.3323  159.3406 H   0  0  0  0  0  0  0  0  0  0  0  0  # atno 6908 bound_to 6896
  150.7473  134.6102  159.6126 H   0  0  0  0  0  0  0  0  0  0  0  0  # atno 6909 bound_to 6896
  145.1678  140.8911  143.3553 H   0  0  0  0  0  0  0  0  0  0  0  0  # atno 7974 bound_to 7965
  154.7702  140.0474  157.1045 H   0  0  0  0  0  0  0  0  0  0  0  0  # atno 8008 bound_to 7997
  154.9830  140.3104  155.4919 H   0  0  0  0  0  0  0  0  0  0  0  0  # atno 8009 bound_to 7997
  156.2920  140.2232  156.4930 H   0  0  0  0  0  0  0  0  0  0  0  0  # atno 8010 bound_to 7997
  140.6989  143.3072  151.3123 H   0  0  0  0  0  0  0  0  0  0  0  0  # atno 10167 bound_to 10162
  157.5755  131.1079  150.8287 H   0  0  0  0  0  0  0  0  0  0  0  0  # atno 10718 bound_to 10713
  153.1624  135.6798  153.8724 H   0  0  0  0  0  0  0  0  0  0  0  0  # atno 10763 bound_to 10752
  153.8115  135.3142  155.3402 H   0  0  0  0  0  0  0  0  0  0  0  0  # atno 10764 bound_to 10752
  154.7941  135.4817  154.0210 H   0  0  0  0  0  0  0  0  0  0  0  0  # atno 10765 bound_to 10752
  139.9323  134.9641  156.8294 H   0  0  0  0  0  0  0  0  0  0  0  0  # atno 11005 bound_to 11000
  145.0264  139.3379  143.6046 LP  0  0  0  0  0  0  0  0  0  0  0  0  # atno 17320 bound_to 7965
  146.3473  139.9584  142.8720 LP  0  0  0  0  0  0  0  0  0  0  0  0  # atno 17321 bound_to 7965
  139.6481  144.0413  152.2606 LP  0  0  0  0  0  0  0  0  0  0  0  0  # atno 17342 bound_to 10162
  139.9940  144.6341  150.7789 LP  0  0  0  0  0  0  0  0  0  0  0  0  # atno 17343 bound_to 10162
  156.8747  130.5158  149.5294 LP  0  0  0  0  0  0  0  0  0  0  0  0  # atno 17370 bound_to 10713
  156.0800  130.5813  150.9545 LP  0  0  0  0  0  0  0  0  0  0  0  0  # atno 17371 bound_to 10713
  140.6169  134.0030  155.7601 LP  0  0  0  0  0  0  0  0  0  0  0  0  # atno 17394 bound_to 11000
  141.0918  133.9904  157.3224 LP  0  0  0  0  0  0  0  0  0  0  0  0  # atno 17395 bound_to 11000

$$$$
