#       Name:                AV-unprocessed.smi:1302
#       Creating user name   scv26
#       Creation time:       Fri Mar 27 04:58:47 2020


#       File generated by GOLD software.
#

@<TRIPOS>MOLECULE
AV-unprocessed.smi:1302
    49    50     1
SMALL
NO_CHARGES


@<TRIPOS>ATOM
      1 ****        -5.9758  -1.3787   1.1872 C.3            1 S1                 0.0000
      2 ****        -5.5525  -0.5443  -0.0291 C.3            1 S1                 0.0000
      3 ****        -6.0124  -1.1880  -1.3467 C.3            1 S1                 0.0000
      4 ****        -4.1020  -0.3774  -0.0214 N.am           1 S1                 0.0000
      5 ****        -3.4329   0.6510  -0.5688 C.2            1 S1                 0.0000
      6 ****        -3.9789   1.5730  -1.1752 O.2            1 S1                 0.0000
      7 ****        -1.9369   0.5826  -0.4600 C.ar           1 S1                 0.0000
      8 ****        -1.1162   1.1681  -1.4467 C.ar           1 S1                 0.0000
      9 ****         0.2830   1.1042  -1.3026 C.ar           1 S1                 0.0000
     10 ****         0.8321   0.4609  -0.1687 C.ar           1 S1                 0.0000
     11 ****         2.2320   0.3822  -0.0078 N.3            1 S1                 0.0000
     12 ****         2.9638  -0.1865  -1.1362 C.3            1 S1                 0.0000
     13 ****         4.4775   0.0717  -1.0015 C.3            1 S1                 0.0000
     14 ****         4.8821   1.5212  -1.3250 C.3            1 S1                 0.0000
     15 ****         4.9384  -0.3437   0.2862 O.3            1 S1                 0.0000
     16 ****         4.2577   0.2568   1.3873 C.3            1 S1                 0.0000
     17 ****         4.8666  -0.2958   2.6801 C.3            1 S1                 0.0000
     18 ****         2.7520  -0.0445   1.2881 C.3            1 S1                 0.0000
     19 ****         0.0420  -0.0852   0.7883 N.ar           1 S1                 0.0000
     20 ****        -1.2986  -0.0218   0.6458 C.ar           1 S1                 0.0000
     21 ****        -7.0592  -1.4963   1.2231 H              1 S1                 0.0000
     22 ****        -5.6662  -0.9019   2.1179 H              1 S1                 0.0000
     23 ****        -5.5341  -2.3755   1.1593 H              1 S1                 0.0000
     24 ****        -6.0233   0.4364   0.0619 H              1 S1                 0.0000
     25 ****        -7.0952  -1.3145  -1.3631 H              1 S1                 0.0000
     26 ****        -5.5607  -2.1705  -1.4880 H              1 S1                 0.0000
     27 ****        -5.7428  -0.5711  -2.2046 H              1 S1                 0.0000
     28 ****        -3.5652  -1.1015   0.4336 H              1 S1                 0.0000
     29 ****        -1.5456   1.6608  -2.3071 H              1 S1                 0.0000
     30 ****         0.9144   1.5593  -2.0510 H              1 S1                 0.0000
     31 ****         2.7772  -1.2611  -1.1537 H              1 S1                 0.0000
     32 ****         2.6140   0.2048  -2.0906 H              1 S1                 0.0000
     33 ****         4.9871  -0.5653  -1.7250 H              1 S1                 0.0000
     34 ****         4.6394   1.7676  -2.3589 H              1 S1                 0.0000
     35 ****         5.9551   1.6636  -1.1960 H              1 S1                 0.0000
     36 ****         4.3688   2.2453  -0.6929 H              1 S1                 0.0000
     37 ****         4.4165   1.3353   1.3744 H              1 S1                 0.0000
     38 ****         4.3877   0.1401   3.5572 H              1 S1                 0.0000
     39 ****         5.9316  -0.0698   2.7367 H              1 S1                 0.0000
     40 ****         4.7522  -1.3787   2.7393 H              1 S1                 0.0000
     41 ****         2.2274   0.4710   2.0938 H              1 S1                 0.0000
     42 ****         2.5718  -1.1134   1.4121 H              1 S1                 0.0000
     43 ****        -1.8704  -0.4684   1.4462 H              1 S1                 0.0000
     44 ****        -4.9733   1.5822  -1.2810 LP             1 S1                 0.0000
     45 ****        -3.4281   2.3126  -1.5618 LP             1 S1                 0.0000
     46 ****         2.4422   1.3598  -0.0090 LP             1 S1                 0.0000
     47 ****         5.9091  -0.1146   0.3581 LP             1 S1                 0.0000
     48 ****         4.8240  -1.3350   0.3528 LP             1 S1                 0.0000
     49 ****         0.4467  -0.5286   1.5882 LP             1 S1                 0.0000
@<TRIPOS>BOND
    1    1    2 1     
    2    1   21 1     
    3    1   22 1     
    4    1   23 1     
    5    2    3 1     
    6    2    4 1     
    7    2   24 1     
    8    3   25 1     
    9    3   26 1     
   10    3   27 1     
   11    4    5 am    
   12    4   28 1     
   13    5    6 2     
   14    5    7 1     
   15    7   20 ar    
   16    7    8 ar    
   17    8    9 ar    
   18    8   29 1     
   19    9   10 ar    
   20    9   30 1     
   21   10   11 1     
   22   10   19 ar    
   23   11   18 1     
   24   11   12 1     
   25   12   13 1     
   26   12   31 1     
   27   12   32 1     
   28   13   14 1     
   29   13   15 1     
   30   13   33 1     
   31   14   34 1     
   32   14   35 1     
   33   14   36 1     
   34   15   16 1     
   35   16   17 1     
   36   16   18 1     
   37   16   37 1     
   38   17   38 1     
   39   17   39 1     
   40   17   40 1     
   41   18   41 1     
   42   18   42 1     
   43   19   20 ar    
   44   20   43 1     
   45    6   44 1     
   46    6   45 1     
   47   11   46 1     
   48   15   47 1     
   49   15   48 1     
   50   19   49 1     
@<TRIPOS>SUBSTRUCTURE
      1 S1             1
@<TRIPOS>SET
LONE_PAIRS      STATIC     ATOMS    <user>   **** ""
6 44 45 46 47 48 49
DONOR_HYDROGENS      STATIC     ATOMS    <user>   **** ""
1 28
ATOM$BLUE        STATIC     ATOMS    COLORGROUP SYSTEM
6 44 45 46 47 48 49
ATOM$RED        STATIC     ATOMS    COLORGROUP SYSTEM
1 28
