AV-unprocessed.smi:51|AV-procd|sdf|502|dock10
  -GOLD-   2262016373D 1   1.00000     0.00000
 Structure written by MMmdl.
 25 26  0  0  0  0  0  0  0  0  2 V2000
  150.9729  139.6085  154.6015 O   0  0  0  0  0  0  0  0  0  0  0  0
  151.6969  139.6215  155.6205 C   0  0  0  0  0  0  0  0  0  0  0  0
  152.9461  139.5445  155.6232 O   0  5  0  0  0  0  0  0  0  0  0  0
  150.9849  139.7554  156.9728 C   0  0  1  0  0  0  0  0  0  0  0  0
  150.3630  138.4321  157.4608 C   0  0  0  0  0  0  0  0  0  0  0  0
  151.3445  137.9357  158.5207 C   0  0  2  0  0  0  0  0  0  0  0  0
  150.7288  137.1037  159.4814 O   0  0  0  0  0  0  0  0  0  0  0  0
  151.8629  139.2392  159.1238 C   0  0  0  0  0  0  0  0  0  0  0  0
  151.9503  140.1569  157.9975 N   0  0  0  0  0  0  0  0  0  0  0  0
  151.9815  141.5178  158.3330 C   0  0  0  0  0  0  0  0  0  0  0  0
  151.1693  142.4291  157.6265 C   0  0  0  0  0  0  0  0  0  0  0  0
  151.2577  143.7811  158.0133 C   0  0  0  0  0  0  0  0  0  0  0  0
  152.0824  144.1859  159.0032 N   0  0  0  0  0  0  0  0  0  0  0  0
  152.8093  143.2394  159.6022 C   0  0  0  0  0  0  0  0  0  0  0  0
  152.8087  141.9341  159.3220 N   0  0  0  0  0  0  0  0  0  0  0  0
  150.1935  140.4980  156.8615 H   0  0  0  0  0  0  0  0  0  0  0  0
  149.3939  138.6435  157.9149 H   0  0  0  0  0  0  0  0  0  0  0  0
  150.1974  137.6998  156.6688 H   0  0  0  0  0  0  0  0  0  0  0  0
  152.1635  137.3966  158.0419 H   0  0  0  0  0  0  0  0  0  0  0  0
  149.8010  137.0810  159.3048 H   0  0  0  0  0  0  0  0  0  0  0  0
  151.1691  139.6220  159.8749 H   0  0  0  0  0  0  0  0  0  0  0  0
  152.8353  139.1046  159.5986 H   0  0  0  0  0  0  0  0  0  0  0  0
  150.5077  142.1070  156.8356 H   0  0  0  0  0  0  0  0  0  0  0  0
  150.6652  144.5407  157.5254 H   0  0  0  0  0  0  0  0  0  0  0  0
  153.4693  143.5637  160.3931 H   0  0  0  0  0  0  0  0  0  0  0  0
  1  2  2  0  0  0  0
  2  3  1  0  0  0  0
  2  4  1  0  0  0  0
  4  9  1  0  0  0  0
  4  5  1  0  0  0  0
  4 16  1  0  0  0  0
  5  6  1  0  0  0  0
  5 17  1  0  0  0  0
  5 18  1  0  0  0  0
  6  7  1  0  0  0  0
  6  8  1  0  0  0  0
  6 19  1  0  0  0  0
  7 20  1  0  0  0  0
  8  9  1  0  0  0  0
  8 21  1  0  0  0  0
  8 22  1  0  0  0  0
  9 10  1  0  0  0  0
 10 15  1  0  0  0  0
 10 11  2  0  0  0  0
 11 12  1  0  0  0  0
 11 23  1  0  0  0  0
 12 13  2  0  0  0  0
 12 24  1  0  0  0  0
 13 14  1  0  0  0  0
 14 15  2  0  0  0  0
 14 25  1  0  0  0  0
M  CHG  1   3  -1
M  END
> <s_m_source_file>
AV-unprocessed.smi

> <i_m_source_file_index>
51

> <i_lp_mmshare_version>
43012

> <i_f3d_flags>
0

> <s_epik_input>
Tz1DKFtPSF0pW0NAQEhdMVtDSDJdW0NAQEhdKFtPSF0pW0NIMl1OMWMyW2NIXVtjSF1uW2NIXW4y

> <s_epik_cmdline>
J2VwaWtfcHl0aG9uJywgJy1waCcsICc3LjAnLCAnLXRuJywgJzgnLCAnLW1hJywgJzIwMCcsICctbWV0YWxfYmluZGluZycsICctaW1hZScsICc8aW5maWxlLm1hZT4nLCAnLW9tYWUnLCAnPG91dGZpbGUubWFlPic=

> <r_lp_tautomer_probability>
1

> <r_epik_Ionization_Penalty>
0.225251

> <r_epik_Ionization_Penalty_Charging>
0.000248217

> <r_epik_Ionization_Penalty_Neutral>
0.225002

> <r_epik_State_Penalty>
0.21284

> <r_epik_Charging_Adjusted_Penalty>
0.213088

> <i_epik_Tot_Q>
-1

> <i_epik_Tot_abs_Q>
1

> <r_epik_Metal_State_Penalty>
0.154111

> <b_epik_Metal_Only>
0

> <s_lp_Force_Field>
OPLS_2005

> <r_lp_Energy>
17.6831

> <b_lp_Chiralities_Consistent>
1

> <s_lp_Variant>
AV-unprocessed.smi:51-4

> <Gold.Version>
5.8.1

> <Gold.Id.Protein>
6NUR|6NUR_protein|mol2

> <Gold.PLP.Fitness>
39.1095

> <Gold.PLP.PLP>
-25.3464

> <Gold.PLP.part.hbond>
-2.9809

> <Gold.PLP.part.metal>
0.0000

> <Gold.PLP.part.buried>
-5.9665

> <Gold.PLP.part.nonpolar>
-16.9801

> <Gold.PLP.part.repulsive>
0.1135

> <Gold.PLP.ligand.clash>
0.0000

> <Gold.PLP.ligand.torsion>
0.6594

> <Gold.PLP.Chemscore.Hbond>
3.9913

> <Gold.PLP.Chemscore.CHOScore>
1.0000

> <Gold.PLP.Chemscore.Metal>
0.0000

> <Gold.Chemscore.Hbonds>
donor molecule, donor type, donor heavy atom, donor atom, acceptor molecule, acceptor atom, score
      P1  H  6896  6908       L1     7  0.86
      P1  H  7989  7998       L1     1  1.00
      P1  H  7997  8010       L1     3  2.00
      L1  C    12    24       P1  8028  0.96

> <Gold.PLP.Chemscore.Internal.Correction>
0.1082

> <Gold.Rescore>
     Score         DG    S(hbond)    S(metal)    S(lipo)     H(rot)  DE(clash)    DE(int)     intcor
     12.99     -13.73       2.92        0.00      35.98       2.23       0.00       0.75       ----

> <Gold.Chemscore.Fitness>
12.9871

> <Gold.Chemscore.DG>
-13.7340

> <Gold.Chemscore.ZeroCoef>
-5.4800

> <Gold.Chemscore.Hbond>
2.9191

> <Gold.Chemscore.Metal>
0.0000

> <Gold.Chemscore.Lipo>
35.9766

> <Gold.Chemscore.Internal_Hbond>
0.0000

> <Gold.Chemscore.DEClash>
0.0000

> <Gold.Chemscore.DEInternal>
0.7469

> <Gold.Chemscore.Rot>
2.2285

> <Gold.Chemscore.Internal.Correction>
   9.000000E+99

> <Gold.Chemscore.Hbonds>
donor molecule, donor type, donor heavy atom, donor atom, acceptor molecule, acceptor atom, score
      P1  H  6896  6908       L1     7  0.50
      P1  H  7989  7998       L1     1  0.55
      P1  H  7997  8010       L1     3  0.99

> <Gold.Chemscore.Hbond.Weighted>
-9.7497

> <Gold.Chemscore.Metal.Weighted>
-0.0000

> <Gold.Chemscore.Lipo.Weighted>
-4.2093

> <Gold.Chemscore.Internal_Hbond.Weighted>
0.0000

> <Gold.Chemscore.DEClash.Weighted>
0.0000

> <Gold.Chemscore.DEInternal.Weighted>
0.7469

> <Gold.Chemscore.Rot.Weighted>
5.7050

> <Gold.Chemscore.Internal.Correction.Weighted>
   9.000000E+99

> <Gold.Protein.RotatedTorsions>
[ 6907 6896 6895 6894 ] final -135.64 input  -60.11 | X-H torsion
[ 7974 7965 7964 7962 ] final    2.76 input  175.53 | X-H torsion
[ 8008 7997 7996 7995 ] final   76.67 input   59.86 | X-H torsion
[ 10167 10162 10161 10158 ] final   94.72 input  -65.29 | X-H torsion
[ 10718 10713 10712 10709 ] final  -78.01 input   66.30 | X-H torsion
[ 10763 10752 10751 10750 ] final -165.02 input  -60.55 | X-H torsion
[ 11005 11000 10999 10996 ] final   12.51 input  -57.11 | X-H torsion

> <Gold.Protein.ActiveResidues>
 VAL166  LYS551  ARG553  GLY616  TRP617  ASP618  TYR619  PRO620  LYS621  CYS622 
 ASP623  PHE694  ASN695  SER759  ASP760  ASP761  ALA762  ILE779  LEU786  VAL792 
 PHE793  MET794  SER795  GLU796  ALA797  LYS798  CYS799  TRP800  GLU811  SER814 

> <Gold.Protein.RotatedAtoms>
  151.0003  133.6063  159.2695 H   0  0  0  0  0  0  0  0  0  0  0  0  # atno 6907 bound_to 6896
  151.3252  135.0827  159.9329 H   0  0  0  0  0  0  0  0  0  0  0  0  # atno 6908 bound_to 6896
  152.5272  133.9643  159.7786 H   0  0  0  0  0  0  0  0  0  0  0  0  # atno 6909 bound_to 6896
  146.2444  140.0788  142.8358 H   0  0  0  0  0  0  0  0  0  0  0  0  # atno 7974 bound_to 7965
  155.8306  140.3466  155.5570 H   0  0  0  0  0  0  0  0  0  0  0  0  # atno 8008 bound_to 7997
  155.8246  140.0918  157.1849 H   0  0  0  0  0  0  0  0  0  0  0  0  # atno 8009 bound_to 7997
  154.4004  140.1423  156.3528 H   0  0  0  0  0  0  0  0  0  0  0  0  # atno 8010 bound_to 7997
  139.8057  144.6795  150.9706 H   0  0  0  0  0  0  0  0  0  0  0  0  # atno 10167 bound_to 10162
  156.0129  130.4506  150.3432 H   0  0  0  0  0  0  0  0  0  0  0  0  # atno 10718 bound_to 10713
  154.6972  135.2981  154.9394 H   0  0  0  0  0  0  0  0  0  0  0  0  # atno 10763 bound_to 10752
  154.0338  135.6666  153.4787 H   0  0  0  0  0  0  0  0  0  0  0  0  # atno 10764 bound_to 10752
  153.0654  135.5091  154.8096 H   0  0  0  0  0  0  0  0  0  0  0  0  # atno 10765 bound_to 10752
  140.4912  134.0838  155.7772 H   0  0  0  0  0  0  0  0  0  0  0  0  # atno 11005 bound_to 11000
  145.0751  140.9183  143.4858 LP  0  0  0  0  0  0  0  0  0  0  0  0  # atno 17320 bound_to 7965
  145.0929  139.2877  143.5725 LP  0  0  0  0  0  0  0  0  0  0  0  0  # atno 17321 bound_to 7965
  140.7819  143.4236  151.0803 LP  0  0  0  0  0  0  0  0  0  0  0  0  # atno 17342 bound_to 10162
  139.7905  143.8225  152.3151 LP  0  0  0  0  0  0  0  0  0  0  0  0  # atno 17343 bound_to 10162
  157.1527  131.0325  151.2877 LP  0  0  0  0  0  0  0  0  0  0  0  0  # atno 17370 bound_to 10713
  157.4378  130.7527  149.7044 LP  0  0  0  0  0  0  0  0  0  0  0  0  # atno 17371 bound_to 10713
  141.1483  133.9015  157.2161 LP  0  0  0  0  0  0  0  0  0  0  0  0  # atno 17394 bound_to 11000
  139.9768  135.0111  156.9651 LP  0  0  0  0  0  0  0  0  0  0  0  0  # atno 17395 bound_to 11000

$$$$
