AV-unprocessed.smi:2749|AV-procd|sdf|10585|dock5
  -GOLD-   2272015 33D 1   1.00000     0.00000
 Structure written by MMmdl.
 32 34  0  0  0  0  0  0  0  0  1 V2000
  149.5040  140.8060  157.2658 O   0  0  0  0  0  0  0  0  0  0  0  0
  149.5169  141.9216  156.7482 C   0  0  0  0  0  0  0  0  0  0  0  0
  148.9761  142.1251  155.5274 N   0  0  0  0  0  0  0  0  0  0  0  0
  148.3253  141.2389  154.6185 C   0  0  0  0  0  0  0  0  0  0  0  0
  148.7014  139.8827  154.7547 C   0  0  0  0  0  0  0  0  0  0  0  0
  148.1226  138.9109  153.9152 C   0  0  0  0  0  0  0  0  0  0  0  0
  147.1777  139.3214  152.9584 C   0  0  0  0  0  0  0  0  0  0  0  0
  146.5936  138.4244  152.1292 F   0  0  0  0  0  0  0  0  0  0  0  0
  146.8546  140.6885  152.8861 C   0  0  0  0  0  0  0  0  0  0  0  0
  147.4099  141.6197  153.6905 N   0  0  0  0  0  0  0  0  0  0  0  0
  150.0610  142.9951  157.3435 N   0  0  0  0  0  0  0  0  0  0  0  0
  150.6994  143.0242  158.6562 C   0  0  2  0  0  0  0  0  0  0  0  0
  150.8448  144.4539  159.1877 C   0  0  0  0  0  0  0  0  0  0  0  0
  152.3647  144.5715  159.3646 C   0  0  1  0  0  0  0  0  0  0  0  0
  152.8817  143.7042  160.5218 C   0  0  0  0  0  0  0  0  0  0  0  0
  152.7647  142.2963  159.9369 C   0  0  0  0  0  0  0  0  0  0  0  0
  152.1695  142.5844  158.5523 C   0  0  2  0  0  0  0  0  0  0  0  0
  152.8085  143.8148  158.2530 O   0  0  0  0  0  0  0  0  0  0  0  0
  149.0630  143.0727  155.1901 H   0  0  0  0  0  0  0  0  0  0  0  0
  149.4286  139.5837  155.4960 H   0  0  0  0  0  0  0  0  0  0  0  0
  148.3987  137.8707  154.0052 H   0  0  0  0  0  0  0  0  0  0  0  0
  146.1326  141.0449  152.1661 H   0  0  0  0  0  0  0  0  0  0  0  0
  150.0263  143.8715  156.8416 H   0  0  0  0  0  0  0  0  0  0  0  0
  150.1660  142.3931  159.3693 H   0  0  0  0  0  0  0  0  0  0  0  0
  150.4896  145.1900  158.4648 H   0  0  0  0  0  0  0  0  0  0  0  0
  150.3050  144.6126  160.1219 H   0  0  0  0  0  0  0  0  0  0  0  0
  152.7296  145.5988  159.3837 H   0  0  0  0  0  0  0  0  0  0  0  0
  153.9224  143.9381  160.7487 H   0  0  0  0  0  0  0  0  0  0  0  0
  152.2953  143.8355  161.4318 H   0  0  0  0  0  0  0  0  0  0  0  0
  153.7500  141.8377  159.8464 H   0  0  0  0  0  0  0  0  0  0  0  0
  152.1349  141.6373  160.5353 H   0  0  0  0  0  0  0  0  0  0  0  0
  152.3528  141.7919  157.8255 H   0  0  0  0  0  0  0  0  0  0  0  0
  1  2  2  0  0  0  0
  2  3  1  0  0  0  0
  2 11  1  0  0  0  0
  3  4  1  0  0  0  0
  3 19  1  0  0  0  0
  4 10  1  0  0  0  0
  4  5  2  0  0  0  0
  5  6  1  0  0  0  0
  5 20  1  0  0  0  0
  6  7  2  0  0  0  0
  6 21  1  0  0  0  0
  7  8  1  0  0  0  0
  7  9  1  0  0  0  0
  9 10  2  0  0  0  0
  9 22  1  0  0  0  0
 11 12  1  0  0  0  0
 11 23  1  0  0  0  0
 12 17  1  0  0  0  0
 12 13  1  0  0  0  0
 12 24  1  0  0  0  0
 13 14  1  0  0  0  0
 13 25  1  0  0  0  0
 13 26  1  0  0  0  0
 14 18  1  0  0  0  0
 14 15  1  0  0  0  0
 14 27  1  0  0  0  0
 15 16  1  0  0  0  0
 15 28  1  0  0  0  0
 15 29  1  0  0  0  0
 16 17  1  0  0  0  0
 16 30  1  0  0  0  0
 16 31  1  0  0  0  0
 17 18  1  0  0  0  0
 17 32  1  0  0  0  0
M  END
> <s_m_source_file>
AV-unprocessed.smi

> <i_m_source_file_index>
2749

> <i_lp_mmshare_version>
43012

> <i_f3d_flags>
0

> <s_epik_input>
W0NIMl0xW0NIMl1bQ0BIXShPMilbQ0BASF0oW0NIMl1bQ0BASF0xMilbTkhdQyg9TylbTkhdYzNbY0hdW2NIXWMoRilbY0hdbjM=

> <s_epik_cmdline>
J2VwaWtfcHl0aG9uJywgJy1waCcsICc3LjAnLCAnLXRuJywgJzgnLCAnLW1hJywgJzIwMCcsICctbWV0YWxfYmluZGluZycsICctaW1hZScsICc8aW5maWxlLm1hZT4nLCAnLW9tYWUnLCAnPG91dGZpbGUubWFlPic=

> <r_lp_tautomer_probability>
1

> <r_epik_Ionization_Penalty>
3.37159e-05

> <r_epik_Ionization_Penalty_Charging>
0

> <r_epik_Ionization_Penalty_Neutral>
3.37159e-05

> <r_epik_State_Penalty>
-0

> <r_epik_Charging_Adjusted_Penalty>
0

> <i_epik_Tot_Q>
0

> <i_epik_Tot_abs_Q>
0

> <r_epik_Metal_State_Penalty>
-0

> <b_epik_Metal_Only>
0

> <s_lp_Force_Field>
OPLS_2005

> <r_lp_Energy>
42.1362

> <b_lp_Chiralities_Consistent>
1

> <s_lp_Variant>
AV-unprocessed.smi:2749-1

> <Gold.Version>
5.8.1

> <Gold.Id.Protein>
6NUR|6NUR_protein|mol2

> <Gold.PLP.Fitness>
40.5579

> <Gold.PLP.PLP>
-33.8136

> <Gold.PLP.part.hbond>
-2.0000

> <Gold.PLP.part.metal>
0.0000

> <Gold.PLP.part.buried>
-0.6297

> <Gold.PLP.part.nonpolar>
-30.9326

> <Gold.PLP.part.repulsive>
0.3704

> <Gold.PLP.ligand.clash>
0.0000

> <Gold.PLP.ligand.torsion>
0.4192

> <Gold.PLP.Chemscore.Hbond>
1.8960

> <Gold.PLP.Chemscore.CHOScore>
0.6215

> <Gold.PLP.Chemscore.Metal>
0.0000

> <Gold.Chemscore.Hbonds>
donor molecule, donor type, donor heavy atom, donor atom, acceptor molecule, acceptor atom, score
      L1  H     3    19       P1  8028  0.88
      L1  H    11    23       P1  8028  0.77
      L1  C     9    22       P1 10175  0.42

> <Gold.PLP.Chemscore.Internal.Correction>
0.0300

> <Gold.Rescore>
     Score         DG    S(hbond)    S(metal)    S(lipo)     H(rot)  DE(clash)    DE(int)     intcor
     17.34     -19.21       1.85        0.00      86.44       1.00       0.14       1.73       ----

> <Gold.Chemscore.Fitness>
17.3390

> <Gold.Chemscore.DG>
-19.2118

> <Gold.Chemscore.ZeroCoef>
-5.4800

> <Gold.Chemscore.Hbond>
1.8497

> <Gold.Chemscore.Metal>
0.0000

> <Gold.Chemscore.Lipo>
86.4416

> <Gold.Chemscore.Internal_Hbond>
0.0000

> <Gold.Chemscore.DEClash>
0.1413

> <Gold.Chemscore.DEInternal>
1.7315

> <Gold.Chemscore.Rot>
1.0000

> <Gold.Chemscore.Internal.Correction>
   9.000000E+99

> <Gold.Chemscore.Hbonds>
donor molecule, donor type, donor heavy atom, donor atom, acceptor molecule, acceptor atom, score
      L1  H     3    19       P1  8028  0.86
      L1  H    11    23       P1  8028  0.77

> <Gold.Chemscore.Hbond.Weighted>
-6.1782

> <Gold.Chemscore.Metal.Weighted>
-0.0000

> <Gold.Chemscore.Lipo.Weighted>
-10.1137

> <Gold.Chemscore.Internal_Hbond.Weighted>
0.0000

> <Gold.Chemscore.DEClash.Weighted>
0.1413

> <Gold.Chemscore.DEInternal.Weighted>
1.7315

> <Gold.Chemscore.Rot.Weighted>
2.5600

> <Gold.Chemscore.Internal.Correction.Weighted>
   9.000000E+99

> <Gold.Protein.RotatedTorsions>
[ 6907 6896 6895 6894 ] final -134.07 input  -60.11 | X-H torsion
[ 7974 7965 7964 7962 ] final   19.81 input  175.53 | X-H torsion
[ 8008 7997 7996 7995 ] final  -44.02 input   59.86 | X-H torsion
[ 10167 10162 10161 10158 ] final   48.38 input  -65.29 | X-H torsion
[ 10718 10713 10712 10709 ] final  140.84 input   66.30 | X-H torsion
[ 10763 10752 10751 10750 ] final   44.68 input  -60.55 | X-H torsion
[ 11005 11000 10999 10996 ] final   97.32 input  -57.11 | X-H torsion

> <Gold.Protein.ActiveResidues>
 VAL166  LYS551  ARG553  GLY616  TRP617  ASP618  TYR619  PRO620  LYS621  CYS622 
 ASP623  PHE694  ASN695  SER759  ASP760  ASP761  ALA762  ILE779  LEU786  VAL792 
 PHE793  MET794  SER795  GLU796  ALA797  LYS798  CYS799  TRP800  GLU811  SER814 

> <Gold.Protein.RotatedAtoms>
  150.9814  133.6241  159.2721 H   0  0  0  0  0  0  0  0  0  0  0  0  # atno 6907 bound_to 6896
  151.3495  135.0880  159.9408 H   0  0  0  0  0  0  0  0  0  0  0  0  # atno 6908 bound_to 6896
  152.5217  133.9410  159.7681 H   0  0  0  0  0  0  0  0  0  0  0  0  # atno 6909 bound_to 6896
  146.2135  139.8260  142.8670 H   0  0  0  0  0  0  0  0  0  0  0  0  # atno 7974 bound_to 7965
  154.3997  140.1433  156.3615 H   0  0  0  0  0  0  0  0  0  0  0  0  # atno 8008 bound_to 7997
  155.8177  140.3470  155.5474 H   0  0  0  0  0  0  0  0  0  0  0  0  # atno 8009 bound_to 7997
  155.8321  140.0914  157.1777 H   0  0  0  0  0  0  0  0  0  0  0  0  # atno 8010 bound_to 7997
  140.2939  144.3014  150.6234 H   0  0  0  0  0  0  0  0  0  0  0  0  # atno 10167 bound_to 10162
  157.3988  131.1014  151.0573 H   0  0  0  0  0  0  0  0  0  0  0  0  # atno 10718 bound_to 10713
  152.9837  135.6063  154.3313 H   0  0  0  0  0  0  0  0  0  0  0  0  # atno 10763 bound_to 10752
  154.3016  135.2772  155.2610 H   0  0  0  0  0  0  0  0  0  0  0  0  # atno 10764 bound_to 10752
  154.4859  135.5905  153.6480 H   0  0  0  0  0  0  0  0  0  0  0  0  # atno 10765 bound_to 10752
  139.8776  134.8995  156.4290 H   0  0  0  0  0  0  0  0  0  0  0  0  # atno 11005 bound_to 11000
  145.3047  141.0204  143.3589 LP  0  0  0  0  0  0  0  0  0  0  0  0  # atno 17320 bound_to 7965
  144.8980  139.4686  143.6646 LP  0  0  0  0  0  0  0  0  0  0  0  0  # atno 17321 bound_to 7965
  140.5709  143.2181  151.7601 LP  0  0  0  0  0  0  0  0  0  0  0  0  # atno 17342 bound_to 10162
  139.4931  144.4218  151.9969 LP  0  0  0  0  0  0  0  0  0  0  0  0  # atno 17343 bound_to 10162
  157.1579  130.6213  149.5602 LP  0  0  0  0  0  0  0  0  0  0  0  0  # atno 17370 bound_to 10713
  155.9817  130.4827  150.6844 LP  0  0  0  0  0  0  0  0  0  0  0  0  # atno 17371 bound_to 10713
  140.9080  133.7732  155.9758 LP  0  0  0  0  0  0  0  0  0  0  0  0  # atno 17394 bound_to 11000
  140.8578  134.2877  157.5248 LP  0  0  0  0  0  0  0  0  0  0  0  0  # atno 17395 bound_to 11000

$$$$
