AV-unprocessed.smi:90|AV-procd|sdf|829|dock9
  -GOLD-   2262017243D 1   1.00000     0.00000
 Structure written by MMmdl.
 64 67  0  0  0  0  0  0  0  0  2 V2000
  148.3003  136.4246  156.3607 C   0  0  0  0  0  0  0  0  0  0  0  0
  149.7458  136.4027  156.1692 N   0  0  0  0  0  0  0  0  0  0  0  0
  150.3907  135.1020  155.9814 C   0  0  0  0  0  0  0  0  0  0  0  0
  149.9851  134.4286  154.6546 C   0  0  0  0  0  0  0  0  0  0  0  0
  149.4888  132.9667  154.7984 C   0  0  2  0  0  0  0  0  0  0  0  0
  150.6092  132.0500  155.3507 C   0  0  0  0  0  0  0  0  0  0  0  0
  150.1539  130.5925  155.4843 C   0  0  0  0  0  0  0  0  0  0  0  0
  149.6267  130.0896  154.1404 C   0  0  0  0  0  0  0  0  0  0  0  0
  148.5075  131.0072  153.6326 C   0  0  0  0  0  0  0  0  0  0  0  0
  148.9690  132.4152  153.5046 N   0  3  1  0  0  0  0  0  0  0  0  0
  147.9259  133.2473  152.8557 C   0  0  0  0  0  0  0  0  0  0  0  0
  150.3971  137.5577  155.8428 C   0  0  0  0  0  0  0  0  0  0  0  0
  151.3320  137.5231  154.8544 N   0  0  0  0  0  0  0  0  0  0  0  0
  151.9885  138.6269  154.4898 C   0  0  0  0  0  0  0  0  0  0  0  0
  151.8754  139.8612  154.9779 N   0  0  0  0  0  0  0  0  0  0  0  0
  150.9553  139.9130  155.9817 C   0  0  0  0  0  0  0  0  0  0  0  0
  150.1747  138.8234  156.4703 C   0  0  0  0  0  0  0  0  0  0  0  0
  149.3471  139.2753  157.4936 N   0  0  0  0  0  0  0  0  0  0  0  0
  149.6137  140.5473  157.5950 C   0  0  0  0  0  0  0  0  0  0  0  0
  150.5827  141.0130  156.7368 N   0  0  0  0  0  0  0  0  0  0  0  0
  151.0709  142.3829  156.6395 C   0  0  0  0  0  0  0  0  0  0  0  0
  151.4927  143.0376  157.9909 C   0  0  0  0  0  0  0  0  0  0  0  0
  152.3432  142.0008  158.7857 C   0  0  0  0  0  0  0  0  0  0  0  0
  152.7788  142.4271  160.0575 O   0  0  0  0  0  0  0  0  0  0  0  0
  152.2876  144.3384  157.7032 C   0  0  0  0  0  0  0  0  0  0  0  0
  152.3550  145.3069  158.8969 C   0  0  0  0  0  0  0  0  0  0  0  0
  151.0421  145.6060  159.3508 O   0  0  0  0  0  0  0  0  0  0  0  0
  150.3640  144.4625  159.8516 C   0  0  0  0  0  0  0  0  0  0  0  0
  150.1829  143.4169  158.7336 C   0  0  0  0  0  0  0  0  0  0  0  0
  147.8087  136.9899  155.5682 H   0  0  0  0  0  0  0  0  0  0  0  0
  148.0493  136.8722  157.3223 H   0  0  0  0  0  0  0  0  0  0  0  0
  147.8876  135.4156  156.3507 H   0  0  0  0  0  0  0  0  0  0  0  0
  151.4720  135.2152  156.0557 H   0  0  0  0  0  0  0  0  0  0  0  0
  150.1063  134.4581  156.8144 H   0  0  0  0  0  0  0  0  0  0  0  0
  149.1967  135.0419  154.2209 H   0  0  0  0  0  0  0  0  0  0  0  0
  150.8198  134.4626  153.9538 H   0  0  0  0  0  0  0  0  0  0  0  0
  148.6626  132.9622  155.5117 H   0  0  0  0  0  0  0  0  0  0  0  0
  151.4823  132.1010  154.6987 H   0  0  0  0  0  0  0  0  0  0  0  0
  150.9377  132.3897  156.3323 H   0  0  0  0  0  0  0  0  0  0  0  0
  150.9805  129.9676  155.8235 H   0  0  0  0  0  0  0  0  0  0  0  0
  149.3720  130.5162  156.2411 H   0  0  0  0  0  0  0  0  0  0  0  0
  150.4383  130.0561  153.4124 H   0  0  0  0  0  0  0  0  0  0  0  0
  149.2571  129.0688  154.2427 H   0  0  0  0  0  0  0  0  0  0  0  0
  148.1656  130.6416  152.6635 H   0  0  0  0  0  0  0  0  0  0  0  0
  147.6499  130.9637  154.3061 H   0  0  0  0  0  0  0  0  0  0  0  0
  147.1051  133.4548  153.5435 H   0  0  0  0  0  0  0  0  0  0  0  0
  147.5135  132.7429  151.9810 H   0  0  0  0  0  0  0  0  0  0  0  0
  148.3319  134.1925  152.4977 H   0  0  0  0  0  0  0  0  0  0  0  0
  152.7075  138.5033  153.6934 H   0  0  0  0  0  0  0  0  0  0  0  0
  149.1137  141.1831  158.3112 H   0  0  0  0  0  0  0  0  0  0  0  0
  151.9044  142.3884  155.9356 H   0  0  0  0  0  0  0  0  0  0  0  0
  150.2877  142.9793  156.1689 H   0  0  0  0  0  0  0  0  0  0  0  0
  151.7736  141.0823  158.9287 H   0  0  0  0  0  0  0  0  0  0  0  0
  153.2376  141.7288  158.2257 H   0  0  0  0  0  0  0  0  0  0  0  0
  152.5087  141.7871  160.6980 H   0  0  0  0  0  0  0  0  0  0  0  0
  153.2956  144.1055  157.3584 H   0  0  0  0  0  0  0  0  0  0  0  0
  151.8060  144.8766  156.8860 H   0  0  0  0  0  0  0  0  0  0  0  0
  152.9608  144.9119  159.7117 H   0  0  0  0  0  0  0  0  0  0  0  0
  152.8305  146.2372  158.5857 H   0  0  0  0  0  0  0  0  0  0  0  0
  150.8911  144.0586  160.7148 H   0  0  0  0  0  0  0  0  0  0  0  0
  149.3864  144.7771  160.2172 H   0  0  0  0  0  0  0  0  0  0  0  0
  149.4758  143.8399  158.0187 H   0  0  0  0  0  0  0  0  0  0  0  0
  149.7009  142.5240  159.1334 H   0  0  0  0  0  0  0  0  0  0  0  0
  149.7518  132.3968  152.8665 H   0  0  0  0  0  0  0  0  0  0  0  0
  1  2  1  0  0  0  0
  1 30  1  0  0  0  0
  1 31  1  0  0  0  0
  1 32  1  0  0  0  0
  2  3  1  0  0  0  0
  2 12  1  0  0  0  0
  3  4  1  0  0  0  0
  3 33  1  0  0  0  0
  3 34  1  0  0  0  0
  4  5  1  0  0  0  0
  4 35  1  0  0  0  0
  4 36  1  0  0  0  0
  5 10  1  0  0  0  0
  5  6  1  0  0  0  0
  5 37  1  0  0  0  0
  6  7  1  0  0  0  0
  6 38  1  0  0  0  0
  6 39  1  0  0  0  0
  7  8  1  0  0  0  0
  7 40  1  0  0  0  0
  7 41  1  0  0  0  0
  8  9  1  0  0  0  0
  8 42  1  0  0  0  0
  8 43  1  0  0  0  0
  9 10  1  0  0  0  0
  9 44  1  0  0  0  0
  9 45  1  0  0  0  0
 10 11  1  0  0  0  0
 10 64  1  0  0  0  0
 11 46  1  0  0  0  0
 11 47  1  0  0  0  0
 11 48  1  0  0  0  0
 12 17  1  0  0  0  0
 12 13  2  0  0  0  0
 13 14  1  0  0  0  0
 14 15  2  0  0  0  0
 14 49  1  0  0  0  0
 15 16  1  0  0  0  0
 16 20  1  0  0  0  0
 16 17  2  0  0  0  0
 17 18  1  0  0  0  0
 18 19  2  0  0  0  0
 19 20  1  0  0  0  0
 19 50  1  0  0  0  0
 20 21  1  0  0  0  0
 21 22  1  0  0  0  0
 21 51  1  0  0  0  0
 21 52  1  0  0  0  0
 22 29  1  0  0  0  0
 22 23  1  0  0  0  0
 22 25  1  0  0  0  0
 23 24  1  0  0  0  0
 23 53  1  0  0  0  0
 23 54  1  0  0  0  0
 24 55  1  0  0  0  0
 25 26  1  0  0  0  0
 25 56  1  0  0  0  0
 25 57  1  0  0  0  0
 26 27  1  0  0  0  0
 26 58  1  0  0  0  0
 26 59  1  0  0  0  0
 27 28  1  0  0  0  0
 28 29  1  0  0  0  0
 28 60  1  0  0  0  0
 28 61  1  0  0  0  0
 29 62  1  0  0  0  0
 29 63  1  0  0  0  0
M  CHG  1  10   1
M  END
> <s_m_source_file>
AV-unprocessed.smi

> <i_m_source_file_index>
90

> <i_lp_mmshare_version>
43012

> <i_f3d_flags>
0

> <s_epik_input>
W0NIM11OMVtDSDJdW0NIMl1bQ0gyXVtDSDJdW0NASF0xW0NIMl1bQ0gyXU4oW0NIM10pYyhuW2NIXW4yKWMoYzIzKW5bY0hdbjNbQ0gyXUM0KFtDSDJdW09IXSlbQ0gyXVtDSDJdT1tDSDJdW0NIMl00

> <s_epik_cmdline>
J2VwaWtfcHl0aG9uJywgJy1waCcsICc3LjAnLCAnLXRuJywgJzgnLCAnLW1hJywgJzIwMCcsICctbWV0YWxfYmluZGluZycsICctaW1hZScsICc8aW5maWxlLm1hZT4nLCAnLW9tYWUnLCAnPG91dGZpbGUubWFlPic=

> <r_lp_tautomer_probability>
1

> <r_epik_Ionization_Penalty>
0.00234895

> <r_epik_Ionization_Penalty_Charging>
0.00106647

> <r_epik_Ionization_Penalty_Neutral>
0.00128248

> <r_epik_State_Penalty>
-0

> <r_epik_Charging_Adjusted_Penalty>
0.00106647

> <i_epik_Tot_Q>
1

> <i_epik_Tot_abs_Q>
1

> <r_epik_Metal_State_Penalty>
-0

> <b_epik_Metal_Only>
0

> <s_lp_Force_Field>
OPLS_2005

> <r_lp_Energy>
43.9513

> <b_lp_Chiralities_Consistent>
1

> <s_lp_Variant>
AV-unprocessed.smi:90-1

> <Gold.Version>
5.8.1

> <Gold.Id.Protein>
6NUR|6NUR_protein|mol2

> <Gold.PLP.Fitness>
51.7315

> <Gold.PLP.PLP>
-51.1199

> <Gold.PLP.part.hbond>
-2.4532

> <Gold.PLP.part.metal>
0.0000

> <Gold.PLP.part.buried>
-8.6746

> <Gold.PLP.part.nonpolar>
-39.8589

> <Gold.PLP.part.repulsive>
0.3643

> <Gold.PLP.ligand.clash>
0.0000

> <Gold.PLP.ligand.torsion>
1.3700

> <Gold.PLP.Chemscore.Hbond>
0.9600

> <Gold.PLP.Chemscore.CHOScore>
0.0000

> <Gold.PLP.Chemscore.Metal>
0.0000

> <Gold.Chemscore.Hbonds>
donor molecule, donor type, donor heavy atom, donor atom, acceptor molecule, acceptor atom, score
      P1  H  7989  7998       L1    15  0.94

> <Gold.PLP.Chemscore.Internal.Correction>
0.4716

> <Gold.Rescore>
     Score         DG    S(hbond)    S(metal)    S(lipo)     H(rot)  DE(clash)    DE(int)     intcor
     12.99     -14.25       0.52        0.00     119.87       2.73       0.12       1.14       ----

> <Gold.Chemscore.Fitness>
12.9903

> <Gold.Chemscore.DG>
-14.2505

> <Gold.Chemscore.ZeroCoef>
-5.4800

> <Gold.Chemscore.Hbond>
0.5228

> <Gold.Chemscore.Metal>
0.0000

> <Gold.Chemscore.Lipo>
119.8741

> <Gold.Chemscore.Internal_Hbond>
0.0000

> <Gold.Chemscore.DEClash>
0.1177

> <Gold.Chemscore.DEInternal>
1.1426

> <Gold.Chemscore.Rot>
2.7347

> <Gold.Chemscore.Internal.Correction>
   9.000000E+99

> <Gold.Chemscore.Hbonds>
donor molecule, donor type, donor heavy atom, donor atom, acceptor molecule, acceptor atom, score
      P1  H  7989  7998       L1    15  0.35

> <Gold.Chemscore.Hbond.Weighted>
-1.7462

> <Gold.Chemscore.Metal.Weighted>
-0.0000

> <Gold.Chemscore.Lipo.Weighted>
-14.0253

> <Gold.Chemscore.Internal_Hbond.Weighted>
0.0000

> <Gold.Chemscore.DEClash.Weighted>
0.1177

> <Gold.Chemscore.DEInternal.Weighted>
1.1426

> <Gold.Chemscore.Rot.Weighted>
7.0009

> <Gold.Chemscore.Internal.Correction.Weighted>
   9.000000E+99

> <Gold.Protein.RotatedTorsions>
[ 6907 6896 6895 6894 ] final  145.34 input  -60.11 | X-H torsion
[ 7974 7965 7964 7962 ] final   47.69 input  175.53 | X-H torsion
[ 8008 7997 7996 7995 ] final -100.27 input   59.86 | X-H torsion
[ 10167 10162 10161 10158 ] final -116.87 input  -65.29 | X-H torsion
[ 10718 10713 10712 10709 ] final -140.28 input   66.30 | X-H torsion
[ 10763 10752 10751 10750 ] final  -78.99 input  -60.55 | X-H torsion
[ 11005 11000 10999 10996 ] final -154.16 input  -57.11 | X-H torsion

> <Gold.Protein.ActiveResidues>
 VAL166  LYS551  ARG553  GLY616  TRP617  ASP618  TYR619  PRO620  LYS621  CYS622 
 ASP623  PHE694  ASN695  SER759  ASP760  ASP761  ALA762  ILE779  LEU786  VAL792 
 PHE793  MET794  SER795  GLU796  ALA797  LYS798  CYS799  TRP800  GLU811  SER814 

> <Gold.Protein.RotatedAtoms>
  152.1821  133.4714  159.4963 H   0  0  0  0  0  0  0  0  0  0  0  0  # atno 6907 bound_to 6896
  150.6936  134.1820  159.4261 H   0  0  0  0  0  0  0  0  0  0  0  0  # atno 6908 bound_to 6896
  151.9731  135.0066  160.0604 H   0  0  0  0  0  0  0  0  0  0  0  0  # atno 6909 bound_to 6896
  146.0274  139.4723  142.9859 H   0  0  0  0  0  0  0  0  0  0  0  0  # atno 7974 bound_to 7965
  154.8263  140.0442  157.1446 H   0  0  0  0  0  0  0  0  0  0  0  0  # atno 8008 bound_to 7997
  154.9203  140.3026  155.5200 H   0  0  0  0  0  0  0  0  0  0  0  0  # atno 8009 bound_to 7997
  156.2984  140.2342  156.4252 H   0  0  0  0  0  0  0  0  0  0  0  0  # atno 8010 bound_to 7997
  140.0745  143.4845  152.1961 H   0  0  0  0  0  0  0  0  0  0  0  0  # atno 10167 bound_to 10162
  156.3205  130.7531  151.1628 H   0  0  0  0  0  0  0  0  0  0  0  0  # atno 10718 bound_to 10713
  154.5329  135.5711  153.6774 H   0  0  0  0  0  0  0  0  0  0  0  0  # atno 10763 bound_to 10752
  152.9944  135.6209  154.2604 H   0  0  0  0  0  0  0  0  0  0  0  0  # atno 10764 bound_to 10752
  154.2531  135.2858  155.2788 H   0  0  0  0  0  0  0  0  0  0  0  0  # atno 10765 bound_to 10752
  140.7003  134.3944  157.5210 H   0  0  0  0  0  0  0  0  0  0  0  0  # atno 11005 bound_to 11000
  145.7096  141.0110  143.1461 LP  0  0  0  0  0  0  0  0  0  0  0  0  # atno 17320 bound_to 7965
  144.7015  139.8741  143.7442 LP  0  0  0  0  0  0  0  0  0  0  0  0  # atno 17321 bound_to 7965
  139.5816  144.7513  151.3626 LP  0  0  0  0  0  0  0  0  0  0  0  0  # atno 17342 bound_to 10162
  140.7109  143.7394  150.7565 LP  0  0  0  0  0  0  0  0  0  0  0  0  # atno 17343 bound_to 10162
  157.7411  131.0509  150.5122 LP  0  0  0  0  0  0  0  0  0  0  0  0  # atno 17370 bound_to 10713
  156.5274  130.4176  149.6219 LP  0  0  0  0  0  0  0  0  0  0  0  0  # atno 17371 bound_to 10713
  139.8898  134.8820  156.2400 LP  0  0  0  0  0  0  0  0  0  0  0  0  # atno 17394 bound_to 11000
  141.0169  133.7063  156.1203 LP  0  0  0  0  0  0  0  0  0  0  0  0  # atno 17395 bound_to 11000

$$$$
