#       Name:                AV-unprocessed.smi:586
#       Creating user name   scv26
#       Creation time:       Thu Mar 26 23:50:42 2020


#       File generated by GOLD software.
#

@<TRIPOS>MOLECULE
AV-unprocessed.smi:586
    57    57     1
SMALL
NO_CHARGES


@<TRIPOS>ATOM
      1 ****        -3.9539  -2.1272  -1.1745 C.3            1 S1                 0.0000
      2 ****        -2.9867  -2.8644  -0.2386 C.3            1 S1                 0.0000
      3 ****        -2.6827  -2.1239   1.0801 C.3            1 S1                 0.0000
      4 ****        -1.9962  -0.8572   0.8984 N.am           1 S1                 0.0000
      5 ****        -0.6218  -0.7632   0.6606 C.2            1 S1                 0.0000
      6 ****         0.1071  -1.9432   0.6142 N.pl3          1 S1                 0.0000
      7 ****        -0.0078   0.4397   0.4411 C.2            1 S1                 0.0000
      8 ****         1.3824   0.5340   0.2356 N.am           1 S1                 0.0000
      9 ****         2.2179   0.3218   1.4327 C.3            1 S1                 0.0000
     10 ****         2.4599   1.6307   2.2123 C.3            1 S1                 0.0000
     11 ****         3.3391   1.4318   3.3102 O.3            1 S1                 0.0000
     12 ****         2.7242   0.8500   4.4492 C.3            1 S1                 0.0000
     13 ****         1.9632   0.9348  -0.9348 C.2            1 S1                 0.0000
     14 ****         3.1248   1.3499  -0.9248 O.2            1 S1                 0.0000
     15 ****         1.2592   0.8298  -2.3323 C.3            1 S1                 0.0000
     16 ****         0.2702  -0.3523  -2.4721 C.3            1 S1                 0.0000
     17 ****         2.3528   0.5951  -3.4073 C.3            1 S1                 0.0000
     18 ****         0.5614   2.1612  -2.6814 C.3            1 S1                 0.0000
     19 ****        -0.7735   1.6906   0.5374 C.2            1 S1                 0.0000
     20 ****        -0.3107   2.8267   0.4437 O.2            1 S1                 0.0000
     21 ****        -2.1363   1.5291   0.7686 N.am           1 S1                 0.0000
     22 ****        -2.7909   0.3150   0.9371 C.2            1 S1                 0.0000
     23 ****        -4.0099   0.3106   1.1100 O.2            1 S1                 0.0000
     24 ****        -2.6979   2.3667   0.8188 H              1 S1                 0.0000
     25 ****        -4.1796  -2.7336  -2.0517 H              1 S1                 0.0000
     26 ****        -3.5293  -1.1872  -1.5271 H              1 S1                 0.0000
     27 ****        -4.8960  -1.9055  -0.6722 H              1 S1                 0.0000
     28 ****        -3.4112  -3.8391   0.0024 H              1 S1                 0.0000
     29 ****        -2.0588  -3.0671  -0.7741 H              1 S1                 0.0000
     30 ****        -3.5858  -1.9634   1.6704 H              1 S1                 0.0000
     31 ****        -2.0362  -2.7233   1.7217 H              1 S1                 0.0000
     32 ****        -0.3300  -2.8443   0.7463 H              1 S1                 0.0000
     33 ****         1.1045  -1.9481   0.4553 H              1 S1                 0.0000
     34 ****         1.7400  -0.4049   2.0880 H              1 S1                 0.0000
     35 ****         3.1726  -0.1300   1.1570 H              1 S1                 0.0000
     36 ****         2.9271   2.3669   1.5583 H              1 S1                 0.0000
     37 ****         1.5206   2.0719   2.5485 H              1 S1                 0.0000
     38 ****         3.4535   0.7785   5.2560 H              1 S1                 0.0000
     39 ****         2.3586  -0.1563   4.2464 H              1 S1                 0.0000
     40 ****         1.8929   1.4599   4.8050 H              1 S1                 0.0000
     41 ****         0.0557  -0.5679  -3.5193 H              1 S1                 0.0000
     42 ****        -0.6969  -0.1448  -2.0165 H              1 S1                 0.0000
     43 ****         0.6711  -1.2681  -2.0378 H              1 S1                 0.0000
     44 ****         2.9312  -0.3067  -3.2008 H              1 S1                 0.0000
     45 ****         3.0514   1.4306  -3.4748 H              1 S1                 0.0000
     46 ****         1.9202   0.4774  -4.4016 H              1 S1                 0.0000
     47 ****         0.3349   2.2198  -3.7467 H              1 S1                 0.0000
     48 ****         1.1833   3.0231  -2.4356 H              1 S1                 0.0000
     49 ****        -0.3875   2.2765  -2.1613 H              1 S1                 0.0000
     50 ****         3.7152   2.3195   3.5757 LP             1 S1                 0.0000
     51 ****         4.0812   0.8309   3.0130 LP             1 S1                 0.0000
     52 ****         3.6337   1.3911  -0.0650 LP             1 S1                 0.0000
     53 ****         3.5576   1.6452  -1.7766 LP             1 S1                 0.0000
     54 ****         0.6686   2.9564   0.2880 LP             1 S1                 0.0000
     55 ****        -0.9138   3.6204   0.5231 LP             1 S1                 0.0000
     56 ****        -4.4943  -0.5555   1.2331 LP             1 S1                 0.0000
     57 ****        -4.5155   1.1731   1.1272 LP             1 S1                 0.0000
@<TRIPOS>BOND
    1    1    2 1     
    2    1   25 1     
    3    1   26 1     
    4    1   27 1     
    5    2    3 1     
    6    2   28 1     
    7    2   29 1     
    8    3    4 1     
    9    3   30 1     
   10    3   31 1     
   11    4   22 1     
   12    4    5 1     
   13    5    6 1     
   14    5    7 2     
   15    6   32 1     
   16    6   33 1     
   17    7    8 1     
   18    7   19 1     
   19    8    9 1     
   20    8   13 am    
   21    9   10 1     
   22    9   34 1     
   23    9   35 1     
   24   10   11 1     
   25   10   36 1     
   26   10   37 1     
   27   11   12 1     
   28   12   38 1     
   29   12   39 1     
   30   12   40 1     
   31   13   14 2     
   32   13   15 1     
   33   15   16 1     
   34   15   17 1     
   35   15   18 1     
   36   16   41 1     
   37   16   42 1     
   38   16   43 1     
   39   17   44 1     
   40   17   45 1     
   41   17   46 1     
   42   18   47 1     
   43   18   48 1     
   44   18   49 1     
   45   19   20 2     
   46   19   21 1     
   47   21   24 1     
   48   21   22 1     
   49   22   23 2     
   50   11   50 1     
   51   11   51 1     
   52   14   52 1     
   53   14   53 1     
   54   20   54 1     
   55   20   55 1     
   56   23   56 1     
   57   23   57 1     
@<TRIPOS>SUBSTRUCTURE
      1 S1             1
@<TRIPOS>SET
LONE_PAIRS      STATIC     ATOMS    <user>   **** ""
8 50 51 52 53 54 55 56 57
DONOR_HYDROGENS      STATIC     ATOMS    <user>   **** ""
3 32 33 24
ATOM$BLUE        STATIC     ATOMS    COLORGROUP SYSTEM
8 50 51 52 53 54 55 56 57
ATOM$RED        STATIC     ATOMS    COLORGROUP SYSTEM
3 32 33 24
