AV-unprocessed.smi:1817|AV-procd|sdf|7376|dock8
  -GOLD-   22720 9 43D 1   1.00000     0.00000
 Structure written by MMmdl.
 42 43  0  0  0  0  0  0  0  0  3 V2000
  150.8261  141.1478  156.4858 C   0  0  0  0  0  0  0  0  0  0  0  0
  151.3734  139.7826  156.0452 C   0  0  0  0  0  0  0  0  0  0  0  0
  151.0025  139.4657  154.6641 N   0  0  0  0  0  0  0  0  0  0  0  0
  151.7507  138.3288  154.1294 C   0  0  0  0  0  0  0  0  0  0  0  0
  151.3297  136.9938  154.7787 C   0  0  0  0  0  0  0  0  0  0  0  0
  149.8747  136.7372  154.5946 N   0  3  0  0  0  0  0  0  0  0  0  0
  149.4043  135.4291  155.1573 C   0  0  2  0  0  0  0  0  0  0  0  0
  147.9022  135.1792  154.8981 C   0  0  0  0  0  0  0  0  0  0  0  0
  149.6760  135.3052  156.6762 C   0  0  0  0  0  0  0  0  0  0  0  0
  148.6082  135.9161  157.4643 N   0  0  0  0  0  0  0  0  0  0  0  0
  148.6653  136.2418  158.7615 C   0  0  0  0  0  0  0  0  0  0  0  0
  149.6955  136.0386  159.4072 O   0  0  0  0  0  0  0  0  0  0  0  0
  147.5176  136.7832  159.2270 N   0  5  0  0  0  0  0  0  0  0  0  0
  147.0462  136.4235  160.4324 C   0  0  0  0  0  0  0  0  0  0  0  0
  146.2195  137.2071  161.1431 N   0  0  0  0  0  0  0  0  0  0  0  0
  145.8486  136.6481  162.3587 N   0  0  0  0  0  0  0  0  0  0  0  0
  146.4000  135.4468  162.5298 C   0  0  0  0  0  0  0  0  0  0  0  0
  147.4203  134.8882  161.2207 S   0  0  0  0  0  0  0  0  0  0  0  0
  149.0992  137.9052  155.0967 C   0  0  0  0  0  0  0  0  0  0  0  0
  149.5755  139.2193  154.4436 C   0  0  0  0  0  0  0  0  0  0  0  0
  151.2144  141.4138  157.4690 H   0  0  0  0  0  0  0  0  0  0  0  0
  149.7390  141.1493  156.5591 H   0  0  0  0  0  0  0  0  0  0  0  0
  151.1212  141.9352  155.7915 H   0  0  0  0  0  0  0  0  0  0  0  0
  152.4616  139.8215  156.1085 H   0  0  0  0  0  0  0  0  0  0  0  0
  151.0528  139.0064  156.7388 H   0  0  0  0  0  0  0  0  0  0  0  0
  151.5865  138.2781  153.0520 H   0  0  0  0  0  0  0  0  0  0  0  0
  152.8196  138.4961  154.2667 H   0  0  0  0  0  0  0  0  0  0  0  0
  151.9177  136.2130  154.2989 H   0  0  0  0  0  0  0  0  0  0  0  0
  151.5831  136.9728  155.8394 H   0  0  0  0  0  0  0  0  0  0  0  0
  149.9559  134.6322  154.6558 H   0  0  0  0  0  0  0  0  0  0  0  0
  147.5597  134.2818  155.4140 H   0  0  0  0  0  0  0  0  0  0  0  0
  147.6864  135.0193  153.8420 H   0  0  0  0  0  0  0  0  0  0  0  0
  147.2912  136.0111  155.2506 H   0  0  0  0  0  0  0  0  0  0  0  0
  149.8077  134.2541  156.9387 H   0  0  0  0  0  0  0  0  0  0  0  0
  150.6177  135.7842  156.9434 H   0  0  0  0  0  0  0  0  0  0  0  0
  147.7424  136.1150  156.9860 H   0  0  0  0  0  0  0  0  0  0  0  0
  146.2020  134.8844  163.4301 H   0  0  0  0  0  0  0  0  0  0  0  0
  148.0437  137.7922  154.8552 H   0  0  0  0  0  0  0  0  0  0  0  0
  149.1628  137.9587  156.1840 H   0  0  0  0  0  0  0  0  0  0  0  0
  148.9830  140.0584  154.8063 H   0  0  0  0  0  0  0  0  0  0  0  0
  149.3962  139.1728  153.3684 H   0  0  0  0  0  0  0  0  0  0  0  0
  149.7174  136.6928  153.5977 H   0  0  0  0  0  0  0  0  0  0  0  0
  1  2  1  0  0  0  0
  1 21  1  0  0  0  0
  1 22  1  0  0  0  0
  1 23  1  0  0  0  0
  2  3  1  0  0  0  0
  2 24  1  0  0  0  0
  2 25  1  0  0  0  0
  3 20  1  0  0  0  0
  3  4  1  0  0  0  0
  4  5  1  0  0  0  0
  4 26  1  0  0  0  0
  4 27  1  0  0  0  0
  5  6  1  0  0  0  0
  5 28  1  0  0  0  0
  5 29  1  0  0  0  0
  6  7  1  0  0  0  0
  6 19  1  0  0  0  0
  6 42  1  0  0  0  0
  7  8  1  0  0  0  0
  7  9  1  0  0  0  0
  7 30  1  0  0  0  0
  8 31  1  0  0  0  0
  8 32  1  0  0  0  0
  8 33  1  0  0  0  0
  9 10  1  0  0  0  0
  9 34  1  0  0  0  0
  9 35  1  0  0  0  0
 10 11  1  0  0  0  0
 10 36  1  0  0  0  0
 11 12  2  0  0  0  0
 11 13  1  0  0  0  0
 13 14  1  0  0  0  0
 14 18  1  0  0  0  0
 14 15  2  0  0  0  0
 15 16  1  0  0  0  0
 16 17  2  0  0  0  0
 17 18  1  0  0  0  0
 17 37  1  0  0  0  0
 19 20  1  0  0  0  0
 19 38  1  0  0  0  0
 19 39  1  0  0  0  0
 20 40  1  0  0  0  0
 20 41  1  0  0  0  0
M  CHG  1   6   1
M  CHG  1  13  -1
M  END
> <s_m_source_file>
AV-unprocessed.smi

> <i_m_source_file_index>
1817

> <i_lp_mmshare_version>
43012

> <i_f3d_flags>
0

> <s_epik_input>
W0NIM11bQ0gyXU4xW0NIMl1bQ0gyXU4oW0NIMl1bQ0gyXTEpW0NASF0oW0NIM10pW0NIMl1bTkhdQyg9TylbTkhdYzJubltjSF1zMg==

> <s_epik_cmdline>
J2VwaWtfcHl0aG9uJywgJy1waCcsICc3LjAnLCAnLXRuJywgJzgnLCAnLW1hJywgJzIwMCcsICctbWV0YWxfYmluZGluZycsICctaW1hZScsICc8aW5maWxlLm1hZT4nLCAnLW9tYWUnLCAnPG91dGZpbGUubWFlPic=

> <r_epik_Ionization_Penalty>
3.16835

> <r_epik_Ionization_Penalty_Charging>
3.13468

> <r_epik_Ionization_Penalty_Neutral>
0.0336711

> <r_epik_State_Penalty>
3.95884

> <r_epik_Charging_Adjusted_Penalty>
7.09351

> <i_epik_Tot_Q>
0

> <i_epik_Tot_abs_Q>
2

> <r_epik_Metal_State_Penalty>
1.39003

> <b_epik_Metal_Only>
1

> <s_lp_Force_Field>
OPLS_2005

> <r_lp_Energy>
20.7646

> <b_lp_Chiralities_Consistent>
1

> <s_lp_Variant>
AV-unprocessed.smi:1817-9

> <Gold.Version>
5.8.1

> <Gold.Id.Protein>
6NUR|6NUR_protein|mol2

> <Gold.PLP.Fitness>
41.6182

> <Gold.PLP.PLP>
-28.2733

> <Gold.PLP.part.hbond>
-4.0000

> <Gold.PLP.part.metal>
0.0000

> <Gold.PLP.part.buried>
-4.7931

> <Gold.PLP.part.nonpolar>
-21.0772

> <Gold.PLP.part.repulsive>
0.1887

> <Gold.PLP.ligand.clash>
0.0000

> <Gold.PLP.ligand.torsion>
0.8647

> <Gold.PLP.Chemscore.Hbond>
5.0000

> <Gold.PLP.Chemscore.CHOScore>
0.0000

> <Gold.PLP.Chemscore.Metal>
0.0000

> <Gold.Chemscore.Hbonds>
donor molecule, donor type, donor heavy atom, donor atom, acceptor molecule, acceptor atom, score
      L1  H     6    42       P1  7948  2.00
      P1  H  6896  6907       L1    12  1.00
      P1  H  6934  6947       L1    15  0.94
      P1  H  7989  7998       L1     3  1.00

> <Gold.PLP.Chemscore.Internal.Correction>
0.0743

> <Gold.Rescore>
     Score         DG    S(hbond)    S(metal)    S(lipo)     H(rot)  DE(clash)    DE(int)     intcor
     15.70     -17.94       2.80        0.00      67.70       1.88       1.48       0.76       ----

> <Gold.Chemscore.Fitness>
15.6951

> <Gold.Chemscore.DG>
-17.9354

> <Gold.Chemscore.ZeroCoef>
-5.4800

> <Gold.Chemscore.Hbond>
2.8004

> <Gold.Chemscore.Metal>
0.0000

> <Gold.Chemscore.Lipo>
67.7017

> <Gold.Chemscore.Internal_Hbond>
0.0000

> <Gold.Chemscore.DEClash>
1.4849

> <Gold.Chemscore.DEInternal>
0.7554

> <Gold.Chemscore.Rot>
1.8825

> <Gold.Chemscore.Internal.Correction>
   9.000000E+99

> <Gold.Chemscore.Hbonds>
donor molecule, donor type, donor heavy atom, donor atom, acceptor molecule, acceptor atom, score
      L1  H     6    42       P1  7948  0.55
      P1  H  6896  6907       L1    12  1.00
      P1  H  6934  6947       L1    15  0.27
      P1  H  7989  7998       L1     3  0.15

> <Gold.Chemscore.Hbond.Weighted>
-9.3534

> <Gold.Chemscore.Metal.Weighted>
-0.0000

> <Gold.Chemscore.Lipo.Weighted>
-7.9211

> <Gold.Chemscore.Internal_Hbond.Weighted>
0.0000

> <Gold.Chemscore.DEClash.Weighted>
1.4849

> <Gold.Chemscore.DEInternal.Weighted>
0.7554

> <Gold.Chemscore.Rot.Weighted>
4.8191

> <Gold.Chemscore.Internal.Correction.Weighted>
   9.000000E+99

> <Gold.Protein.RotatedTorsions>
[ 6907 6896 6895 6894 ] final  -50.24 input  -60.11 | X-H torsion
[ 7974 7965 7964 7962 ] final   95.47 input  175.53 | X-H torsion
[ 8008 7997 7996 7995 ] final -104.05 input   59.86 | X-H torsion
[ 10167 10162 10161 10158 ] final   74.74 input  -65.29 | X-H torsion
[ 10718 10713 10712 10709 ] final  -43.34 input   66.30 | X-H torsion
[ 10763 10752 10751 10750 ] final   42.45 input  -60.55 | X-H torsion
[ 11005 11000 10999 10996 ] final  -78.48 input  -57.11 | X-H torsion

> <Gold.Protein.ActiveResidues>
 VAL166  LYS551  ARG553  GLY616  TRP617  ASP618  TYR619  PRO620  LYS621  CYS622 
 ASP623  PHE694  ASN695  SER759  ASP760  ASP761  ALA762  ILE779  LEU786  VAL792 
 PHE793  MET794  SER795  GLU796  ALA797  LYS798  CYS799  TRP800  GLU811  SER814 

> <Gold.Protein.RotatedAtoms>
  150.8726  134.8103  159.7165 H   0  0  0  0  0  0  0  0  0  0  0  0  # atno 6907 bound_to 6896
  152.4725  134.4922  159.9709 H   0  0  0  0  0  0  0  0  0  0  0  0  # atno 6908 bound_to 6896
  151.5009  133.3466  159.2904 H   0  0  0  0  0  0  0  0  0  0  0  0  # atno 6909 bound_to 6896
  145.4518  139.2293  143.3035 H   0  0  0  0  0  0  0  0  0  0  0  0  # atno 7974 bound_to 7965
  154.8797  140.0419  157.1775 H   0  0  0  0  0  0  0  0  0  0  0  0  # atno 8008 bound_to 7997
  154.8652  140.2950  155.5494 H   0  0  0  0  0  0  0  0  0  0  0  0  # atno 8009 bound_to 7997
  156.2999  140.2439  156.3632 H   0  0  0  0  0  0  0  0  0  0  0  0  # atno 8010 bound_to 7997
  140.0105  144.5618  150.7662 H   0  0  0  0  0  0  0  0  0  0  0  0  # atno 10167 bound_to 10162
  156.2500  130.4187  149.8661 H   0  0  0  0  0  0  0  0  0  0  0  0  # atno 10718 bound_to 10713
  152.9883  135.6131  154.2952 H   0  0  0  0  0  0  0  0  0  0  0  0  # atno 10763 bound_to 10752
  154.2675  135.2780  155.2754 H   0  0  0  0  0  0  0  0  0  0  0  0  # atno 10764 bound_to 10752
  154.5151  135.5830  153.6693 H   0  0  0  0  0  0  0  0  0  0  0  0  # atno 10765 bound_to 10752
  141.1665  133.7065  156.7979 H   0  0  0  0  0  0  0  0  0  0  0  0  # atno 11005 bound_to 11000
  146.2500  140.5278  142.8897 LP  0  0  0  0  0  0  0  0  0  0  0  0  # atno 17320 bound_to 7965
  144.8057  140.6294  143.6449 LP  0  0  0  0  0  0  0  0  0  0  0  0  # atno 17321 bound_to 7965
  140.7383  143.2777  151.3693 LP  0  0  0  0  0  0  0  0  0  0  0  0  # atno 17342 bound_to 10162
  139.6208  144.0910  152.2389 LP  0  0  0  0  0  0  0  0  0  0  0  0  # atno 17343 bound_to 10162
  156.6213  130.8627  151.3476 LP  0  0  0  0  0  0  0  0  0  0  0  0  # atno 17370 bound_to 10713
  157.7210  130.9559  150.1441 LP  0  0  0  0  0  0  0  0  0  0  0  0  # atno 17371 bound_to 10713
  140.2278  134.8709  157.3445 LP  0  0  0  0  0  0  0  0  0  0  0  0  # atno 17394 bound_to 11000
  140.1922  134.4358  155.7709 LP  0  0  0  0  0  0  0  0  0  0  0  0  # atno 17395 bound_to 11000

$$$$
