#       Name:                AV-unprocessed.smi:867
#       Creating user name   scv26
#       Creation time:       Fri Mar 27 01:47:54 2020


#       File generated by GOLD software.
#

@<TRIPOS>MOLECULE
AV-unprocessed.smi:867
    56    59     1
SMALL
NO_CHARGES


@<TRIPOS>ATOM
      1 ****         2.3130   0.8003  -1.6732 O.2            1 S1                 0.0000
      2 ****         1.8204  -0.2223  -1.1955 C.2            1 S1                 0.0000
      3 ****         2.5021  -1.3778  -1.1077 N.am           1 S1                 0.0000
      4 ****         3.8760  -1.5947  -1.5551 C.3            1 S1                 0.0000
      5 ****         3.9376  -2.2476  -2.9493 C.3            1 S1                 0.0000
      6 ****         3.2350  -1.4434  -4.0291 C.ar           1 S1                 0.0000
      7 ****         1.9635  -1.8227  -4.5073 C.ar           1 S1                 0.0000
      8 ****         1.3439  -1.0285  -5.4909 C.ar           1 S1                 0.0000
      9 ****         2.0266   0.1116  -5.9598 C.ar           1 S1                 0.0000
     10 ****         3.2454   0.4823  -5.5125 N.ar           1 S1                 0.0000
     11 ****         3.8317  -0.2834  -4.5674 C.ar           1 S1                 0.0000
     12 ****         0.5257  -0.3037  -0.8018 N.am           1 S1                 0.0000
     13 ****        -0.0276  -1.2905   0.1343 C.3            1 S1                 0.0000
     14 ****        -0.2690  -0.6115   1.4958 C.3            1 S1                 0.0000
     15 ****        -1.1417   0.5918   1.3692 N.4            1 S1                 1.0000
     16 ****        -1.3863   1.2809   2.6687 C.3            1 S1                 0.0000
     17 ****        -2.4739   2.3820   2.6134 C.3            1 S1                 0.0000
     18 ****        -3.3820   2.0377   3.8092 C.3            1 S1                 0.0000
     19 ****        -4.2509   0.8244   3.4373 C.3            1 S1                 0.0000
     20 ****        -3.2290  -0.3258   3.4243 C.3            1 S1                 0.0000
     21 ****        -1.9092   0.3766   3.8133 C.3            1 S1                 0.0000
     22 ****        -2.4041   1.4246   4.8044 C.3            1 S1                 0.0000
     23 ****        -0.6618   1.5242   0.3091 C.3            1 S1                 0.0000
     24 ****        -0.4212   0.7911  -1.0218 C.3            1 S1                 0.0000
     25 ****         2.0193  -2.1806  -0.7316 H              1 S1                 0.0000
     26 ****         4.4356  -0.6579  -1.5538 H              1 S1                 0.0000
     27 ****         4.3696  -2.2414  -0.8294 H              1 S1                 0.0000
     28 ****         4.9790  -2.3872  -3.2416 H              1 S1                 0.0000
     29 ****         3.4998  -3.2457  -2.9066 H              1 S1                 0.0000
     30 ****         1.4660  -2.7006  -4.1220 H              1 S1                 0.0000
     31 ****         0.3690  -1.2861  -5.8769 H              1 S1                 0.0000
     32 ****         1.5812   0.7429  -6.7144 H              1 S1                 0.0000
     33 ****         4.8022   0.0439  -4.2245 H              1 S1                 0.0000
     34 ****        -0.9692  -1.6701  -0.2652 H              1 S1                 0.0000
     35 ****         0.6040  -2.1678   0.2737 H              1 S1                 0.0000
     36 ****        -0.7199  -1.3402   2.1686 H              1 S1                 0.0000
     37 ****         0.6852  -0.3195   1.9377 H              1 S1                 0.0000
     38 ****        -0.4447   1.7300   2.9915 H              1 S1                 0.0000
     39 ****        -2.0243   3.3686   2.7316 H              1 S1                 0.0000
     40 ****        -3.0441   2.3862   1.6838 H              1 S1                 0.0000
     41 ****        -3.9548   2.8861   4.1847 H              1 S1                 0.0000
     42 ****        -5.0157   0.6487   4.1953 H              1 S1                 0.0000
     43 ****        -4.7546   0.9479   2.4778 H              1 S1                 0.0000
     44 ****        -3.4973  -1.0780   4.1672 H              1 S1                 0.0000
     45 ****        -3.1781  -0.8244   2.4564 H              1 S1                 0.0000
     46 ****        -1.1566  -0.2977   4.2233 H              1 S1                 0.0000
     47 ****        -1.6268   2.1176   5.1315 H              1 S1                 0.0000
     48 ****        -2.8921   0.9959   5.6817 H              1 S1                 0.0000
     49 ****        -1.3829   2.3238   0.1438 H              1 S1                 0.0000
     50 ****         0.2633   2.0005   0.6385 H              1 S1                 0.0000
     51 ****        -0.0782   1.4944  -1.7823 H              1 S1                 0.0000
     52 ****        -1.3600   0.3842  -1.4009 H              1 S1                 0.0000
     53 ****        -2.0394   0.2497   1.0570 H              1 S1                 0.0000
     54 ****         3.2533   0.7905  -2.0136 LP             1 S1                 0.0000
     55 ****         1.7728   1.6405  -1.7208 LP             1 S1                 0.0000
     56 ****         3.6997   1.2984  -5.8700 LP             1 S1                 0.0000
@<TRIPOS>BOND
    1    1    2 2     
    2    2    3 am    
    3    2   12 am    
    4    3    4 1     
    5    3   25 1     
    6    4    5 1     
    7    4   26 1     
    8    4   27 1     
    9    5    6 1     
   10    5   28 1     
   11    5   29 1     
   12    6   11 ar    
   13    6    7 ar    
   14    7    8 ar    
   15    7   30 1     
   16    8    9 ar    
   17    8   31 1     
   18    9   10 ar    
   19    9   32 1     
   20   10   11 ar    
   21   11   33 1     
   22   12   24 1     
   23   12   13 1     
   24   13   14 1     
   25   13   34 1     
   26   13   35 1     
   27   14   15 1     
   28   14   36 1     
   29   14   37 1     
   30   15   16 1     
   31   15   23 1     
   32   15   53 1     
   33   16   21 1     
   34   16   17 1     
   35   16   38 1     
   36   17   18 1     
   37   17   39 1     
   38   17   40 1     
   39   18   22 1     
   40   18   19 1     
   41   18   41 1     
   42   19   20 1     
   43   19   42 1     
   44   19   43 1     
   45   20   21 1     
   46   20   44 1     
   47   20   45 1     
   48   21   22 1     
   49   21   46 1     
   50   22   47 1     
   51   22   48 1     
   52   23   24 1     
   53   23   49 1     
   54   23   50 1     
   55   24   51 1     
   56   24   52 1     
   57    1   54 1     
   58    1   55 1     
   59   10   56 1     
@<TRIPOS>SUBSTRUCTURE
      1 S1             1
@<TRIPOS>SET
LONE_PAIRS      STATIC     ATOMS    <user>   **** ""
3 54 55 56
DONOR_HYDROGENS      STATIC     ATOMS    <user>   **** ""
2 25 53
ATOM$BLUE        STATIC     ATOMS    COLORGROUP SYSTEM
3 54 55 56
ATOM$RED        STATIC     ATOMS    COLORGROUP SYSTEM
2 25 53
