AV-unprocessed.smi:159|AV-procd|sdf|1341|dock5
  -GOLD-   2262019 43D 1   1.00000     0.00000
 Structure written by MMmdl.
 28 29  0  0  0  0  0  0  0  0  1 V2000
  151.7987  138.9662  154.2146 N   0  0  0  0  0  0  0  0  0  0  0  0
  151.8322  139.7107  155.3285 C   0  0  0  0  0  0  0  0  0  0  0  0
  150.8904  140.7910  155.5115 C   0  0  0  0  0  0  0  0  0  0  0  0
  150.9858  141.4975  156.6592 C   0  0  0  0  0  0  0  0  0  0  0  0
  151.9464  141.2175  157.6244 N   0  0  0  0  0  0  0  0  0  0  0  0
  152.0459  141.9932  158.9248 C   0  0  1  0  0  0  0  0  0  0  0  0
  153.4782  142.5165  159.1459 C   0  0  0  0  0  0  0  0  0  0  0  0
  153.2570  143.9986  159.3765 C   0  0  0  0  0  0  0  0  0  0  0  0
  151.9987  144.2648  158.5581 C   0  0  2  0  0  0  0  0  0  0  0  0
  151.2579  145.5466  158.9612 C   0  0  0  0  0  0  0  0  0  0  0  0
  150.9563  145.5109  160.3395 O   0  0  0  0  0  0  0  0  0  0  0  0
  151.2172  143.1187  158.8748 O   0  0  0  0  0  0  0  0  0  0  0  0
  152.8444  140.1417  157.4206 C   0  0  0  0  0  0  0  0  0  0  0  0
  153.6949  139.8425  158.2582 O   0  0  0  0  0  0  0  0  0  0  0  0
  152.7339  139.4382  156.2513 N   0  0  0  0  0  0  0  0  0  0  0  0
  151.6907  141.3126  159.7010 H   0  0  0  0  0  0  0  0  0  0  0  0
  152.2545  144.2751  157.4966 H   0  0  0  0  0  0  0  0  0  0  0  0
  152.4565  138.2103  154.0906 H   0  0  0  0  0  0  0  0  0  0  0  0
  151.1150  139.1657  153.4988 H   0  0  0  0  0  0  0  0  0  0  0  0
  150.1321  141.0477  154.7855 H   0  0  0  0  0  0  0  0  0  0  0  0
  150.2765  142.2993  156.7977 H   0  0  0  0  0  0  0  0  0  0  0  0
  153.9521  142.0172  159.9914 H   0  0  0  0  0  0  0  0  0  0  0  0
  154.0846  142.3568  158.2529 H   0  0  0  0  0  0  0  0  0  0  0  0
  153.0695  144.1869  160.4347 H   0  0  0  0  0  0  0  0  0  0  0  0
  154.1058  144.6083  159.0655 H   0  0  0  0  0  0  0  0  0  0  0  0
  151.8414  146.4360  158.7215 H   0  0  0  0  0  0  0  0  0  0  0  0
  150.3140  145.6201  158.4201 H   0  0  0  0  0  0  0  0  0  0  0  0
  151.5101  146.1338  160.7846 H   0  0  0  0  0  0  0  0  0  0  0  0
  1  2  1  0  0  0  0
  1 18  1  0  0  0  0
  1 19  1  0  0  0  0
  2 15  2  0  0  0  0
  2  3  1  0  0  0  0
  3  4  2  0  0  0  0
  3 20  1  0  0  0  0
  4  5  1  0  0  0  0
  4 21  1  0  0  0  0
  5  6  1  0  0  0  0
  5 13  1  0  0  0  0
  6 16  1  0  0  0  0
  6 12  1  0  0  0  0
  6  7  1  0  0  0  0
  7  8  1  0  0  0  0
  7 22  1  0  0  0  0
  7 23  1  0  0  0  0
  8  9  1  0  0  0  0
  8 24  1  0  0  0  0
  8 25  1  0  0  0  0
  9 17  1  0  0  0  0
  9 10  1  0  0  0  0
  9 12  1  0  0  0  0
 10 11  1  0  0  0  0
 10 26  1  0  0  0  0
 10 27  1  0  0  0  0
 11 28  1  0  0  0  0
 13 14  2  0  0  0  0
 13 15  1  0  0  0  0
M  END
> <s_m_source_file>
AV-unprocessed.smi

> <i_m_source_file_index>
159

> <i_lp_mmshare_version>
43012

> <i_f3d_flags>
0

> <s_epik_input>
W05IMl1jMVtjSF1bY0hdbihjKD1PKW4xKVtDQEhdMltDSDJdW0NIMl1bQ0BIXShPMilbQ0gyXVtPSF0=

> <s_epik_cmdline>
J2VwaWtfcHl0aG9uJywgJy1waCcsICc3LjAnLCAnLXRuJywgJzgnLCAnLW1hJywgJzIwMCcsICctbWV0YWxfYmluZGluZycsICctaW1hZScsICc8aW5maWxlLm1hZT4nLCAnLW9tYWUnLCAnPG91dGZpbGUubWFlPic=

> <r_lp_tautomer_probability>
0.99996

> <r_epik_Ionization_Penalty>
0.00126102

> <r_epik_Ionization_Penalty_Charging>
4.46248e-08

> <r_epik_Ionization_Penalty_Neutral>
0.00126097

> <r_epik_State_Penalty>
1.15523e-05

> <r_epik_Charging_Adjusted_Penalty>
1.1597e-05

> <i_epik_Tot_Q>
0

> <i_epik_Tot_abs_Q>
0

> <r_epik_Metal_State_Penalty>
-0

> <b_epik_Metal_Only>
0

> <s_epik_Chemistry_Notes>
This compound contains an acetal/aminal-like group ( X-CH(R)-Y where X, Y are N, S, or O) that may be acid/base labile, releasing an aldehyde.

> <s_lp_Force_Field>
OPLS_2005

> <r_lp_Energy>
23.8036

> <b_lp_Chiralities_Consistent>
1

> <s_lp_Variant>
AV-unprocessed.smi:159-3

> <Gold.Version>
5.8.1

> <Gold.Id.Protein>
6NUR|6NUR_protein|mol2

> <Gold.PLP.Fitness>
36.0524

> <Gold.PLP.PLP>
-30.2890

> <Gold.PLP.part.hbond>
-1.0000

> <Gold.PLP.part.metal>
0.0000

> <Gold.PLP.part.buried>
-4.0287

> <Gold.PLP.part.nonpolar>
-25.5524

> <Gold.PLP.part.repulsive>
0.1920

> <Gold.PLP.ligand.clash>
0.0000

> <Gold.PLP.ligand.torsion>
0.1303

> <Gold.PLP.Chemscore.Hbond>
1.0000

> <Gold.PLP.Chemscore.CHOScore>
1.0000

> <Gold.PLP.Chemscore.Metal>
0.0000

> <Gold.Chemscore.Hbonds>
donor molecule, donor type, donor heavy atom, donor atom, acceptor molecule, acceptor atom, score
      P1  H  7997  8008       L1    14  0.66
      P1  H  7997  8009       L1    15  0.15

> <Gold.PLP.Chemscore.Internal.Correction>
0.0241

> <Gold.Rescore>
     Score         DG    S(hbond)    S(metal)    S(lipo)     H(rot)  DE(clash)    DE(int)     intcor
      9.46     -10.69       0.95        0.00      63.14       2.09       0.07       1.16       ----

> <Gold.Chemscore.Fitness>
9.4605

> <Gold.Chemscore.DG>
-10.6927

> <Gold.Chemscore.ZeroCoef>
-5.4800

> <Gold.Chemscore.Hbond>
0.9537

> <Gold.Chemscore.Metal>
0.0000

> <Gold.Chemscore.Lipo>
63.1351

> <Gold.Chemscore.Internal_Hbond>
0.0000

> <Gold.Chemscore.DEClash>
0.0678

> <Gold.Chemscore.DEInternal>
1.1643

> <Gold.Chemscore.Rot>
2.0935

> <Gold.Chemscore.Internal.Correction>
   9.000000E+99

> <Gold.Chemscore.Hbonds>
donor molecule, donor type, donor heavy atom, donor atom, acceptor molecule, acceptor atom, score
      P1  H  7997  8008       L1    14  0.17

> <Gold.Chemscore.Hbond.Weighted>
-3.1852

> <Gold.Chemscore.Metal.Weighted>
-0.0000

> <Gold.Chemscore.Lipo.Weighted>
-7.3868

> <Gold.Chemscore.Internal_Hbond.Weighted>
0.0000

> <Gold.Chemscore.DEClash.Weighted>
0.0678

> <Gold.Chemscore.DEInternal.Weighted>
1.1643

> <Gold.Chemscore.Rot.Weighted>
5.3594

> <Gold.Chemscore.Internal.Correction.Weighted>
   9.000000E+99

> <Gold.Protein.RotatedTorsions>
[ 6907 6896 6895 6894 ] final -167.26 input  -60.11 | X-H torsion
[ 7974 7965 7964 7962 ] final   99.28 input  175.53 | X-H torsion
[ 8008 7997 7996 7995 ] final -121.52 input   59.86 | X-H torsion
[ 10167 10162 10161 10158 ] final -153.30 input  -65.29 | X-H torsion
[ 10718 10713 10712 10709 ] final   96.41 input   66.30 | X-H torsion
[ 10763 10752 10751 10750 ] final   32.44 input  -60.55 | X-H torsion
[ 11005 11000 10999 10996 ] final -160.67 input  -57.11 | X-H torsion

> <Gold.Protein.ActiveResidues>
 VAL166  LYS551  ARG553  GLY616  TRP617  ASP618  TYR619  PRO620  LYS621  CYS622 
 ASP623  PHE694  ASN695  SER759  ASP760  ASP761  ALA762  ILE779  LEU786  VAL792 
 PHE793  MET794  SER795  GLU796  ALA797  LYS798  CYS799  TRP800  GLU811  SER814 

> <Gold.Protein.RotatedAtoms>
  151.4567  133.3603  159.2802 H   0  0  0  0  0  0  0  0  0  0  0  0  # atno 6907 bound_to 6896
  150.9054  134.8470  159.7399 H   0  0  0  0  0  0  0  0  0  0  0  0  # atno 6908 bound_to 6896
  152.4903  134.4491  159.9620 H   0  0  0  0  0  0  0  0  0  0  0  0  # atno 6909 bound_to 6896
  145.4009  139.2348  143.3300 H   0  0  0  0  0  0  0  0  0  0  0  0  # atno 7974 bound_to 7965
  155.1493  140.0403  157.2817 H   0  0  0  0  0  0  0  0  0  0  0  0  # atno 8008 bound_to 7997
  154.6416  140.2548  155.7289 H   0  0  0  0  0  0  0  0  0  0  0  0  # atno 8009 bound_to 7997
  156.2535  140.2854  156.0812 H   0  0  0  0  0  0  0  0  0  0  0  0  # atno 8010 bound_to 7997
  139.7109  143.9111  152.2467 H   0  0  0  0  0  0  0  0  0  0  0  0  # atno 10167 bound_to 10162
  157.6927  131.0577  150.4487 H   0  0  0  0  0  0  0  0  0  0  0  0  # atno 10718 bound_to 10713
  153.0262  135.6413  154.1355 H   0  0  0  0  0  0  0  0  0  0  0  0  # atno 10763 bound_to 10752
  154.1084  135.2854  155.3238 H   0  0  0  0  0  0  0  0  0  0  0  0  # atno 10764 bound_to 10752
  154.6349  135.5480  153.7785 H   0  0  0  0  0  0  0  0  0  0  0  0  # atno 10765 bound_to 10752
  140.6289  134.4672  157.5228 H   0  0  0  0  0  0  0  0  0  0  0  0  # atno 11005 bound_to 11000
  146.2752  140.4707  142.8798 LP  0  0  0  0  0  0  0  0  0  0  0  0  # atno 17320 bound_to 7965
  144.8374  140.6804  143.6251 LP  0  0  0  0  0  0  0  0  0  0  0  0  # atno 17321 bound_to 7965
  139.8980  144.6928  150.8697 LP  0  0  0  0  0  0  0  0  0  0  0  0  # atno 17342 bound_to 10162
  140.7733  143.3536  151.1966 LP  0  0  0  0  0  0  0  0  0  0  0  0  # atno 17343 bound_to 10162
  156.4840  130.4080  149.6445 LP  0  0  0  0  0  0  0  0  0  0  0  0  # atno 17370 bound_to 10713
  156.3480  130.7417  151.2372 LP  0  0  0  0  0  0  0  0  0  0  0  0  # atno 17371 bound_to 10713
  139.9124  134.8317  156.1483 LP  0  0  0  0  0  0  0  0  0  0  0  0  # atno 17394 bound_to 11000
  141.0689  133.6806  156.2101 LP  0  0  0  0  0  0  0  0  0  0  0  0  # atno 17395 bound_to 11000

$$$$
