AV-unprocessed.smi:3111|AV-procd|sdf|11832|dock10
  -GOLD-   2272017203D 1   1.00000     0.00000
 Structure written by MMmdl.
 29 29  0  0  0  0  0  0  0  0  1 V2000
  149.1317  138.9256  154.3356 C   0  0  0  0  0  0  0  0  0  0  0  0
  148.2963  138.3282  153.3052 N   0  0  0  0  0  0  0  0  0  0  0  0
  147.0077  138.6383  153.1045 C   0  0  0  0  0  0  0  0  0  0  0  0
  146.4062  139.4816  153.7716 O   0  0  0  0  0  0  0  0  0  0  0  0
  146.3045  137.8961  151.9612 C   0  0  0  0  0  0  0  0  0  0  0  0
  146.3234  136.4449  152.1293 N   0  0  0  0  0  0  0  0  0  0  0  0
  145.2356  135.6639  152.2314 C   0  0  0  0  0  0  0  0  0  0  0  0
  144.0863  136.1064  152.2069 O   0  0  0  0  0  0  0  0  0  0  0  0
  145.4921  134.1567  152.3881 C   0  0  2  0  0  0  0  0  0  0  0  0
  146.8794  133.8473  152.9814 C   0  0  0  0  0  0  0  0  0  0  0  0
  145.2971  133.4702  151.1187 N   0  0  0  0  0  0  0  0  0  0  0  0
  144.1512  133.4845  150.3326 C   0  0  0  0  0  0  0  0  0  0  0  0
  144.4168  132.7036  149.2307 C   0  0  0  0  0  0  0  0  0  0  0  0
  145.7124  132.2005  149.3135 N   0  0  0  0  0  0  0  0  0  0  0  0
  146.1708  132.6953  150.4559 C   0  0  0  0  0  0  0  0  0  0  0  0
  150.1282  138.4847  154.3081 H   0  0  0  0  0  0  0  0  0  0  0  0
  148.7098  138.7527  155.3266 H   0  0  0  0  0  0  0  0  0  0  0  0
  149.2300  140.0011  154.1810 H   0  0  0  0  0  0  0  0  0  0  0  0
  148.7214  137.6301  152.7121 H   0  0  0  0  0  0  0  0  0  0  0  0
  145.2652  138.2232  151.9240 H   0  0  0  0  0  0  0  0  0  0  0  0
  146.7523  138.1673  151.0032 H   0  0  0  0  0  0  0  0  0  0  0  0
  147.2301  136.0019  152.1569 H   0  0  0  0  0  0  0  0  0  0  0  0
  144.7468  133.7727  153.0870 H   0  0  0  0  0  0  0  0  0  0  0  0
  147.0209  134.3505  153.9387 H   0  0  0  0  0  0  0  0  0  0  0  0
  147.6853  134.1623  152.3175 H   0  0  0  0  0  0  0  0  0  0  0  0
  146.9965  132.7773  153.1553 H   0  0  0  0  0  0  0  0  0  0  0  0
  143.2646  134.0332  150.6145 H   0  0  0  0  0  0  0  0  0  0  0  0
  143.7801  132.4670  148.3908 H   0  0  0  0  0  0  0  0  0  0  0  0
  147.1676  132.4907  150.8190 H   0  0  0  0  0  0  0  0  0  0  0  0
  1  2  1  0  0  0  0
  1 16  1  0  0  0  0
  1 17  1  0  0  0  0
  1 18  1  0  0  0  0
  2  3  1  0  0  0  0
  2 19  1  0  0  0  0
  3  4  2  0  0  0  0
  3  5  1  0  0  0  0
  5  6  1  0  0  0  0
  5 20  1  0  0  0  0
  5 21  1  0  0  0  0
  6  7  1  0  0  0  0
  6 22  1  0  0  0  0
  7  8  2  0  0  0  0
  7  9  1  0  0  0  0
  9 10  1  0  0  0  0
  9 11  1  0  0  0  0
  9 23  1  0  0  0  0
 10 24  1  0  0  0  0
 10 25  1  0  0  0  0
 10 26  1  0  0  0  0
 11 15  1  0  0  0  0
 11 12  1  0  0  0  0
 12 13  2  0  0  0  0
 12 27  1  0  0  0  0
 13 14  1  0  0  0  0
 13 28  1  0  0  0  0
 14 15  2  0  0  0  0
 15 29  1  0  0  0  0
M  END
> <s_m_source_file>
AV-unprocessed.smi

> <i_m_source_file_index>
3111

> <i_lp_mmshare_version>
43012

> <i_f3d_flags>
0

> <s_epik_input>
W0NIM11bTkhdQyg9TylbQ0gyXVtOSF1DKD1PKVtDQEhdKFtDSDNdKW4xW2NIXVtjSF1uW2NIXTE=

> <s_epik_cmdline>
J2VwaWtfcHl0aG9uJywgJy1waCcsICc3LjAnLCAnLXRuJywgJzgnLCAnLW1hJywgJzIwMCcsICctbWV0YWxfYmluZGluZycsICctaW1hZScsICc8aW5maWxlLm1hZT4nLCAnLW9tYWUnLCAnPG91dGZpbGUubWFlPic=

> <r_lp_tautomer_probability>
1

> <r_epik_Ionization_Penalty>
0.278299

> <r_epik_Ionization_Penalty_Charging>
0.278299

> <r_epik_Ionization_Penalty_Neutral>
1.78617e-07

> <r_epik_State_Penalty>
0.270759

> <r_epik_Charging_Adjusted_Penalty>
0.549058

> <i_epik_Tot_Q>
0

> <i_epik_Tot_abs_Q>
0

> <r_epik_Metal_State_Penalty>
0.183212

> <b_epik_Metal_Only>
0

> <s_lp_Force_Field>
OPLS_2005

> <r_lp_Energy>
5.209

> <b_lp_Chiralities_Consistent>
1

> <s_lp_Variant>
AV-unprocessed.smi:3111-1

> <Gold.Version>
5.8.1

> <Gold.Id.Protein>
6NUR|6NUR_protein|mol2

> <Gold.PLP.Fitness>
36.5596

> <Gold.PLP.PLP>
-25.8251

> <Gold.PLP.part.hbond>
-3.0000

> <Gold.PLP.part.metal>
0.0000

> <Gold.PLP.part.buried>
-1.9875

> <Gold.PLP.part.nonpolar>
-21.1921

> <Gold.PLP.part.repulsive>
0.7795

> <Gold.PLP.ligand.clash>
0.0000

> <Gold.PLP.ligand.torsion>
0.6277

> <Gold.PLP.Chemscore.Hbond>
1.9760

> <Gold.PLP.Chemscore.CHOScore>
1.9979

> <Gold.PLP.Chemscore.Metal>
0.0000

> <Gold.Chemscore.Hbonds>
donor molecule, donor type, donor heavy atom, donor atom, acceptor molecule, acceptor atom, score
      L1  H     2    19       P1  7948  1.00
      L1  H     6    22       P1  7948  0.90
      L1  C    12    27       P1 10186  1.00
      L1  C    15    29       P1 10747  1.00

> <Gold.PLP.Chemscore.Internal.Correction>
0.0682

> <Gold.Rescore>
     Score         DG    S(hbond)    S(metal)    S(lipo)     H(rot)  DE(clash)    DE(int)     intcor
     10.06     -10.89       1.98        0.00      39.37       2.27       0.06       0.76       ----

> <Gold.Chemscore.Fitness>
10.0617

> <Gold.Chemscore.DG>
-10.8883

> <Gold.Chemscore.ZeroCoef>
-5.4800

> <Gold.Chemscore.Hbond>
1.9805

> <Gold.Chemscore.Metal>
0.0000

> <Gold.Chemscore.Lipo>
39.3747

> <Gold.Chemscore.Internal_Hbond>
0.0000

> <Gold.Chemscore.DEClash>
0.0619

> <Gold.Chemscore.DEInternal>
0.7647

> <Gold.Chemscore.Rot>
2.2709

> <Gold.Chemscore.Internal.Correction>
   9.000000E+99

> <Gold.Chemscore.Hbonds>
donor molecule, donor type, donor heavy atom, donor atom, acceptor molecule, acceptor atom, score
      L1  H     2    19       P1  7948  0.99
      L1  H     6    22       P1  7948  0.88

> <Gold.Chemscore.Hbond.Weighted>
-6.6150

> <Gold.Chemscore.Metal.Weighted>
-0.0000

> <Gold.Chemscore.Lipo.Weighted>
-4.6068

> <Gold.Chemscore.Internal_Hbond.Weighted>
0.0000

> <Gold.Chemscore.DEClash.Weighted>
0.0619

> <Gold.Chemscore.DEInternal.Weighted>
0.7647

> <Gold.Chemscore.Rot.Weighted>
5.8135

> <Gold.Chemscore.Internal.Correction.Weighted>
   9.000000E+99

> <Gold.Protein.RotatedTorsions>
[ 6907 6896 6895 6894 ] final  101.86 input  -60.11 | X-H torsion
[ 7974 7965 7964 7962 ] final   14.97 input  175.53 | X-H torsion
[ 8008 7997 7996 7995 ] final  121.78 input   59.86 | X-H torsion
[ 10167 10162 10161 10158 ] final -120.26 input  -65.29 | X-H torsion
[ 10718 10713 10712 10709 ] final  145.58 input   66.30 | X-H torsion
[ 10763 10752 10751 10750 ] final  139.22 input  -60.55 | X-H torsion
[ 11005 11000 10999 10996 ] final  117.20 input  -57.11 | X-H torsion

> <Gold.Protein.ActiveResidues>
 VAL166  LYS551  ARG553  GLY616  TRP617  ASP618  TYR619  PRO620  LYS621  CYS622 
 ASP623  PHE694  ASN695  SER759  ASP760  ASP761  ALA762  ILE779  LEU786  VAL792 
 PHE793  MET794  SER795  GLU796  ALA797  LYS798  CYS799  TRP800  GLU811  SER814 

> <Gold.Protein.RotatedAtoms>
  152.5339  134.0062  159.7917 H   0  0  0  0  0  0  0  0  0  0  0  0  # atno 6907 bound_to 6896
  151.0273  133.5814  159.2672 H   0  0  0  0  0  0  0  0  0  0  0  0  # atno 6908 bound_to 6896
  151.2832  135.0727  159.9230 H   0  0  0  0  0  0  0  0  0  0  0  0  # atno 6909 bound_to 6896
  146.2291  139.8963  142.8546 H   0  0  0  0  0  0  0  0  0  0  0  0  # atno 7974 bound_to 7965
  156.2701  140.2800  156.1363 H   0  0  0  0  0  0  0  0  0  0  0  0  # atno 8008 bound_to 7997
  155.1001  140.0389  157.2712 H   0  0  0  0  0  0  0  0  0  0  0  0  # atno 8009 bound_to 7997
  154.6822  140.2611  155.6903 H   0  0  0  0  0  0  0  0  0  0  0  0  # atno 8010 bound_to 7997
  140.0378  143.5184  152.2145 H   0  0  0  0  0  0  0  0  0  0  0  0  # atno 10167 bound_to 10162
  157.3435  131.0939  151.1062 H   0  0  0  0  0  0  0  0  0  0  0  0  # atno 10718 bound_to 10713
  153.9025  135.3020  155.3448 H   0  0  0  0  0  0  0  0  0  0  0  0  # atno 10763 bound_to 10752
  154.7663  135.4908  153.9565 H   0  0  0  0  0  0  0  0  0  0  0  0  # atno 10764 bound_to 10752
  153.1237  135.6788  153.9393 H   0  0  0  0  0  0  0  0  0  0  0  0  # atno 10765 bound_to 10752
  139.9066  134.9607  156.7315 H   0  0  0  0  0  0  0  0  0  0  0  0  # atno 11005 bound_to 11000
  145.2367  140.9994  143.3959 LP  0  0  0  0  0  0  0  0  0  0  0  0  # atno 17320 bound_to 7965
  144.9485  139.4109  143.6414 LP  0  0  0  0  0  0  0  0  0  0  0  0  # atno 17321 bound_to 7965
  139.6034  144.7589  151.3119 LP  0  0  0  0  0  0  0  0  0  0  0  0  # atno 17342 bound_to 10162
  140.7274  143.6965  150.7880 LP  0  0  0  0  0  0  0  0  0  0  0  0  # atno 17343 bound_to 10162
  157.2265  130.6505  149.5832 LP  0  0  0  0  0  0  0  0  0  0  0  0  # atno 17370 bound_to 10713
  155.9711  130.4612  150.6102 LP  0  0  0  0  0  0  0  0  0  0  0  0  # atno 17371 bound_to 10713
  140.6922  133.9380  155.7973 LP  0  0  0  0  0  0  0  0  0  0  0  0  # atno 17394 bound_to 11000
  141.0433  134.0589  157.3875 LP  0  0  0  0  0  0  0  0  0  0  0  0  # atno 17395 bound_to 11000

$$$$
