AV-unprocessed.smi:2302|AV-procd|sdf|9240|dock4
  -GOLD-   2272012453D 1   1.00000     0.00000
 Structure written by MMmdl.
 39 40  0  0  0  0  0  0  0  0  1 V2000
  152.9541  143.1355  162.4170 C   0  0  0  0  0  0  0  0  0  0  0  0
  152.5159  143.5038  161.0148 C   0  0  0  0  0  0  0  0  0  0  0  0
  153.3797  143.3321  159.9153 C   0  0  0  0  0  0  0  0  0  0  0  0
  152.9068  143.6875  158.6395 C   0  0  0  0  0  0  0  0  0  0  0  0
  151.5996  144.1967  158.5165 C   0  0  0  0  0  0  0  0  0  0  0  0
  150.7974  144.3396  159.6711 C   0  0  0  0  0  0  0  0  0  0  0  0
  149.4960  144.8594  159.4398 N   0  0  0  0  0  0  0  0  0  0  0  0
  148.5254  145.1004  160.3387 C   0  0  0  0  0  0  0  0  0  0  0  0
  148.6218  144.9295  161.5545 O   0  0  0  0  0  0  0  0  0  0  0  0
  147.4156  145.5574  159.7408 N   0  0  0  0  0  0  0  0  0  0  0  0
  146.1648  145.8779  160.4206 C   0  0  0  0  0  0  0  0  0  0  0  0
  145.5560  147.1889  159.8947 C   0  0  2  0  0  0  0  0  0  0  0  0
  145.3448  147.1528  158.3677 C   0  0  0  0  0  0  0  0  0  0  0  0
  144.8278  148.4183  157.8621 N   0  0  0  0  0  0  0  0  0  0  0  0
  144.6264  148.3800  156.4215 C   0  0  0  0  0  0  0  0  0  0  0  0
  145.7215  149.5013  158.2498 C   0  0  0  0  0  0  0  0  0  0  0  0
  145.9478  149.5338  159.7704 C   0  0  0  0  0  0  0  0  0  0  0  0
  146.4365  148.2684  160.2030 O   0  0  0  0  0  0  0  0  0  0  0  0
  151.2633  143.9939  160.8973 N   0  0  0  0  0  0  0  0  0  0  0  0
  153.9813  142.7706  162.4287 H   0  0  0  0  0  0  0  0  0  0  0  0
  152.3106  142.3533  162.8204 H   0  0  0  0  0  0  0  0  0  0  0  0
  152.8933  144.0034  163.0741 H   0  0  0  0  0  0  0  0  0  0  0  0
  154.3768  142.9372  160.0432 H   0  0  0  0  0  0  0  0  0  0  0  0
  153.5352  143.5707  157.7689 H   0  0  0  0  0  0  0  0  0  0  0  0
  151.2208  144.4731  157.5432 H   0  0  0  0  0  0  0  0  0  0  0  0
  149.2728  145.0570  158.4758 H   0  0  0  0  0  0  0  0  0  0  0  0
  147.4277  145.6700  158.7378 H   0  0  0  0  0  0  0  0  0  0  0  0
  145.4495  145.0582  160.3345 H   0  0  0  0  0  0  0  0  0  0  0  0
  146.3889  145.9792  161.4829 H   0  0  0  0  0  0  0  0  0  0  0  0
  144.5962  147.3587  160.3866 H   0  0  0  0  0  0  0  0  0  0  0  0
  146.2903  146.9176  157.8761 H   0  0  0  0  0  0  0  0  0  0  0  0
  144.6539  146.3475  158.1156 H   0  0  0  0  0  0  0  0  0  0  0  0
  144.2044  149.3205  156.0662 H   0  0  0  0  0  0  0  0  0  0  0  0
  143.9348  147.5822  156.1491 H   0  0  0  0  0  0  0  0  0  0  0  0
  145.5671  148.2094  155.8959 H   0  0  0  0  0  0  0  0  0  0  0  0
  146.6828  149.3855  157.7464 H   0  0  0  0  0  0  0  0  0  0  0  0
  145.3103  150.4569  157.9223 H   0  0  0  0  0  0  0  0  0  0  0  0
  146.6737  150.3040  160.0303 H   0  0  0  0  0  0  0  0  0  0  0  0
  145.0222  149.7734  160.2962 H   0  0  0  0  0  0  0  0  0  0  0  0
  1  2  1  0  0  0  0
  1 20  1  0  0  0  0
  1 21  1  0  0  0  0
  1 22  1  0  0  0  0
  2 19  1  0  0  0  0
  2  3  2  0  0  0  0
  3  4  1  0  0  0  0
  3 23  1  0  0  0  0
  4  5  2  0  0  0  0
  4 24  1  0  0  0  0
  5  6  1  0  0  0  0
  5 25  1  0  0  0  0
  6  7  1  0  0  0  0
  6 19  2  0  0  0  0
  7  8  1  0  0  0  0
  7 26  1  0  0  0  0
  8  9  2  0  0  0  0
  8 10  1  0  0  0  0
 10 11  1  0  0  0  0
 10 27  1  0  0  0  0
 11 12  1  0  0  0  0
 11 28  1  0  0  0  0
 11 29  1  0  0  0  0
 12 18  1  0  0  0  0
 12 13  1  0  0  0  0
 12 30  1  0  0  0  0
 13 14  1  0  0  0  0
 13 31  1  0  0  0  0
 13 32  1  0  0  0  0
 14 15  1  0  0  0  0
 14 16  1  0  0  0  0
 15 33  1  0  0  0  0
 15 34  1  0  0  0  0
 15 35  1  0  0  0  0
 16 17  1  0  0  0  0
 16 36  1  0  0  0  0
 16 37  1  0  0  0  0
 17 18  1  0  0  0  0
 17 38  1  0  0  0  0
 17 39  1  0  0  0  0
M  END
> <s_m_source_file>
AV-unprocessed.smi

> <i_m_source_file_index>
2302

> <i_lp_mmshare_version>
43012

> <i_f3d_flags>
0

> <s_epik_input>
W0NIM11jMVtjSF1bY0hdW2NIXWMobjEpW05IXUMoPU8pW05IXVtDSDJdW0NAQEhdMltDSDJdTihbQ0gzXSlbQ0gyXVtDSDJdTzI=

> <s_epik_cmdline>
J2VwaWtfcHl0aG9uJywgJy1waCcsICc3LjAnLCAnLXRuJywgJzgnLCAnLW1hJywgJzIwMCcsICctbWV0YWxfYmluZGluZycsICctaW1hZScsICc8aW5maWxlLm1hZT4nLCAnLW9tYWUnLCAnPG91dGZpbGUubWFlPic=

> <r_epik_Ionization_Penalty>
0.729465

> <r_epik_Ionization_Penalty_Charging>
0

> <r_epik_Ionization_Penalty_Neutral>
0.729465

> <r_epik_State_Penalty>
0.754525

> <r_epik_Charging_Adjusted_Penalty>
0.754525

> <i_epik_Tot_Q>
0

> <i_epik_Tot_abs_Q>
0

> <r_epik_Metal_State_Penalty>
0.754521

> <b_epik_Metal_Only>
0

> <s_lp_Force_Field>
OPLS_2005

> <r_lp_Energy>
19.6921

> <b_lp_Chiralities_Consistent>
1

> <s_lp_Variant>
AV-unprocessed.smi:2302-5

> <Gold.Version>
5.8.1

> <Gold.Id.Protein>
6NUR|6NUR_protein|mol2

> <Gold.PLP.Fitness>
50.3728

> <Gold.PLP.PLP>
-44.2495

> <Gold.PLP.part.hbond>
-5.2850

> <Gold.PLP.part.metal>
0.0000

> <Gold.PLP.part.buried>
-3.8189

> <Gold.PLP.part.nonpolar>
-37.3753

> <Gold.PLP.part.repulsive>
0.9310

> <Gold.PLP.ligand.clash>
0.0000

> <Gold.PLP.ligand.torsion>
0.1264

> <Gold.PLP.Chemscore.Hbond>
2.1253

> <Gold.PLP.Chemscore.CHOScore>
0.0000

> <Gold.PLP.Chemscore.Metal>
0.0000

> <Gold.Chemscore.Hbonds>
donor molecule, donor type, donor heavy atom, donor atom, acceptor molecule, acceptor atom, score
      L1  H     7    26       P1  8029  0.88
      L1  H    10    27       P1  8029  1.00

> <Gold.PLP.Chemscore.Internal.Correction>
0.0002

> <Gold.Rescore>
     Score         DG    S(hbond)    S(metal)    S(lipo)     H(rot)  DE(clash)    DE(int)     intcor
     19.06     -22.39       2.43        0.00     102.60       1.25       1.85       1.48       ----

> <Gold.Chemscore.Fitness>
19.0629

> <Gold.Chemscore.DG>
-22.3899

> <Gold.Chemscore.ZeroCoef>
-5.4800

> <Gold.Chemscore.Hbond>
2.4274

> <Gold.Chemscore.Metal>
0.0000

> <Gold.Chemscore.Lipo>
102.5973

> <Gold.Chemscore.Internal_Hbond>
0.0000

> <Gold.Chemscore.DEClash>
1.8479

> <Gold.Chemscore.DEInternal>
1.4791

> <Gold.Chemscore.Rot>
1.2506

> <Gold.Chemscore.Internal.Correction>
   9.000000E+99

> <Gold.Chemscore.Hbonds>
donor molecule, donor type, donor heavy atom, donor atom, acceptor molecule, acceptor atom, score
      L1  H     7    26       P1  8029  0.63
      L1  H    10    27       P1  8029  0.94

> <Gold.Chemscore.Hbond.Weighted>
-8.1076

> <Gold.Chemscore.Metal.Weighted>
-0.0000

> <Gold.Chemscore.Lipo.Weighted>
-12.0039

> <Gold.Chemscore.Internal_Hbond.Weighted>
0.0000

> <Gold.Chemscore.DEClash.Weighted>
1.8479

> <Gold.Chemscore.DEInternal.Weighted>
1.4791

> <Gold.Chemscore.Rot.Weighted>
3.2015

> <Gold.Chemscore.Internal.Correction.Weighted>
   9.000000E+99

> <Gold.Protein.RotatedTorsions>
[ 6907 6896 6895 6894 ] final  162.44 input  -60.11 | X-H torsion
[ 7974 7965 7964 7962 ] final    6.70 input  175.53 | X-H torsion
[ 8008 7997 7996 7995 ] final  102.88 input   59.86 | X-H torsion
[ 10167 10162 10161 10158 ] final  -66.66 input  -65.29 | X-H torsion
[ 10718 10713 10712 10709 ] final  140.39 input   66.30 | X-H torsion
[ 10763 10752 10751 10750 ] final  -45.61 input  -60.55 | X-H torsion
[ 11005 11000 10999 10996 ] final    6.03 input  -57.11 | X-H torsion

> <Gold.Protein.ActiveResidues>
 VAL166  LYS551  ARG553  GLY616  TRP617  ASP618  TYR619  PRO620  LYS621  CYS622 
 ASP623  PHE694  ASN695  SER759  ASP760  ASP761  ALA762  ILE779  LEU786  VAL792 
 PHE793  MET794  SER795  GLU796  ALA797  LYS798  CYS799  TRP800  GLU811  SER814 

> <Gold.Protein.RotatedAtoms>
  151.9404  133.3636  159.3962 H   0  0  0  0  0  0  0  0  0  0  0  0  # atno 6907 bound_to 6896
  150.6999  134.4445  159.5317 H   0  0  0  0  0  0  0  0  0  0  0  0  # atno 6908 bound_to 6896
  152.2101  134.8509  160.0549 H   0  0  0  0  0  0  0  0  0  0  0  0  # atno 6909 bound_to 6896
  146.2433  140.0194  142.8399 H   0  0  0  0  0  0  0  0  0  0  0  0  # atno 7974 bound_to 7965
  156.1434  140.3174  155.8531 H   0  0  0  0  0  0  0  0  0  0  0  0  # atno 8008 bound_to 7997
  155.4111  140.0506  157.3048 H   0  0  0  0  0  0  0  0  0  0  0  0  # atno 8009 bound_to 7997
  154.4995  140.2124  155.9388 H   0  0  0  0  0  0  0  0  0  0  0  0  # atno 8010 bound_to 7997
  140.5640  143.2314  151.6671 H   0  0  0  0  0  0  0  0  0  0  0  0  # atno 10167 bound_to 10162
  157.4038  131.1020  151.0525 H   0  0  0  0  0  0  0  0  0  0  0  0  # atno 10718 bound_to 10713
  154.0313  135.6656  153.4781 H   0  0  0  0  0  0  0  0  0  0  0  0  # atno 10763 bound_to 10752
  153.0539  135.5068  154.7930 H   0  0  0  0  0  0  0  0  0  0  0  0  # atno 10764 bound_to 10752
  154.6876  135.3056  154.9490 H   0  0  0  0  0  0  0  0  0  0  0  0  # atno 10765 bound_to 10752
  140.5640  134.0165  155.7983 H   0  0  0  0  0  0  0  0  0  0  0  0  # atno 11005 bound_to 11000
  145.1255  140.9487  143.4575 LP  0  0  0  0  0  0  0  0  0  0  0  0  # atno 17320 bound_to 7965
  145.0439  139.3237  143.5962 LP  0  0  0  0  0  0  0  0  0  0  0  0  # atno 17321 bound_to 7965
  139.5084  144.3613  152.0559 LP  0  0  0  0  0  0  0  0  0  0  0  0  # atno 17342 bound_to 10162
  140.2743  144.3930  150.6140 LP  0  0  0  0  0  0  0  0  0  0  0  0  # atno 17343 bound_to 10162
  157.1514  130.6186  149.5583 LP  0  0  0  0  0  0  0  0  0  0  0  0  # atno 17370 bound_to 10713
  155.9830  130.4848  150.6913 LP  0  0  0  0  0  0  0  0  0  0  0  0  # atno 17371 bound_to 10713
  141.1097  133.9637  157.2933 LP  0  0  0  0  0  0  0  0  0  0  0  0  # atno 17394 bound_to 11000
  139.9394  135.0193  156.8659 LP  0  0  0  0  0  0  0  0  0  0  0  0  # atno 17395 bound_to 11000

$$$$
