AV-unprocessed.smi:201|AV-procd|sdf|1580|dock5
  -GOLD-   2262019463D 1   1.00000     0.00000
 Structure written by MMmdl.
 59 61  0  0  0  0  0  0  0  0  1 V2000
  147.5724  129.4776  154.7992 C   0  0  0  0  0  0  0  0  0  0  0  0
  147.8258  130.5056  153.6801 C   0  0  0  0  0  0  0  0  0  0  0  0
  149.2248  130.2452  153.0795 C   0  0  0  0  0  0  0  0  0  0  0  0
  147.6691  131.8901  154.1601 N   0  0  0  0  0  0  0  0  0  0  0  0
  147.3482  132.9664  153.2180 C   0  0  0  0  0  0  0  0  0  0  0  0
  146.5300  132.4950  151.9983 C   0  0  0  0  0  0  0  0  0  0  0  0
  145.5790  133.4733  151.6030 O   0  0  0  0  0  0  0  0  0  0  0  0
  145.1470  133.3567  150.2545 C   0  0  0  0  0  0  0  0  0  0  0  0
  144.1374  132.2074  150.1546 C   0  0  0  0  0  0  0  0  0  0  0  0
  142.8950  132.6074  150.6921 O   0  0  0  0  0  0  0  0  0  0  0  0
  148.5051  132.3214  155.1370 C   0  0  0  0  0  0  0  0  0  0  0  0
  148.4355  131.6871  156.3346 N   0  0  0  0  0  0  0  0  0  0  0  0
  149.2231  132.0693  157.3439 C   0  0  0  0  0  0  0  0  0  0  0  0
  150.1276  133.0500  157.3715 N   0  0  0  0  0  0  0  0  0  0  0  0
  150.1917  133.6996  156.1739 C   0  0  0  0  0  0  0  0  0  0  0  0
  149.4248  133.4032  155.0119 C   0  0  0  0  0  0  0  0  0  0  0  0
  149.7634  134.2809  153.9887 N   0  0  0  0  0  0  0  0  0  0  0  0
  150.6853  135.0419  154.5111 C   0  0  0  0  0  0  0  0  0  0  0  0
  150.9906  134.7756  155.8266 N   0  0  0  0  0  0  0  0  0  0  0  0
  151.9734  135.4622  156.6530 C   0  0  0  0  0  0  0  0  0  0  0  0
  151.6456  136.9471  157.0027 C   0  0  0  0  0  0  0  0  0  0  0  0
  150.2829  136.9598  157.7527 C   0  0  0  0  0  0  0  0  0  0  0  0
  150.3273  136.2354  158.9664 O   0  0  0  0  0  0  0  0  0  0  0  0
  152.7685  137.5854  157.8618 C   0  0  0  0  0  0  0  0  0  0  0  0
  152.5696  139.0982  158.0670 C   0  0  0  0  0  0  0  0  0  0  0  0
  152.5004  139.7517  156.8056 O   0  0  0  0  0  0  0  0  0  0  0  0
  151.4056  139.3139  156.0101 C   0  0  0  0  0  0  0  0  0  0  0  0
  151.5355  137.8072  155.7161 C   0  0  0  0  0  0  0  0  0  0  0  0
  147.7436  128.4612  154.4431 H   0  0  0  0  0  0  0  0  0  0  0  0
  146.5436  129.5113  155.1573 H   0  0  0  0  0  0  0  0  0  0  0  0
  148.2333  129.6454  155.6503 H   0  0  0  0  0  0  0  0  0  0  0  0
  147.0845  130.3257  152.9020 H   0  0  0  0  0  0  0  0  0  0  0  0
  149.3305  129.2043  152.7728 H   0  0  0  0  0  0  0  0  0  0  0  0
  150.0103  130.4550  153.8061 H   0  0  0  0  0  0  0  0  0  0  0  0
  149.4207  130.8505  152.1951 H   0  0  0  0  0  0  0  0  0  0  0  0
  146.8072  133.7536  153.7416 H   0  0  0  0  0  0  0  0  0  0  0  0
  148.2744  133.4359  152.8859 H   0  0  0  0  0  0  0  0  0  0  0  0
  147.1743  132.2284  151.1595 H   0  0  0  0  0  0  0  0  0  0  0  0
  145.9723  131.5953  152.2581 H   0  0  0  0  0  0  0  0  0  0  0  0
  144.7153  134.2839  149.8765 H   0  0  0  0  0  0  0  0  0  0  0  0
  146.0114  133.1250  149.6302 H   0  0  0  0  0  0  0  0  0  0  0  0
  143.9756  131.9475  149.1081 H   0  0  0  0  0  0  0  0  0  0  0  0
  144.5019  131.3120  150.6589 H   0  0  0  0  0  0  0  0  0  0  0  0
  142.5112  133.2465  150.1110 H   0  0  0  0  0  0  0  0  0  0  0  0
  149.1113  131.5104  158.2613 H   0  0  0  0  0  0  0  0  0  0  0  0
  151.1661  135.8297  153.9494 H   0  0  0  0  0  0  0  0  0  0  0  0
  152.0928  134.8846  157.5707 H   0  0  0  0  0  0  0  0  0  0  0  0
  152.9324  135.3983  156.1373 H   0  0  0  0  0  0  0  0  0  0  0  0
  149.9513  137.9691  157.9891 H   0  0  0  0  0  0  0  0  0  0  0  0
  149.5030  136.5249  157.1266 H   0  0  0  0  0  0  0  0  0  0  0  0
  149.7856  136.6793  159.6011 H   0  0  0  0  0  0  0  0  0  0  0  0
  152.8515  137.0845  158.8266 H   0  0  0  0  0  0  0  0  0  0  0  0
  153.7328  137.4539  157.3728 H   0  0  0  0  0  0  0  0  0  0  0  0
  151.6778  139.3130  158.6561 H   0  0  0  0  0  0  0  0  0  0  0  0
  153.4133  139.5087  158.6223 H   0  0  0  0  0  0  0  0  0  0  0  0
  150.4622  139.5543  156.5000 H   0  0  0  0  0  0  0  0  0  0  0  0
  151.4151  139.8725  155.0739 H   0  0  0  0  0  0  0  0  0  0  0  0
  152.4266  137.6838  155.1018 H   0  0  0  0  0  0  0  0  0  0  0  0
  150.6972  137.4717  155.1048 H   0  0  0  0  0  0  0  0  0  0  0  0
  1  2  1  0  0  0  0
  1 29  1  0  0  0  0
  1 30  1  0  0  0  0
  1 31  1  0  0  0  0
  2  3  1  0  0  0  0
  2  4  1  0  0  0  0
  2 32  1  0  0  0  0
  3 33  1  0  0  0  0
  3 34  1  0  0  0  0
  3 35  1  0  0  0  0
  4  5  1  0  0  0  0
  4 11  1  0  0  0  0
  5  6  1  0  0  0  0
  5 36  1  0  0  0  0
  5 37  1  0  0  0  0
  6  7  1  0  0  0  0
  6 38  1  0  0  0  0
  6 39  1  0  0  0  0
  7  8  1  0  0  0  0
  8  9  1  0  0  0  0
  8 40  1  0  0  0  0
  8 41  1  0  0  0  0
  9 10  1  0  0  0  0
  9 42  1  0  0  0  0
  9 43  1  0  0  0  0
 10 44  1  0  0  0  0
 11 16  1  0  0  0  0
 11 12  2  0  0  0  0
 12 13  1  0  0  0  0
 13 14  2  0  0  0  0
 13 45  1  0  0  0  0
 14 15  1  0  0  0  0
 15 19  1  0  0  0  0
 15 16  2  0  0  0  0
 16 17  1  0  0  0  0
 17 18  2  0  0  0  0
 18 19  1  0  0  0  0
 18 46  1  0  0  0  0
 19 20  1  0  0  0  0
 20 21  1  0  0  0  0
 20 47  1  0  0  0  0
 20 48  1  0  0  0  0
 21 28  1  0  0  0  0
 21 22  1  0  0  0  0
 21 24  1  0  0  0  0
 22 23  1  0  0  0  0
 22 49  1  0  0  0  0
 22 50  1  0  0  0  0
 23 51  1  0  0  0  0
 24 25  1  0  0  0  0
 24 52  1  0  0  0  0
 24 53  1  0  0  0  0
 25 26  1  0  0  0  0
 25 54  1  0  0  0  0
 25 55  1  0  0  0  0
 26 27  1  0  0  0  0
 27 28  1  0  0  0  0
 27 56  1  0  0  0  0
 27 57  1  0  0  0  0
 28 58  1  0  0  0  0
 28 59  1  0  0  0  0
M  END
> <s_m_source_file>
AV-unprocessed.smi

> <i_m_source_file_index>
201

> <i_lp_mmshare_version>
43012

> <i_f3d_flags>
0

> <s_epik_input>
W09IXVtDSDJdW0NIMl1PW0NIMl1bQ0gyXU4oW0NIXShbQ0gzXSlbQ0gzXSljKG5bY0hdbjEpYyhjMTIpbltjSF1uMltDSDJdQzMoW0NIMl1bT0hdKVtDSDJdW0NIMl1PW0NIMl1bQ0gyXTM=

> <s_epik_cmdline>
J2VwaWtfcHl0aG9uJywgJy1waCcsICc3LjAnLCAnLXRuJywgJzgnLCAnLW1hJywgJzIwMCcsICctbWV0YWxfYmluZGluZycsICctaW1hZScsICc8aW5maWxlLm1hZT4nLCAnLW9tYWUnLCAnPG91dGZpbGUubWFlPic=

> <r_lp_tautomer_probability>
1

> <r_epik_Ionization_Penalty>
0.00276835

> <r_epik_Ionization_Penalty_Charging>
0

> <r_epik_Ionization_Penalty_Neutral>
0.00276835

> <r_epik_State_Penalty>
0.00179834

> <r_epik_Charging_Adjusted_Penalty>
0.00179834

> <i_epik_Tot_Q>
0

> <i_epik_Tot_abs_Q>
0

> <r_epik_Metal_State_Penalty>
-0

> <b_epik_Metal_Only>
0

> <s_lp_Force_Field>
OPLS_2005

> <r_lp_Energy>
32.5455

> <b_lp_Chiralities_Consistent>
1

> <s_lp_Variant>
AV-unprocessed.smi:201-1

> <Gold.Version>
5.8.1

> <Gold.Id.Protein>
6NUR|6NUR_protein|mol2

> <Gold.PLP.Fitness>
44.6854

> <Gold.PLP.PLP>
-31.5382

> <Gold.PLP.part.hbond>
-4.2735

> <Gold.PLP.part.metal>
0.0000

> <Gold.PLP.part.buried>
-6.4400

> <Gold.PLP.part.nonpolar>
-21.6432

> <Gold.PLP.part.repulsive>
0.8697

> <Gold.PLP.ligand.clash>
0.0000

> <Gold.PLP.ligand.torsion>
1.3440

> <Gold.PLP.Chemscore.Hbond>
3.9920

> <Gold.PLP.Chemscore.CHOScore>
0.8957

> <Gold.PLP.Chemscore.Metal>
0.0000

> <Gold.Chemscore.Hbonds>
donor molecule, donor type, donor heavy atom, donor atom, acceptor molecule, acceptor atom, score
      L1  H    10    44       P1 10186  1.00
      P1  H  6896  6908       L1    14  0.81
      P1  H  6896  6909       L1    23  0.94
      P1  H  7997  8008       L1    26  1.00
      L1  C    18    46       P1  7949  0.88

> <Gold.PLP.Chemscore.Internal.Correction>
1.1721

> <Gold.Rescore>
     Score         DG    S(hbond)    S(metal)    S(lipo)     H(rot)  DE(clash)    DE(int)     intcor
     11.74     -14.99       3.91        0.00      71.89       4.68       0.02       3.23       ----

> <Gold.Chemscore.Fitness>
11.7425

> <Gold.Chemscore.DG>
-14.9892

> <Gold.Chemscore.ZeroCoef>
-5.4800

> <Gold.Chemscore.Hbond>
3.9137

> <Gold.Chemscore.Metal>
0.0000

> <Gold.Chemscore.Lipo>
71.8882

> <Gold.Chemscore.Internal_Hbond>
0.0000

> <Gold.Chemscore.DEClash>
0.0197

> <Gold.Chemscore.DEInternal>
3.2270

> <Gold.Chemscore.Rot>
4.6771

> <Gold.Chemscore.Internal.Correction>
   9.000000E+99

> <Gold.Chemscore.Hbonds>
donor molecule, donor type, donor heavy atom, donor atom, acceptor molecule, acceptor atom, score
      L1  H    10    44       P1 10186  0.93
      P1  H  6896  6908       L1    14  0.77
      P1  H  6896  6909       L1    23  0.45
      P1  H  7997  8008       L1    26  0.39

> <Gold.Chemscore.Hbond.Weighted>
-13.0716

> <Gold.Chemscore.Metal.Weighted>
-0.0000

> <Gold.Chemscore.Lipo.Weighted>
-8.4109

> <Gold.Chemscore.Internal_Hbond.Weighted>
0.0000

> <Gold.Chemscore.DEClash.Weighted>
0.0197

> <Gold.Chemscore.DEInternal.Weighted>
3.2270

> <Gold.Chemscore.Rot.Weighted>
11.9733

> <Gold.Chemscore.Internal.Correction.Weighted>
   9.000000E+99

> <Gold.Protein.RotatedTorsions>
[ 6907 6896 6895 6894 ] final   97.20 input  -60.11 | X-H torsion
[ 7974 7965 7964 7962 ] final  129.13 input  175.53 | X-H torsion
[ 8008 7997 7996 7995 ] final  -45.85 input   59.86 | X-H torsion
[ 10167 10162 10161 10158 ] final  -38.39 input  -65.29 | X-H torsion
[ 10718 10713 10712 10709 ] final    7.00 input   66.30 | X-H torsion
[ 10763 10752 10751 10750 ] final  -64.71 input  -60.55 | X-H torsion
[ 11005 11000 10999 10996 ] final -166.97 input  -57.11 | X-H torsion

> <Gold.Protein.ActiveResidues>
 VAL166  LYS551  ARG553  GLY616  TRP617  ASP618  TYR619  PRO620  LYS621  CYS622 
 ASP623  PHE694  ASN695  SER759  ASP760  ASP761  ALA762  ILE779  LEU786  VAL792 
 PHE793  MET794  SER795  GLU796  ALA797  LYS798  CYS799  TRP800  GLU811  SER814 

> <Gold.Protein.RotatedAtoms>
  152.5426  134.0769  159.8218 H   0  0  0  0  0  0  0  0  0  0  0  0  # atno 6907 bound_to 6896
  151.0876  133.5333  159.2624 H   0  0  0  0  0  0  0  0  0  0  0  0  # atno 6908 bound_to 6896
  151.2137  135.0500  159.8976 H   0  0  0  0  0  0  0  0  0  0  0  0  # atno 6909 bound_to 6896
  145.0320  139.4038  143.5145 H   0  0  0  0  0  0  0  0  0  0  0  0  # atno 7974 bound_to 7965
  154.4003  140.1386  156.3914 H   0  0  0  0  0  0  0  0  0  0  0  0  # atno 8008 bound_to 7997
  155.7910  140.3479  155.5329 H   0  0  0  0  0  0  0  0  0  0  0  0  # atno 8009 bound_to 7997
  155.8579  140.0952  157.1623 H   0  0  0  0  0  0  0  0  0  0  0  0  # atno 8010 bound_to 7997
  140.7093  143.3280  151.2634 H   0  0  0  0  0  0  0  0  0  0  0  0  # atno 10167 bound_to 10162
  156.9305  130.5824  149.5649 H   0  0  0  0  0  0  0  0  0  0  0  0  # atno 10718 bound_to 10713
  154.3342  135.6170  153.5565 H   0  0  0  0  0  0  0  0  0  0  0  0  # atno 10763 bound_to 10752
  152.9809  135.5754  154.4927 H   0  0  0  0  0  0  0  0  0  0  0  0  # atno 10764 bound_to 10752
  154.4619  135.2856  155.1683 H   0  0  0  0  0  0  0  0  0  0  0  0  # atno 10765 bound_to 10752
  140.5585  134.5357  157.5138 H   0  0  0  0  0  0  0  0  0  0  0  0  # atno 11005 bound_to 11000
  146.3499  139.9875  142.8689 LP  0  0  0  0  0  0  0  0  0  0  0  0  # atno 17320 bound_to 7965
  145.1758  140.9743  143.4295 LP  0  0  0  0  0  0  0  0  0  0  0  0  # atno 17321 bound_to 7965
  139.6754  143.9946  152.2778 LP  0  0  0  0  0  0  0  0  0  0  0  0  # atno 17342 bound_to 10162
  139.9559  144.6590  150.8127 LP  0  0  0  0  0  0  0  0  0  0  0  0  # atno 17343 bound_to 10162
  156.0449  130.5527  150.8858 LP  0  0  0  0  0  0  0  0  0  0  0  0  # atno 17370 bound_to 10713
  157.5850  131.0945  150.9211 LP  0  0  0  0  0  0  0  0  0  0  0  0  # atno 17371 bound_to 10713
  139.9419  134.7771  156.0656 LP  0  0  0  0  0  0  0  0  0  0  0  0  # atno 17394 bound_to 11000
  141.1129  133.6637  156.3022 LP  0  0  0  0  0  0  0  0  0  0  0  0  # atno 17395 bound_to 11000

$$$$
