AV-unprocessed.smi:1791|AV-procd|sdf|7219|dock9
  -GOLD-   22720 8463D 1   1.00000     0.00000
 Structure written by MMmdl.
 38 39  0  0  0  0  0  0  0  0  1 V2000
  151.5629  141.3001  158.1159 C   0  0  0  0  0  0  0  0  0  0  0  0
  151.5841  141.1361  156.7019 O   0  0  0  0  0  0  0  0  0  0  0  0
  151.0788  139.9669  156.1708 C   0  0  0  0  0  0  0  0  0  0  0  0
  150.8660  138.8710  157.0307 C   0  0  0  0  0  0  0  0  0  0  0  0
  150.3477  137.6753  156.4971 C   0  0  0  0  0  0  0  0  0  0  0  0
  150.0505  137.6159  155.1142 C   0  0  0  0  0  0  0  0  0  0  0  0
  149.5375  136.4702  154.4471 N   0  0  0  0  0  0  0  0  0  0  0  0
  149.1823  135.2810  154.9634 C   0  0  0  0  0  0  0  0  0  0  0  0
  149.2530  134.9708  156.1521 O   0  0  0  0  0  0  0  0  0  0  0  0
  148.7161  134.4644  154.0074 N   0  0  0  0  0  0  0  0  0  0  0  0
  148.2371  133.0978  154.2053 C   0  0  1  0  0  0  0  0  0  0  0  0
  147.1592  133.1071  155.3005 C   0  0  0  0  0  0  0  0  0  0  0  0
  147.7102  132.5405  152.8685 C   0  0  2  0  0  0  0  0  0  0  0  0
  146.7228  133.4537  152.1389 C   0  0  0  0  0  0  0  0  0  0  0  0
  145.8821  132.4941  151.3102 C   0  0  0  0  0  0  0  0  0  0  0  0
  146.2211  131.1138  151.8777 C   0  0  0  0  0  0  0  0  0  0  0  0
  146.9275  131.3754  153.0813 O   0  0  0  0  0  0  0  0  0  0  0  0
  150.3131  138.7636  154.3382 C   0  0  0  0  0  0  0  0  0  0  0  0
  150.8088  139.9127  154.8433 N   0  0  0  0  0  0  0  0  0  0  0  0
  151.9938  142.2672  158.3741 H   0  0  0  0  0  0  0  0  0  0  0  0
  152.1543  140.5312  158.6151 H   0  0  0  0  0  0  0  0  0  0  0  0
  150.5443  141.2778  158.5056 H   0  0  0  0  0  0  0  0  0  0  0  0
  151.0993  138.9451  158.0828 H   0  0  0  0  0  0  0  0  0  0  0  0
  150.2023  136.8337  157.1558 H   0  0  0  0  0  0  0  0  0  0  0  0
  149.3621  136.5913  153.4604 H   0  0  0  0  0  0  0  0  0  0  0  0
  148.6975  134.8124  153.0602 H   0  0  0  0  0  0  0  0  0  0  0  0
  149.0519  132.4577  154.5478 H   0  0  0  0  0  0  0  0  0  0  0  0
  146.8049  132.0993  155.5181 H   0  0  0  0  0  0  0  0  0  0  0  0
  146.2972  133.7065  155.0057 H   0  0  0  0  0  0  0  0  0  0  0  0
  147.5502  133.5208  156.2305 H   0  0  0  0  0  0  0  0  0  0  0  0
  148.5407  132.2886  152.2054 H   0  0  0  0  0  0  0  0  0  0  0  0
  146.0830  133.9687  152.8569 H   0  0  0  0  0  0  0  0  0  0  0  0
  147.2214  134.2098  151.5316 H   0  0  0  0  0  0  0  0  0  0  0  0
  144.8207  132.7217  151.4152 H   0  0  0  0  0  0  0  0  0  0  0  0
  146.1337  132.5487  150.2507 H   0  0  0  0  0  0  0  0  0  0  0  0
  145.3349  130.5070  152.0646 H   0  0  0  0  0  0  0  0  0  0  0  0
  146.8705  130.5668  151.1928 H   0  0  0  0  0  0  0  0  0  0  0  0
  150.1143  138.7641  153.2764 H   0  0  0  0  0  0  0  0  0  0  0  0
  1  2  1  0  0  0  0
  1 20  1  0  0  0  0
  1 21  1  0  0  0  0
  1 22  1  0  0  0  0
  2  3  1  0  0  0  0
  3 19  1  0  0  0  0
  3  4  2  0  0  0  0
  4  5  1  0  0  0  0
  4 23  1  0  0  0  0
  5  6  2  0  0  0  0
  5 24  1  0  0  0  0
  6  7  1  0  0  0  0
  6 18  1  0  0  0  0
  7  8  1  0  0  0  0
  7 25  1  0  0  0  0
  8  9  2  0  0  0  0
  8 10  1  0  0  0  0
 10 11  1  0  0  0  0
 10 26  1  0  0  0  0
 11 12  1  0  0  0  0
 11 13  1  0  0  0  0
 11 27  1  0  0  0  0
 12 28  1  0  0  0  0
 12 29  1  0  0  0  0
 12 30  1  0  0  0  0
 13 17  1  0  0  0  0
 13 14  1  0  0  0  0
 13 31  1  0  0  0  0
 14 15  1  0  0  0  0
 14 32  1  0  0  0  0
 14 33  1  0  0  0  0
 15 16  1  0  0  0  0
 15 34  1  0  0  0  0
 15 35  1  0  0  0  0
 16 17  1  0  0  0  0
 16 36  1  0  0  0  0
 16 37  1  0  0  0  0
 18 19  2  0  0  0  0
 18 38  1  0  0  0  0
M  END
> <s_m_source_file>
AV-unprocessed.smi

> <i_m_source_file_index>
1791

> <i_lp_mmshare_version>
43012

> <i_f3d_flags>
0

> <s_epik_input>
W0NIM11PYzFbY0hdW2NIXWMoW2NIXW4xKVtOSF1DKD1PKVtOSF1bQ0BIXShbQ0gzXSlbQ0BASF0yW0NIMl1bQ0gyXVtDSDJdTzI=

> <s_epik_cmdline>
J2VwaWtfcHl0aG9uJywgJy1waCcsICc3LjAnLCAnLXRuJywgJzgnLCAnLW1hJywgJzIwMCcsICctbWV0YWxfYmluZGluZycsICctaW1hZScsICc8aW5maWxlLm1hZT4nLCAnLW9tYWUnLCAnPG91dGZpbGUubWFlPic=

> <r_lp_tautomer_probability>
1

> <r_epik_Ionization_Penalty>
9.18737e-05

> <r_epik_Ionization_Penalty_Charging>
0

> <r_epik_Ionization_Penalty_Neutral>
9.18737e-05

> <r_epik_State_Penalty>
-0

> <r_epik_Charging_Adjusted_Penalty>
0

> <i_epik_Tot_Q>
0

> <i_epik_Tot_abs_Q>
0

> <r_epik_Metal_State_Penalty>
-0

> <b_epik_Metal_Only>
0

> <s_lp_Force_Field>
OPLS_2005

> <r_lp_Energy>
20.9022

> <b_lp_Chiralities_Consistent>
1

> <s_lp_Variant>
AV-unprocessed.smi:1791-2

> <Gold.Version>
5.8.1

> <Gold.Id.Protein>
6NUR|6NUR_protein|mol2

> <Gold.PLP.Fitness>
36.2048

> <Gold.PLP.PLP>
-24.9412

> <Gold.PLP.part.hbond>
-3.0000

> <Gold.PLP.part.metal>
0.0000

> <Gold.PLP.part.buried>
-3.4244

> <Gold.PLP.part.nonpolar>
-18.7092

> <Gold.PLP.part.repulsive>
0.2582

> <Gold.PLP.ligand.clash>
0.0000

> <Gold.PLP.ligand.torsion>
0.3884

> <Gold.PLP.Chemscore.Hbond>
3.0000

> <Gold.PLP.Chemscore.CHOScore>
1.0000

> <Gold.PLP.Chemscore.Metal>
0.0000

> <Gold.Chemscore.Hbonds>
donor molecule, donor type, donor heavy atom, donor atom, acceptor molecule, acceptor atom, score
      L1  H     7    25       P1  7948  1.00
      L1  H    10    26       P1  7948  1.00
      P1  H  7989  7998       L1    19  1.00
      L1  C    18    38       P1  7957  1.00

> <Gold.PLP.Chemscore.Internal.Correction>
0.0404

> <Gold.Rescore>
     Score         DG    S(hbond)    S(metal)    S(lipo)     H(rot)  DE(clash)    DE(int)     intcor
     15.24     -16.92       2.44        0.00      60.25       1.47       0.13       1.55       ----

> <Gold.Chemscore.Fitness>
15.2359

> <Gold.Chemscore.DG>
-16.9238

> <Gold.Chemscore.ZeroCoef>
-5.4800

> <Gold.Chemscore.Hbond>
2.4417

> <Gold.Chemscore.Metal>
0.0000

> <Gold.Chemscore.Lipo>
60.2547

> <Gold.Chemscore.Internal_Hbond>
0.0000

> <Gold.Chemscore.DEClash>
0.1337

> <Gold.Chemscore.DEInternal>
1.5542

> <Gold.Chemscore.Rot>
1.4693

> <Gold.Chemscore.Internal.Correction>
   9.000000E+99

> <Gold.Chemscore.Hbonds>
donor molecule, donor type, donor heavy atom, donor atom, acceptor molecule, acceptor atom, score
      L1  H     7    25       P1  7948  0.88
      L1  H    10    26       P1  7948  0.28
      P1  H  7989  7998       L1    19  0.70

> <Gold.Chemscore.Hbond.Weighted>
-8.1553

> <Gold.Chemscore.Metal.Weighted>
-0.0000

> <Gold.Chemscore.Lipo.Weighted>
-7.0498

> <Gold.Chemscore.Internal_Hbond.Weighted>
0.0000

> <Gold.Chemscore.DEClash.Weighted>
0.1337

> <Gold.Chemscore.DEInternal.Weighted>
1.5542

> <Gold.Chemscore.Rot.Weighted>
3.7613

> <Gold.Chemscore.Internal.Correction.Weighted>
   9.000000E+99

> <Gold.Protein.RotatedTorsions>
[ 6907 6896 6895 6894 ] final  173.01 input  -60.11 | X-H torsion
[ 7974 7965 7964 7962 ] final  138.12 input  175.53 | X-H torsion
[ 8008 7997 7996 7995 ] final  -83.63 input   59.86 | X-H torsion
[ 10167 10162 10161 10158 ] final  157.48 input  -65.29 | X-H torsion
[ 10718 10713 10712 10709 ] final  172.99 input   66.30 | X-H torsion
[ 10763 10752 10751 10750 ] final  -83.42 input  -60.55 | X-H torsion
[ 11005 11000 10999 10996 ] final -155.54 input  -57.11 | X-H torsion

> <Gold.Protein.ActiveResidues>
 VAL166  LYS551  ARG553  GLY616  TRP617  ASP618  TYR619  PRO620  LYS621  CYS622 
 ASP623  PHE694  ASN695  SER759  ASP760  ASP761  ALA762  ILE779  LEU786  VAL792 
 PHE793  MET794  SER795  GLU796  ALA797  LYS798  CYS799  TRP800  GLU811  SER814 

> <Gold.Protein.RotatedAtoms>
  151.7751  133.3344  159.3455 H   0  0  0  0  0  0  0  0  0  0  0  0  # atno 6907 bound_to 6896
  150.7447  134.5982  159.6032 H   0  0  0  0  0  0  0  0  0  0  0  0  # atno 6908 bound_to 6896
  152.3314  134.7255  160.0340 H   0  0  0  0  0  0  0  0  0  0  0  0  # atno 6909 bound_to 6896
  144.9403  139.4939  143.5575 H   0  0  0  0  0  0  0  0  0  0  0  0  # atno 7974 bound_to 7965
  154.6211  140.0616  156.9616 H   0  0  0  0  0  0  0  0  0  0  0  0  # atno 8008 bound_to 7997
  155.1816  140.3299  155.4356 H   0  0  0  0  0  0  0  0  0  0  0  0  # atno 8009 bound_to 7997
  156.2432  140.1896  156.6912 H   0  0  0  0  0  0  0  0  0  0  0  0  # atno 8010 bound_to 7997
  139.4823  144.4913  151.8304 H   0  0  0  0  0  0  0  0  0  0  0  0  # atno 10167 bound_to 10162
  156.9709  131.0089  151.2905 H   0  0  0  0  0  0  0  0  0  0  0  0  # atno 10718 bound_to 10713
  154.5876  135.5556  153.7246 H   0  0  0  0  0  0  0  0  0  0  0  0  # atno 10763 bound_to 10752
  153.0104  135.6335  154.1895 H   0  0  0  0  0  0  0  0  0  0  0  0  # atno 10764 bound_to 10752
  154.1836  135.2886  155.3024 H   0  0  0  0  0  0  0  0  0  0  0  0  # atno 10765 bound_to 10752
  140.6853  134.4100  157.5223 H   0  0  0  0  0  0  0  0  0  0  0  0  # atno 11005 bound_to 11000
  146.3283  139.8417  142.8889 LP  0  0  0  0  0  0  0  0  0  0  0  0  # atno 17320 bound_to 7965
  145.3002  141.0192  143.3613 LP  0  0  0  0  0  0  0  0  0  0  0  0  # atno 17321 bound_to 7965
  140.4398  144.2002  150.5891 LP  0  0  0  0  0  0  0  0  0  0  0  0  # atno 17342 bound_to 10162
  140.4695  143.2418  151.9109 LP  0  0  0  0  0  0  0  0  0  0  0  0  # atno 17343 bound_to 10162
  157.5593  130.8235  149.8245 LP  0  0  0  0  0  0  0  0  0  0  0  0  # atno 17370 bound_to 10713
  156.0283  130.3772  150.1759 LP  0  0  0  0  0  0  0  0  0  0  0  0  # atno 17371 bound_to 10713
  139.8939  134.8719  156.2200 LP  0  0  0  0  0  0  0  0  0  0  0  0  # atno 17394 bound_to 11000
  141.0285  133.7002  156.1389 LP  0  0  0  0  0  0  0  0  0  0  0  0  # atno 17395 bound_to 11000

$$$$
