AV-unprocessed.smi:1697|AV-procd|sdf|6806|dock4
  -GOLD-   22720 7583D 1   1.00000     0.00000
 Structure written by MMmdl.
 54 56  0  0  0  0  0  0  0  0  2 V2000
  144.1526  142.1484  159.5920 C   0  0  0  0  0  0  0  0  0  0  0  0
  144.5451  141.1166  158.5326 C   0  0  0  0  0  0  0  0  0  0  0  0
  144.4614  141.7266  157.2530 O   0  0  0  0  0  0  0  0  0  0  0  0
  145.2281  142.9169  157.1110 C   0  0  2  0  0  0  0  0  0  0  0  0
  145.2470  143.4059  155.6505 C   0  0  0  0  0  0  0  0  0  0  0  0
  145.9639  142.4025  154.7316 C   0  0  0  0  0  0  0  0  0  0  0  0
  147.3490  142.1365  155.2041 N   0  3  2  0  0  0  0  0  0  0  0  0
  148.1290  141.2732  154.2800 C   0  0  0  0  0  0  0  0  0  0  0  0
  149.4079  140.7156  154.9351 C   0  0  1  0  0  0  0  0  0  0  0  0
  150.1836  140.0716  153.9420 O   0  0  0  0  0  0  0  0  0  0  0  0
  150.2451  141.8255  155.5992 C   0  0  0  0  0  0  0  0  0  0  0  0
  151.0987  141.3159  156.6577 N   0  0  0  0  0  0  0  0  0  0  0  0
  151.8130  140.1742  156.6403 C   0  0  0  0  0  0  0  0  0  0  0  0
  152.5392  139.8931  157.7177 N   0  0  0  0  0  0  0  0  0  0  0  0
  152.2625  140.9784  158.5313 C   0  0  0  0  0  0  0  0  0  0  0  0
  152.7239  141.2924  159.8282 C   0  0  0  0  0  0  0  0  0  0  0  0
  152.3048  142.4736  160.4803 C   0  0  0  0  0  0  0  0  0  0  0  0
  152.8268  142.7717  161.8749 C   0  0  0  0  0  0  0  0  0  0  0  0
  151.4094  143.3629  159.8337 C   0  0  0  0  0  0  0  0  0  0  0  0
  150.9453  144.6375  160.5160 C   0  0  0  0  0  0  0  0  0  0  0  0
  150.9394  143.0654  158.5373 C   0  0  0  0  0  0  0  0  0  0  0  0
  151.3634  141.8864  157.8986 C   0  0  0  0  0  0  0  0  0  0  0  0
  147.3615  141.6272  156.5998 C   0  0  0  0  0  0  0  0  0  0  0  0
  146.6645  142.6081  157.5596 C   0  0  0  0  0  0  0  0  0  0  0  0
  144.1951  141.7161  160.5919 H   0  0  0  0  0  0  0  0  0  0  0  0
  143.1377  142.5110  159.4277 H   0  0  0  0  0  0  0  0  0  0  0  0
  144.8237  143.0074  159.5697 H   0  0  0  0  0  0  0  0  0  0  0  0
  145.5549  140.7570  158.7289 H   0  0  0  0  0  0  0  0  0  0  0  0
  143.8725  140.2594  158.5857 H   0  0  0  0  0  0  0  0  0  0  0  0
  144.8224  143.6941  157.7609 H   0  0  0  0  0  0  0  0  0  0  0  0
  144.2375  143.5924  155.2857 H   0  0  0  0  0  0  0  0  0  0  0  0
  145.7623  144.3661  155.6014 H   0  0  0  0  0  0  0  0  0  0  0  0
  145.4046  141.4663  154.6904 H   0  0  0  0  0  0  0  0  0  0  0  0
  145.9775  142.8024  153.7187 H   0  0  0  0  0  0  0  0  0  0  0  0
  147.5172  140.4325  153.9484 H   0  0  0  0  0  0  0  0  0  0  0  0
  148.3736  141.8407  153.3806 H   0  0  0  0  0  0  0  0  0  0  0  0
  149.1525  139.9769  155.6942 H   0  0  0  0  0  0  0  0  0  0  0  0
  149.7353  140.1421  153.1126 H   0  0  0  0  0  0  0  0  0  0  0  0
  150.8665  142.3346  154.8612 H   0  0  0  0  0  0  0  0  0  0  0  0
  149.5897  142.5844  156.0288 H   0  0  0  0  0  0  0  0  0  0  0  0
  151.8017  139.5130  155.7860 H   0  0  0  0  0  0  0  0  0  0  0  0
  153.4065  140.6152  160.3203 H   0  0  0  0  0  0  0  0  0  0  0  0
  152.0023  142.8431  162.5845 H   0  0  0  0  0  0  0  0  0  0  0  0
  153.3750  143.7139  161.8837 H   0  0  0  0  0  0  0  0  0  0  0  0
  153.5012  141.9892  162.2237 H   0  0  0  0  0  0  0  0  0  0  0  0
  150.2563  145.1990  159.8844 H   0  0  0  0  0  0  0  0  0  0  0  0
  151.7953  145.2823  160.7398 H   0  0  0  0  0  0  0  0  0  0  0  0
  150.4303  144.4059  161.4485 H   0  0  0  0  0  0  0  0  0  0  0  0
  150.2588  143.7357  158.0341 H   0  0  0  0  0  0  0  0  0  0  0  0
  146.8766  140.6502  156.6365 H   0  0  0  0  0  0  0  0  0  0  0  0
  148.3910  141.4815  156.9292 H   0  0  0  0  0  0  0  0  0  0  0  0
  147.2367  143.5358  157.6045 H   0  0  0  0  0  0  0  0  0  0  0  0
  146.6605  142.2020  158.5718 H   0  0  0  0  0  0  0  0  0  0  0  0
  147.8291  143.0253  155.2269 H   0  0  0  0  0  0  0  0  0  0  0  0
  1  2  1  0  0  0  0
  1 25  1  0  0  0  0
  1 26  1  0  0  0  0
  1 27  1  0  0  0  0
  2  3  1  0  0  0  0
  2 28  1  0  0  0  0
  2 29  1  0  0  0  0
  3  4  1  0  0  0  0
  4 24  1  0  0  0  0
  4  5  1  0  0  0  0
  4 30  1  0  0  0  0
  5  6  1  0  0  0  0
  5 31  1  0  0  0  0
  5 32  1  0  0  0  0
  6  7  1  0  0  0  0
  6 33  1  0  0  0  0
  6 34  1  0  0  0  0
  7  8  1  0  0  0  0
  7 23  1  0  0  0  0
  7 54  1  0  0  0  0
  8  9  1  0  0  0  0
  8 35  1  0  0  0  0
  8 36  1  0  0  0  0
  9 10  1  0  0  0  0
  9 11  1  0  0  0  0
  9 37  1  0  0  0  0
 10 38  1  0  0  0  0
 11 12  1  0  0  0  0
 11 39  1  0  0  0  0
 11 40  1  0  0  0  0
 12 22  1  0  0  0  0
 12 13  1  0  0  0  0
 13 14  2  0  0  0  0
 13 41  1  0  0  0  0
 14 15  1  0  0  0  0
 15 22  2  0  0  0  0
 15 16  1  0  0  0  0
 16 17  2  0  0  0  0
 16 42  1  0  0  0  0
 17 18  1  0  0  0  0
 17 19  1  0  0  0  0
 18 43  1  0  0  0  0
 18 44  1  0  0  0  0
 18 45  1  0  0  0  0
 19 20  1  0  0  0  0
 19 21  2  0  0  0  0
 20 46  1  0  0  0  0
 20 47  1  0  0  0  0
 20 48  1  0  0  0  0
 21 22  1  0  0  0  0
 21 49  1  0  0  0  0
 23 24  1  0  0  0  0
 23 50  1  0  0  0  0
 23 51  1  0  0  0  0
 24 52  1  0  0  0  0
 24 53  1  0  0  0  0
M  CHG  1   7   1
M  END
> <s_m_source_file>
AV-unprocessed.smi

> <i_m_source_file_index>
1697

> <i_lp_mmshare_version>
43012

> <i_f3d_flags>
0

> <s_epik_input>
W0NIM11bQ0gyXU9bQ0hdMVtDSDJdW0NIMl1OKFtDSDJdW0NIMl0xKVtDSDJdW0NASF0oW09IXSlbQ0gyXW4oW2NIXW4yKWMoYzIzKVtjSF1jKFtDSDNdKWMoW2NIXTMpW0NIM10=

> <s_epik_cmdline>
J2VwaWtfcHl0aG9uJywgJy1waCcsICc3LjAnLCAnLXRuJywgJzgnLCAnLW1hJywgJzIwMCcsICctbWV0YWxfYmluZGluZycsICctaW1hZScsICc8aW5maWxlLm1hZT4nLCAnLW9tYWUnLCAnPG91dGZpbGUubWFlPic=

> <r_epik_Ionization_Penalty>
0.112476

> <r_epik_Ionization_Penalty_Charging>
0.0244612

> <r_epik_Ionization_Penalty_Neutral>
0.0880147

> <r_epik_State_Penalty>
0.0961447

> <r_epik_Charging_Adjusted_Penalty>
0.120606

> <i_epik_Tot_Q>
1

> <i_epik_Tot_abs_Q>
1

> <r_epik_Metal_State_Penalty>
0.0206204

> <b_epik_Metal_Only>
0

> <s_lp_Force_Field>
OPLS_2005

> <r_lp_Energy>
22.8638

> <b_lp_Chiralities_Consistent>
1

> <s_lp_Variant>
AV-unprocessed.smi:1697-4

> <Gold.Version>
5.8.1

> <Gold.Id.Protein>
6NUR|6NUR_protein|mol2

> <Gold.PLP.Fitness>
60.2055

> <Gold.PLP.PLP>
-46.7998

> <Gold.PLP.part.hbond>
-4.0000

> <Gold.PLP.part.metal>
0.0000

> <Gold.PLP.part.buried>
-6.9571

> <Gold.PLP.part.nonpolar>
-35.8250

> <Gold.PLP.part.repulsive>
0.0814

> <Gold.PLP.ligand.clash>
0.0000

> <Gold.PLP.ligand.torsion>
0.7651

> <Gold.PLP.Chemscore.Hbond>
4.8960

> <Gold.PLP.Chemscore.CHOScore>
0.0000

> <Gold.PLP.Chemscore.Metal>
0.0000

> <Gold.Chemscore.Hbonds>
donor molecule, donor type, donor heavy atom, donor atom, acceptor molecule, acceptor atom, score
      L1  H     7    54       P1  8028  2.00
      L1  H    10    38       P1  7957  1.00
      P1  H  7989  7998       L1    10  0.78
      P1  H  7997  8008       L1    14  0.68

> <Gold.PLP.Chemscore.Internal.Correction>
0.2478

> <Gold.Rescore>
     Score         DG    S(hbond)    S(metal)    S(lipo)     H(rot)  DE(clash)    DE(int)     intcor
     21.64     -22.28       2.82        0.00     112.73       2.27       0.18       0.46       ----

> <Gold.Chemscore.Fitness>
21.6398

> <Gold.Chemscore.DG>
-22.2798

> <Gold.Chemscore.ZeroCoef>
-5.4800

> <Gold.Chemscore.Hbond>
2.8215

> <Gold.Chemscore.Metal>
0.0000

> <Gold.Chemscore.Lipo>
112.7331

> <Gold.Chemscore.Internal_Hbond>
0.0000

> <Gold.Chemscore.DEClash>
0.1834

> <Gold.Chemscore.DEInternal>
0.4566

> <Gold.Chemscore.Rot>
2.2710

> <Gold.Chemscore.Internal.Correction>
   9.000000E+99

> <Gold.Chemscore.Hbonds>
donor molecule, donor type, donor heavy atom, donor atom, acceptor molecule, acceptor atom, score
      L1  H     7    54       P1  8028  0.71
      L1  H    10    38       P1  7957  0.96
      P1  H  7989  7998       L1    10  0.12
      P1  H  7997  8008       L1    14  0.09

> <Gold.Chemscore.Hbond.Weighted>
-9.4237

> <Gold.Chemscore.Metal.Weighted>
-0.0000

> <Gold.Chemscore.Lipo.Weighted>
-13.1898

> <Gold.Chemscore.Internal_Hbond.Weighted>
0.0000

> <Gold.Chemscore.DEClash.Weighted>
0.1834

> <Gold.Chemscore.DEInternal.Weighted>
0.4566

> <Gold.Chemscore.Rot.Weighted>
5.8137

> <Gold.Chemscore.Internal.Correction.Weighted>
   9.000000E+99

> <Gold.Protein.RotatedTorsions>
[ 6907 6896 6895 6894 ] final   -3.17 input  -60.11 | X-H torsion
[ 7974 7965 7964 7962 ] final  -23.72 input  175.53 | X-H torsion
[ 8008 7997 7996 7995 ] final  -71.01 input   59.86 | X-H torsion
[ 10167 10162 10161 10158 ] final  158.37 input  -65.29 | X-H torsion
[ 10718 10713 10712 10709 ] final   49.82 input   66.30 | X-H torsion
[ 10763 10752 10751 10750 ] final  -99.59 input  -60.55 | X-H torsion
[ 11005 11000 10999 10996 ] final  -37.73 input  -57.11 | X-H torsion

> <Gold.Protein.ActiveResidues>
 VAL166  LYS551  ARG553  GLY616  TRP617  ASP618  TYR619  PRO620  LYS621  CYS622 
 ASP623  PHE694  ASN695  SER759  ASP760  ASP761  ALA762  ILE779  LEU786  VAL792 
 PHE793  MET794  SER795  GLU796  ALA797  LYS798  CYS799  TRP800  GLU811  SER814 

> <Gold.Protein.RotatedAtoms>
  151.5181  135.1066  159.9871 H   0  0  0  0  0  0  0  0  0  0  0  0  # atno 6907 bound_to 6896
  152.4632  133.7863  159.6888 H   0  0  0  0  0  0  0  0  0  0  0  0  # atno 6908 bound_to 6896
  150.8604  133.7588  159.3019 H   0  0  0  0  0  0  0  0  0  0  0  0  # atno 6909 bound_to 6896
  146.1599  140.4655  142.8576 H   0  0  0  0  0  0  0  0  0  0  0  0  # atno 7974 bound_to 7965
  154.5055  140.0823  156.7885 H   0  0  0  0  0  0  0  0  0  0  0  0  # atno 8008 bound_to 7997
  155.3904  140.3432  155.4233 H   0  0  0  0  0  0  0  0  0  0  0  0  # atno 8009 bound_to 7997
  156.1510  140.1558  156.8757 H   0  0  0  0  0  0  0  0  0  0  0  0  # atno 8010 bound_to 7997
  139.4826  144.4831  151.8416 H   0  0  0  0  0  0  0  0  0  0  0  0  # atno 10167 bound_to 10162
  157.4824  130.8324  149.8108 H   0  0  0  0  0  0  0  0  0  0  0  0  # atno 10718 bound_to 10713
  154.7510  135.4967  153.9289 H   0  0  0  0  0  0  0  0  0  0  0  0  # atno 10763 bound_to 10752
  153.1143  135.6717  153.9453 H   0  0  0  0  0  0  0  0  0  0  0  0  # atno 10764 bound_to 10752
  153.9203  135.3089  155.3426 H   0  0  0  0  0  0  0  0  0  0  0  0  # atno 10765 bound_to 10752
  140.9974  133.6973  156.1960 H   0  0  0  0  0  0  0  0  0  0  0  0  # atno 11005 bound_to 11000
  144.8012  140.6217  143.6477 LP  0  0  0  0  0  0  0  0  0  0  0  0  # atno 17320 bound_to 7965
  145.4616  139.1512  143.3863 LP  0  0  0  0  0  0  0  0  0  0  0  0  # atno 17321 bound_to 7965
  140.4309  144.2117  150.5888 LP  0  0  0  0  0  0  0  0  0  0  0  0  # atno 17342 bound_to 10162
  140.4781  143.2389  151.8995 LP  0  0  0  0  0  0  0  0  0  0  0  0  # atno 17343 bound_to 10162
  156.0129  130.3826  150.2206 LP  0  0  0  0  0  0  0  0  0  0  0  0  # atno 17370 bound_to 10713
  157.0393  131.0030  151.3288 LP  0  0  0  0  0  0  0  0  0  0  0  0  # atno 17371 bound_to 10713
  140.6943  134.4632  157.5588 LP  0  0  0  0  0  0  0  0  0  0  0  0  # atno 17394 bound_to 11000
  139.9022  134.8531  156.1851 LP  0  0  0  0  0  0  0  0  0  0  0  0  # atno 17395 bound_to 11000

$$$$
