AV-unprocessed.smi:2805|AV-procd|sdf|10814|dock9
  -GOLD-   2272015253D 1   1.00000     0.00000
 Structure written by MMmdl.
 43 44  0  0  0  0  0  0  0  0  1 V2000
  154.0708  141.1249  161.4068 C   0  0  0  0  0  0  0  0  0  0  0  0
  153.1512  141.8105  160.4185 C   0  0  0  0  0  0  0  0  0  0  0  0
  152.9579  143.2044  160.4620 C   0  0  0  0  0  0  0  0  0  0  0  0
  152.0926  143.7853  159.5142 C   0  0  0  0  0  0  0  0  0  0  0  0
  151.8392  145.2782  159.5021 C   0  0  0  0  0  0  0  0  0  0  0  0
  151.4455  143.0684  158.5706 N   0  0  0  0  0  0  0  0  0  0  0  0
  151.6247  141.7253  158.5190 C   0  0  0  0  0  0  0  0  0  0  0  0
  150.9916  140.8816  157.5685 N   0  0  0  0  0  0  0  0  0  0  0  0
  150.5560  141.1974  156.3365 C   0  0  0  0  0  0  0  0  0  0  0  0
  150.6291  142.3116  155.8171 O   0  0  0  0  0  0  0  0  0  0  0  0
  150.0245  140.1293  155.7248 N   0  0  0  0  0  0  0  0  0  0  0  0
  149.4760  140.1112  154.3697 C   0  0  1  0  0  0  0  0  0  0  0  0
  148.6995  138.8069  154.0922 C   0  0  0  0  0  0  0  0  0  0  0  0
  147.3943  138.7237  154.9029 C   0  0  0  0  0  0  0  0  0  0  0  0
  146.4882  139.9491  154.6572 C   0  0  1  0  0  0  0  0  0  0  0  0
  145.1905  139.8828  155.4833 C   0  0  0  0  0  0  0  0  0  0  0  0
  144.3278  140.9498  155.1500 O   0  0  0  0  0  0  0  0  0  0  0  0
  147.2625  141.2486  154.9553 C   0  0  0  0  0  0  0  0  0  0  0  0
  148.5704  141.3371  154.1481 C   0  0  0  0  0  0  0  0  0  0  0  0
  152.4757  141.0636  159.4325 C   0  0  0  0  0  0  0  0  0  0  0  0
  150.3090  140.1783  153.6675 H   0  0  0  0  0  0  0  0  0  0  0  0
  146.2144  139.9643  153.6009 H   0  0  0  0  0  0  0  0  0  0  0  0
  154.2080  141.7331  162.3014 H   0  0  0  0  0  0  0  0  0  0  0  0
  155.0476  140.9536  160.9542 H   0  0  0  0  0  0  0  0  0  0  0  0
  153.6589  140.1626  161.7116 H   0  0  0  0  0  0  0  0  0  0  0  0
  153.4598  143.8117  161.2012 H   0  0  0  0  0  0  0  0  0  0  0  0
  152.2843  145.7619  160.3720 H   0  0  0  0  0  0  0  0  0  0  0  0
  150.7682  145.4831  159.5112 H   0  0  0  0  0  0  0  0  0  0  0  0
  152.2677  145.7265  158.6053 H   0  0  0  0  0  0  0  0  0  0  0  0
  150.8611  139.9239  157.8583 H   0  0  0  0  0  0  0  0  0  0  0  0
  150.0046  139.2558  156.2303 H   0  0  0  0  0  0  0  0  0  0  0  0
  148.4599  138.7547  153.0295 H   0  0  0  0  0  0  0  0  0  0  0  0
  149.3237  137.9371  154.3005 H   0  0  0  0  0  0  0  0  0  0  0  0
  146.8677  137.8072  154.6357 H   0  0  0  0  0  0  0  0  0  0  0  0
  147.6270  138.6425  155.9655 H   0  0  0  0  0  0  0  0  0  0  0  0
  144.6738  138.9363  155.3213 H   0  0  0  0  0  0  0  0  0  0  0  0
  145.4138  139.9490  156.5486 H   0  0  0  0  0  0  0  0  0  0  0  0
  144.1101  140.8858  154.2326 H   0  0  0  0  0  0  0  0  0  0  0  0
  146.6387  142.1128  154.7249 H   0  0  0  0  0  0  0  0  0  0  0  0
  147.4847  141.3090  156.0214 H   0  0  0  0  0  0  0  0  0  0  0  0
  149.1058  142.2525  154.4031 H   0  0  0  0  0  0  0  0  0  0  0  0
  148.3284  141.4146  153.0874 H   0  0  0  0  0  0  0  0  0  0  0  0
  152.6108  139.9928  159.3793 H   0  0  0  0  0  0  0  0  0  0  0  0
  1  2  1  0  0  0  0
  1 23  1  0  0  0  0
  1 24  1  0  0  0  0
  1 25  1  0  0  0  0
  2 20  1  0  0  0  0
  2  3  2  0  0  0  0
  3  4  1  0  0  0  0
  3 26  1  0  0  0  0
  4  5  1  0  0  0  0
  4  6  2  0  0  0  0
  5 27  1  0  0  0  0
  5 28  1  0  0  0  0
  5 29  1  0  0  0  0
  6  7  1  0  0  0  0
  7  8  1  0  0  0  0
  7 20  2  0  0  0  0
  8  9  1  0  0  0  0
  8 30  1  0  0  0  0
  9 10  2  0  0  0  0
  9 11  1  0  0  0  0
 11 12  1  0  0  0  0
 11 31  1  0  0  0  0
 12 21  1  0  0  0  0
 12 19  1  0  0  0  0
 12 13  1  0  0  0  0
 13 14  1  0  0  0  0
 13 32  1  0  0  0  0
 13 33  1  0  0  0  0
 14 15  1  0  0  0  0
 14 34  1  0  0  0  0
 14 35  1  0  0  0  0
 15 22  1  0  0  0  0
 15 16  1  0  0  0  0
 15 18  1  0  0  0  0
 16 17  1  0  0  0  0
 16 36  1  0  0  0  0
 16 37  1  0  0  0  0
 17 38  1  0  0  0  0
 18 19  1  0  0  0  0
 18 39  1  0  0  0  0
 18 40  1  0  0  0  0
 19 41  1  0  0  0  0
 19 42  1  0  0  0  0
 20 43  1  0  0  0  0
M  END
> <s_m_source_file>
AV-unprocessed.smi

> <i_m_source_file_index>
2805

> <i_lp_mmshare_version>
43012

> <i_f3d_flags>
0

> <s_epik_input>
W0NIM11jMVtjSF1jKFtDSDNdKW5jKFtjSF0xKVtOSF1DKD1PKVtOSF1bQ0BIXTJbQ0gyXVtDSDJdW0NASF0oW0NIMl1bT0hdKVtDSDJdW0NIMl0y

> <s_epik_cmdline>
J2VwaWtfcHl0aG9uJywgJy1waCcsICc3LjAnLCAnLXRuJywgJzgnLCAnLW1hJywgJzIwMCcsICctbWV0YWxfYmluZGluZycsICctaW1hZScsICc8aW5maWxlLm1hZT4nLCAnLW9tYWUnLCAnPG91dGZpbGUubWFlPic=

> <r_lp_tautomer_probability>
1

> <r_epik_Ionization_Penalty>
0.000279533

> <r_epik_Ionization_Penalty_Charging>
0

> <r_epik_Ionization_Penalty_Neutral>
0.000279533

> <r_epik_State_Penalty>
-0

> <r_epik_Charging_Adjusted_Penalty>
0

> <i_epik_Tot_Q>
0

> <i_epik_Tot_abs_Q>
0

> <r_epik_Metal_State_Penalty>
-0

> <b_epik_Metal_Only>
0

> <s_lp_Force_Field>
OPLS_2005

> <r_lp_Energy>
9.89075

> <b_lp_Chiralities_Consistent>
1

> <s_lp_Variant>
AV-unprocessed.smi:2805-2

> <Gold.Version>
5.8.1

> <Gold.Id.Protein>
6NUR|6NUR_protein|mol2

> <Gold.PLP.Fitness>
39.7313

> <Gold.PLP.PLP>
-37.3374

> <Gold.PLP.part.hbond>
-1.0507

> <Gold.PLP.part.metal>
0.0000

> <Gold.PLP.part.buried>
-2.9650

> <Gold.PLP.part.nonpolar>
-33.8482

> <Gold.PLP.part.repulsive>
0.9623

> <Gold.PLP.ligand.clash>
0.0000

> <Gold.PLP.ligand.torsion>
0.3075

> <Gold.PLP.Chemscore.Hbond>
1.0000

> <Gold.PLP.Chemscore.CHOScore>
0.0000

> <Gold.PLP.Chemscore.Metal>
0.0000

> <Gold.Chemscore.Hbonds>
donor molecule, donor type, donor heavy atom, donor atom, acceptor molecule, acceptor atom, score
      L1  H    17    38       P1 10175  1.00

> <Gold.PLP.Chemscore.Internal.Correction>
0.0088

> <Gold.Rescore>
     Score         DG    S(hbond)    S(metal)    S(lipo)     H(rot)  DE(clash)    DE(int)     intcor
     13.10     -15.64       1.00        0.00      96.69       1.75       0.12       2.42       ----

> <Gold.Chemscore.Fitness>
13.0987

> <Gold.Chemscore.DG>
-15.6390

> <Gold.Chemscore.ZeroCoef>
-5.4800

> <Gold.Chemscore.Hbond>
0.9994

> <Gold.Chemscore.Metal>
0.0000

> <Gold.Chemscore.Lipo>
96.6947

> <Gold.Chemscore.Internal_Hbond>
0.0000

> <Gold.Chemscore.DEClash>
0.1215

> <Gold.Chemscore.DEInternal>
2.4188

> <Gold.Chemscore.Rot>
1.7548

> <Gold.Chemscore.Internal.Correction>
   9.000000E+99

> <Gold.Chemscore.Hbonds>
donor molecule, donor type, donor heavy atom, donor atom, acceptor molecule, acceptor atom, score
      L1  H    17    38       P1 10175  0.94

> <Gold.Chemscore.Hbond.Weighted>
-3.3381

> <Gold.Chemscore.Metal.Weighted>
-0.0000

> <Gold.Chemscore.Lipo.Weighted>
-11.3133

> <Gold.Chemscore.Internal_Hbond.Weighted>
0.0000

> <Gold.Chemscore.DEClash.Weighted>
0.1215

> <Gold.Chemscore.DEInternal.Weighted>
2.4188

> <Gold.Chemscore.Rot.Weighted>
4.4924

> <Gold.Chemscore.Internal.Correction.Weighted>
   9.000000E+99

> <Gold.Protein.RotatedTorsions>
[ 6907 6896 6895 6894 ] final  -35.45 input  -60.11 | X-H torsion
[ 7974 7965 7964 7962 ] final   68.22 input  175.53 | X-H torsion
[ 8008 7997 7996 7995 ] final  -81.15 input   59.86 | X-H torsion
[ 10167 10162 10161 10158 ] final   25.19 input  -65.29 | X-H torsion
[ 10718 10713 10712 10709 ] final -164.61 input   66.30 | X-H torsion
[ 10763 10752 10751 10750 ] final  -31.63 input  -60.55 | X-H torsion
[ 11005 11000 10999 10996 ] final -153.82 input  -57.11 | X-H torsion

> <Gold.Protein.ActiveResidues>
 VAL166  LYS551  ARG553  GLY616  TRP617  ASP618  TYR619  PRO620  LYS621  CYS622 
 ASP623  PHE694  ASN695  SER759  ASP760  ASP761  ALA762  ILE779  LEU786  VAL792 
 PHE793  MET794  SER795  GLU796  ALA797  LYS798  CYS799  TRP800  GLU811  SER814 

> <Gold.Protein.RotatedAtoms>
  151.0396  134.9598  159.8154 H   0  0  0  0  0  0  0  0  0  0  0  0  # atno 6907 bound_to 6896
  152.5361  134.2675  159.8969 H   0  0  0  0  0  0  0  0  0  0  0  0  # atno 6908 bound_to 6896
  151.2687  133.4223  159.2654 H   0  0  0  0  0  0  0  0  0  0  0  0  # atno 6909 bound_to 6896
  145.8052  139.3003  143.1131 H   0  0  0  0  0  0  0  0  0  0  0  0  # atno 7974 bound_to 7965
  154.5954  140.0652  156.9296 H   0  0  0  0  0  0  0  0  0  0  0  0  # atno 8008 bound_to 7997
  155.2223  140.3331  155.4296 H   0  0  0  0  0  0  0  0  0  0  0  0  # atno 8009 bound_to 7997
  156.2284  140.1829  156.7290 H   0  0  0  0  0  0  0  0  0  0  0  0  # atno 8010 bound_to 7997
  140.5126  144.0135  150.6379 H   0  0  0  0  0  0  0  0  0  0  0  0  # atno 10167 bound_to 10162
  156.6415  130.8970  151.2997 H   0  0  0  0  0  0  0  0  0  0  0  0  # atno 10718 bound_to 10713
  153.8006  135.6890  153.4856 H   0  0  0  0  0  0  0  0  0  0  0  0  # atno 10763 bound_to 10752
  153.1691  135.4549  154.9876 H   0  0  0  0  0  0  0  0  0  0  0  0  # atno 10764 bound_to 10752
  154.8008  135.3337  154.7495 H   0  0  0  0  0  0  0  0  0  0  0  0  # atno 10765 bound_to 10752
  140.7040  134.3906  157.5206 H   0  0  0  0  0  0  0  0  0  0  0  0  # atno 11005 bound_to 11000
  145.9836  140.8662  143.0102 LP  0  0  0  0  0  0  0  0  0  0  0  0  # atno 17320 bound_to 7965
  144.6764  140.2115  143.7376 LP  0  0  0  0  0  0  0  0  0  0  0  0  # atno 17321 bound_to 7965
  140.3461  143.2990  152.0536 LP  0  0  0  0  0  0  0  0  0  0  0  0  # atno 17342 bound_to 10162
  139.4900  144.6407  151.6882 LP  0  0  0  0  0  0  0  0  0  0  0  0  # atno 17343 bound_to 10162
  157.7169  130.9509  150.1290 LP  0  0  0  0  0  0  0  0  0  0  0  0  # atno 17370 bound_to 10713
  156.2155  130.3670  149.8618 LP  0  0  0  0  0  0  0  0  0  0  0  0  # atno 17371 bound_to 10713
  139.8889  134.8844  156.2449 LP  0  0  0  0  0  0  0  0  0  0  0  0  # atno 17394 bound_to 11000
  141.0140  133.7079  156.1158 LP  0  0  0  0  0  0  0  0  0  0  0  0  # atno 17395 bound_to 11000

$$$$
