AV-unprocessed.smi:193|AV-procd|sdf|1503|dock8
  -GOLD-   2262019333D 1   1.00000     0.00000
 Structure written by MMmdl.
 62 66  0  0  0  0  0  0  0  0  2 V2000
  152.5962  138.2806  154.3442 C   0  0  0  0  0  0  0  0  0  0  0  0
  151.2476  138.1970  155.0731 C   0  0  1  0  0  0  0  0  0  0  0  0
  151.3004  137.0918  156.1515 C   0  0  0  0  0  0  0  0  0  0  0  0
  150.0593  136.9617  156.9153 N   0  0  0  0  0  0  0  0  0  0  0  0
  148.9731  136.2961  156.4144 C   0  0  0  0  0  0  0  0  0  0  0  0
  147.7499  136.8708  156.5754 N   0  0  0  0  0  0  0  0  0  0  0  0
  146.6447  136.2949  156.0985 C   0  0  0  0  0  0  0  0  0  0  0  0
  146.5284  135.1496  155.4301 N   0  0  0  0  0  0  0  0  0  0  0  0
  147.7412  134.5522  155.2640 C   0  0  0  0  0  0  0  0  0  0  0  0
  149.0014  135.0452  155.7181 C   0  0  0  0  0  0  0  0  0  0  0  0
  149.9979  134.1475  155.3451 N   0  0  0  0  0  0  0  0  0  0  0  0
  149.3705  133.1919  154.7183 C   0  0  0  0  0  0  0  0  0  0  0  0
  148.0088  133.3524  154.6288 N   0  0  0  0  0  0  0  0  0  0  0  0
  147.0649  132.4464  153.9916 C   0  0  0  0  0  0  0  0  0  0  0  0
  146.7964  132.7688  152.5005 C   0  0  0  0  0  0  0  0  0  0  0  0
  148.0363  132.6994  151.8169 O   0  0  0  0  0  0  0  0  0  0  0  0
  145.8186  131.7707  151.8416 C   0  0  0  0  0  0  0  0  0  0  0  0
  145.4000  132.2160  150.4291 C   0  0  0  0  0  0  0  0  0  0  0  0
  144.8569  133.5300  150.4701 O   0  0  0  0  0  0  0  0  0  0  0  0
  145.7992  134.5018  150.9071 C   0  0  0  0  0  0  0  0  0  0  0  0
  146.2381  134.1983  152.3506 C   0  0  0  0  0  0  0  0  0  0  0  0
  149.8623  137.9647  157.9680 C   0  0  0  0  0  0  0  0  0  0  0  0
  149.1929  139.2694  157.4797 C   0  0  0  0  0  0  0  0  0  0  0  0
  149.4141  139.5702  156.0416 N   0  3  1  0  0  0  0  0  0  0  0  0
  148.6785  140.7807  155.6110 C   0  0  1  0  0  0  0  0  0  0  0  0
  149.1812  141.3780  154.3152 C   0  0  0  0  0  0  0  0  0  0  0  0
  147.8770  140.6120  154.3316 C   0  0  1  0  0  0  0  0  0  0  0  0
  147.7633  139.2974  153.5796 C   0  0  0  0  0  0  0  0  0  0  0  0
  150.8441  139.5736  155.6419 C   0  0  0  0  0  0  0  0  0  0  0  0
  153.3976  138.5725  155.0239 H   0  0  0  0  0  0  0  0  0  0  0  0
  152.5635  139.0103  153.5349 H   0  0  0  0  0  0  0  0  0  0  0  0
  152.8646  137.3187  153.9059 H   0  0  0  0  0  0  0  0  0  0  0  0
  150.5038  137.9199  154.3254 H   0  0  0  0  0  0  0  0  0  0  0  0
  151.5876  136.1330  155.7234 H   0  0  0  0  0  0  0  0  0  0  0  0
  152.1053  137.3228  156.8504 H   0  0  0  0  0  0  0  0  0  0  0  0
  145.7232  136.8302  156.2741 H   0  0  0  0  0  0  0  0  0  0  0  0
  149.8853  132.3360  154.3059 H   0  0  0  0  0  0  0  0  0  0  0  0
  147.4516  131.4311  154.0899 H   0  0  0  0  0  0  0  0  0  0  0  0
  146.1334  132.4699  154.5593 H   0  0  0  0  0  0  0  0  0  0  0  0
  148.0127  131.9613  151.2271 H   0  0  0  0  0  0  0  0  0  0  0  0
  146.2535  130.7716  151.7954 H   0  0  0  0  0  0  0  0  0  0  0  0
  144.9219  131.6861  152.4568 H   0  0  0  0  0  0  0  0  0  0  0  0
  146.2445  132.1811  149.7391 H   0  0  0  0  0  0  0  0  0  0  0  0
  144.6439  131.5371  150.0344 H   0  0  0  0  0  0  0  0  0  0  0  0
  146.6553  134.5262  150.2312 H   0  0  0  0  0  0  0  0  0  0  0  0
  145.3335  135.4865  150.8595 H   0  0  0  0  0  0  0  0  0  0  0  0
  145.3733  134.3177  153.0048 H   0  0  0  0  0  0  0  0  0  0  0  0
  146.9731  134.9337  152.6805 H   0  0  0  0  0  0  0  0  0  0  0  0
  149.3136  137.5448  158.8119 H   0  0  0  0  0  0  0  0  0  0  0  0
  150.8417  138.2165  158.3760 H   0  0  0  0  0  0  0  0  0  0  0  0
  148.1176  139.1858  157.6385 H   0  0  0  0  0  0  0  0  0  0  0  0
  149.5246  140.1071  158.0946 H   0  0  0  0  0  0  0  0  0  0  0  0
  148.3300  141.4361  156.4072 H   0  0  0  0  0  0  0  0  0  0  0  0
  149.1205  142.4584  154.2030 H   0  0  0  0  0  0  0  0  0  0  0  0
  150.0370  140.9106  153.8310 H   0  0  0  0  0  0  0  0  0  0  0  0
  146.9725  141.2143  154.2729 H   0  0  0  0  0  0  0  0  0  0  0  0
  148.7165  138.7689  153.5533 H   0  0  0  0  0  0  0  0  0  0  0  0
  147.4522  139.4843  152.5518 H   0  0  0  0  0  0  0  0  0  0  0  0
  147.0199  138.6554  154.0520 H   0  0  0  0  0  0  0  0  0  0  0  0
  151.4856  139.8699  156.4733 H   0  0  0  0  0  0  0  0  0  0  0  0
  150.9989  140.3244  154.8656 H   0  0  0  0  0  0  0  0  0  0  0  0
  148.9940  138.8092  155.5273 H   0  0  0  0  0  0  0  0  0  0  0  0
  1  2  1  0  0  0  0
  1 30  1  0  0  0  0
  1 31  1  0  0  0  0
  1 32  1  0  0  0  0
  2 29  1  0  0  0  0
  2  3  1  0  0  0  0
  2 33  1  0  0  0  0
  3  4  1  0  0  0  0
  3 34  1  0  0  0  0
  3 35  1  0  0  0  0
  4  5  1  0  0  0  0
  4 22  1  0  0  0  0
  5 10  1  0  0  0  0
  5  6  2  0  0  0  0
  6  7  1  0  0  0  0
  7  8  2  0  0  0  0
  7 36  1  0  0  0  0
  8  9  1  0  0  0  0
  9 13  1  0  0  0  0
  9 10  2  0  0  0  0
 10 11  1  0  0  0  0
 11 12  2  0  0  0  0
 12 13  1  0  0  0  0
 12 37  1  0  0  0  0
 13 14  1  0  0  0  0
 14 15  1  0  0  0  0
 14 38  1  0  0  0  0
 14 39  1  0  0  0  0
 15 21  1  0  0  0  0
 15 16  1  0  0  0  0
 15 17  1  0  0  0  0
 16 40  1  0  0  0  0
 17 18  1  0  0  0  0
 17 41  1  0  0  0  0
 17 42  1  0  0  0  0
 18 19  1  0  0  0  0
 18 43  1  0  0  0  0
 18 44  1  0  0  0  0
 19 20  1  0  0  0  0
 20 21  1  0  0  0  0
 20 45  1  0  0  0  0
 20 46  1  0  0  0  0
 21 47  1  0  0  0  0
 21 48  1  0  0  0  0
 22 23  1  0  0  0  0
 22 49  1  0  0  0  0
 22 50  1  0  0  0  0
 23 24  1  0  0  0  0
 23 51  1  0  0  0  0
 23 52  1  0  0  0  0
 24 25  1  0  0  0  0
 24 29  1  0  0  0  0
 24 62  1  0  0  0  0
 25 27  1  0  0  0  0
 25 26  1  0  0  0  0
 25 53  1  0  0  0  0
 26 27  1  0  0  0  0
 26 54  1  0  0  0  0
 26 55  1  0  0  0  0
 27 28  1  0  0  0  0
 27 56  1  0  0  0  0
 28 57  1  0  0  0  0
 28 58  1  0  0  0  0
 28 59  1  0  0  0  0
 29 60  1  0  0  0  0
 29 61  1  0  0  0  0
M  CHG  1  24   1
M  END
> <s_m_source_file>
AV-unprocessed.smi

> <i_m_source_file_index>
193

> <i_lp_mmshare_version>
43012

> <i_f3d_flags>
0

> <s_epik_input>
W0NIM11bQ0BASF0xW0NIMl1bQ0BIXTFOKFtDSDJdMilbQ0gyXVtDSDJdTihbQ0gyXVtDQEhdMltDSDNdKWMobltjSF1uMyljKGMzNCluW2NIXW40W0NIMl1DNShbT0hdKVtDSDJdW0NIMl1PW0NIMl1bQ0gyXTU=

> <s_epik_cmdline>
J2VwaWtfcHl0aG9uJywgJy1waCcsICc3LjAnLCAnLXRuJywgJzgnLCAnLW1hJywgJzIwMCcsICctbWV0YWxfYmluZGluZycsICctaW1hZScsICc8aW5maWxlLm1hZT4nLCAnLW9tYWUnLCAnPG91dGZpbGUubWFlPic=

> <r_lp_tautomer_probability>
1

> <r_epik_Ionization_Penalty>
0.0540825

> <r_epik_Ionization_Penalty_Charging>
0.0538476

> <r_epik_Ionization_Penalty_Neutral>
0.000234891

> <r_epik_State_Penalty>
0.0200719

> <r_epik_Charging_Adjusted_Penalty>
0.0739194

> <i_epik_Tot_Q>
1

> <i_epik_Tot_abs_Q>
1

> <r_epik_Metal_State_Penalty>
0.0199414

> <b_epik_Metal_Only>
0

> <s_lp_Force_Field>
OPLS_2005

> <r_lp_Energy>
52.5482

> <b_lp_Chiralities_Consistent>
1

> <s_lp_Variant>
AV-unprocessed.smi:193-8

> <Gold.Version>
5.8.1

> <Gold.Id.Protein>
6NUR|6NUR_protein|mol2

> <Gold.PLP.Fitness>
36.9840

> <Gold.PLP.PLP>
-35.9457

> <Gold.PLP.part.hbond>
-0.8108

> <Gold.PLP.part.metal>
0.0000

> <Gold.PLP.part.buried>
-3.9067

> <Gold.PLP.part.nonpolar>
-30.2405

> <Gold.PLP.part.repulsive>
0.2815

> <Gold.PLP.ligand.clash>
0.0000

> <Gold.PLP.ligand.torsion>
1.6787

> <Gold.PLP.Chemscore.Hbond>
1.0000

> <Gold.PLP.Chemscore.CHOScore>
0.0000

> <Gold.PLP.Chemscore.Metal>
0.0000

> <Gold.Chemscore.Hbonds>
donor molecule, donor type, donor heavy atom, donor atom, acceptor molecule, acceptor atom, score
      L1  H    16    40       P1 10747  0.88

> <Gold.PLP.Chemscore.Internal.Correction>
1.3958

> <Gold.Rescore>
     Score         DG    S(hbond)    S(metal)    S(lipo)     H(rot)  DE(clash)    DE(int)     intcor
     11.87     -14.78       0.99        0.00      93.30       1.93       0.07       2.84       ----

> <Gold.Chemscore.Fitness>
11.8723

> <Gold.Chemscore.DG>
-14.7768

> <Gold.Chemscore.ZeroCoef>
-5.4800

> <Gold.Chemscore.Hbond>
0.9937

> <Gold.Chemscore.Metal>
0.0000

> <Gold.Chemscore.Lipo>
93.2995

> <Gold.Chemscore.Internal_Hbond>
0.0000

> <Gold.Chemscore.DEClash>
0.0677

> <Gold.Chemscore.DEInternal>
2.8367

> <Gold.Chemscore.Rot>
1.9290

> <Gold.Chemscore.Internal.Correction>
   9.000000E+99

> <Gold.Chemscore.Hbonds>
donor molecule, donor type, donor heavy atom, donor atom, acceptor molecule, acceptor atom, score
      L1  H    16    40       P1 10747  0.87

> <Gold.Chemscore.Hbond.Weighted>
-3.3190

> <Gold.Chemscore.Metal.Weighted>
-0.0000

> <Gold.Chemscore.Lipo.Weighted>
-10.9160

> <Gold.Chemscore.Internal_Hbond.Weighted>
0.0000

> <Gold.Chemscore.DEClash.Weighted>
0.0677

> <Gold.Chemscore.DEInternal.Weighted>
2.8367

> <Gold.Chemscore.Rot.Weighted>
4.9383

> <Gold.Chemscore.Internal.Correction.Weighted>
   9.000000E+99

> <Gold.Protein.RotatedTorsions>
[ 6907 6896 6895 6894 ] final -112.50 input  -60.11 | X-H torsion
[ 7974 7965 7964 7962 ] final -141.05 input  175.53 | X-H torsion
[ 8008 7997 7996 7995 ] final  -67.26 input   59.86 | X-H torsion
[ 10167 10162 10161 10158 ] final   -6.00 input  -65.29 | X-H torsion
[ 10718 10713 10712 10709 ] final  -34.91 input   66.30 | X-H torsion
[ 10763 10752 10751 10750 ] final  179.53 input  -60.55 | X-H torsion
[ 11005 11000 10999 10996 ] final -178.50 input  -57.11 | X-H torsion

> <Gold.Protein.ActiveResidues>
 VAL166  LYS551  ARG553  GLY616  TRP617  ASP618  TYR619  PRO620  LYS621  CYS622 
 ASP623  PHE694  ASN695  SER759  ASP760  ASP761  ALA762  ILE779  LEU786  VAL792 
 PHE793  MET794  SER795  GLU796  ALA797  LYS798  CYS799  TRP800  GLU811  SER814 

> <Gold.Protein.RotatedAtoms>
  150.7763  133.9080  159.3360 H   0  0  0  0  0  0  0  0  0  0  0  0  # atno 6907 bound_to 6896
  151.6954  135.0937  160.0251 H   0  0  0  0  0  0  0  0  0  0  0  0  # atno 6908 bound_to 6896
  152.3800  133.6494  159.6189 H   0  0  0  0  0  0  0  0  0  0  0  0  # atno 6909 bound_to 6896
  144.8549  140.6127  143.5366 H   0  0  0  0  0  0  0  0  0  0  0  0  # atno 7974 bound_to 7965
  154.4788  140.0896  156.7327 H   0  0  0  0  0  0  0  0  0  0  0  0  # atno 8008 bound_to 7997
  155.4526  140.3458  155.4284 H   0  0  0  0  0  0  0  0  0  0  0  0  # atno 8009 bound_to 7997
  156.1158  140.1460  156.9262 H   0  0  0  0  0  0  0  0  0  0  0  0  # atno 8010 bound_to 7997
  140.6982  143.6244  150.8582 H   0  0  0  0  0  0  0  0  0  0  0  0  # atno 10167 bound_to 10162
  156.3450  130.4299  149.7754 H   0  0  0  0  0  0  0  0  0  0  0  0  # atno 10718 bound_to 10713
  154.5218  135.2794  155.1256 H   0  0  0  0  0  0  0  0  0  0  0  0  # atno 10763 bound_to 10752
  154.2810  135.6285  153.5351 H   0  0  0  0  0  0  0  0  0  0  0  0  # atno 10764 bound_to 10752
  152.9938  135.5651  154.5709 H   0  0  0  0  0  0  0  0  0  0  0  0  # atno 10765 bound_to 10752
  140.4290  134.6536  157.4702 H   0  0  0  0  0  0  0  0  0  0  0  0  # atno 11005 bound_to 11000
  145.4425  139.1534  143.3962 LP  0  0  0  0  0  0  0  0  0  0  0  0  # atno 17320 bound_to 7965
  146.2815  140.4547  142.8774 LP  0  0  0  0  0  0  0  0  0  0  0  0  # atno 17321 bound_to 7965
  139.9964  143.5791  152.2891 LP  0  0  0  0  0  0  0  0  0  0  0  0  # atno 17342 bound_to 10162
  139.6465  144.7658  151.2233 LP  0  0  0  0  0  0  0  0  0  0  0  0  # atno 17343 bound_to 10162
  156.4976  130.8114  151.3120 LP  0  0  0  0  0  0  0  0  0  0  0  0  # atno 17370 bound_to 10713
  157.7452  130.9955  150.2746 LP  0  0  0  0  0  0  0  0  0  0  0  0  # atno 17371 bound_to 10713
  140.0147  134.6637  155.9327 LP  0  0  0  0  0  0  0  0  0  0  0  0  # atno 17394 bound_to 11000
  141.1753  133.6540  156.4806 LP  0  0  0  0  0  0  0  0  0  0  0  0  # atno 17395 bound_to 11000

$$$$
