AV-unprocessed.smi:3099|AV-procd|sdf|11802|dock3
  -GOLD-   2272017173D 1   1.00000     0.00000
 Structure written by MMmdl.
 33 34  0  0  0  0  0  0  0  0  2 V2000
  147.2799  141.9783  154.1299 C   0  0  0  0  0  0  0  0  0  0  0  0
  148.0668  140.7464  154.0377 N   0  0  0  0  0  0  0  0  0  0  0  0
  147.6917  139.7189  153.2656 C   0  0  0  0  0  0  0  0  0  0  0  0
  148.6188  138.7696  153.4085 N   0  3  0  0  0  0  0  0  0  0  0  0
  149.5903  139.1901  154.2744 C   0  0  0  0  0  0  0  0  0  0  0  0
  149.2465  140.4565  154.6850 C   0  0  0  0  0  0  0  0  0  0  0  0
  149.9115  141.4175  155.6232 C   0  0  0  0  0  0  0  0  0  0  0  0
  151.1086  140.7968  156.3655 C   0  0  0  0  0  0  0  0  0  0  0  0
  151.4150  141.5250  157.5911 N   0  0  0  0  0  0  0  0  0  0  0  0
  152.3874  141.1997  158.4564 C   0  0  0  0  0  0  0  0  0  0  0  0
  153.1347  140.2339  158.2973 O   0  0  0  0  0  0  0  0  0  0  0  0
  152.5327  142.1068  159.6819 C   0  0  0  0  0  0  0  0  0  0  0  0
  152.7859  143.5617  159.3230 C   0  0  0  0  0  0  0  0  0  0  0  0
  152.0772  144.6769  160.0601 C   0  0  0  0  0  0  0  0  0  0  0  0
  151.7298  144.3854  158.6213 C   0  0  0  0  0  0  0  0  0  0  0  0
  146.3727  141.8921  153.5304 H   0  0  0  0  0  0  0  0  0  0  0  0
  147.8787  142.8121  153.7626 H   0  0  0  0  0  0  0  0  0  0  0  0
  147.0085  142.1528  155.1714 H   0  0  0  0  0  0  0  0  0  0  0  0
  146.8130  139.6643  152.6477 H   0  0  0  0  0  0  0  0  0  0  0  0
  150.4370  138.5698  154.5305 H   0  0  0  0  0  0  0  0  0  0  0  0
  150.2396  142.2894  155.0562 H   0  0  0  0  0  0  0  0  0  0  0  0
  149.1681  141.7685  156.3401 H   0  0  0  0  0  0  0  0  0  0  0  0
  150.9165  139.7477  156.5977 H   0  0  0  0  0  0  0  0  0  0  0  0
  151.9950  140.8203  155.7313 H   0  0  0  0  0  0  0  0  0  0  0  0
  150.8495  142.3362  157.7963 H   0  0  0  0  0  0  0  0  0  0  0  0
  151.6272  142.0423  160.2857 H   0  0  0  0  0  0  0  0  0  0  0  0
  153.3548  141.7437  160.3011 H   0  0  0  0  0  0  0  0  0  0  0  0
  153.8159  143.7677  159.0364 H   0  0  0  0  0  0  0  0  0  0  0  0
  151.3482  144.3996  160.8188 H   0  0  0  0  0  0  0  0  0  0  0  0
  152.6458  145.5808  160.2682 H   0  0  0  0  0  0  0  0  0  0  0  0
  152.0668  145.0956  157.8690 H   0  0  0  0  0  0  0  0  0  0  0  0
  150.7668  143.9189  158.4230 H   0  0  0  0  0  0  0  0  0  0  0  0
  148.6021  137.8706  152.9433 H   0  0  0  0  0  0  0  0  0  0  0  0
  1  2  1  0  0  0  0
  1 16  1  0  0  0  0
  1 17  1  0  0  0  0
  1 18  1  0  0  0  0
  2  6  1  0  0  0  0
  2  3  1  0  0  0  0
  3  4  2  0  0  0  0
  3 19  1  0  0  0  0
  4  5  1  0  0  0  0
  4 33  1  0  0  0  0
  5  6  2  0  0  0  0
  5 20  1  0  0  0  0
  6  7  1  0  0  0  0
  7  8  1  0  0  0  0
  7 21  1  0  0  0  0
  7 22  1  0  0  0  0
  8  9  1  0  0  0  0
  8 23  1  0  0  0  0
  8 24  1  0  0  0  0
  9 10  1  0  0  0  0
  9 25  1  0  0  0  0
 10 11  2  0  0  0  0
 10 12  1  0  0  0  0
 12 13  1  0  0  0  0
 12 26  1  0  0  0  0
 12 27  1  0  0  0  0
 13 15  1  0  0  0  0
 13 14  1  0  0  0  0
 13 28  1  0  0  0  0
 14 15  1  0  0  0  0
 14 29  1  0  0  0  0
 14 30  1  0  0  0  0
 15 31  1  0  0  0  0
 15 32  1  0  0  0  0
M  CHG  1   4   1
M  END
> <s_m_source_file>
AV-unprocessed.smi

> <i_m_source_file_index>
3099

> <i_lp_mmshare_version>
43012

> <i_f3d_flags>
0

> <s_epik_input>
W0NIM11uMVtjSF1uW2NIXWMxW0NIMl1bQ0gyXVtOSF1DKD1PKVtDSDJdW0NIXTJbQ0gyXVtDSDJdMg==

> <s_epik_cmdline>
J2VwaWtfcHl0aG9uJywgJy1waCcsICc3LjAnLCAnLXRuJywgJzgnLCAnLW1hJywgJzIwMCcsICctbWV0YWxfYmluZGluZycsICctaW1hZScsICc8aW5maWxlLm1hZT4nLCAnLW9tYWUnLCAnPG91dGZpbGUubWFlPic=

> <r_lp_tautomer_probability>
1

> <r_epik_Ionization_Penalty>
0.156092

> <r_epik_Ionization_Penalty_Charging>
0

> <r_epik_Ionization_Penalty_Neutral>
0.156092

> <r_epik_State_Penalty>
0.145389

> <r_epik_Charging_Adjusted_Penalty>
0.145389

> <i_epik_Tot_Q>
1

> <i_epik_Tot_abs_Q>
1

> <r_epik_Metal_State_Penalty>
0.466304

> <b_epik_Metal_Only>
0

> <s_lp_Force_Field>
OPLS_2005

> <r_lp_Energy>
10.1208

> <b_lp_Chiralities_Consistent>
1

> <s_lp_Variant>
AV-unprocessed.smi:3099-1

> <Gold.Version>
5.8.1

> <Gold.Id.Protein>
6NUR|6NUR_protein|mol2

> <Gold.PLP.Fitness>
46.9080

> <Gold.PLP.PLP>
-38.3884

> <Gold.PLP.part.hbond>
-3.0000

> <Gold.PLP.part.metal>
0.0000

> <Gold.PLP.part.buried>
-2.3625

> <Gold.PLP.part.nonpolar>
-33.7630

> <Gold.PLP.part.repulsive>
0.1183

> <Gold.PLP.ligand.clash>
0.0000

> <Gold.PLP.ligand.torsion>
0.4839

> <Gold.PLP.Chemscore.Hbond>
2.9760

> <Gold.PLP.Chemscore.CHOScore>
0.0000

> <Gold.PLP.Chemscore.Metal>
0.0000

> <Gold.Chemscore.Hbonds>
donor molecule, donor type, donor heavy atom, donor atom, acceptor molecule, acceptor atom, score
      L1  H     4    33       P1  7948  2.00
      P1  H  7997  8009       L1    11  0.94

> <Gold.PLP.Chemscore.Internal.Correction>
0.5594

> <Gold.Rescore>
     Score         DG    S(hbond)    S(metal)    S(lipo)     H(rot)  DE(clash)    DE(int)     intcor
     15.52     -16.06       1.84        0.00      81.57       1.99       0.04       0.51       ----

> <Gold.Chemscore.Fitness>
15.5171

> <Gold.Chemscore.DG>
-16.0587

> <Gold.Chemscore.ZeroCoef>
-5.4800

> <Gold.Chemscore.Hbond>
1.8354

> <Gold.Chemscore.Metal>
0.0000

> <Gold.Chemscore.Lipo>
81.5748

> <Gold.Chemscore.Internal_Hbond>
0.0000

> <Gold.Chemscore.DEClash>
0.0361

> <Gold.Chemscore.DEInternal>
0.5056

> <Gold.Chemscore.Rot>
1.9905

> <Gold.Chemscore.Internal.Correction>
   9.000000E+99

> <Gold.Chemscore.Hbonds>
donor molecule, donor type, donor heavy atom, donor atom, acceptor molecule, acceptor atom, score
      L1  H     4    33       P1  7948  0.98
      P1  H  7997  8009       L1    11  0.90

> <Gold.Chemscore.Hbond.Weighted>
-6.1301

> <Gold.Chemscore.Metal.Weighted>
-0.0000

> <Gold.Chemscore.Lipo.Weighted>
-9.5443

> <Gold.Chemscore.Internal_Hbond.Weighted>
0.0000

> <Gold.Chemscore.DEClash.Weighted>
0.0361

> <Gold.Chemscore.DEInternal.Weighted>
0.5056

> <Gold.Chemscore.Rot.Weighted>
5.0957

> <Gold.Chemscore.Internal.Correction.Weighted>
   9.000000E+99

> <Gold.Protein.RotatedTorsions>
[ 6907 6896 6895 6894 ] final  -49.71 input  -60.11 | X-H torsion
[ 7974 7965 7964 7962 ] final -115.47 input  175.53 | X-H torsion
[ 8008 7997 7996 7995 ] final  152.28 input   59.86 | X-H torsion
[ 10167 10162 10161 10158 ] final   44.72 input  -65.29 | X-H torsion
[ 10718 10713 10712 10709 ] final  -29.28 input   66.30 | X-H torsion
[ 10763 10752 10751 10750 ] final  125.78 input  -60.55 | X-H torsion
[ 11005 11000 10999 10996 ] final   93.17 input  -57.11 | X-H torsion

> <Gold.Protein.ActiveResidues>
 VAL166  LYS551  ARG553  GLY616  TRP617  ASP618  TYR619  PRO620  LYS621  CYS622 
 ASP623  PHE694  ASN695  SER759  ASP760  ASP761  ALA762  ILE779  LEU786  VAL792 
 PHE793  MET794  SER795  GLU796  ALA797  LYS798  CYS799  TRP800  GLU811  SER814 

> <Gold.Protein.RotatedAtoms>
  150.8779  134.8164  159.7202 H   0  0  0  0  0  0  0  0  0  0  0  0  # atno 6907 bound_to 6896
  152.4758  134.4843  159.9685 H   0  0  0  0  0  0  0  0  0  0  0  0  # atno 6908 bound_to 6896
  151.4922  133.3484  159.2891 H   0  0  0  0  0  0  0  0  0  0  0  0  # atno 6909 bound_to 6896
  145.1081  140.8594  143.3886 H   0  0  0  0  0  0  0  0  0  0  0  0  # atno 7974 bound_to 7965
  156.2636  140.2025  156.6309 H   0  0  0  0  0  0  0  0  0  0  0  0  # atno 8008 bound_to 7997
  154.6684  140.0553  157.0163 H   0  0  0  0  0  0  0  0  0  0  0  0  # atno 8009 bound_to 7997
  155.1173  140.3221  155.4509 H   0  0  0  0  0  0  0  0  0  0  0  0  # atno 8010 bound_to 7997
  140.3314  144.2583  150.6167 H   0  0  0  0  0  0  0  0  0  0  0  0  # atno 10167 bound_to 10162
  156.4145  130.4414  149.7228 H   0  0  0  0  0  0  0  0  0  0  0  0  # atno 10718 bound_to 10713
  153.6828  135.3311  155.3182 H   0  0  0  0  0  0  0  0  0  0  0  0  # atno 10763 bound_to 10752
  154.8461  135.4413  154.1588 H   0  0  0  0  0  0  0  0  0  0  0  0  # atno 10764 bound_to 10752
  153.2609  135.6991  153.7656 H   0  0  0  0  0  0  0  0  0  0  0  0  # atno 10765 bound_to 10752
  139.8813  134.8775  156.3679 H   0  0  0  0  0  0  0  0  0  0  0  0  # atno 11005 bound_to 11000
  145.0879  139.2912  143.5750 LP  0  0  0  0  0  0  0  0  0  0  0  0  # atno 17320 bound_to 7965
  146.3527  140.0406  142.8643 LP  0  0  0  0  0  0  0  0  0  0  0  0  # atno 17321 bound_to 7965
  140.5393  143.2227  151.8111 LP  0  0  0  0  0  0  0  0  0  0  0  0  # atno 17342 bound_to 10162
  139.4856  144.4620  151.9529 LP  0  0  0  0  0  0  0  0  0  0  0  0  # atno 17343 bound_to 10162
  156.4193  130.7761  151.2777 LP  0  0  0  0  0  0  0  0  0  0  0  0  # atno 17370 bound_to 10713
  157.7507  131.0187  150.3639 LP  0  0  0  0  0  0  0  0  0  0  0  0  # atno 17371 bound_to 10713
  140.9484  133.7467  156.0239 LP  0  0  0  0  0  0  0  0  0  0  0  0  # atno 17394 bound_to 11000
  140.8135  134.3372  157.5404 LP  0  0  0  0  0  0  0  0  0  0  0  0  # atno 17395 bound_to 11000

$$$$
