#       Name:                AV-unprocessed.smi:2401
#       Creating user name   scv26
#       Creation time:       Fri Mar 27 13:13:22 2020


#       File generated by GOLD software.
#

@<TRIPOS>MOLECULE
AV-unprocessed.smi:2401
    39    40     1
SMALL
NO_CHARGES


@<TRIPOS>ATOM
      1 ****        -5.0018   0.8741   0.9169 C.3            1 S1                 0.0000
      2 ****        -3.5454   0.4550   0.8228 C.2            1 S1                 0.0000
      3 ****        -2.6129   1.4942   0.8858 N.2            1 S1                 0.0000
      4 ****        -1.3493   1.2313   0.8136 C.2            1 S1                 0.0000
      5 ****        -0.8746  -0.0839   0.6742 N.am           1 S1                 0.0000
      6 ****         0.5878  -0.2463   0.5995 C.3            1 S1                 0.0000
      7 ****         1.1315  -0.0346  -0.8321 C.3            1 S1                 0.0000
      8 ****         0.8607  -1.1872  -1.6042 O.3            1 S1                 0.0000
      9 ****         2.6221   0.2683  -0.8103 C.ar           1 S1                 0.0000
     10 ****         3.0851   1.5625  -1.1315 C.ar           1 S1                 0.0000
     11 ****         4.4640   1.8492  -1.1077 C.ar           1 S1                 0.0000
     12 ****         5.3878   0.8447  -0.7601 C.ar           1 S1                 0.0000
     13 ****         7.0765   1.1970  -0.7308 Cl             1 S1                 0.0000
     14 ****         4.9314  -0.4474  -0.4354 C.ar           1 S1                 0.0000
     15 ****         3.5529  -0.7347  -0.4597 C.ar           1 S1                 0.0000
     16 ****        -1.7161  -1.1556   0.6038 C.2            1 S1                 0.0000
     17 ****        -1.2924  -2.3062   0.4804 O.2            1 S1                 0.0000
     18 ****        -3.1518  -0.8406   0.6854 C.2            1 S1                 0.0000
     19 ****        -4.1220  -2.0131   0.6098 C.3            1 S1                 0.0000
     20 ****        -5.5452   0.5729   0.0209 H              1 S1                 0.0000
     21 ****        -5.0983   1.9560   1.0177 H              1 S1                 0.0000
     22 ****        -5.4763   0.4143   1.7843 H              1 S1                 0.0000
     23 ****        -0.5808   2.0054   0.8520 H              1 S1                 0.0000
     24 ****         1.0484   0.4866   1.2656 H              1 S1                 0.0000
     25 ****         0.9149  -1.2088   0.9978 H              1 S1                 0.0000
     26 ****         0.6188   0.8046  -1.3041 H              1 S1                 0.0000
     27 ****         1.1307  -1.0224  -2.4946 H              1 S1                 0.0000
     28 ****         2.3856   2.3414  -1.3976 H              1 S1                 0.0000
     29 ****         4.8113   2.8413  -1.3559 H              1 S1                 0.0000
     30 ****         5.6371  -1.2199  -0.1667 H              1 S1                 0.0000
     31 ****         3.2113  -1.7279  -0.2067 H              1 S1                 0.0000
     32 ****        -3.9348  -2.7092   1.4281 H              1 S1                 0.0000
     33 ****        -3.9889  -2.5509  -0.3295 H              1 S1                 0.0000
     34 ****        -5.1664  -1.7116   0.6687 H              1 S1                 0.0000
     35 ****        -2.9228   2.4397   0.9864 LP             1 S1                 0.0000
     36 ****        -0.1190  -1.3865  -1.5803 LP             1 S1                 0.0000
     37 ****         1.3685  -1.9663  -1.2365 LP             1 S1                 0.0000
     38 ****        -0.3079  -2.4736   0.4291 LP             1 S1                 0.0000
     39 ****        -1.9332  -3.0724   0.4314 LP             1 S1                 0.0000
@<TRIPOS>BOND
    1    1    2 1     
    2    1   20 1     
    3    1   21 1     
    4    1   22 1     
    5    2   18 2     
    6    2    3 1     
    7    3    4 2     
    8    4    5 1     
    9    4   23 1     
   10    5    6 1     
   11    5   16 am    
   12    6    7 1     
   13    6   24 1     
   14    6   25 1     
   15    7    8 1     
   16    7    9 1     
   17    7   26 1     
   18    8   27 1     
   19    9   15 ar    
   20    9   10 ar    
   21   10   11 ar    
   22   10   28 1     
   23   11   12 ar    
   24   11   29 1     
   25   12   13 1     
   26   12   14 ar    
   27   14   15 ar    
   28   14   30 1     
   29   15   31 1     
   30   16   17 2     
   31   16   18 1     
   32   18   19 1     
   33   19   32 1     
   34   19   33 1     
   35   19   34 1     
   36    3   35 1     
   37    8   36 1     
   38    8   37 1     
   39   17   38 1     
   40   17   39 1     
@<TRIPOS>SUBSTRUCTURE
      1 S1             1
@<TRIPOS>SET
LONE_PAIRS      STATIC     ATOMS    <user>   **** ""
5 35 36 37 38 39
DONOR_HYDROGENS      STATIC     ATOMS    <user>   **** ""
1 27
ATOM$BLUE        STATIC     ATOMS    COLORGROUP SYSTEM
5 35 36 37 38 39
ATOM$RED        STATIC     ATOMS    COLORGROUP SYSTEM
1 27
