AV-unprocessed.smi:1693|AV-procd|sdf|6786|dock3
  -GOLD-   22720 7543D 1   1.00000     0.00000
 Structure written by MMmdl.
 35 36  0  0  0  0  0  0  0  0  2 V2000
  137.3326  137.4952  154.2367 C   0  0  0  0  0  0  0  0  0  0  0  0
  138.7958  137.3934  153.9726 C   0  0  0  0  0  0  0  0  0  0  0  0
  139.5693  136.4684  154.5457 N   0  0  0  0  0  0  0  0  0  0  0  0
  140.8929  136.5713  154.1427 N   0  0  0  0  0  0  0  0  0  0  0  0
  141.1005  137.5646  153.2666 C   0  0  0  0  0  0  0  0  0  0  0  0
  142.3139  137.8327  152.7564 N   0  5  0  0  0  0  0  0  0  0  0  0
  143.3270  136.9518  152.9216 C   0  0  0  0  0  0  0  0  0  0  0  0
  143.5959  136.3363  153.9559 O   0  0  0  0  0  0  0  0  0  0  0  0
  144.0668  136.7681  151.8178 N   0  0  0  0  0  0  0  0  0  0  0  0
  145.2227  135.8820  151.6797 C   0  0  0  0  0  0  0  0  0  0  0  0
  144.9122  134.5829  150.8929 C   0  0  0  0  0  0  0  0  0  0  0  0
  144.6538  134.9688  149.5543 O   0  0  0  0  0  0  0  0  0  0  0  0
  146.1685  133.6782  150.8762 C   0  0  0  0  0  0  0  0  0  0  0  0
  145.9359  132.3265  150.1776 C   0  0  0  0  0  0  0  0  0  0  0  0
  144.7428  131.5818  150.7912 C   0  0  0  0  0  0  0  0  0  0  0  0
  143.4765  132.4472  150.7443 C   0  0  0  0  0  0  0  0  0  0  0  0
  143.6920  133.8008  151.4446 C   0  0  0  0  0  0  0  0  0  0  0  0
  139.6419  138.4788  152.8826 S   0  0  0  0  0  0  0  0  0  0  0  0
  136.8039  136.6987  153.7132 H   0  0  0  0  0  0  0  0  0  0  0  0
  136.9506  138.4558  153.8911 H   0  0  0  0  0  0  0  0  0  0  0  0
  137.1351  137.4063  155.3052 H   0  0  0  0  0  0  0  0  0  0  0  0
  143.7995  137.2881  150.9950 H   0  0  0  0  0  0  0  0  0  0  0  0
  146.0207  136.4396  151.1877 H   0  0  0  0  0  0  0  0  0  0  0  0
  145.6139  135.6301  152.6665 H   0  0  0  0  0  0  0  0  0  0  0  0
  145.3420  134.6235  149.0072 H   0  0  0  0  0  0  0  0  0  0  0  0
  147.0023  134.1973  150.4013 H   0  0  0  0  0  0  0  0  0  0  0  0
  146.4825  133.4835  151.9028 H   0  0  0  0  0  0  0  0  0  0  0  0
  145.7632  132.4835  149.1123 H   0  0  0  0  0  0  0  0  0  0  0  0
  146.8339  131.7128  150.2539 H   0  0  0  0  0  0  0  0  0  0  0  0
  144.5744  130.6451  150.2595 H   0  0  0  0  0  0  0  0  0  0  0  0
  144.9672  131.3162  151.8250 H   0  0  0  0  0  0  0  0  0  0  0  0
  143.1831  132.6107  149.7067 H   0  0  0  0  0  0  0  0  0  0  0  0
  142.6485  131.9170  151.2154 H   0  0  0  0  0  0  0  0  0  0  0  0
  143.8342  133.6249  152.5118 H   0  0  0  0  0  0  0  0  0  0  0  0
  142.7808  134.3933  151.3538 H   0  0  0  0  0  0  0  0  0  0  0  0
  1  2  1  0  0  0  0
  1 19  1  0  0  0  0
  1 20  1  0  0  0  0
  1 21  1  0  0  0  0
  2 18  1  0  0  0  0
  2  3  2  0  0  0  0
  3  4  1  0  0  0  0
  4  5  2  0  0  0  0
  5  6  1  0  0  0  0
  5 18  1  0  0  0  0
  6  7  1  0  0  0  0
  7  8  2  0  0  0  0
  7  9  1  0  0  0  0
  9 10  1  0  0  0  0
  9 22  1  0  0  0  0
 10 11  1  0  0  0  0
 10 23  1  0  0  0  0
 10 24  1  0  0  0  0
 11 17  1  0  0  0  0
 11 12  1  0  0  0  0
 11 13  1  0  0  0  0
 12 25  1  0  0  0  0
 13 14  1  0  0  0  0
 13 26  1  0  0  0  0
 13 27  1  0  0  0  0
 14 15  1  0  0  0  0
 14 28  1  0  0  0  0
 14 29  1  0  0  0  0
 15 16  1  0  0  0  0
 15 30  1  0  0  0  0
 15 31  1  0  0  0  0
 16 17  1  0  0  0  0
 16 32  1  0  0  0  0
 16 33  1  0  0  0  0
 17 34  1  0  0  0  0
 17 35  1  0  0  0  0
M  CHG  1   6  -1
M  END
> <s_m_source_file>
AV-unprocessed.smi

> <i_m_source_file_index>
1693

> <i_lp_mmshare_version>
43012

> <i_f3d_flags>
0

> <s_epik_input>
W0NIM11jMW5uYyhzMSlbTkhdQyg9TylbTkhdW0NIMl1DMihbT0hdKVtDSDJdW0NIMl1bQ0gyXVtDSDJdW0NIMl0y

> <s_epik_cmdline>
J2VwaWtfcHl0aG9uJywgJy1waCcsICc3LjAnLCAnLXRuJywgJzgnLCAnLW1hJywgJzIwMCcsICctbWV0YWxfYmluZGluZycsICctaW1hZScsICc8aW5maWxlLm1hZT4nLCAnLW9tYWUnLCAnPG91dGZpbGUubWFlPic=

> <r_lp_tautomer_probability>
1

> <r_epik_Ionization_Penalty>
4.37877

> <r_epik_Ionization_Penalty_Charging>
4.24206

> <r_epik_Ionization_Penalty_Neutral>
0.136706

> <r_epik_State_Penalty>
4.2416

> <r_epik_Charging_Adjusted_Penalty>
8.48367

> <i_epik_Tot_Q>
-1

> <i_epik_Tot_abs_Q>
1

> <r_epik_Metal_State_Penalty>
0.704476

> <b_epik_Metal_Only>
1

> <s_lp_Force_Field>
OPLS_2005

> <r_lp_Energy>
12.2595

> <b_lp_Chiralities_Consistent>
1

> <s_lp_Variant>
AV-unprocessed.smi:1693-2

> <Gold.Version>
5.8.1

> <Gold.Id.Protein>
6NUR|6NUR_protein|mol2

> <Gold.PLP.Fitness>
45.9502

> <Gold.PLP.PLP>
-37.9322

> <Gold.PLP.part.hbond>
-3.0992

> <Gold.PLP.part.metal>
0.0000

> <Gold.PLP.part.buried>
-8.5931

> <Gold.PLP.part.nonpolar>
-27.6056

> <Gold.PLP.part.repulsive>
0.9994

> <Gold.PLP.ligand.clash>
0.0000

> <Gold.PLP.ligand.torsion>
0.5020

> <Gold.PLP.Chemscore.Hbond>
3.0000

> <Gold.PLP.Chemscore.CHOScore>
0.0000

> <Gold.PLP.Chemscore.Metal>
0.0000

> <Gold.Chemscore.Hbonds>
donor molecule, donor type, donor heavy atom, donor atom, acceptor molecule, acceptor atom, score
      L1  H     9    22       P1 10171  1.00
      L1  H    12    25       P1  7921  0.90
      P1  H 11000 11005       L1     3  0.26

> <Gold.PLP.Chemscore.Internal.Correction>
0.0219

> <Gold.Rescore>
     Score         DG    S(hbond)    S(metal)    S(lipo)     H(rot)  DE(clash)    DE(int)     intcor
     16.36     -18.36       2.75        0.00      71.56       1.83       0.04       1.95       ----

> <Gold.Chemscore.Fitness>
16.3635

> <Gold.Chemscore.DG>
-18.3581

> <Gold.Chemscore.ZeroCoef>
-5.4800

> <Gold.Chemscore.Hbond>
2.7519

> <Gold.Chemscore.Metal>
0.0000

> <Gold.Chemscore.Lipo>
71.5569

> <Gold.Chemscore.Internal_Hbond>
0.0000

> <Gold.Chemscore.DEClash>
0.0414

> <Gold.Chemscore.DEInternal>
1.9532

> <Gold.Chemscore.Rot>
1.8303

> <Gold.Chemscore.Internal.Correction>
   9.000000E+99

> <Gold.Chemscore.Hbonds>
donor molecule, donor type, donor heavy atom, donor atom, acceptor molecule, acceptor atom, score
      L1  H     9    22       P1 10171  0.99
      L1  H    12    25       P1  7921  0.86
      P1  H 11000 11005       L1     3  0.04

> <Gold.Chemscore.Hbond.Weighted>
-9.1914

> <Gold.Chemscore.Metal.Weighted>
-0.0000

> <Gold.Chemscore.Lipo.Weighted>
-8.3722

> <Gold.Chemscore.Internal_Hbond.Weighted>
0.0000

> <Gold.Chemscore.DEClash.Weighted>
0.0414

> <Gold.Chemscore.DEInternal.Weighted>
1.9532

> <Gold.Chemscore.Rot.Weighted>
4.6855

> <Gold.Chemscore.Internal.Correction.Weighted>
   9.000000E+99

> <Gold.Protein.RotatedTorsions>
[ 6907 6896 6895 6894 ] final  -41.22 input  -60.11 | X-H torsion
[ 7974 7965 7964 7962 ] final  160.06 input  175.53 | X-H torsion
[ 8008 7997 7996 7995 ] final -130.84 input   59.86 | X-H torsion
[ 10167 10162 10161 10158 ] final  -40.54 input  -65.29 | X-H torsion
[ 10718 10713 10712 10709 ] final  -42.89 input   66.30 | X-H torsion
[ 10763 10752 10751 10750 ] final  112.48 input  -60.55 | X-H torsion
[ 11005 11000 10999 10996 ] final   78.48 input  -57.11 | X-H torsion

> <Gold.Protein.ActiveResidues>
 VAL166  LYS551  ARG553  GLY616  TRP617  ASP618  TYR619  PRO620  LYS621  CYS622 
 ASP623  PHE694  ASN695  SER759  ASP760  ASP761  ALA762  ILE779  LEU786  VAL792 
 PHE793  MET794  SER795  GLU796  ALA797  LYS798  CYS799  TRP800  GLU811  SER814 

> <Gold.Protein.RotatedAtoms>
  150.9693  134.9068  159.7777 H   0  0  0  0  0  0  0  0  0  0  0  0  # atno 6907 bound_to 6896
  152.5184  134.3563  159.9279 H   0  0  0  0  0  0  0  0  0  0  0  0  # atno 6908 bound_to 6896
  151.3573  133.3862  159.2721 H   0  0  0  0  0  0  0  0  0  0  0  0  # atno 6909 bound_to 6896
  144.7757  139.7704  143.6280 H   0  0  0  0  0  0  0  0  0  0  0  0  # atno 7974 bound_to 7965
  155.3024  140.0453  157.3030 H   0  0  0  0  0  0  0  0  0  0  0  0  # atno 8008 bound_to 7997
  154.5479  140.2308  155.8500 H   0  0  0  0  0  0  0  0  0  0  0  0  # atno 8009 bound_to 7997
  156.1940  140.3043  155.9397 H   0  0  0  0  0  0  0  0  0  0  0  0  # atno 8010 bound_to 7997
  140.7031  143.3147  151.2938 H   0  0  0  0  0  0  0  0  0  0  0  0  # atno 10167 bound_to 10162
  156.2548  130.4191  149.8609 H   0  0  0  0  0  0  0  0  0  0  0  0  # atno 10718 bound_to 10713
  153.4785  135.3685  155.2429 H   0  0  0  0  0  0  0  0  0  0  0  0  # atno 10763 bound_to 10752
  154.8755  135.3948  154.3728 H   0  0  0  0  0  0  0  0  0  0  0  0  # atno 10764 bound_to 10752
  153.4327  135.7082  153.6285 H   0  0  0  0  0  0  0  0  0  0  0  0  # atno 10765 bound_to 10752
  139.9211  134.7767  156.1655 H   0  0  0  0  0  0  0  0  0  0  0  0  # atno 11005 bound_to 11000
  146.1934  139.5187  142.9790 LP  0  0  0  0  0  0  0  0  0  0  0  0  # atno 17320 bound_to 7965
  145.6194  141.0325  143.1923 LP  0  0  0  0  0  0  0  0  0  0  0  0  # atno 17321 bound_to 7965
  139.6582  144.0237  152.2674 LP  0  0  0  0  0  0  0  0  0  0  0  0  # atno 17342 bound_to 10162
  139.9796  144.6438  150.7913 LP  0  0  0  0  0  0  0  0  0  0  0  0  # atno 17343 bound_to 10162
  156.6145  130.8600  151.3462 LP  0  0  0  0  0  0  0  0  0  0  0  0  # atno 17370 bound_to 10713
  157.7228  130.9582  150.1509 LP  0  0  0  0  0  0  0  0  0  0  0  0  # atno 17371 bound_to 10713
  141.0732  133.6787  156.2183 LP  0  0  0  0  0  0  0  0  0  0  0  0  # atno 17394 bound_to 11000
  140.6472  134.5104  157.5574 LP  0  0  0  0  0  0  0  0  0  0  0  0  # atno 17395 bound_to 11000

$$$$
