AV-unprocessed.smi:1100|AV-procd|sdf|4761|dock6
  -GOLD-   22720 3293D 1   1.00000     0.00000
 Structure written by MMmdl.
 44 45  0  0  0  0  0  0  0  0  2 V2000
  151.2443  136.6347  156.3016 C   0  0  0  0  0  0  0  0  0  0  0  0
  150.9421  136.6101  154.7835 C   0  0  2  0  0  0  0  0  0  0  0  0
  151.1214  138.0285  154.1796 C   0  0  0  0  0  0  0  0  0  0  0  0
  150.7206  139.0953  155.0924 N   0  0  0  0  0  0  0  0  0  0  0  0
  151.5072  139.6333  156.0354 C   0  0  0  0  0  0  0  0  0  0  0  0
  152.6685  139.2730  156.2239 O   0  0  0  0  0  0  0  0  0  0  0  0
  150.8493  140.5815  156.7267 N   0  0  0  0  0  0  0  0  0  0  0  0
  151.3109  141.3946  157.7715 C   0  0  0  0  0  0  0  0  0  0  0  0
  152.0544  140.9328  158.9351 C   0  0  0  0  0  0  0  0  0  0  0  0
  152.4500  141.7982  159.8897 C   0  0  0  0  0  0  0  0  0  0  0  0
  152.1552  143.2305  159.8019 C   0  0  0  0  0  0  0  0  0  0  0  0
  152.5002  144.0277  160.6746 O   0  0  0  0  0  0  0  0  0  0  0  0
  151.4744  143.6241  158.6871 N   0  0  0  0  0  0  0  0  0  0  0  0
  151.1354  145.0368  158.4995 C   0  0  0  0  0  0  0  0  0  0  0  0
  151.0613  142.7145  157.6957 C   0  0  0  0  0  0  0  0  0  0  0  0
  149.5807  136.0770  154.4510 N   0  3  0  0  0  0  0  0  0  0  0  0
  149.4901  134.6011  154.6224 C   0  0  0  0  0  0  0  0  0  0  0  0
  148.1148  134.0757  154.1810 C   0  0  0  0  0  0  0  0  0  0  0  0
  147.0977  134.7239  154.9302 O   0  0  0  0  0  0  0  0  0  0  0  0
  147.0980  136.1257  154.7049 C   0  0  0  0  0  0  0  0  0  0  0  0
  148.4405  136.7282  155.1537 C   0  0  0  0  0  0  0  0  0  0  0  0
  152.2317  137.0467  156.5098 H   0  0  0  0  0  0  0  0  0  0  0  0
  151.2475  135.6343  156.7343 H   0  0  0  0  0  0  0  0  0  0  0  0
  150.5178  137.2407  156.8439 H   0  0  0  0  0  0  0  0  0  0  0  0
  151.6740  135.9384  154.3316 H   0  0  0  0  0  0  0  0  0  0  0  0
  152.1500  138.2158  153.8733 H   0  0  0  0  0  0  0  0  0  0  0  0
  150.5187  138.1204  153.2755 H   0  0  0  0  0  0  0  0  0  0  0  0
  149.7781  139.4457  155.0005 H   0  0  0  0  0  0  0  0  0  0  0  0
  149.8856  140.7357  156.4687 H   0  0  0  0  0  0  0  0  0  0  0  0
  152.3215  139.8968  159.0634 H   0  0  0  0  0  0  0  0  0  0  0  0
  153.0048  141.4287  160.7397 H   0  0  0  0  0  0  0  0  0  0  0  0
  150.6960  145.2377  157.5219 H   0  0  0  0  0  0  0  0  0  0  0  0
  152.0235  145.6645  158.5865 H   0  0  0  0  0  0  0  0  0  0  0  0
  150.4173  145.3574  159.2551 H   0  0  0  0  0  0  0  0  0  0  0  0
  150.5205  143.1587  156.8724 H   0  0  0  0  0  0  0  0  0  0  0  0
  150.2573  134.0891  154.0446 H   0  0  0  0  0  0  0  0  0  0  0  0
  149.6624  134.3441  155.6688 H   0  0  0  0  0  0  0  0  0  0  0  0
  147.9595  134.2340  153.1127 H   0  0  0  0  0  0  0  0  0  0  0  0
  148.0499  133.0017  154.3559 H   0  0  0  0  0  0  0  0  0  0  0  0
  146.9089  136.3373  153.6510 H   0  0  0  0  0  0  0  0  0  0  0  0
  146.2794  136.5731  155.2693 H   0  0  0  0  0  0  0  0  0  0  0  0
  148.5606  136.6152  156.2324 H   0  0  0  0  0  0  0  0  0  0  0  0
  148.4069  137.7954  154.9365 H   0  0  0  0  0  0  0  0  0  0  0  0
  149.4383  136.2670  153.4694 H   0  0  0  0  0  0  0  0  0  0  0  0
  1  2  1  0  0  0  0
  1 22  1  0  0  0  0
  1 23  1  0  0  0  0
  1 24  1  0  0  0  0
  2  3  1  0  0  0  0
  2 16  1  0  0  0  0
  2 25  1  0  0  0  0
  3  4  1  0  0  0  0
  3 26  1  0  0  0  0
  3 27  1  0  0  0  0
  4  5  1  0  0  0  0
  4 28  1  0  0  0  0
  5  6  2  0  0  0  0
  5  7  1  0  0  0  0
  7  8  1  0  0  0  0
  7 29  1  0  0  0  0
  8 15  2  0  0  0  0
  8  9  1  0  0  0  0
  9 10  2  0  0  0  0
  9 30  1  0  0  0  0
 10 11  1  0  0  0  0
 10 31  1  0  0  0  0
 11 12  2  0  0  0  0
 11 13  1  0  0  0  0
 13 14  1  0  0  0  0
 13 15  1  0  0  0  0
 14 32  1  0  0  0  0
 14 33  1  0  0  0  0
 14 34  1  0  0  0  0
 15 35  1  0  0  0  0
 16 21  1  0  0  0  0
 16 17  1  0  0  0  0
 16 44  1  0  0  0  0
 17 18  1  0  0  0  0
 17 36  1  0  0  0  0
 17 37  1  0  0  0  0
 18 19  1  0  0  0  0
 18 38  1  0  0  0  0
 18 39  1  0  0  0  0
 19 20  1  0  0  0  0
 20 21  1  0  0  0  0
 20 40  1  0  0  0  0
 20 41  1  0  0  0  0
 21 42  1  0  0  0  0
 21 43  1  0  0  0  0
M  CHG  1  16   1
M  END
> <s_m_source_file>
AV-unprocessed.smi

> <i_m_source_file_index>
1100

> <i_lp_mmshare_version>
43012

> <i_f3d_flags>
0

> <s_epik_input>
W0NIMl0xW0NIMl1PW0NIMl1bQ0gyXU4xW0NASF0oW0NIM10pW0NIMl1bTkhdQyg9TylbTkhdYzJbY0hdW2NIXWMoPU8pbihbQ0gzXSlbY0hdMg==

> <s_epik_cmdline>
J2VwaWtfcHl0aG9uJywgJy1waCcsICc3LjAnLCAnLXRuJywgJzgnLCAnLW1hJywgJzIwMCcsICctbWV0YWxfYmluZGluZycsICctaW1hZScsICc8aW5maWxlLm1hZT4nLCAnLW9tYWUnLCAnPG91dGZpbGUubWFlPic=

> <r_lp_tautomer_probability>
1

> <r_epik_Ionization_Penalty>
0.602556

> <r_epik_Ionization_Penalty_Charging>
0.602536

> <r_epik_Ionization_Penalty_Neutral>
1.99507e-05

> <r_epik_State_Penalty>
0.617039

> <r_epik_Charging_Adjusted_Penalty>
1.21958

> <i_epik_Tot_Q>
1

> <i_epik_Tot_abs_Q>
1

> <r_epik_Metal_State_Penalty>
0.619464

> <b_epik_Metal_Only>
0

> <s_lp_Force_Field>
OPLS_2005

> <r_lp_Energy>
33.1854

> <b_lp_Chiralities_Consistent>
1

> <s_lp_Variant>
AV-unprocessed.smi:1100-3

> <Gold.Version>
5.8.1

> <Gold.Id.Protein>
6NUR|6NUR_protein|mol2

> <Gold.PLP.Fitness>
45.0774

> <Gold.PLP.PLP>
-35.1857

> <Gold.PLP.part.hbond>
-2.0000

> <Gold.PLP.part.metal>
0.0000

> <Gold.PLP.part.buried>
-4.4935

> <Gold.PLP.part.nonpolar>
-29.9454

> <Gold.PLP.part.repulsive>
0.3036

> <Gold.PLP.ligand.clash>
0.0000

> <Gold.PLP.ligand.torsion>
1.0859

> <Gold.PLP.Chemscore.Hbond>
3.0000

> <Gold.PLP.Chemscore.CHOScore>
1.0000

> <Gold.PLP.Chemscore.Metal>
0.0000

> <Gold.Chemscore.Hbonds>
donor molecule, donor type, donor heavy atom, donor atom, acceptor molecule, acceptor atom, score
      L1  H    16    44       P1  7948  2.00
      P1  H  7997  8009       L1     6  1.00
      L1  C    15    35       P1  8028  0.93

> <Gold.PLP.Chemscore.Internal.Correction>
0.0636

> <Gold.Rescore>
     Score         DG    S(hbond)    S(metal)    S(lipo)     H(rot)  DE(clash)    DE(int)     intcor
     15.37     -16.84       1.92        0.00      75.98       1.54       0.42       1.05       ----

> <Gold.Chemscore.Fitness>
15.3705

> <Gold.Chemscore.DG>
-16.8420

> <Gold.Chemscore.ZeroCoef>
-5.4800

> <Gold.Chemscore.Hbond>
1.9204

> <Gold.Chemscore.Metal>
0.0000

> <Gold.Chemscore.Lipo>
75.9810

> <Gold.Chemscore.Internal_Hbond>
0.0000

> <Gold.Chemscore.DEClash>
0.4191

> <Gold.Chemscore.DEInternal>
1.0524

> <Gold.Chemscore.Rot>
1.5398

> <Gold.Chemscore.Internal.Correction>
   9.000000E+99

> <Gold.Chemscore.Hbonds>
donor molecule, donor type, donor heavy atom, donor atom, acceptor molecule, acceptor atom, score
      L1  H    16    44       P1  7948  0.65
      P1  H  7997  8009       L1     6  1.00

> <Gold.Chemscore.Hbond.Weighted>
-6.4142

> <Gold.Chemscore.Metal.Weighted>
-0.0000

> <Gold.Chemscore.Lipo.Weighted>
-8.8898

> <Gold.Chemscore.Internal_Hbond.Weighted>
0.0000

> <Gold.Chemscore.DEClash.Weighted>
0.4191

> <Gold.Chemscore.DEInternal.Weighted>
1.0524

> <Gold.Chemscore.Rot.Weighted>
3.9420

> <Gold.Chemscore.Internal.Correction.Weighted>
   9.000000E+99

> <Gold.Protein.RotatedTorsions>
[ 6907 6896 6895 6894 ] final  -57.82 input  -60.11 | X-H torsion
[ 7974 7965 7964 7962 ] final  -69.04 input  175.53 | X-H torsion
[ 8008 7997 7996 7995 ] final -166.51 input   59.86 | X-H torsion
[ 10167 10162 10161 10158 ] final  139.72 input  -65.29 | X-H torsion
[ 10718 10713 10712 10709 ] final -165.83 input   66.30 | X-H torsion
[ 10763 10752 10751 10750 ] final  119.01 input  -60.55 | X-H torsion
[ 11005 11000 10999 10996 ] final  163.05 input  -57.11 | X-H torsion

> <Gold.Protein.ActiveResidues>
 VAL166  LYS551  ARG553  GLY616  TRP617  ASP618  TYR619  PRO620  LYS621  CYS622 
 ASP623  PHE694  ASN695  SER759  ASP760  ASP761  ALA762  ILE779  LEU786  VAL792 
 PHE793  MET794  SER795  GLU796  ALA797  LYS798  CYS799  TRP800  GLU811  SER814 

> <Gold.Protein.RotatedAtoms>
  150.8056  134.7178  159.6640 H   0  0  0  0  0  0  0  0  0  0  0  0  # atno 6907 bound_to 6896
  152.4175  134.6012  160.0010 H   0  0  0  0  0  0  0  0  0  0  0  0  # atno 6908 bound_to 6896
  151.6237  133.3300  159.3129 H   0  0  0  0  0  0  0  0  0  0  0  0  # atno 6909 bound_to 6896
  145.7089  140.9086  143.0691 H   0  0  0  0  0  0  0  0  0  0  0  0  # atno 7974 bound_to 7965
  155.8648  140.0984  157.1589 H   0  0  0  0  0  0  0  0  0  0  0  0  # atno 8008 bound_to 7997
  154.3993  140.1358  156.4068 H   0  0  0  0  0  0  0  0  0  0  0  0  # atno 8009 bound_to 7997
  155.7816  140.3458  155.5303 H   0  0  0  0  0  0  0  0  0  0  0  0  # atno 8010 bound_to 7997
  139.5070  144.6277  151.5895 H   0  0  0  0  0  0  0  0  0  0  0  0  # atno 10167 bound_to 10162
  156.6591  130.9038  151.3026 H   0  0  0  0  0  0  0  0  0  0  0  0  # atno 10718 bound_to 10713
  153.5765  135.3492  155.2858 H   0  0  0  0  0  0  0  0  0  0  0  0  # atno 10763 bound_to 10752
  154.8674  135.4172  154.2668 H   0  0  0  0  0  0  0  0  0  0  0  0  # atno 10764 bound_to 10752
  153.3445  135.7052  153.6910 H   0  0  0  0  0  0  0  0  0  0  0  0  # atno 10765 bound_to 10752
  140.2319  134.8117  157.3325 H   0  0  0  0  0  0  0  0  0  0  0  0  # atno 11005 bound_to 11000
  144.6947  139.9048  143.7460 LP  0  0  0  0  0  0  0  0  0  0  0  0  # atno 17320 bound_to 7965
  146.0730  139.3719  143.0511 LP  0  0  0  0  0  0  0  0  0  0  0  0  # atno 17321 bound_to 7965
  140.6000  143.9627  150.6380 LP  0  0  0  0  0  0  0  0  0  0  0  0  # atno 17342 bound_to 10162
  140.2836  143.3372  152.1128 LP  0  0  0  0  0  0  0  0  0  0  0  0  # atno 17343 bound_to 10162
  157.7116  130.9447  150.1108 LP  0  0  0  0  0  0  0  0  0  0  0  0  # atno 17370 bound_to 10713
  156.2025  130.3661  149.8770 LP  0  0  0  0  0  0  0  0  0  0  0  0  # atno 17371 bound_to 10713
  140.1742  134.4570  155.7812 LP  0  0  0  0  0  0  0  0  0  0  0  0  # atno 17394 bound_to 11000
  141.2217  133.6955  156.7759 LP  0  0  0  0  0  0  0  0  0  0  0  0  # atno 17395 bound_to 11000

$$$$
