AV-unprocessed.smi:1830|AV-procd|sdf|7446|dock5
  -GOLD-   22720 9133D 1   1.00000     0.00000
 Structure written by MMmdl.
 54 57  0  0  0  0  0  0  0  0  3 V2000
  145.0735  138.1949  152.5612 O   0  0  0  0  0  0  0  0  0  0  0  0
  146.1497  137.6308  152.3682 C   0  0  0  0  0  0  0  0  0  0  0  0
  146.2598  136.4470  151.7524 N   0  0  0  0  0  0  0  0  0  0  0  0
  145.1283  135.6842  151.2372 C   0  0  0  0  0  0  0  0  0  0  0  0
  145.2094  134.1966  151.6208 C   0  0  2  0  0  0  0  0  0  0  0  0
  146.5478  133.5299  151.2364 C   0  0  0  0  0  0  0  0  0  0  0  0
  146.5448  132.0783  151.5324 N   0  3  1  0  0  0  0  0  0  0  0  0
  146.8129  131.6892  152.9344 C   0  0  0  0  0  0  0  0  0  0  0  0
  146.0486  130.3772  153.1712 C   0  0  0  0  0  0  0  0  0  0  0  0
  145.4046  130.0291  151.8249 C   0  0  0  0  0  0  0  0  0  0  0  0
  145.3291  131.3664  151.0863 C   0  0  1  0  0  0  0  0  0  0  0  0
  144.0479  132.1566  151.4389 C   0  0  0  0  0  0  0  0  0  0  0  0
  144.1482  133.4980  150.9802 O   0  0  0  0  0  0  0  0  0  0  0  0
  147.3535  138.1117  152.7219 N   0  0  0  0  0  0  0  0  0  0  0  0
  147.6588  139.3501  153.3571 C   0  0  0  0  0  0  0  0  0  0  0  0
  146.8591  140.5118  153.2026 C   0  0  0  0  0  0  0  0  0  0  0  0
  147.2142  141.6992  153.8728 C   0  0  0  0  0  0  0  0  0  0  0  0
  148.3563  141.7071  154.6942 C   0  0  0  0  0  0  0  0  0  0  0  0
  149.0866  140.5813  154.8347 N   0  3  0  0  0  0  0  0  0  0  0  0
  148.7882  139.4137  154.2132 C   0  0  0  0  0  0  0  0  0  0  0  0
  149.6086  138.2945  154.4381 N   0  0  0  0  0  0  0  0  0  0  0  0
  151.0157  138.4657  154.1165 C   0  0  0  0  0  0  0  0  0  0  0  0
  151.7295  137.2910  154.7891 C   0  0  0  0  0  0  0  0  0  0  0  0
  150.7881  136.8525  155.9175 C   0  0  0  0  0  0  0  0  0  0  0  0
  149.5655  137.7664  155.7916 C   0  0  0  0  0  0  0  0  0  0  0  0
  147.1794  136.0521  151.6207 H   0  0  0  0  0  0  0  0  0  0  0  0
  144.2007  136.1095  151.6236 H   0  0  0  0  0  0  0  0  0  0  0  0
  145.0937  135.7850  150.1513 H   0  0  0  0  0  0  0  0  0  0  0  0
  145.0680  134.1343  152.7012 H   0  0  0  0  0  0  0  0  0  0  0  0
  146.7232  133.6391  150.1658 H   0  0  0  0  0  0  0  0  0  0  0  0
  147.3863  134.0127  151.7399 H   0  0  0  0  0  0  0  0  0  0  0  0
  147.8859  131.5681  153.0852 H   0  0  0  0  0  0  0  0  0  0  0  0
  146.4651  132.4539  153.6300 H   0  0  0  0  0  0  0  0  0  0  0  0
  146.7009  129.5780  153.5253 H   0  0  0  0  0  0  0  0  0  0  0  0
  145.2781  130.5303  153.9279 H   0  0  0  0  0  0  0  0  0  0  0  0
  146.0576  129.3484  151.2770 H   0  0  0  0  0  0  0  0  0  0  0  0
  144.4356  129.5401  151.9311 H   0  0  0  0  0  0  0  0  0  0  0  0
  145.3727  131.2202  150.0062 H   0  0  0  0  0  0  0  0  0  0  0  0
  143.1818  131.6889  150.9701 H   0  0  0  0  0  0  0  0  0  0  0  0
  143.8581  132.1523  152.5136 H   0  0  0  0  0  0  0  0  0  0  0  0
  148.1517  137.5720  152.4208 H   0  0  0  0  0  0  0  0  0  0  0  0
  145.9692  140.5126  152.5924 H   0  0  0  0  0  0  0  0  0  0  0  0
  146.6146  142.5909  153.7614 H   0  0  0  0  0  0  0  0  0  0  0  0
  148.7006  142.5702  155.2454 H   0  0  0  0  0  0  0  0  0  0  0  0
  151.1749  138.4677  153.0377 H   0  0  0  0  0  0  0  0  0  0  0  0
  151.3917  139.4088  154.5151 H   0  0  0  0  0  0  0  0  0  0  0  0
  151.8617  136.4734  154.0793 H   0  0  0  0  0  0  0  0  0  0  0  0
  152.7164  137.5747  155.1561 H   0  0  0  0  0  0  0  0  0  0  0  0
  150.5015  135.8091  155.7801 H   0  0  0  0  0  0  0  0  0  0  0  0
  151.2518  136.9425  156.9003 H   0  0  0  0  0  0  0  0  0  0  0  0
  149.6261  138.5760  156.5203 H   0  0  0  0  0  0  0  0  0  0  0  0
  148.6377  137.2222  155.9706 H   0  0  0  0  0  0  0  0  0  0  0  0
  147.3063  131.6751  151.0051 H   0  0  0  0  0  0  0  0  0  0  0  0
  149.9054  140.6105  155.4425 H   0  0  0  0  0  0  0  0  0  0  0  0
  1  2  2  0  0  0  0
  2  3  1  0  0  0  0
  2 14  1  0  0  0  0
  3  4  1  0  0  0  0
  3 26  1  0  0  0  0
  4  5  1  0  0  0  0
  4 27  1  0  0  0  0
  4 28  1  0  0  0  0
  5 13  1  0  0  0  0
  5  6  1  0  0  0  0
  5 29  1  0  0  0  0
  6  7  1  0  0  0  0
  6 30  1  0  0  0  0
  6 31  1  0  0  0  0
  7 11  1  0  0  0  0
  7  8  1  0  0  0  0
  7 53  1  0  0  0  0
  8  9  1  0  0  0  0
  8 32  1  0  0  0  0
  8 33  1  0  0  0  0
  9 10  1  0  0  0  0
  9 34  1  0  0  0  0
  9 35  1  0  0  0  0
 10 11  1  0  0  0  0
 10 36  1  0  0  0  0
 10 37  1  0  0  0  0
 11 12  1  0  0  0  0
 11 38  1  0  0  0  0
 12 13  1  0  0  0  0
 12 39  1  0  0  0  0
 12 40  1  0  0  0  0
 14 15  1  0  0  0  0
 14 41  1  0  0  0  0
 15 20  1  0  0  0  0
 15 16  2  0  0  0  0
 16 17  1  0  0  0  0
 16 42  1  0  0  0  0
 17 18  2  0  0  0  0
 17 43  1  0  0  0  0
 18 19  1  0  0  0  0
 18 44  1  0  0  0  0
 19 20  2  0  0  0  0
 19 54  1  0  0  0  0
 20 21  1  0  0  0  0
 21 25  1  0  0  0  0
 21 22  1  0  0  0  0
 22 23  1  0  0  0  0
 22 45  1  0  0  0  0
 22 46  1  0  0  0  0
 23 24  1  0  0  0  0
 23 47  1  0  0  0  0
 23 48  1  0  0  0  0
 24 25  1  0  0  0  0
 24 49  1  0  0  0  0
 24 50  1  0  0  0  0
 25 51  1  0  0  0  0
 25 52  1  0  0  0  0
M  CHG  1   7   1
M  CHG  1  19   1
M  END
> <s_m_source_file>
AV-unprocessed.smi

> <i_m_source_file_index>
1830

> <i_lp_mmshare_version>
43012

> <i_f3d_flags>
0

> <s_epik_input>
W0NIMl0xW0NIMl1bQ0gyXVtDQEhdKE4xMilbQ0gyXU9bQ0BASF0oW0NIMl0yKVtDSDJdW05IXUMoPU8pW05IXWMzW2NIXVtjSF1bY0hdbmMzTjRbQ0gyXVtDSDJdW0NIMl1bQ0gyXTQ=

> <s_epik_cmdline>
J2VwaWtfcHl0aG9uJywgJy1waCcsICc3LjAnLCAnLXRuJywgJzgnLCAnLW1hJywgJzIwMCcsICctbWV0YWxfYmluZGluZycsICctaW1hZScsICc8aW5maWxlLm1hZT4nLCAnLW9tYWUnLCAnPG91dGZpbGUubWFlPic=

> <r_lp_tautomer_probability>
0.999994

> <r_epik_Ionization_Penalty>
1.29113

> <r_epik_Ionization_Penalty_Charging>
1.29111

> <r_epik_Ionization_Penalty_Neutral>
1.88144e-05

> <r_epik_State_Penalty>
1.32676

> <r_epik_Charging_Adjusted_Penalty>
2.61787

> <i_epik_Tot_Q>
2

> <i_epik_Tot_abs_Q>
2

> <r_epik_Metal_State_Penalty>
1.40425

> <b_epik_Metal_Only>
0

> <s_lp_Force_Field>
OPLS_2005

> <r_lp_Energy>
78.9005

> <b_lp_Chiralities_Consistent>
1

> <s_lp_Variant>
AV-unprocessed.smi:1830-15

> <Gold.Version>
5.8.1

> <Gold.Id.Protein>
6NUR|6NUR_protein|mol2

> <Gold.PLP.Fitness>
47.4396

> <Gold.PLP.PLP>
-39.1268

> <Gold.PLP.part.hbond>
-3.1603

> <Gold.PLP.part.metal>
0.0000

> <Gold.PLP.part.buried>
-4.5530

> <Gold.PLP.part.nonpolar>
-36.1203

> <Gold.PLP.part.repulsive>
4.4266

> <Gold.PLP.ligand.clash>
0.0000

> <Gold.PLP.ligand.torsion>
0.3455

> <Gold.PLP.Chemscore.Hbond>
2.9920

> <Gold.PLP.Chemscore.CHOScore>
0.0000

> <Gold.PLP.Chemscore.Metal>
0.0000

> <Gold.Chemscore.Hbonds>
donor molecule, donor type, donor heavy atom, donor atom, acceptor molecule, acceptor atom, score
      L1  H     3    26       P1  7948  0.98
      L1  H     7    53       P1 10747  1.00
      L1  H    14    41       P1  7948  1.00

> <Gold.PLP.Chemscore.Internal.Correction>
0.0279

> <Gold.Rescore>
     Score         DG    S(hbond)    S(metal)    S(lipo)     H(rot)  DE(clash)    DE(int)     intcor
     19.70     -24.16       2.86        0.00     109.37       1.43       3.06       1.40       ----

> <Gold.Chemscore.Fitness>
19.7042

> <Gold.Chemscore.DG>
-24.1620

> <Gold.Chemscore.ZeroCoef>
-5.4800

> <Gold.Chemscore.Hbond>
2.8566

> <Gold.Chemscore.Metal>
0.0000

> <Gold.Chemscore.Lipo>
109.3668

> <Gold.Chemscore.Internal_Hbond>
0.0000

> <Gold.Chemscore.DEClash>
3.0624

> <Gold.Chemscore.DEInternal>
1.3954

> <Gold.Chemscore.Rot>
1.4278

> <Gold.Chemscore.Internal.Correction>
   9.000000E+99

> <Gold.Chemscore.Hbonds>
donor molecule, donor type, donor heavy atom, donor atom, acceptor molecule, acceptor atom, score
      L1  H     3    26       P1  7948  0.93
      L1  H     7    53       P1 10747  0.96
      L1  H    14    41       P1  7948  0.99

> <Gold.Chemscore.Hbond.Weighted>
-9.5412

> <Gold.Chemscore.Metal.Weighted>
-0.0000

> <Gold.Chemscore.Lipo.Weighted>
-12.7959

> <Gold.Chemscore.Internal_Hbond.Weighted>
0.0000

> <Gold.Chemscore.DEClash.Weighted>
3.0624

> <Gold.Chemscore.DEInternal.Weighted>
1.3954

> <Gold.Chemscore.Rot.Weighted>
3.6551

> <Gold.Chemscore.Internal.Correction.Weighted>
   9.000000E+99

> <Gold.Protein.RotatedTorsions>
[ 6907 6896 6895 6894 ] final -115.91 input  -60.11 | X-H torsion
[ 7974 7965 7964 7962 ] final   34.75 input  175.53 | X-H torsion
[ 8008 7997 7996 7995 ] final   88.11 input   59.86 | X-H torsion
[ 10167 10162 10161 10158 ] final -108.36 input  -65.29 | X-H torsion
[ 10718 10713 10712 10709 ] final   47.82 input   66.30 | X-H torsion
[ 10763 10752 10751 10750 ] final   38.65 input  -60.55 | X-H torsion
[ 11005 11000 10999 10996 ] final  105.16 input  -57.11 | X-H torsion

> <Gold.Protein.ActiveResidues>
 VAL166  LYS551  ARG553  GLY616  TRP617  ASP618  TYR619  PRO620  LYS621  CYS622 
 ASP623  PHE694  ASN695  SER759  ASP760  ASP761  ALA762  ILE779  LEU786  VAL792 
 PHE793  MET794  SER795  GLU796  ALA797  LYS798  CYS799  TRP800  GLU811  SER814 

> <Gold.Protein.RotatedAtoms>
  150.8014  133.8591  159.3226 H   0  0  0  0  0  0  0  0  0  0  0  0  # atno 6907 bound_to 6896
  151.6402  135.1012  160.0149 H   0  0  0  0  0  0  0  0  0  0  0  0  # atno 6908 bound_to 6896
  152.4102  133.6912  159.6426 H   0  0  0  0  0  0  0  0  0  0  0  0  # atno 6909 bound_to 6896
  146.1331  139.6229  142.9213 H   0  0  0  0  0  0  0  0  0  0  0  0  # atno 7974 bound_to 7965
  155.9837  140.3375  155.6687 H   0  0  0  0  0  0  0  0  0  0  0  0  # atno 8008 bound_to 7997
  155.6515  140.0706  157.2603 H   0  0  0  0  0  0  0  0  0  0  0  0  # atno 8009 bound_to 7997
  154.4199  140.1725  156.1667 H   0  0  0  0  0  0  0  0  0  0  0  0  # atno 8010 bound_to 7997
  140.1670  143.4074  152.1383 H   0  0  0  0  0  0  0  0  0  0  0  0  # atno 10167 bound_to 10162
  157.4624  130.8205  149.7901 H   0  0  0  0  0  0  0  0  0  0  0  0  # atno 10718 bound_to 10713
  152.9994  135.6243  154.2338 H   0  0  0  0  0  0  0  0  0  0  0  0  # atno 10763 bound_to 10752
  154.2080  135.2801  155.2970 H   0  0  0  0  0  0  0  0  0  0  0  0  # atno 10764 bound_to 10752
  154.5630  135.5699  153.7083 H   0  0  0  0  0  0  0  0  0  0  0  0  # atno 10765 bound_to 10752
  139.8799  134.9326  156.5471 H   0  0  0  0  0  0  0  0  0  0  0  0  # atno 11005 bound_to 11000
  145.5217  141.0431  143.2432 LP  0  0  0  0  0  0  0  0  0  0  0  0  # atno 17320 bound_to 7965
  144.7711  139.6733  143.7194 LP  0  0  0  0  0  0  0  0  0  0  0  0  # atno 17321 bound_to 7965
  139.5355  144.7205  151.4908 LP  0  0  0  0  0  0  0  0  0  0  0  0  # atno 17342 bound_to 10162
  140.6607  143.8505  150.6884 LP  0  0  0  0  0  0  0  0  0  0  0  0  # atno 17343 bound_to 10162
  156.0035  130.3867  150.2517 LP  0  0  0  0  0  0  0  0  0  0  0  0  # atno 17370 bound_to 10713
  157.0696  131.0113  151.3195 LP  0  0  0  0  0  0  0  0  0  0  0  0  # atno 17371 bound_to 10713
  140.8267  133.8311  155.8946 LP  0  0  0  0  0  0  0  0  0  0  0  0  # atno 17394 bound_to 11000
  140.9367  134.1953  157.4826 LP  0  0  0  0  0  0  0  0  0  0  0  0  # atno 17395 bound_to 11000

$$$$
