AV-unprocessed.smi:72|AV-procd|sdf|718|dock4
  -GOLD-   2262017 43D 1   1.00000     0.00000
 Structure written by MMmdl.
 28 29  0  0  0  0  0  0  0  0  2 V2000
  153.4311  143.2663  159.6201 N   0  0  0  0  0  0  0  0  0  0  0  0
  152.5882  142.6319  158.9298 C   0  0  0  0  0  0  0  0  0  0  0  0
  151.5674  143.3455  158.1933 N   0  0  0  0  0  0  0  0  0  0  0  0
  150.7149  142.6460  157.5092 C   0  0  0  0  0  0  0  0  0  0  0  0
  150.7617  141.1903  157.4843 N   0  0  0  0  0  0  0  0  0  0  0  0
  149.7649  140.3840  156.6759 C   0  0  1  0  0  0  0  0  0  0  0  0
  148.7574  141.2267  156.2130 O   0  0  0  0  0  0  0  0  0  0  0  0
  148.2193  140.6649  155.0269 C   0  0  1  0  0  0  0  0  0  0  0  0
  147.4585  141.7386  154.2339 C   0  0  0  0  0  0  0  0  0  0  0  0
  148.2476  142.9025  154.1090 O   0  0  0  0  0  0  0  0  0  0  0  0
  149.4688  140.1427  154.3066 C   0  0  2  0  0  0  0  0  0  0  0  0
  149.1287  139.0544  153.4704 O   0  0  0  0  0  0  0  0  0  0  0  0
  150.3835  139.6874  155.4426 C   0  0  1  0  0  0  0  0  0  0  0  0
  151.7254  140.0545  155.1754 O   0  0  0  0  0  0  0  0  0  0  0  0
  151.7918  140.5173  158.1922 C   0  0  0  0  0  0  0  0  0  0  0  0
  151.8406  139.2894  158.1182 O   0  0  0  0  0  0  0  0  0  0  0  0
  152.6843  141.2579  158.9073 N   0  5  0  0  0  0  0  0  0  0  0  0
  149.3014  139.6793  157.3686 H   0  0  0  0  0  0  0  0  0  0  0  0
  147.5658  139.8309  155.2936 H   0  0  0  0  0  0  0  0  0  0  0  0
  149.9325  140.9428  153.7266 H   0  0  0  0  0  0  0  0  0  0  0  0
  150.3302  138.6103  155.6086 H   0  0  0  0  0  0  0  0  0  0  0  0
  153.2869  144.2649  159.5795 H   0  0  0  0  0  0  0  0  0  0  0  0
  149.9225  143.0978  156.9114 H   0  0  0  0  0  0  0  0  0  0  0  0
  147.1626  141.3702  153.2510 H   0  0  0  0  0  0  0  0  0  0  0  0
  146.5470  142.0191  154.7624 H   0  0  0  0  0  0  0  0  0  0  0  0
  148.5764  143.1358  154.9637 H   0  0  0  0  0  0  0  0  0  0  0  0
  149.0371  139.3745  152.5861 H   0  0  0  0  0  0  0  0  0  0  0  0
  152.2898  139.3580  155.4761 H   0  0  0  0  0  0  0  0  0  0  0  0
  1  2  2  0  0  0  0
  1 22  1  0  0  0  0
  2 17  1  0  0  0  0
  2  3  1  0  0  0  0
  3  4  2  0  0  0  0
  4  5  1  0  0  0  0
  4 23  1  0  0  0  0
  5  6  1  0  0  0  0
  5 15  1  0  0  0  0
  6 18  1  0  0  0  0
  6 13  1  0  0  0  0
  6  7  1  0  0  0  0
  7  8  1  0  0  0  0
  8 19  1  0  0  0  0
  8  9  1  0  0  0  0
  8 11  1  0  0  0  0
  9 10  1  0  0  0  0
  9 24  1  0  0  0  0
  9 25  1  0  0  0  0
 10 26  1  0  0  0  0
 11 20  1  0  0  0  0
 11 12  1  0  0  0  0
 11 13  1  0  0  0  0
 12 27  1  0  0  0  0
 13 21  1  0  0  0  0
 13 14  1  0  0  0  0
 14 28  1  0  0  0  0
 15 16  2  0  0  0  0
 15 17  1  0  0  0  0
M  CHG  1  17  -1
M  END
> <s_m_source_file>
AV-unprocessed.smi

> <i_m_source_file_index>
72

> <i_lp_mmshare_version>
43012

> <i_f3d_flags>
0

> <s_epik_input>
W05IMl1jMW5bY0hdbihjKD1PKW4xKVtDQEBIXTJPW0NASF0oW0NIMl1bT0hdKVtDQEBIXShbT0hdKVtDQEhdMltPSF0=

> <s_epik_cmdline>
J2VwaWtfcHl0aG9uJywgJy1waCcsICc3LjAnLCAnLXRuJywgJzgnLCAnLW1hJywgJzIwMCcsICctbWV0YWxfYmluZGluZycsICctaW1hZScsICc8aW5maWxlLm1hZT4nLCAnLW9tYWUnLCAnPG91dGZpbGUubWFlPic=

> <r_lp_tautomer_probability>
7.17554e-07

> <r_epik_Ionization_Penalty>
12.8705

> <r_epik_Ionization_Penalty_Charging>
5.64144

> <r_epik_Ionization_Penalty_Neutral>
7.22905

> <r_epik_State_Penalty>
3.30104

> <r_epik_Charging_Adjusted_Penalty>
8.94249

> <i_epik_Tot_Q>
-1

> <i_epik_Tot_abs_Q>
1

> <r_epik_Metal_State_Penalty>
0.529074

> <b_epik_Metal_Only>
1

> <s_epik_Chemistry_Notes>
This compound contains an acetal/aminal-like group ( X-CH(R)-Y where X, Y are N, S, or O) that may be acid/base labile, releasing an aldehyde.

> <s_lp_Force_Field>
OPLS_2005

> <r_lp_Energy>
37.5202

> <b_lp_Chiralities_Consistent>
1

> <s_lp_Variant>
AV-unprocessed.smi:72-56

> <Gold.Version>
5.8.1

> <Gold.Id.Protein>
6NUR|6NUR_protein|mol2

> <Gold.PLP.Fitness>
38.8196

> <Gold.PLP.PLP>
-27.4417

> <Gold.PLP.part.hbond>
-5.0684

> <Gold.PLP.part.metal>
0.0000

> <Gold.PLP.part.buried>
-4.0659

> <Gold.PLP.part.nonpolar>
-17.9624

> <Gold.PLP.part.repulsive>
0.1574

> <Gold.PLP.ligand.clash>
0.0000

> <Gold.PLP.ligand.torsion>
0.1864

> <Gold.PLP.Chemscore.Hbond>
2.8700

> <Gold.PLP.Chemscore.CHOScore>
1.0000

> <Gold.PLP.Chemscore.Metal>
0.0000

> <Gold.Chemscore.Hbonds>
donor molecule, donor type, donor heavy atom, donor atom, acceptor molecule, acceptor atom, score
      L1  H    10    26       P1  8028  0.56
      L1  H    12    27       P1  7957  1.00
      P1  H  7989  7998       L1    14  0.96
      P1  H  8022  8030       L1    10  0.35
      L1  C     4    23       P1  8028  1.00

> <Gold.PLP.Chemscore.Internal.Correction>
0.1407

> <Gold.Rescore>
     Score         DG    S(hbond)    S(metal)    S(lipo)     H(rot)  DE(clash)    DE(int)     intcor
      6.46      -6.71       2.64        0.00      23.37       4.04       0.00       0.25       ----

> <Gold.Chemscore.Fitness>
6.4557

> <Gold.Chemscore.DG>
-6.7053

> <Gold.Chemscore.ZeroCoef>
-5.4800

> <Gold.Chemscore.Hbond>
2.6448

> <Gold.Chemscore.Metal>
0.0000

> <Gold.Chemscore.Lipo>
23.3738

> <Gold.Chemscore.Internal_Hbond>
0.0000

> <Gold.Chemscore.DEClash>
0.0000

> <Gold.Chemscore.DEInternal>
0.2496

> <Gold.Chemscore.Rot>
4.0403

> <Gold.Chemscore.Internal.Correction>
   9.000000E+99

> <Gold.Chemscore.Hbonds>
donor molecule, donor type, donor heavy atom, donor atom, acceptor molecule, acceptor atom, score
      L1  H    10    26       P1  8028  0.56
      L1  H    12    27       P1  7957  0.97
      P1  H  7989  7998       L1    14  0.46
      P1  H  8022  8030       L1    10  0.01

> <Gold.Chemscore.Hbond.Weighted>
-8.8337

> <Gold.Chemscore.Metal.Weighted>
-0.0000

> <Gold.Chemscore.Lipo.Weighted>
-2.7347

> <Gold.Chemscore.Internal_Hbond.Weighted>
0.0000

> <Gold.Chemscore.DEClash.Weighted>
0.0000

> <Gold.Chemscore.DEInternal.Weighted>
0.2496

> <Gold.Chemscore.Rot.Weighted>
10.3431

> <Gold.Chemscore.Internal.Correction.Weighted>
   9.000000E+99

> <Gold.Protein.RotatedTorsions>
[ 6907 6896 6895 6894 ] final -166.63 input  -60.11 | X-H torsion
[ 7974 7965 7964 7962 ] final -146.50 input  175.53 | X-H torsion
[ 8008 7997 7996 7995 ] final   31.11 input   59.86 | X-H torsion
[ 10167 10162 10161 10158 ] final -142.72 input  -65.29 | X-H torsion
[ 10718 10713 10712 10709 ] final  -25.82 input   66.30 | X-H torsion
[ 10763 10752 10751 10750 ] final -103.11 input  -60.55 | X-H torsion
[ 11005 11000 10999 10996 ] final   -3.97 input  -57.11 | X-H torsion

> <Gold.Protein.ActiveResidues>
 VAL166  LYS551  ARG553  GLY616  TRP617  ASP618  TYR619  PRO620  LYS621  CYS622 
 ASP623  PHE694  ASN695  SER759  ASP760  ASP761  ALA762  ILE779  LEU786  VAL792 
 PHE793  MET794  SER795  GLU796  ALA797  LYS798  CYS799  TRP800  GLU811  SER814 

> <Gold.Protein.RotatedAtoms>
  151.4467  133.3628  159.2789 H   0  0  0  0  0  0  0  0  0  0  0  0  # atno 6907 bound_to 6896
  150.9119  134.8538  159.7442 H   0  0  0  0  0  0  0  0  0  0  0  0  # atno 6908 bound_to 6896
  152.4937  134.4397  159.9591 H   0  0  0  0  0  0  0  0  0  0  0  0  # atno 6909 bound_to 6896
  144.8155  140.5448  143.5613 H   0  0  0  0  0  0  0  0  0  0  0  0  # atno 7974 bound_to 7965
  155.1012  140.3230  155.4546 H   0  0  0  0  0  0  0  0  0  0  0  0  # atno 8008 bound_to 7997
  156.2716  140.2060  156.6085 H   0  0  0  0  0  0  0  0  0  0  0  0  # atno 8009 bound_to 7997
  154.6828  140.0524  157.0270 H   0  0  0  0  0  0  0  0  0  0  0  0  # atno 8010 bound_to 7997
  139.8062  143.7765  152.2661 H   0  0  0  0  0  0  0  0  0  0  0  0  # atno 10167 bound_to 10162
  156.4593  130.4500  149.6939 H   0  0  0  0  0  0  0  0  0  0  0  0  # atno 10718 bound_to 10713
  154.7783  135.4836  153.9791 H   0  0  0  0  0  0  0  0  0  0  0  0  # atno 10763 bound_to 10752
  153.1459  135.6782  153.8963 H   0  0  0  0  0  0  0  0  0  0  0  0  # atno 10764 bound_to 10752
  153.8623  135.3154  155.3416 H   0  0  0  0  0  0  0  0  0  0  0  0  # atno 10765 bound_to 10752
  140.6752  133.9202  155.8519 H   0  0  0  0  0  0  0  0  0  0  0  0  # atno 11005 bound_to 11000
  145.5224  139.1476  143.3545 LP  0  0  0  0  0  0  0  0  0  0  0  0  # atno 17320 bound_to 7965
  146.2458  140.5364  142.8914 LP  0  0  0  0  0  0  0  0  0  0  0  0  # atno 17321 bound_to 7965
  139.7900  144.7413  150.9968 LP  0  0  0  0  0  0  0  0  0  0  0  0  # atno 17342 bound_to 10162
  140.7819  143.4452  151.0493 LP  0  0  0  0  0  0  0  0  0  0  0  0  # atno 17343 bound_to 10162
  156.3733  130.7542  151.2527 LP  0  0  0  0  0  0  0  0  0  0  0  0  # atno 17370 bound_to 10713
  157.7499  131.0317  150.4192 LP  0  0  0  0  0  0  0  0  0  0  0  0  # atno 17371 bound_to 10713
  141.0361  134.0687  157.3957 LP  0  0  0  0  0  0  0  0  0  0  0  0  # atno 17394 bound_to 11000
  139.8969  135.0148  156.7074 LP  0  0  0  0  0  0  0  0  0  0  0  0  # atno 17395 bound_to 11000

$$$$
