AV-unprocessed.smi:100|AV-procd|sdf|910|dock8
  -GOLD-   2262017403D 1   1.00000     0.00000
 Structure written by MMmdl.
 31 33  0  0  0  0  0  0  0  0  1 V2000
  152.4933  139.1656  158.8154 N   0  0  0  0  0  0  0  0  0  0  0  0
  152.1117  139.3713  157.5474 C   0  0  0  0  0  0  0  0  0  0  0  0
  152.8874  138.8779  156.5536 N   0  0  0  0  0  0  0  0  0  0  0  0
  152.5292  139.0708  155.2797 C   0  0  0  0  0  0  0  0  0  0  0  0
  151.4605  139.7131  154.7993 N   0  0  0  0  0  0  0  0  0  0  0  0
  150.6790  140.2048  155.8050 C   0  0  0  0  0  0  0  0  0  0  0  0
  150.9348  140.0803  157.1982 C   0  0  0  0  0  0  0  0  0  0  0  0
  149.9300  140.7099  157.9215 N   0  0  0  0  0  0  0  0  0  0  0  0
  149.1273  141.1768  157.0024 C   0  0  0  0  0  0  0  0  0  0  0  0
  149.5025  140.9131  155.7023 N   0  0  0  0  0  0  0  0  0  0  0  0
  148.8181  141.3073  154.4363 C   0  0  1  0  0  0  0  0  0  0  0  0
  148.5597  140.1363  153.7227 O   0  0  0  0  0  0  0  0  0  0  0  0
  147.2489  140.1968  153.1780 C   0  0  1  0  0  0  0  0  0  0  0  0
  146.7203  138.7903  152.8578 C   0  0  0  0  0  0  0  0  0  0  0  0
  147.4441  138.2366  151.7803 O   0  0  0  0  0  0  0  0  0  0  0  0
  146.4673  140.9320  154.2676 C   0  0  1  0  0  0  0  0  0  0  0  0
  146.1628  140.1032  155.2687 F   0  0  0  0  0  0  0  0  0  0  0  0
  147.4661  141.9676  154.7587 C   0  0  2  0  0  0  0  0  0  0  0  0
  147.2934  143.1896  154.0694 O   0  0  0  0  0  0  0  0  0  0  0  0
  151.9312  139.5237  159.5741 H   0  0  0  0  0  0  0  0  0  0  0  0
  153.3391  138.6495  159.0093 H   0  0  0  0  0  0  0  0  0  0  0  0
  153.1931  138.6491  154.5395 H   0  0  0  0  0  0  0  0  0  0  0  0
  148.2330  141.7305  157.2495 H   0  0  0  0  0  0  0  0  0  0  0  0
  149.5228  141.9480  153.9035 H   0  0  0  0  0  0  0  0  0  0  0  0
  147.2644  140.8169  152.2793 H   0  0  0  0  0  0  0  0  0  0  0  0
  146.7771  138.1367  153.7291 H   0  0  0  0  0  0  0  0  0  0  0  0
  145.6736  138.8422  152.5568 H   0  0  0  0  0  0  0  0  0  0  0  0
  148.0002  137.5492  152.1135 H   0  0  0  0  0  0  0  0  0  0  0  0
  145.5298  141.3601  153.9103 H   0  0  0  0  0  0  0  0  0  0  0  0
  147.3620  142.1597  155.8281 H   0  0  0  0  0  0  0  0  0  0  0  0
  147.8410  143.8432  154.4773 H   0  0  0  0  0  0  0  0  0  0  0  0
  1  2  1  0  0  0  0
  1 20  1  0  0  0  0
  1 21  1  0  0  0  0
  2  7  1  0  0  0  0
  2  3  2  0  0  0  0
  3  4  1  0  0  0  0
  4  5  2  0  0  0  0
  4 22  1  0  0  0  0
  5  6  1  0  0  0  0
  6 10  1  0  0  0  0
  6  7  2  0  0  0  0
  7  8  1  0  0  0  0
  8  9  2  0  0  0  0
  9 10  1  0  0  0  0
  9 23  1  0  0  0  0
 10 11  1  0  0  0  0
 11 18  1  0  0  0  0
 11 12  1  0  0  0  0
 11 24  1  0  0  0  0
 12 13  1  0  0  0  0
 13 14  1  0  0  0  0
 13 16  1  0  0  0  0
 13 25  1  0  0  0  0
 14 15  1  0  0  0  0
 14 26  1  0  0  0  0
 14 27  1  0  0  0  0
 15 28  1  0  0  0  0
 16 17  1  0  0  0  0
 16 18  1  0  0  0  0
 16 29  1  0  0  0  0
 18 19  1  0  0  0  0
 18 30  1  0  0  0  0
 19 31  1  0  0  0  0
M  END
> <s_m_source_file>
AV-unprocessed.smi

> <i_m_source_file_index>
100

> <i_lp_mmshare_version>
43012

> <i_f3d_flags>
0

> <s_epik_input>
bjFbY0hdbmMoW05IMl0pYyhjMTIpbltjSF1uMltDQEBIXTNPW0NAQEhdKFtDSDJdW09IXSlbQ0BIXShGKVtDQEhdM1tPSF0=

> <s_epik_cmdline>
J2VwaWtfcHl0aG9uJywgJy1waCcsICc3LjAnLCAnLXRuJywgJzgnLCAnLW1hJywgJzIwMCcsICctbWV0YWxfYmluZGluZycsICctaW1hZScsICc8aW5maWxlLm1hZT4nLCAnLW9tYWUnLCAnPG91dGZpbGUubWFlPic=

> <r_lp_tautomer_probability>
1

> <r_epik_Ionization_Penalty>
0.000750324

> <r_epik_Ionization_Penalty_Charging>
0

> <r_epik_Ionization_Penalty_Neutral>
0.000750324

> <r_epik_State_Penalty>
-0

> <r_epik_Charging_Adjusted_Penalty>
0

> <i_epik_Tot_Q>
0

> <i_epik_Tot_abs_Q>
0

> <r_epik_Metal_State_Penalty>
-0

> <b_epik_Metal_Only>
0

> <s_epik_Chemistry_Notes>
This compound contains an acetal/aminal-like group ( X-CH(R)-Y where X, Y are N, S, or O) that may be acid/base labile, releasing an aldehyde.

> <s_lp_Force_Field>
OPLS_2005

> <r_lp_Energy>
27.3407

> <b_lp_Chiralities_Consistent>
1

> <s_lp_Variant>
AV-unprocessed.smi:100-14

> <Gold.Version>
5.8.1

> <Gold.Id.Protein>
6NUR|6NUR_protein|mol2

> <Gold.PLP.Fitness>
43.0773

> <Gold.PLP.PLP>
-29.9988

> <Gold.PLP.part.hbond>
-6.8694

> <Gold.PLP.part.metal>
0.0000

> <Gold.PLP.part.buried>
-3.2446

> <Gold.PLP.part.nonpolar>
-22.4940

> <Gold.PLP.part.repulsive>
2.5846

> <Gold.PLP.ligand.clash>
0.0000

> <Gold.PLP.ligand.torsion>
0.0636

> <Gold.PLP.Chemscore.Hbond>
4.3965

> <Gold.PLP.Chemscore.CHOScore>
0.0000

> <Gold.PLP.Chemscore.Metal>
0.0000

> <Gold.Chemscore.Hbonds>
donor molecule, donor type, donor heavy atom, donor atom, acceptor molecule, acceptor atom, score
      L1  H    15    28       P1  7948  0.98
      L1  H    19    31       P1  8028  1.00
      P1  H  7954  7966       L1    15  0.43
      P1  H  7989  7998       L1     5  1.00
      P1  H  7997  8010       L1     3  0.95

> <Gold.PLP.Chemscore.Internal.Correction>
0.0163

> <Gold.Rescore>
     Score         DG    S(hbond)    S(metal)    S(lipo)     H(rot)  DE(clash)    DE(int)     intcor
      8.50      -9.14       2.55        0.00      28.39       3.19       0.60       0.04       ----

> <Gold.Chemscore.Fitness>
8.5020

> <Gold.Chemscore.DG>
-9.1417

> <Gold.Chemscore.ZeroCoef>
-5.4800

> <Gold.Chemscore.Hbond>
2.5470

> <Gold.Chemscore.Metal>
0.0000

> <Gold.Chemscore.Lipo>
28.3877

> <Gold.Chemscore.Internal_Hbond>
0.0000

> <Gold.Chemscore.DEClash>
0.6021

> <Gold.Chemscore.DEInternal>
0.0377

> <Gold.Chemscore.Rot>
3.1901

> <Gold.Chemscore.Internal.Correction>
   9.000000E+99

> <Gold.Chemscore.Hbonds>
donor molecule, donor type, donor heavy atom, donor atom, acceptor molecule, acceptor atom, score
      L1  H    15    28       P1  7948  0.93
      L1  H    19    31       P1  8028  0.35
      P1  H  7954  7966       L1    15  0.01
      P1  H  7989  7998       L1     5  0.80
      P1  H  7997  8010       L1     3  0.06

> <Gold.Chemscore.Hbond.Weighted>
-8.5071

> <Gold.Chemscore.Metal.Weighted>
-0.0000

> <Gold.Chemscore.Lipo.Weighted>
-3.3214

> <Gold.Chemscore.Internal_Hbond.Weighted>
0.0000

> <Gold.Chemscore.DEClash.Weighted>
0.6021

> <Gold.Chemscore.DEInternal.Weighted>
0.0377

> <Gold.Chemscore.Rot.Weighted>
8.1667

> <Gold.Chemscore.Internal.Correction.Weighted>
   9.000000E+99

> <Gold.Protein.RotatedTorsions>
[ 6907 6896 6895 6894 ] final   40.05 input  -60.11 | X-H torsion
[ 7974 7965 7964 7962 ] final   75.22 input  175.53 | X-H torsion
[ 8008 7997 7996 7995 ] final   59.60 input   59.86 | X-H torsion
[ 10167 10162 10161 10158 ] final   13.83 input  -65.29 | X-H torsion
[ 10718 10713 10712 10709 ] final  -10.80 input   66.30 | X-H torsion
[ 10763 10752 10751 10750 ] final  112.77 input  -60.55 | X-H torsion
[ 11005 11000 10999 10996 ] final   16.68 input  -57.11 | X-H torsion

> <Gold.Protein.ActiveResidues>
 VAL166  LYS551  ARG553  GLY616  TRP617  ASP618  TYR619  PRO620  LYS621  CYS622 
 ASP623  PHE694  ASN695  SER759  ASP760  ASP761  ALA762  ILE779  LEU786  VAL792 
 PHE793  MET794  SER795  GLU796  ALA797  LYS798  CYS799  TRP800  GLU811  SER814 

> <Gold.Protein.RotatedAtoms>
  152.1775  134.8782  160.0528 H   0  0  0  0  0  0  0  0  0  0  0  0  # atno 6907 bound_to 6896
  151.9719  133.3723  159.4082 H   0  0  0  0  0  0  0  0  0  0  0  0  # atno 6908 bound_to 6896
  150.6912  134.4054  159.5182 H   0  0  0  0  0  0  0  0  0  0  0  0  # atno 6909 bound_to 6896
  145.7183  139.2639  143.1611 H   0  0  0  0  0  0  0  0  0  0  0  0  # atno 7974 bound_to 7965
  155.5687  140.3489  155.4510 H   0  0  0  0  0  0  0  0  0  0  0  0  # atno 8008 bound_to 7997
  156.0460  140.1307  157.0129 H   0  0  0  0  0  0  0  0  0  0  0  0  # atno 8009 bound_to 7997
  154.4413  140.1014  156.6291 H   0  0  0  0  0  0  0  0  0  0  0  0  # atno 8010 bound_to 7997
  140.5976  143.8669  150.6934 H   0  0  0  0  0  0  0  0  0  0  0  0  # atno 10167 bound_to 10162
  156.6682  130.5001  149.6008 H   0  0  0  0  0  0  0  0  0  0  0  0  # atno 10718 bound_to 10713
  153.4827  135.3676  155.2450 H   0  0  0  0  0  0  0  0  0  0  0  0  # atno 10763 bound_to 10752
  154.8754  135.3958  154.3681 H   0  0  0  0  0  0  0  0  0  0  0  0  # atno 10764 bound_to 10752
  153.4287  135.7082  153.6310 H   0  0  0  0  0  0  0  0  0  0  0  0  # atno 10765 bound_to 10752
  140.4444  134.1289  155.7694 H   0  0  0  0  0  0  0  0  0  0  0  0  # atno 11005 bound_to 11000
  146.0649  140.7931  142.9716 LP  0  0  0  0  0  0  0  0  0  0  0  0  # atno 17320 bound_to 7965
  144.6923  140.3253  143.7225 LP  0  0  0  0  0  0  0  0  0  0  0  0  # atno 17321 bound_to 7965
  140.2207  143.3811  152.1645 LP  0  0  0  0  0  0  0  0  0  0  0  0  # atno 17342 bound_to 10162
  139.5269  144.7113  151.5197 LP  0  0  0  0  0  0  0  0  0  0  0  0  # atno 17343 bound_to 10162
  156.1959  130.6589  151.1113 LP  0  0  0  0  0  0  0  0  0  0  0  0  # atno 17370 bound_to 10713
  157.7086  131.0745  150.6580 LP  0  0  0  0  0  0  0  0  0  0  0  0  # atno 17371 bound_to 10713
  141.1692  133.8643  157.1624 LP  0  0  0  0  0  0  0  0  0  0  0  0  # atno 17394 bound_to 11000
  140.0048  135.0013  157.0269 LP  0  0  0  0  0  0  0  0  0  0  0  0  # atno 17395 bound_to 11000

$$$$
