#       Name:                AV-unprocessed.smi:2275
#       Creating user name   scv26
#       Creation time:       Fri Mar 27 12:38:24 2020


#       File generated by GOLD software.
#

@<TRIPOS>MOLECULE
AV-unprocessed.smi:2275
    45    46     1
SMALL
NO_CHARGES


@<TRIPOS>ATOM
      1 ****        -2.5371   5.5054   0.3567 C.3            1 S1                 0.0000
      2 ****        -1.9702   4.0990   0.2770 C.2            1 S1                 0.0000
      3 ****        -1.6522   3.6484  -1.0076 N.2            1 S1                 0.0000
      4 ****        -1.1704   2.4601  -1.1732 C.2            1 S1                 0.0000
      5 ****        -0.9515   1.5952  -0.0887 N.am           1 S1                 0.0000
      6 ****        -0.4033   0.2680  -0.4139 C.3            1 S1                 0.0000
      7 ****         1.1250   0.1962  -0.1981 C.3            1 S1                 0.0000
      8 ****         1.8087   0.7383  -1.3104 O.3            1 S1                 0.0000
      9 ****         1.6362  -1.2394   0.0130 C.3            1 S1                 0.0000
     10 ****         1.0590  -2.1093  -0.9538 O.3            1 S1                 0.0000
     11 ****         1.3980  -3.4448  -0.9173 C.ar           1 S1                 0.0000
     12 ****         0.8242  -4.2767  -1.9011 C.ar           1 S1                 0.0000
     13 ****         1.1147  -5.6540  -1.9404 C.ar           1 S1                 0.0000
     14 ****         1.9875  -6.2158  -0.9905 C.ar           1 S1                 0.0000
     15 ****         2.5664  -5.3981  -0.0023 C.ar           1 S1                 0.0000
     16 ****         2.2750  -4.0205   0.0371 C.ar           1 S1                 0.0000
     17 ****        -1.2193   1.9608   1.1984 C.2            1 S1                 0.0000
     18 ****        -1.0025   1.2013   2.1446 O.2            1 S1                 0.0000
     19 ****        -1.7762   3.3123   1.3706 C.2            1 S1                 0.0000
     20 ****        -2.1059   3.7485   2.7927 C.3            1 S1                 0.0000
     21 ****        -3.5435   5.4879   0.7759 H              1 S1                 0.0000
     22 ****        -2.5935   5.9677  -0.6297 H              1 S1                 0.0000
     23 ****        -1.9078   6.1365   0.9847 H              1 S1                 0.0000
     24 ****        -0.9033   2.0620  -2.1537 H              1 S1                 0.0000
     25 ****        -0.8908  -0.4706   0.2254 H              1 S1                 0.0000
     26 ****        -0.6609  -0.0452  -1.4280 H              1 S1                 0.0000
     27 ****         1.4126   0.7819   0.6759 H              1 S1                 0.0000
     28 ****         1.5712   1.6487  -1.3959 H              1 S1                 0.0000
     29 ****         2.7265  -1.2657  -0.0333 H              1 S1                 0.0000
     30 ****         1.3395  -1.5717   1.0090 H              1 S1                 0.0000
     31 ****         0.1540  -3.8534  -2.6348 H              1 S1                 0.0000
     32 ****         0.6679  -6.2786  -2.6997 H              1 S1                 0.0000
     33 ****         2.2117  -7.2720  -1.0198 H              1 S1                 0.0000
     34 ****         3.2363  -5.8278   0.7280 H              1 S1                 0.0000
     35 ****         2.7377  -3.4266   0.8106 H              1 S1                 0.0000
     36 ****        -1.2048   3.7423   3.4066 H              1 S1                 0.0000
     37 ****        -2.8251   3.0616   3.2401 H              1 S1                 0.0000
     38 ****        -2.5330   4.7483   2.8472 H              1 S1                 0.0000
     39 ****        -1.7972   4.2444  -1.7974 LP             1 S1                 0.0000
     40 ****         1.5490   0.2431  -2.1395 LP             1 S1                 0.0000
     41 ****         2.7957   0.6594  -1.1704 LP             1 S1                 0.0000
     42 ****         1.3177  -1.7629  -1.8555 LP             1 S1                 0.0000
     43 ****         0.0663  -2.0530  -0.8474 LP             1 S1                 0.0000
     44 ****        -0.6211   0.2919   1.9785 LP             1 S1                 0.0000
     45 ****        -1.2080   1.4945   3.0783 LP             1 S1                 0.0000
@<TRIPOS>BOND
    1    1    2 1     
    2    1   21 1     
    3    1   22 1     
    4    1   23 1     
    5    2   19 2     
    6    2    3 1     
    7    3    4 2     
    8    4    5 1     
    9    4   24 1     
   10    5    6 1     
   11    5   17 am    
   12    6    7 1     
   13    6   25 1     
   14    6   26 1     
   15    7    8 1     
   16    7    9 1     
   17    7   27 1     
   18    8   28 1     
   19    9   10 1     
   20    9   29 1     
   21    9   30 1     
   22   10   11 1     
   23   11   16 ar    
   24   11   12 ar    
   25   12   13 ar    
   26   12   31 1     
   27   13   14 ar    
   28   13   32 1     
   29   14   15 ar    
   30   14   33 1     
   31   15   16 ar    
   32   15   34 1     
   33   16   35 1     
   34   17   18 2     
   35   17   19 1     
   36   19   20 1     
   37   20   36 1     
   38   20   37 1     
   39   20   38 1     
   40    3   39 1     
   41    8   40 1     
   42    8   41 1     
   43   10   42 1     
   44   10   43 1     
   45   18   44 1     
   46   18   45 1     
@<TRIPOS>SUBSTRUCTURE
      1 S1             1
@<TRIPOS>SET
LONE_PAIRS      STATIC     ATOMS    <user>   **** ""
7 39 40 41 42 43 44 45
DONOR_HYDROGENS      STATIC     ATOMS    <user>   **** ""
1 28
ATOM$BLUE        STATIC     ATOMS    COLORGROUP SYSTEM
7 39 40 41 42 43 44 45
ATOM$RED        STATIC     ATOMS    COLORGROUP SYSTEM
1 28
