AV-unprocessed.smi:101|AV-procd|sdf|915|dock1
  -GOLD-   2262017413D 1   1.00000     0.00000
 Structure written by MMmdl.
 44 46  0  0  0  0  0  0  0  0  1 V2000
  148.3505  135.2301  155.7707 C   0  0  0  0  0  0  0  0  0  0  0  0
  149.2619  136.4119  155.4829 C   0  0  0  0  0  0  0  0  0  0  0  0
  148.8084  137.5625  154.9222 C   0  0  0  0  0  0  0  0  0  0  0  0
  149.6150  138.6644  154.6615 N   0  0  0  0  0  0  0  0  0  0  0  0
  149.0760  139.9431  154.0516 C   0  0  2  0  0  0  0  0  0  0  0  0
  149.0586  140.9520  155.0214 O   0  0  0  0  0  0  0  0  0  0  0  0
  147.7511  141.5005  155.1464 C   0  0  2  0  0  0  0  0  0  0  0  0
  147.5102  141.9966  156.5812 C   0  0  0  0  0  0  0  0  0  0  0  0
  148.7416  142.3787  157.1734 O   0  0  0  0  0  0  0  0  0  0  0  0
  148.7735  143.0008  158.3647 C   0  0  0  0  0  0  0  0  0  0  0  0
  147.8212  143.0352  159.1464 O   0  0  0  0  0  0  0  0  0  0  0  0
  150.0874  143.6531  158.6326 C   0  0  0  0  0  0  0  0  0  0  0  0
  151.1914  143.3585  157.7994 C   0  0  0  0  0  0  0  0  0  0  0  0
  152.4455  143.9552  158.0336 C   0  0  0  0  0  0  0  0  0  0  0  0
  152.6098  144.8565  159.1014 C   0  0  0  0  0  0  0  0  0  0  0  0
  151.5179  145.1626  159.9337 C   0  0  0  0  0  0  0  0  0  0  0  0
  150.2637  144.5650  159.7031 C   0  0  0  0  0  0  0  0  0  0  0  0
  146.8139  140.3959  154.6565 C   0  0  1  0  0  0  0  0  0  0  0  0
  145.5605  140.8847  154.2175 O   0  0  0  0  0  0  0  0  0  0  0  0
  147.6309  139.7423  153.5502 C   0  0  1  0  0  0  0  0  0  0  0  0
  147.4435  140.3548  152.2871 O   0  0  0  0  0  0  0  0  0  0  0  0
  150.9851  138.6062  154.9909 C   0  0  0  0  0  0  0  0  0  0  0  0
  151.7568  139.5440  154.7919 O   0  0  0  0  0  0  0  0  0  0  0  0
  151.4532  137.4228  155.5581 N   0  0  0  0  0  0  0  0  0  0  0  0
  150.6797  136.2932  155.8340 C   0  0  0  0  0  0  0  0  0  0  0  0
  151.2090  135.3029  156.3356 O   0  0  0  0  0  0  0  0  0  0  0  0
  152.4346  137.3779  155.7913 H   0  0  0  0  0  0  0  0  0  0  0  0
  147.3133  135.4438  155.5111 H   0  0  0  0  0  0  0  0  0  0  0  0
  148.3798  134.9739  156.8303 H   0  0  0  0  0  0  0  0  0  0  0  0
  148.6664  134.3572  155.1986 H   0  0  0  0  0  0  0  0  0  0  0  0
  147.7588  137.6072  154.6779 H   0  0  0  0  0  0  0  0  0  0  0  0
  149.7894  140.2084  153.2682 H   0  0  0  0  0  0  0  0  0  0  0  0
  147.7009  142.3477  154.4602 H   0  0  0  0  0  0  0  0  0  0  0  0
  146.8103  142.8333  156.5652 H   0  0  0  0  0  0  0  0  0  0  0  0
  147.0606  141.2058  157.1823 H   0  0  0  0  0  0  0  0  0  0  0  0
  151.0888  142.6690  156.9736 H   0  0  0  0  0  0  0  0  0  0  0  0
  153.2822  143.7204  157.3924 H   0  0  0  0  0  0  0  0  0  0  0  0
  153.5719  145.3135  159.2804 H   0  0  0  0  0  0  0  0  0  0  0  0
  151.6422  145.8547  160.7535 H   0  0  0  0  0  0  0  0  0  0  0  0
  149.4483  144.8192  160.3644 H   0  0  0  0  0  0  0  0  0  0  0  0
  146.6486  139.6558  155.4400 H   0  0  0  0  0  0  0  0  0  0  0  0
  145.5860  141.8294  154.2288 H   0  0  0  0  0  0  0  0  0  0  0  0
  147.3841  138.6846  153.4497 H   0  0  0  0  0  0  0  0  0  0  0  0
  148.2216  140.2154  151.7689 H   0  0  0  0  0  0  0  0  0  0  0  0
  1  2  1  0  0  0  0
  1 28  1  0  0  0  0
  1 29  1  0  0  0  0
  1 30  1  0  0  0  0
  2 25  1  0  0  0  0
  2  3  2  0  0  0  0
  3  4  1  0  0  0  0
  3 31  1  0  0  0  0
  4  5  1  0  0  0  0
  4 22  1  0  0  0  0
  5 20  1  0  0  0  0
  5  6  1  0  0  0  0
  5 32  1  0  0  0  0
  6  7  1  0  0  0  0
  7  8  1  0  0  0  0
  7 18  1  0  0  0  0
  7 33  1  0  0  0  0
  8  9  1  0  0  0  0
  8 34  1  0  0  0  0
  8 35  1  0  0  0  0
  9 10  1  0  0  0  0
 10 11  2  0  0  0  0
 10 12  1  0  0  0  0
 12 17  1  0  0  0  0
 12 13  2  0  0  0  0
 13 14  1  0  0  0  0
 13 36  1  0  0  0  0
 14 15  2  0  0  0  0
 14 37  1  0  0  0  0
 15 16  1  0  0  0  0
 15 38  1  0  0  0  0
 16 17  2  0  0  0  0
 16 39  1  0  0  0  0
 17 40  1  0  0  0  0
 18 19  1  0  0  0  0
 18 20  1  0  0  0  0
 18 41  1  0  0  0  0
 19 42  1  0  0  0  0
 20 21  1  0  0  0  0
 20 43  1  0  0  0  0
 21 44  1  0  0  0  0
 22 23  2  0  0  0  0
 22 24  1  0  0  0  0
 24 27  1  0  0  0  0
 24 25  1  0  0  0  0
 25 26  2  0  0  0  0
M  END
> <s_m_source_file>
AV-unprocessed.smi

> <i_m_source_file_index>
101

> <i_lp_mmshare_version>
43012

> <i_f3d_flags>
0

> <s_epik_input>
Tz1jMVtuSF1jKD1PKW4oW2NIXWMxW0NIM10pW0NAQEhdMk9bQ0BIXShbQ0BASF0oW09IXSlbQ0BIXTJbT0hdKVtDSDJdT0MoPU8pYzNbY0hdW2NIXVtjSF1bY0hdW2NIXTM=

> <s_epik_cmdline>
J2VwaWtfcHl0aG9uJywgJy1waCcsICc3LjAnLCAnLXRuJywgJzgnLCAnLW1hJywgJzIwMCcsICctbWV0YWxfYmluZGluZycsICctaW1hZScsICc8aW5maWxlLm1hZT4nLCAnLW9tYWUnLCAnPG91dGZpbGUubWFlPic=

> <r_lp_tautomer_probability>
0.999537

> <r_epik_Ionization_Penalty>
0.00263537

> <r_epik_Ionization_Penalty_Charging>
0.00263428

> <r_epik_Ionization_Penalty_Neutral>
1.09111e-06

> <r_epik_State_Penalty>
0.00183335

> <r_epik_Charging_Adjusted_Penalty>
0.00446763

> <i_epik_Tot_Q>
0

> <i_epik_Tot_abs_Q>
0

> <r_epik_Metal_State_Penalty>
1.00528

> <b_epik_Metal_Only>
0

> <s_epik_Chemistry_Notes>
This compound has an ester and may undergo hydrolysis at high or low pH. This compound contains an acetal/aminal-like group ( X-CH(R)-Y where X, Y are N, S, or O) that may be acid/base labile, releasing an aldehyde.

> <s_lp_Force_Field>
OPLS_2005

> <r_lp_Energy>
35.2309

> <b_lp_Chiralities_Consistent>
1

> <s_lp_Variant>
AV-unprocessed.smi:101-3

> <Gold.Version>
5.8.1

> <Gold.Id.Protein>
6NUR|6NUR_protein|mol2

> <Gold.PLP.Fitness>
51.1535

> <Gold.PLP.PLP>
-42.5059

> <Gold.PLP.part.hbond>
-5.4509

> <Gold.PLP.part.metal>
0.0000

> <Gold.PLP.part.buried>
-7.2937

> <Gold.PLP.part.nonpolar>
-32.4681

> <Gold.PLP.part.repulsive>
1.5006

> <Gold.PLP.ligand.clash>
0.0000

> <Gold.PLP.ligand.torsion>
0.9005

> <Gold.PLP.Chemscore.Hbond>
3.4366

> <Gold.PLP.Chemscore.CHOScore>
0.0000

> <Gold.PLP.Chemscore.Metal>
0.0000

> <Gold.Chemscore.Hbonds>
donor molecule, donor type, donor heavy atom, donor atom, acceptor molecule, acceptor atom, score
      L1  H    21    44       P1  7957  0.91
      P1  H  7989  7998       L1    23  1.00
      P1  H 10752 10764       L1    26  0.17

> <Gold.PLP.Chemscore.Internal.Correction>
0.1389

> <Gold.Rescore>
     Score         DG    S(hbond)    S(metal)    S(lipo)     H(rot)  DE(clash)    DE(int)     intcor
     15.32     -17.63       3.22        0.00      84.57       3.32       0.15       2.16       ----

> <Gold.Chemscore.Fitness>
15.3226

> <Gold.Chemscore.DG>
-17.6300

> <Gold.Chemscore.ZeroCoef>
-5.4800

> <Gold.Chemscore.Hbond>
3.2179

> <Gold.Chemscore.Metal>
0.0000

> <Gold.Chemscore.Lipo>
84.5660

> <Gold.Chemscore.Internal_Hbond>
0.0000

> <Gold.Chemscore.DEClash>
0.1486

> <Gold.Chemscore.DEInternal>
2.1588

> <Gold.Chemscore.Rot>
3.3172

> <Gold.Chemscore.Internal.Correction>
   9.000000E+99

> <Gold.Chemscore.Hbonds>
donor molecule, donor type, donor heavy atom, donor atom, acceptor molecule, acceptor atom, score
      L1  H    21    44       P1  7957  0.89
      P1  H  6933  6944       L1    11  0.02
      P1  H  7989  7998       L1    23  0.97
      P1  H 10752 10764       L1    26  0.01

> <Gold.Chemscore.Hbond.Weighted>
-10.7478

> <Gold.Chemscore.Metal.Weighted>
-0.0000

> <Gold.Chemscore.Lipo.Weighted>
-9.8942

> <Gold.Chemscore.Internal_Hbond.Weighted>
0.0000

> <Gold.Chemscore.DEClash.Weighted>
0.1486

> <Gold.Chemscore.DEInternal.Weighted>
2.1588

> <Gold.Chemscore.Rot.Weighted>
8.4920

> <Gold.Chemscore.Internal.Correction.Weighted>
   9.000000E+99

> <Gold.Protein.RotatedTorsions>
[ 6907 6896 6895 6894 ] final  -52.10 input  -60.11 | X-H torsion
[ 7974 7965 7964 7962 ] final  -14.63 input  175.53 | X-H torsion
[ 8008 7997 7996 7995 ] final   30.75 input   59.86 | X-H torsion
[ 10167 10162 10161 10158 ] final  119.36 input  -65.29 | X-H torsion
[ 10718 10713 10712 10709 ] final  -82.04 input   66.30 | X-H torsion
[ 10763 10752 10751 10750 ] final  -38.65 input  -60.55 | X-H torsion
[ 11005 11000 10999 10996 ] final -148.81 input  -57.11 | X-H torsion

> <Gold.Protein.ActiveResidues>
 VAL166  LYS551  ARG553  GLY616  TRP617  ASP618  TYR619  PRO620  LYS621  CYS622 
 ASP623  PHE694  ASN695  SER759  ASP760  ASP761  ALA762  ILE779  LEU786  VAL792 
 PHE793  MET794  SER795  GLU796  ALA797  LYS798  CYS799  TRP800  GLU811  SER814 

> <Gold.Protein.RotatedAtoms>
  150.8549  134.7885  159.7037 H   0  0  0  0  0  0  0  0  0  0  0  0  # atno 6907 bound_to 6896
  152.4603  134.5195  159.9788 H   0  0  0  0  0  0  0  0  0  0  0  0  # atno 6908 bound_to 6896
  151.5310  133.3411  159.2954 H   0  0  0  0  0  0  0  0  0  0  0  0  # atno 6909 bound_to 6896
  146.2066  140.3376  142.8405 H   0  0  0  0  0  0  0  0  0  0  0  0  # atno 7974 bound_to 7965
  155.0955  140.3224  155.4561 H   0  0  0  0  0  0  0  0  0  0  0  0  # atno 8008 bound_to 7997
  156.2731  140.2070  156.6028 H   0  0  0  0  0  0  0  0  0  0  0  0  # atno 8009 bound_to 7997
  154.6870  140.0520  157.0312 H   0  0  0  0  0  0  0  0  0  0  0  0  # atno 8010 bound_to 7997
  139.6051  144.7068  151.2971 H   0  0  0  0  0  0  0  0  0  0  0  0  # atno 10167 bound_to 10162
  156.0040  130.4622  150.4044 H   0  0  0  0  0  0  0  0  0  0  0  0  # atno 10718 bound_to 10713
  153.9164  135.6787  153.4749 H   0  0  0  0  0  0  0  0  0  0  0  0  # atno 10763 bound_to 10752
  153.1051  135.4809  154.8934 H   0  0  0  0  0  0  0  0  0  0  0  0  # atno 10764 bound_to 10752
  154.7501  135.3182  154.8530 H   0  0  0  0  0  0  0  0  0  0  0  0  # atno 10765 bound_to 10752
  140.7574  134.3338  157.5111 H   0  0  0  0  0  0  0  0  0  0  0  0  # atno 11005 bound_to 11000
  144.8808  140.7397  143.5988 LP  0  0  0  0  0  0  0  0  0  0  0  0  # atno 17320 bound_to 7965
  145.3297  139.1763  143.4544 LP  0  0  0  0  0  0  0  0  0  0  0  0  # atno 17321 bound_to 7965
  140.7279  143.6950  150.7891 LP  0  0  0  0  0  0  0  0  0  0  0  0  # atno 17342 bound_to 10162
  140.0534  143.5226  152.2662 LP  0  0  0  0  0  0  0  0  0  0  0  0  # atno 17343 bound_to 10162
  157.2111  131.0460  151.2598 LP  0  0  0  0  0  0  0  0  0  0  0  0  # atno 17370 bound_to 10713
  157.3888  130.7270  149.6682 LP  0  0  0  0  0  0  0  0  0  0  0  0  # atno 17371 bound_to 10713
  139.8777  134.9180  156.3192 LP  0  0  0  0  0  0  0  0  0  0  0  0  # atno 17394 bound_to 11000
  140.9695  133.7336  156.0514 LP  0  0  0  0  0  0  0  0  0  0  0  0  # atno 17395 bound_to 11000

$$$$
