AV-unprocessed.smi:3315|AV-procd|sdf|12752|dock3
  -GOLD-   2272019 93D 1   1.00000     0.00000
 Structure written by MMmdl.
 37 38  0  0  0  0  0  0  0  0  1 V2000
  143.7538  133.0850  150.6123 C   0  0  0  0  0  0  0  0  0  0  0  0
  144.3520  133.2720  151.8886 O   0  0  0  0  0  0  0  0  0  0  0  0
  144.1316  134.5383  152.5124 C   0  0  2  0  0  0  0  0  0  0  0  0
  142.6441  134.6982  152.8636 C   0  0  0  0  0  0  0  0  0  0  0  0
  144.8224  135.6878  151.7558 C   0  0  0  0  0  0  0  0  0  0  0  0
  145.2644  136.2049  153.1230 C   0  0  2  0  0  0  0  0  0  0  0  0
  146.6010  136.7899  153.0986 N   0  0  0  0  0  0  0  0  0  0  0  0
  146.9515  137.9045  153.7544 C   0  0  0  0  0  0  0  0  0  0  0  0
  146.1714  138.5586  154.4472 O   0  0  0  0  0  0  0  0  0  0  0  0
  148.2477  138.1997  153.5569 N   0  0  0  0  0  0  0  0  0  0  0  0
  148.9741  139.2988  154.0823 C   0  0  0  0  0  0  0  0  0  0  0  0
  148.4131  140.6037  154.0949 C   0  0  0  0  0  0  0  0  0  0  0  0
  149.4024  141.3532  154.6654 C   0  0  0  0  0  0  0  0  0  0  0  0
  150.4751  140.5775  154.9755 O   0  0  0  0  0  0  0  0  0  0  0  0
  150.1937  139.2589  154.5979 N   0  0  0  0  0  0  0  0  0  0  0  0
  145.2005  134.7433  153.6354 C   0  0  0  0  0  0  0  0  0  0  0  0
  144.7276  134.5650  155.0817 C   0  0  0  0  0  0  0  0  0  0  0  0
  146.4885  133.9049  153.5080 C   0  0  0  0  0  0  0  0  0  0  0  0
  144.0774  132.1273  150.2049 H   0  0  0  0  0  0  0  0  0  0  0  0
  144.0478  133.8603  149.9045 H   0  0  0  0  0  0  0  0  0  0  0  0
  142.6660  133.0587  150.6722 H   0  0  0  0  0  0  0  0  0  0  0  0
  142.4618  135.5892  153.4638 H   0  0  0  0  0  0  0  0  0  0  0  0
  142.2768  133.8422  153.4302 H   0  0  0  0  0  0  0  0  0  0  0  0
  142.0238  134.7976  151.9733 H   0  0  0  0  0  0  0  0  0  0  0  0
  145.6485  135.3616  151.1214 H   0  0  0  0  0  0  0  0  0  0  0  0
  144.1464  136.3535  151.2186 H   0  0  0  0  0  0  0  0  0  0  0  0
  144.5076  136.8503  153.5752 H   0  0  0  0  0  0  0  0  0  0  0  0
  147.3017  136.3111  152.5520 H   0  0  0  0  0  0  0  0  0  0  0  0
  148.7707  137.5719  152.9648 H   0  0  0  0  0  0  0  0  0  0  0  0
  147.4474  140.9376  153.7459 H   0  0  0  0  0  0  0  0  0  0  0  0
  149.4913  142.4020  154.9076 H   0  0  0  0  0  0  0  0  0  0  0  0
  145.5162  134.8105  155.7939 H   0  0  0  0  0  0  0  0  0  0  0  0
  144.4171  133.5379  155.2752 H   0  0  0  0  0  0  0  0  0  0  0  0
  143.8829  135.2111  155.3188 H   0  0  0  0  0  0  0  0  0  0  0  0
  147.2593  134.2417  154.2019 H   0  0  0  0  0  0  0  0  0  0  0  0
  146.9172  133.9536  152.5069 H   0  0  0  0  0  0  0  0  0  0  0  0
  146.3004  132.8524  153.7227 H   0  0  0  0  0  0  0  0  0  0  0  0
  1  2  1  0  0  0  0
  1 19  1  0  0  0  0
  1 20  1  0  0  0  0
  1 21  1  0  0  0  0
  2  3  1  0  0  0  0
  3 16  1  0  0  0  0
  3  4  1  0  0  0  0
  3  5  1  0  0  0  0
  4 22  1  0  0  0  0
  4 23  1  0  0  0  0
  4 24  1  0  0  0  0
  5  6  1  0  0  0  0
  5 25  1  0  0  0  0
  5 26  1  0  0  0  0
  6  7  1  0  0  0  0
  6 16  1  0  0  0  0
  6 27  1  0  0  0  0
  7  8  1  0  0  0  0
  7 28  1  0  0  0  0
  8  9  2  0  0  0  0
  8 10  1  0  0  0  0
 10 11  1  0  0  0  0
 10 29  1  0  0  0  0
 11 15  2  0  0  0  0
 11 12  1  0  0  0  0
 12 13  2  0  0  0  0
 12 30  1  0  0  0  0
 13 14  1  0  0  0  0
 13 31  1  0  0  0  0
 14 15  1  0  0  0  0
 16 17  1  0  0  0  0
 16 18  1  0  0  0  0
 17 32  1  0  0  0  0
 17 33  1  0  0  0  0
 17 34  1  0  0  0  0
 18 35  1  0  0  0  0
 18 36  1  0  0  0  0
 18 37  1  0  0  0  0
M  END
> <s_m_source_file>
AV-unprocessed.smi

> <i_m_source_file_index>
3315

> <i_lp_mmshare_version>
43012

> <i_f3d_flags>
0

> <s_epik_input>
W0NIM11PW0NAQF0xKFtDSDNdKVtDSDJdW0NASF0oQzEoW0NIM10pW0NIM10pW05IXUMoPU8pW05IXWMyW2NIXVtjSF1vbjI=

> <s_epik_cmdline>
J2VwaWtfcHl0aG9uJywgJy1waCcsICc3LjAnLCAnLXRuJywgJzgnLCAnLW1hJywgJzIwMCcsICctbWV0YWxfYmluZGluZycsICctaW1hZScsICc8aW5maWxlLm1hZT4nLCAnLW9tYWUnLCAnPG91dGZpbGUubWFlPic=

> <r_lp_tautomer_probability>
1

> <r_epik_Ionization_Penalty>
2.28875e-05

> <r_epik_Ionization_Penalty_Charging>
0

> <r_epik_Ionization_Penalty_Neutral>
2.28875e-05

> <r_epik_State_Penalty>
-0

> <r_epik_Charging_Adjusted_Penalty>
0

> <i_epik_Tot_Q>
0

> <i_epik_Tot_abs_Q>
0

> <r_epik_Metal_State_Penalty>
-0

> <b_epik_Metal_Only>
0

> <s_lp_Force_Field>
OPLS_2005

> <r_lp_Energy>
21.6117

> <b_lp_Chiralities_Consistent>
1

> <s_lp_Variant>
AV-unprocessed.smi:3315-4

> <Gold.Version>
5.8.1

> <Gold.Id.Protein>
6NUR|6NUR_protein|mol2

> <Gold.PLP.Fitness>
33.4167

> <Gold.PLP.PLP>
-23.1837

> <Gold.PLP.part.hbond>
-3.0074

> <Gold.PLP.part.metal>
0.0000

> <Gold.PLP.part.buried>
-3.1914

> <Gold.PLP.part.nonpolar>
-17.8526

> <Gold.PLP.part.repulsive>
0.4534

> <Gold.PLP.ligand.clash>
0.0000

> <Gold.PLP.ligand.torsion>
0.5943

> <Gold.PLP.Chemscore.Hbond>
2.6832

> <Gold.PLP.Chemscore.CHOScore>
1.0000

> <Gold.PLP.Chemscore.Metal>
0.0000

> <Gold.Chemscore.Hbonds>
donor molecule, donor type, donor heavy atom, donor atom, acceptor molecule, acceptor atom, score
      L1  H     7    28       P1  7948  1.00
      L1  H    10    29       P1  7948  1.00
      P1  H  7989  7998       L1    14  0.67
      L1  C    13    31       P1  8028  1.00

> <Gold.PLP.Chemscore.Internal.Correction>
0.3720

> <Gold.Rescore>
     Score         DG    S(hbond)    S(metal)    S(lipo)     H(rot)  DE(clash)    DE(int)     intcor
     13.77     -14.47       1.97        0.00      49.05       1.30       0.00       0.70       ----

> <Gold.Chemscore.Fitness>
13.7732

> <Gold.Chemscore.DG>
-14.4692

> <Gold.Chemscore.ZeroCoef>
-5.4800

> <Gold.Chemscore.Hbond>
1.9723

> <Gold.Chemscore.Metal>
0.0000

> <Gold.Chemscore.Lipo>
49.0539

> <Gold.Chemscore.Internal_Hbond>
0.0000

> <Gold.Chemscore.DEClash>
0.0004

> <Gold.Chemscore.DEInternal>
0.6956

> <Gold.Chemscore.Rot>
1.3038

> <Gold.Chemscore.Internal.Correction>
   9.000000E+99

> <Gold.Chemscore.Hbonds>
donor molecule, donor type, donor heavy atom, donor atom, acceptor molecule, acceptor atom, score
      L1  H     7    28       P1  7948  0.95
      L1  H    10    29       P1  7948  0.99
      P1  H  7989  7998       L1    14  0.02

> <Gold.Chemscore.Hbond.Weighted>
-6.5876

> <Gold.Chemscore.Metal.Weighted>
-0.0000

> <Gold.Chemscore.Lipo.Weighted>
-5.7393

> <Gold.Chemscore.Internal_Hbond.Weighted>
0.0000

> <Gold.Chemscore.DEClash.Weighted>
0.0004

> <Gold.Chemscore.DEInternal.Weighted>
0.6956

> <Gold.Chemscore.Rot.Weighted>
3.3377

> <Gold.Chemscore.Internal.Correction.Weighted>
   9.000000E+99

> <Gold.Protein.RotatedTorsions>
[ 6907 6896 6895 6894 ] final   12.76 input  -60.11 | X-H torsion
[ 7974 7965 7964 7962 ] final   -7.74 input  175.53 | X-H torsion
[ 8008 7997 7996 7995 ] final  -71.74 input   59.86 | X-H torsion
[ 10167 10162 10161 10158 ] final -154.75 input  -65.29 | X-H torsion
[ 10718 10713 10712 10709 ] final  124.66 input   66.30 | X-H torsion
[ 10763 10752 10751 10750 ] final   -8.81 input  -60.55 | X-H torsion
[ 11005 11000 10999 10996 ] final  135.67 input  -57.11 | X-H torsion

> <Gold.Protein.ActiveResidues>
 VAL166  LYS551  ARG553  GLY616  TRP617  ASP618  TYR619  PRO620  LYS621  CYS622 
 ASP623  PHE694  ASN695  SER759  ASP760  ASP761  ALA762  ILE779  LEU786  VAL792 
 PHE793  MET794  SER795  GLU796  ALA797  LYS798  CYS799  TRP800  GLU811  SER814 

> <Gold.Protein.RotatedAtoms>
  151.7754  135.0775  160.0365 H   0  0  0  0  0  0  0  0  0  0  0  0  # atno 6907 bound_to 6896
  152.3259  133.5900  159.5785 H   0  0  0  0  0  0  0  0  0  0  0  0  # atno 6908 bound_to 6896
  150.7395  133.9856  159.3632 H   0  0  0  0  0  0  0  0  0  0  0  0  # atno 6909 bound_to 6896
  146.2299  140.2364  142.8342 H   0  0  0  0  0  0  0  0  0  0  0  0  # atno 7974 bound_to 7965
  154.5111  140.0810  156.7992 H   0  0  0  0  0  0  0  0  0  0  0  0  # atno 8008 bound_to 7997
  155.3782  140.3426  155.4227 H   0  0  0  0  0  0  0  0  0  0  0  0  # atno 8009 bound_to 7997
  156.1574  140.1577  156.8656 H   0  0  0  0  0  0  0  0  0  0  0  0  # atno 8010 bound_to 7997
  139.6988  143.9298  152.2419 H   0  0  0  0  0  0  0  0  0  0  0  0  # atno 10167 bound_to 10162
  157.5567  131.1091  150.8609 H   0  0  0  0  0  0  0  0  0  0  0  0  # atno 10718 bound_to 10713
  153.4458  135.7014  153.6140 H   0  0  0  0  0  0  0  0  0  0  0  0  # atno 10763 bound_to 10752
  153.4496  135.3761  155.2276 H   0  0  0  0  0  0  0  0  0  0  0  0  # atno 10764 bound_to 10752
  154.8728  135.3993  154.3863 H   0  0  0  0  0  0  0  0  0  0  0  0  # atno 10765 bound_to 10752
  139.9995  134.9484  157.0040 H   0  0  0  0  0  0  0  0  0  0  0  0  # atno 11005 bound_to 11000
  144.9518  140.8186  143.5567 LP  0  0  0  0  0  0  0  0  0  0  0  0  # atno 17320 bound_to 7965
  145.2325  139.2108  143.5035 LP  0  0  0  0  0  0  0  0  0  0  0  0  # atno 17321 bound_to 7965
  139.9134  144.6842  150.8537 LP  0  0  0  0  0  0  0  0  0  0  0  0  # atno 17342 bound_to 10162
  140.7704  143.3426  151.2176 LP  0  0  0  0  0  0  0  0  0  0  0  0  # atno 17343 bound_to 10162
  156.9119  130.5283  149.5280 LP  0  0  0  0  0  0  0  0  0  0  0  0  # atno 17370 bound_to 10713
  156.0625  130.5675  150.9222 LP  0  0  0  0  0  0  0  0  0  0  0  0  # atno 17371 bound_to 10713
  140.4754  134.1343  155.7209 LP  0  0  0  0  0  0  0  0  0  0  0  0  # atno 17394 bound_to 11000
  141.1631  133.8755  157.1792 LP  0  0  0  0  0  0  0  0  0  0  0  0  # atno 17395 bound_to 11000

$$$$
