AV-unprocessed.smi:1673|AV-procd|sdf|6712|dock3
  -GOLD-   22720 7453D 1   1.00000     0.00000
 Structure written by MMmdl.
 39 40  0  0  0  0  0  0  0  0  1 V2000
  146.4718  142.8412  153.7310 C   0  0  0  0  0  0  0  0  0  0  0  0
  147.4606  141.7100  153.6741 C   0  0  0  0  0  0  0  0  0  0  0  0
  147.2713  140.7333  152.7991 N   0  0  0  0  0  0  0  0  0  0  0  0
  148.3694  139.8672  152.9169 O   0  0  0  0  0  0  0  0  0  0  0  0
  149.2066  140.3463  153.8736 C   0  0  0  0  0  0  0  0  0  0  0  0
  150.4528  139.5698  154.1346 C   0  0  0  0  0  0  0  0  0  0  0  0
  148.6673  141.4830  154.3995 C   0  0  0  0  0  0  0  0  0  0  0  0
  149.2756  142.2745  155.4057 N   0  0  0  0  0  0  0  0  0  0  0  0
  149.9159  141.8313  156.4981 C   0  0  0  0  0  0  0  0  0  0  0  0
  150.1087  140.6456  156.7656 O   0  0  0  0  0  0  0  0  0  0  0  0
  150.3397  142.8491  157.2613 N   0  0  0  0  0  0  0  0  0  0  0  0
  151.0803  142.7279  158.5166 C   0  0  1  0  0  0  0  0  0  0  0  0
  152.1289  141.6084  158.3649 C   0  0  0  0  0  0  0  0  0  0  0  0
  152.9888  141.4590  159.6281 C   0  0  0  0  0  0  0  0  0  0  0  0
  153.6605  142.7888  159.9951 C   0  0  0  0  0  0  0  0  0  0  0  0
  152.6179  143.9042  160.1639 C   0  0  0  0  0  0  0  0  0  0  0  0
  151.7468  144.0744  158.9024 C   0  0  2  0  0  0  0  0  0  0  0  0
  150.7281  145.2109  159.1036 C   0  0  0  0  0  0  0  0  0  0  0  0
  146.9615  143.7812  153.9857 H   0  0  0  0  0  0  0  0  0  0  0  0
  145.7003  142.6498  154.4767 H   0  0  0  0  0  0  0  0  0  0  0  0
  145.9747  142.9852  152.7712 H   0  0  0  0  0  0  0  0  0  0  0  0
  151.0998  140.0906  154.8405 H   0  0  0  0  0  0  0  0  0  0  0  0
  151.0133  139.4185  153.2121 H   0  0  0  0  0  0  0  0  0  0  0  0
  150.2166  138.5910  154.5521 H   0  0  0  0  0  0  0  0  0  0  0  0
  149.2970  143.2692  155.2360 H   0  0  0  0  0  0  0  0  0  0  0  0
  150.1333  143.7872  156.9511 H   0  0  0  0  0  0  0  0  0  0  0  0
  150.4037  142.4371  159.3226 H   0  0  0  0  0  0  0  0  0  0  0  0
  151.6340  140.6610  158.1472 H   0  0  0  0  0  0  0  0  0  0  0  0
  152.7765  141.8205  157.5127 H   0  0  0  0  0  0  0  0  0  0  0  0
  152.3664  141.1206  160.4576 H   0  0  0  0  0  0  0  0  0  0  0  0
  153.7459  140.6895  159.4744 H   0  0  0  0  0  0  0  0  0  0  0  0
  154.2349  142.6737  160.9147 H   0  0  0  0  0  0  0  0  0  0  0  0
  154.3732  143.0671  159.2176 H   0  0  0  0  0  0  0  0  0  0  0  0
  151.9823  143.6781  161.0215 H   0  0  0  0  0  0  0  0  0  0  0  0
  153.1250  144.8413  160.3965 H   0  0  0  0  0  0  0  0  0  0  0  0
  152.4070  144.3706  158.0856 H   0  0  0  0  0  0  0  0  0  0  0  0
  150.0048  144.9597  159.8801 H   0  0  0  0  0  0  0  0  0  0  0  0
  150.1746  145.4238  158.1890 H   0  0  0  0  0  0  0  0  0  0  0  0
  151.2257  146.1349  159.3992 H   0  0  0  0  0  0  0  0  0  0  0  0
  1  2  1  0  0  0  0
  1 19  1  0  0  0  0
  1 20  1  0  0  0  0
  1 21  1  0  0  0  0
  2  7  1  0  0  0  0
  2  3  2  0  0  0  0
  3  4  1  0  0  0  0
  4  5  1  0  0  0  0
  5  6  1  0  0  0  0
  5  7  2  0  0  0  0
  6 22  1  0  0  0  0
  6 23  1  0  0  0  0
  6 24  1  0  0  0  0
  7  8  1  0  0  0  0
  8  9  1  0  0  0  0
  8 25  1  0  0  0  0
  9 10  2  0  0  0  0
  9 11  1  0  0  0  0
 11 12  1  0  0  0  0
 11 26  1  0  0  0  0
 12 17  1  0  0  0  0
 12 13  1  0  0  0  0
 12 27  1  0  0  0  0
 13 14  1  0  0  0  0
 13 28  1  0  0  0  0
 13 29  1  0  0  0  0
 14 15  1  0  0  0  0
 14 30  1  0  0  0  0
 14 31  1  0  0  0  0
 15 16  1  0  0  0  0
 15 32  1  0  0  0  0
 15 33  1  0  0  0  0
 16 17  1  0  0  0  0
 16 34  1  0  0  0  0
 16 35  1  0  0  0  0
 17 18  1  0  0  0  0
 17 36  1  0  0  0  0
 18 37  1  0  0  0  0
 18 38  1  0  0  0  0
 18 39  1  0  0  0  0
M  END
> <s_m_source_file>
AV-unprocessed.smi

> <i_m_source_file_index>
1673

> <i_lp_mmshare_version>
43012

> <i_f3d_flags>
0

> <s_epik_input>
W0NIM11jMW5vYyhbQ0gzXSljMVtOSF1DKD1PKVtOSF1bQ0BASF0yW0NIMl1bQ0gyXVtDSDJdW0NIMl1bQ0BIXTJbQ0gzXQ==

> <s_epik_cmdline>
J2VwaWtfcHl0aG9uJywgJy1waCcsICc3LjAnLCAnLXRuJywgJzgnLCAnLW1hJywgJzIwMCcsICctbWV0YWxfYmluZGluZycsICctaW1hZScsICc8aW5maWxlLm1hZT4nLCAnLW9tYWUnLCAnPG91dGZpbGUubWFlPic=

> <r_lp_tautomer_probability>
1

> <r_epik_Ionization_Penalty>
4.01865e-05

> <r_epik_Ionization_Penalty_Charging>
0

> <r_epik_Ionization_Penalty_Neutral>
4.01865e-05

> <r_epik_State_Penalty>
-0

> <r_epik_Charging_Adjusted_Penalty>
0

> <i_epik_Tot_Q>
0

> <i_epik_Tot_abs_Q>
0

> <r_epik_Metal_State_Penalty>
-0

> <b_epik_Metal_Only>
0

> <s_lp_Force_Field>
OPLS_2005

> <r_lp_Energy>
12.0286

> <b_lp_Chiralities_Consistent>
1

> <s_lp_Variant>
AV-unprocessed.smi:1673-4

> <Gold.Version>
5.8.1

> <Gold.Id.Protein>
6NUR|6NUR_protein|mol2

> <Gold.PLP.Fitness>
44.0146

> <Gold.PLP.PLP>
-39.4911

> <Gold.PLP.part.hbond>
-1.7843

> <Gold.PLP.part.metal>
0.0000

> <Gold.PLP.part.buried>
-5.9974

> <Gold.PLP.part.nonpolar>
-33.9526

> <Gold.PLP.part.repulsive>
2.3537

> <Gold.PLP.ligand.clash>
0.0000

> <Gold.PLP.ligand.torsion>
0.5462

> <Gold.PLP.Chemscore.Hbond>
1.7840

> <Gold.PLP.Chemscore.CHOScore>
0.0000

> <Gold.PLP.Chemscore.Metal>
0.0000

> <Gold.Chemscore.Hbonds>
donor molecule, donor type, donor heavy atom, donor atom, acceptor molecule, acceptor atom, score
      L1  H     8    25       P1  8028  1.00
      L1  H    11    26       P1  8028  0.80

> <Gold.PLP.Chemscore.Internal.Correction>
0.2639

> <Gold.Rescore>
     Score         DG    S(hbond)    S(metal)    S(lipo)     H(rot)  DE(clash)    DE(int)     intcor
     17.61     -21.37       1.91        0.00     103.22       1.00       0.10       3.66       ----

> <Gold.Chemscore.Fitness>
17.6122

> <Gold.Chemscore.DG>
-21.3666

> <Gold.Chemscore.ZeroCoef>
-5.4800

> <Gold.Chemscore.Hbond>
1.9073

> <Gold.Chemscore.Metal>
0.0000

> <Gold.Chemscore.Lipo>
103.2153

> <Gold.Chemscore.Internal_Hbond>
0.0000

> <Gold.Chemscore.DEClash>
0.0994

> <Gold.Chemscore.DEInternal>
3.6551

> <Gold.Chemscore.Rot>
1.0000

> <Gold.Chemscore.Internal.Correction>
   9.000000E+99

> <Gold.Chemscore.Hbonds>
donor molecule, donor type, donor heavy atom, donor atom, acceptor molecule, acceptor atom, score
      L1  H     8    25       P1  8028  0.91
      L1  H    11    26       P1  8028  0.75

> <Gold.Chemscore.Hbond.Weighted>
-6.3704

> <Gold.Chemscore.Metal.Weighted>
-0.0000

> <Gold.Chemscore.Lipo.Weighted>
-12.0762

> <Gold.Chemscore.Internal_Hbond.Weighted>
0.0000

> <Gold.Chemscore.DEClash.Weighted>
0.0994

> <Gold.Chemscore.DEInternal.Weighted>
3.6551

> <Gold.Chemscore.Rot.Weighted>
2.5600

> <Gold.Chemscore.Internal.Correction.Weighted>
   9.000000E+99

> <Gold.Protein.RotatedTorsions>
[ 6907 6896 6895 6894 ] final  -49.90 input  -60.11 | X-H torsion
[ 7974 7965 7964 7962 ] final  -88.87 input  175.53 | X-H torsion
[ 8008 7997 7996 7995 ] final  -16.03 input   59.86 | X-H torsion
[ 10167 10162 10161 10158 ] final  -26.00 input  -65.29 | X-H torsion
[ 10718 10713 10712 10709 ] final  -54.20 input   66.30 | X-H torsion
[ 10763 10752 10751 10750 ] final    1.82 input  -60.55 | X-H torsion
[ 11005 11000 10999 10996 ] final   73.02 input  -57.11 | X-H torsion

> <Gold.Protein.ActiveResidues>
 VAL166  LYS551  ARG553  GLY616  TRP617  ASP618  TYR619  PRO620  LYS621  CYS622 
 ASP623  PHE694  ASN695  SER759  ASP760  ASP761  ALA762  ILE779  LEU786  VAL792 
 PHE793  MET794  SER795  GLU796  ALA797  LYS798  CYS799  TRP800  GLU811  SER814 

> <Gold.Protein.RotatedAtoms>
  150.8760  134.8143  159.7189 H   0  0  0  0  0  0  0  0  0  0  0  0  # atno 6907 bound_to 6896
  152.4746  134.4871  159.9693 H   0  0  0  0  0  0  0  0  0  0  0  0  # atno 6908 bound_to 6896
  151.4953  133.3477  159.2895 H   0  0  0  0  0  0  0  0  0  0  0  0  # atno 6909 bound_to 6896
  145.4473  140.9560  143.2041 H   0  0  0  0  0  0  0  0  0  0  0  0  # atno 7974 bound_to 7965
  154.5084  140.2180  155.9205 H   0  0  0  0  0  0  0  0  0  0  0  0  # atno 8008 bound_to 7997
  156.1522  140.3159  155.8633 H   0  0  0  0  0  0  0  0  0  0  0  0  # atno 8009 bound_to 7997
  155.3916  140.0478  157.3031 H   0  0  0  0  0  0  0  0  0  0  0  0  # atno 8010 bound_to 7997
  140.7284  143.4216  151.0942 H   0  0  0  0  0  0  0  0  0  0  0  0  # atno 10167 bound_to 10162
  156.1471  130.4152  150.0006 H   0  0  0  0  0  0  0  0  0  0  0  0  # atno 10718 bound_to 10713
  153.3032  135.6957  153.7184 H   0  0  0  0  0  0  0  0  0  0  0  0  # atno 10763 bound_to 10752
  153.6090  135.3448  155.2973 H   0  0  0  0  0  0  0  0  0  0  0  0  # atno 10764 bound_to 10752
  154.8556  135.4359  154.2149 H   0  0  0  0  0  0  0  0  0  0  0  0  # atno 10765 bound_to 10752
  139.9461  134.7311  156.0976 H   0  0  0  0  0  0  0  0  0  0  0  0  # atno 11005 bound_to 11000
  144.8083  139.6009  143.7041 LP  0  0  0  0  0  0  0  0  0  0  0  0  # atno 17320 bound_to 7965
  146.2523  139.6227  142.9418 LP  0  0  0  0  0  0  0  0  0  0  0  0  # atno 17321 bound_to 7965
  139.7862  143.8284  152.3145 LP  0  0  0  0  0  0  0  0  0  0  0  0  # atno 17342 bound_to 10162
  139.8252  144.7278  150.9521 LP  0  0  0  0  0  0  0  0  0  0  0  0  # atno 17343 bound_to 10162
  156.7875  130.9244  151.3646 LP  0  0  0  0  0  0  0  0  0  0  0  0  # atno 17370 bound_to 10713
  157.6625  130.8979  149.9861 LP  0  0  0  0  0  0  0  0  0  0  0  0  # atno 17371 bound_to 10713
  141.1112  133.6643  156.2982 LP  0  0  0  0  0  0  0  0  0  0  0  0  # atno 17394 bound_to 11000
  140.5831  134.5725  157.5484 LP  0  0  0  0  0  0  0  0  0  0  0  0  # atno 17395 bound_to 11000

$$$$
