AV-unprocessed.smi:2855|AV-procd|sdf|10978|dock1
  -GOLD-   2272015433D 1   1.00000     0.00000
 Structure written by MMmdl.
 47 48  0  0  0  0  0  0  0  0  1 V2000
  152.5487  139.2911  154.6764 C   0  0  0  0  0  0  0  0  0  0  0  0
  151.1174  139.0654  155.1840 C   0  0  1  0  0  0  0  0  0  0  0  0
  150.4865  140.3772  155.6937 C   0  0  0  0  0  0  0  0  0  0  0  0
  149.0244  140.1749  156.1351 C   0  0  0  0  0  0  0  0  0  0  0  0
  148.1449  139.5984  154.9966 C   0  0  1  0  0  0  0  0  0  0  0  0
  147.9033  140.6164  153.8259 C   0  0  0  0  0  0  0  0  0  0  0  0
  147.3054  141.9494  154.3202 C   0  0  0  0  0  0  0  0  0  0  0  0
  146.9971  140.0780  152.7008 C   0  0  0  0  0  0  0  0  0  0  0  0
  148.7868  138.2292  154.6135 C   0  0  1  0  0  0  0  0  0  0  0  0
  148.0009  137.4262  153.6815 N   0  0  0  0  0  0  0  0  0  0  0  0
  146.7638  136.9570  153.9068 C   0  0  0  0  0  0  0  0  0  0  0  0
  146.1524  137.1475  154.9593 O   0  0  0  0  0  0  0  0  0  0  0  0
  146.1282  136.1717  152.7502 C   0  0  0  0  0  0  0  0  0  0  0  0
  144.8061  135.6187  153.0788 N   0  0  0  0  0  0  0  0  0  0  0  0
  143.6582  136.3503  152.8080 C   0  0  0  0  0  0  0  0  0  0  0  0
  142.4099  135.9150  153.1009 C   0  0  0  0  0  0  0  0  0  0  0  0
  142.2103  134.6168  153.7357 C   0  0  0  0  0  0  0  0  0  0  0  0
  141.1209  134.1361  154.0402 O   0  0  0  0  0  0  0  0  0  0  0  0
  143.3889  133.9116  153.9934 N   0  0  0  0  0  0  0  0  0  0  0  0
  144.6786  134.3547  153.6954 C   0  0  0  0  0  0  0  0  0  0  0  0
  145.6517  133.6542  153.9714 O   0  0  0  0  0  0  0  0  0  0  0  0
  150.2318  138.4038  154.1083 C   0  0  0  0  0  0  0  0  0  0  0  0
  143.3007  133.0081  154.4353 H   0  0  0  0  0  0  0  0  0  0  0  0
  152.5652  139.9806  153.8317 H   0  0  0  0  0  0  0  0  0  0  0  0
  153.0026  138.3548  154.3512 H   0  0  0  0  0  0  0  0  0  0  0  0
  153.1809  139.7098  155.4601 H   0  0  0  0  0  0  0  0  0  0  0  0
  151.1761  138.3786  156.0297 H   0  0  0  0  0  0  0  0  0  0  0  0
  151.0673  140.7608  156.5332 H   0  0  0  0  0  0  0  0  0  0  0  0
  150.5375  141.1424  154.9188 H   0  0  0  0  0  0  0  0  0  0  0  0
  149.0090  139.4846  156.9796 H   0  0  0  0  0  0  0  0  0  0  0  0
  148.6154  141.1016  156.5340 H   0  0  0  0  0  0  0  0  0  0  0  0
  147.1682  139.3936  155.4372 H   0  0  0  0  0  0  0  0  0  0  0  0
  148.8601  140.8613  153.3661 H   0  0  0  0  0  0  0  0  0  0  0  0
  146.3931  141.7867  154.8949 H   0  0  0  0  0  0  0  0  0  0  0  0
  147.0569  142.6068  153.4866 H   0  0  0  0  0  0  0  0  0  0  0  0
  148.0054  142.5060  154.9421 H   0  0  0  0  0  0  0  0  0  0  0  0
  146.0790  139.6452  153.0994 H   0  0  0  0  0  0  0  0  0  0  0  0
  147.5001  139.3247  152.0975 H   0  0  0  0  0  0  0  0  0  0  0  0
  146.7118  140.8686  152.0064 H   0  0  0  0  0  0  0  0  0  0  0  0
  148.8531  137.6307  155.5249 H   0  0  0  0  0  0  0  0  0  0  0  0
  148.4267  137.2232  152.7888 H   0  0  0  0  0  0  0  0  0  0  0  0
  146.0454  136.8363  151.8887 H   0  0  0  0  0  0  0  0  0  0  0  0
  146.8120  135.3805  152.4366 H   0  0  0  0  0  0  0  0  0  0  0  0
  143.7591  137.3208  152.3431 H   0  0  0  0  0  0  0  0  0  0  0  0
  141.5543  136.5318  152.8664 H   0  0  0  0  0  0  0  0  0  0  0  0
  150.2447  138.9922  153.1908 H   0  0  0  0  0  0  0  0  0  0  0  0
  150.6496  137.4303  153.8491 H   0  0  0  0  0  0  0  0  0  0  0  0
  1  2  1  0  0  0  0
  1 24  1  0  0  0  0
  1 25  1  0  0  0  0
  1 26  1  0  0  0  0
  2 22  1  0  0  0  0
  2  3  1  0  0  0  0
  2 27  1  0  0  0  0
  3  4  1  0  0  0  0
  3 28  1  0  0  0  0
  3 29  1  0  0  0  0
  4  5  1  0  0  0  0
  4 30  1  0  0  0  0
  4 31  1  0  0  0  0
  5  6  1  0  0  0  0
  5  9  1  0  0  0  0
  5 32  1  0  0  0  0
  6  7  1  0  0  0  0
  6  8  1  0  0  0  0
  6 33  1  0  0  0  0
  7 34  1  0  0  0  0
  7 35  1  0  0  0  0
  7 36  1  0  0  0  0
  8 37  1  0  0  0  0
  8 38  1  0  0  0  0
  8 39  1  0  0  0  0
  9 10  1  0  0  0  0
  9 22  1  0  0  0  0
  9 40  1  0  0  0  0
 10 11  1  0  0  0  0
 10 41  1  0  0  0  0
 11 12  2  0  0  0  0
 11 13  1  0  0  0  0
 13 14  1  0  0  0  0
 13 42  1  0  0  0  0
 13 43  1  0  0  0  0
 14 20  1  0  0  0  0
 14 15  1  0  0  0  0
 15 16  2  0  0  0  0
 15 44  1  0  0  0  0
 16 17  1  0  0  0  0
 16 45  1  0  0  0  0
 17 18  2  0  0  0  0
 17 19  1  0  0  0  0
 19 23  1  0  0  0  0
 19 20  1  0  0  0  0
 20 21  2  0  0  0  0
 22 46  1  0  0  0  0
 22 47  1  0  0  0  0
M  END
> <s_m_source_file>
AV-unprocessed.smi

> <i_m_source_file_index>
2855

> <i_lp_mmshare_version>
43012

> <i_f3d_flags>
0

> <s_epik_input>
W0NIM11bQ0BASF0xW0NIMl1bQ0gyXVtDQEBIXShbQ0hdKFtDSDNdKVtDSDNdKVtDQEhdKFtDSDJdMSlbTkhdQyg9TylbQ0gyXW4yW2NIXVtjSF1jKD1PKVtuSF1jMj1P

> <s_epik_cmdline>
J2VwaWtfcHl0aG9uJywgJy1waCcsICc3LjAnLCAnLXRuJywgJzgnLCAnLW1hJywgJzIwMCcsICctbWV0YWxfYmluZGluZycsICctaW1hZScsICc8aW5maWxlLm1hZT4nLCAnLW9tYWUnLCAnPG91dGZpbGUubWFlPic=

> <r_lp_tautomer_probability>
0.999537

> <r_epik_Ionization_Penalty>
0.00306256

> <r_epik_Ionization_Penalty_Charging>
0.00306254

> <r_epik_Ionization_Penalty_Neutral>
2.0223e-08

> <r_epik_State_Penalty>
0.0021533

> <r_epik_Charging_Adjusted_Penalty>
0.00521583

> <i_epik_Tot_Q>
0

> <i_epik_Tot_abs_Q>
0

> <r_epik_Metal_State_Penalty>
0.362116

> <b_epik_Metal_Only>
0

> <s_lp_Force_Field>
OPLS_2005

> <r_lp_Energy>
18.9466

> <b_lp_Chiralities_Consistent>
1

> <s_lp_Variant>
AV-unprocessed.smi:2855-2

> <Gold.Version>
5.8.1

> <Gold.Id.Protein>
6NUR|6NUR_protein|mol2

> <Gold.PLP.Fitness>
47.7358

> <Gold.PLP.PLP>
-33.5168

> <Gold.PLP.part.hbond>
-3.8653

> <Gold.PLP.part.metal>
0.0000

> <Gold.PLP.part.buried>
-1.4527

> <Gold.PLP.part.nonpolar>
-28.1704

> <Gold.PLP.part.repulsive>
0.3474

> <Gold.PLP.ligand.clash>
0.0000

> <Gold.PLP.ligand.torsion>
0.4297

> <Gold.PLP.Chemscore.Hbond>
3.0000

> <Gold.PLP.Chemscore.CHOScore>
2.0000

> <Gold.PLP.Chemscore.Metal>
0.0000

> <Gold.Chemscore.Hbonds>
donor molecule, donor type, donor heavy atom, donor atom, acceptor molecule, acceptor atom, score
      L1  H    10    41       P1  7948  0.79
      L1  H    19    23       P1 10957  0.78
      P1  H 10995 11001       L1    18  0.01
      P1  H 11000 11005       L1    18  0.85
      L1  C    15    44       P1 10171  0.27

> <Gold.PLP.Chemscore.Internal.Correction>
0.0784

> <Gold.Rescore>
     Score         DG    S(hbond)    S(metal)    S(lipo)     H(rot)  DE(clash)    DE(int)     intcor
     18.44     -19.56       2.95        0.00      76.69       1.85       0.50       0.62       ----

> <Gold.Chemscore.Fitness>
18.4372

> <Gold.Chemscore.DG>
-19.5561

> <Gold.Chemscore.ZeroCoef>
-5.4800

> <Gold.Chemscore.Hbond>
2.9489

> <Gold.Chemscore.Metal>
0.0000

> <Gold.Chemscore.Lipo>
76.6892

> <Gold.Chemscore.Internal_Hbond>
0.0000

> <Gold.Chemscore.DEClash>
0.5018

> <Gold.Chemscore.DEInternal>
0.6170

> <Gold.Chemscore.Rot>
1.8539

> <Gold.Chemscore.Internal.Correction>
   9.000000E+99

> <Gold.Chemscore.Hbonds>
donor molecule, donor type, donor heavy atom, donor atom, acceptor molecule, acceptor atom, score
      L1  H    10    41       P1  7948  0.74
      L1  H    19    23       P1 10957  0.76
      P1  H 10995 11001       L1    18  0.02
      P1  H 11000 11005       L1    18  0.84

> <Gold.Chemscore.Hbond.Weighted>
-9.8495

> <Gold.Chemscore.Metal.Weighted>
-0.0000

> <Gold.Chemscore.Lipo.Weighted>
-8.9726

> <Gold.Chemscore.Internal_Hbond.Weighted>
0.0000

> <Gold.Chemscore.DEClash.Weighted>
0.5018

> <Gold.Chemscore.DEInternal.Weighted>
0.6170

> <Gold.Chemscore.Rot.Weighted>
4.7460

> <Gold.Chemscore.Internal.Correction.Weighted>
   9.000000E+99

> <Gold.Protein.RotatedTorsions>
[ 6907 6896 6895 6894 ] final -142.02 input  -60.11 | X-H torsion
[ 7974 7965 7964 7962 ] final  -14.58 input  175.53 | X-H torsion
[ 8008 7997 7996 7995 ] final  172.55 input   59.86 | X-H torsion
[ 10167 10162 10161 10158 ] final    1.32 input  -65.29 | X-H torsion
[ 10718 10713 10712 10709 ] final   26.20 input   66.30 | X-H torsion
[ 10763 10752 10751 10750 ] final   97.09 input  -60.55 | X-H torsion
[ 11005 11000 10999 10996 ] final   35.98 input  -57.11 | X-H torsion

> <Gold.Protein.ActiveResidues>
 VAL166  LYS551  ARG553  GLY616  TRP617  ASP618  TYR619  PRO620  LYS621  CYS622 
 ASP623  PHE694  ASN695  SER759  ASP760  ASP761  ALA762  ILE779  LEU786  VAL792 
 PHE793  MET794  SER795  GLU796  ALA797  LYS798  CYS799  TRP800  GLU811  SER814 

> <Gold.Protein.RotatedAtoms>
  151.0815  133.5386  159.2620 H   0  0  0  0  0  0  0  0  0  0  0  0  # atno 6907 bound_to 6896
  151.2287  135.0545  159.8989 H   0  0  0  0  0  0  0  0  0  0  0  0  # atno 6908 bound_to 6896
  152.5424  134.0607  159.8204 H   0  0  0  0  0  0  0  0  0  0  0  0  # atno 6909 bound_to 6896
  146.2068  140.3369  142.8404 H   0  0  0  0  0  0  0  0  0  0  0  0  # atno 7974 bound_to 7965
  156.1163  140.1483  156.9268 H   0  0  0  0  0  0  0  0  0  0  0  0  # atno 8008 bound_to 7997
  154.4803  140.0881  156.7403 H   0  0  0  0  0  0  0  0  0  0  0  0  # atno 8009 bound_to 7997
  155.4508  140.3434  155.4303 H   0  0  0  0  0  0  0  0  0  0  0  0  # atno 8010 bound_to 7997
  140.6688  143.7106  150.7880 H   0  0  0  0  0  0  0  0  0  0  0  0  # atno 10167 bound_to 10162
  157.2037  130.6902  149.6199 H   0  0  0  0  0  0  0  0  0  0  0  0  # atno 10718 bound_to 10713
  153.2728  135.4195  155.1004 H   0  0  0  0  0  0  0  0  0  0  0  0  # atno 10763 bound_to 10752
  154.8462  135.3476  154.6220 H   0  0  0  0  0  0  0  0  0  0  0  0  # atno 10764 bound_to 10752
  153.6641  135.7047  153.5225 H   0  0  0  0  0  0  0  0  0  0  0  0  # atno 10765 bound_to 10752
  140.2372  134.3457  155.7940 H   0  0  0  0  0  0  0  0  0  0  0  0  # atno 11005 bound_to 11000
  144.8813  140.7404  143.5985 LP  0  0  0  0  0  0  0  0  0  0  0  0  # atno 17320 bound_to 7965
  145.3289  139.1765  143.4547 LP  0  0  0  0  0  0  0  0  0  0  0  0  # atno 17321 bound_to 7965
  140.0788  143.4989  152.2541 LP  0  0  0  0  0  0  0  0  0  0  0  0  # atno 17342 bound_to 10162
  139.5947  144.7563  151.3315 LP  0  0  0  0  0  0  0  0  0  0  0  0  # atno 17343 bound_to 10162
  155.9698  130.4574  150.5961 LP  0  0  0  0  0  0  0  0  0  0  0  0  # atno 17370 bound_to 10713
  157.3742  131.0770  151.1532 LP  0  0  0  0  0  0  0  0  0  0  0  0  # atno 17371 bound_to 10713
  141.2213  133.7278  156.8827 LP  0  0  0  0  0  0  0  0  0  0  0  0  # atno 17394 bound_to 11000
  140.1690  134.9113  157.2810 LP  0  0  0  0  0  0  0  0  0  0  0  0  # atno 17395 bound_to 11000

$$$$
