AV-unprocessed.smi:3140|AV-procd|sdf|11959|dock6
  -GOLD-   2272017363D 1   1.00000     0.00000
 Structure written by MMmdl.
 38 39  0  0  0  0  0  0  0  0  2 V2000
  150.4015  140.0497  155.2338 C   0  0  0  0  0  0  0  0  0  0  0  0
  149.8744  141.4895  155.1672 C   0  0  1  0  0  0  0  0  0  0  0  0
  148.5259  141.5428  154.4164 C   0  0  0  0  0  0  0  0  0  0  0  0
  147.4507  140.8812  155.1341 N   0  0  0  0  0  0  0  0  0  0  0  0
  146.1374  140.7133  154.7482 C   0  0  0  0  0  0  0  0  0  0  0  0
  145.4999  140.0514  155.7584 C   0  0  0  0  0  0  0  0  0  0  0  0
  146.5204  139.8503  156.7295 C   0  0  0  0  0  0  0  0  0  0  0  0
  147.6873  140.3481  156.3526 N   0  0  0  0  0  0  0  0  0  0  0  0
  149.7465  142.0300  156.5401 N   0  3  0  0  0  0  0  0  0  0  0  0
  150.9634  141.9136  157.3700 C   0  0  0  0  0  0  0  0  0  0  0  0
  151.5460  143.2985  157.6886 C   0  0  0  0  0  0  0  0  0  0  0  0
  151.9417  143.4033  159.0901 N   0  0  0  0  0  0  0  0  0  0  0  0
  152.6576  142.3223  159.7465 C   0  0  0  0  0  0  0  0  0  0  0  0
  153.0632  142.8890  161.1151 C   0  0  0  0  0  0  0  0  0  0  0  0
  152.2247  144.1578  161.3049 C   0  0  0  0  0  0  0  0  0  0  0  0
  151.6674  144.4201  159.9162 C   0  0  0  0  0  0  0  0  0  0  0  0
  151.0510  145.4441  159.6248 O   0  0  0  0  0  0  0  0  0  0  0  0
  150.5399  139.6360  154.2346 H   0  0  0  0  0  0  0  0  0  0  0  0
  149.7129  139.3967  155.7712 H   0  0  0  0  0  0  0  0  0  0  0  0
  151.3658  140.0073  155.7415 H   0  0  0  0  0  0  0  0  0  0  0  0
  150.6109  142.0785  154.6177 H   0  0  0  0  0  0  0  0  0  0  0  0
  148.2298  142.5806  154.2574 H   0  0  0  0  0  0  0  0  0  0  0  0
  148.6197  141.0943  153.4257 H   0  0  0  0  0  0  0  0  0  0  0  0
  145.7684  141.0792  153.8012 H   0  0  0  0  0  0  0  0  0  0  0  0
  144.4620  139.7555  155.7986 H   0  0  0  0  0  0  0  0  0  0  0  0
  146.4476  139.3644  157.6916 H   0  0  0  0  0  0  0  0  0  0  0  0
  149.4870  143.0042  156.4720 H   0  0  0  0  0  0  0  0  0  0  0  0
  150.7162  141.3854  158.2921 H   0  0  0  0  0  0  0  0  0  0  0  0
  151.7062  141.3095  156.8502 H   0  0  0  0  0  0  0  0  0  0  0  0
  152.4148  143.4945  157.0577 H   0  0  0  0  0  0  0  0  0  0  0  0
  150.8150  144.0748  157.4578 H   0  0  0  0  0  0  0  0  0  0  0  0
  151.9908  141.4665  159.8603 H   0  0  0  0  0  0  0  0  0  0  0  0
  153.5251  142.0068  159.1656 H   0  0  0  0  0  0  0  0  0  0  0  0
  152.8999  142.1669  161.9160 H   0  0  0  0  0  0  0  0  0  0  0  0
  154.1239  143.1440  161.1159 H   0  0  0  0  0  0  0  0  0  0  0  0
  151.4014  143.9908  162.0003 H   0  0  0  0  0  0  0  0  0  0  0  0
  152.8209  144.9983  161.6614 H   0  0  0  0  0  0  0  0  0  0  0  0
  149.0048  141.5324  157.0117 H   0  0  0  0  0  0  0  0  0  0  0  0
  1  2  1  0  0  0  0
  1 18  1  0  0  0  0
  1 19  1  0  0  0  0
  1 20  1  0  0  0  0
  2  3  1  0  0  0  0
  2  9  1  0  0  0  0
  2 21  1  0  0  0  0
  3  4  1  0  0  0  0
  3 22  1  0  0  0  0
  3 23  1  0  0  0  0
  4  8  1  0  0  0  0
  4  5  1  0  0  0  0
  5  6  2  0  0  0  0
  5 24  1  0  0  0  0
  6  7  1  0  0  0  0
  6 25  1  0  0  0  0
  7  8  2  0  0  0  0
  7 26  1  0  0  0  0
  9 10  1  0  0  0  0
  9 27  1  0  0  0  0
  9 38  1  0  0  0  0
 10 11  1  0  0  0  0
 10 28  1  0  0  0  0
 10 29  1  0  0  0  0
 11 12  1  0  0  0  0
 11 30  1  0  0  0  0
 11 31  1  0  0  0  0
 12 16  1  0  0  0  0
 12 13  1  0  0  0  0
 13 14  1  0  0  0  0
 13 32  1  0  0  0  0
 13 33  1  0  0  0  0
 14 15  1  0  0  0  0
 14 34  1  0  0  0  0
 14 35  1  0  0  0  0
 15 16  1  0  0  0  0
 15 36  1  0  0  0  0
 15 37  1  0  0  0  0
 16 17  2  0  0  0  0
M  CHG  1   9   1
M  END
> <s_m_source_file>
AV-unprocessed.smi

> <i_m_source_file_index>
3140

> <i_lp_mmshare_version>
43012

> <i_f3d_flags>
0

> <s_epik_input>
bjFbY0hdW2NIXVtjSF1uMVtDSDJdW0NAQEhdKFtDSDNdKVtOSF1bQ0gyXVtDSDJdTjJbQ0gyXVtDSDJdW0NIMl1DMj1P

> <s_epik_cmdline>
J2VwaWtfcHl0aG9uJywgJy1waCcsICc3LjAnLCAnLXRuJywgJzgnLCAnLW1hJywgJzIwMCcsICctbWV0YWxfYmluZGluZycsICctaW1hZScsICc8aW5maWxlLm1hZT4nLCAnLW9tYWUnLCAnPG91dGZpbGUubWFlPic=

> <r_lp_tautomer_probability>
1

> <r_epik_Ionization_Penalty>
0.00826299

> <r_epik_Ionization_Penalty_Charging>
0.00825899

> <r_epik_Ionization_Penalty_Neutral>
3.99893e-06

> <r_epik_State_Penalty>
0.00621436

> <r_epik_Charging_Adjusted_Penalty>
0.0144734

> <i_epik_Tot_Q>
1

> <i_epik_Tot_abs_Q>
1

> <r_epik_Metal_State_Penalty>
0.00621472

> <b_epik_Metal_Only>
0

> <s_lp_Force_Field>
OPLS_2005

> <r_lp_Energy>
19.0418

> <b_lp_Chiralities_Consistent>
1

> <s_lp_Variant>
AV-unprocessed.smi:3140-2

> <Gold.Version>
5.8.1

> <Gold.Id.Protein>
6NUR|6NUR_protein|mol2

> <Gold.PLP.Fitness>
43.0233

> <Gold.PLP.PLP>
-35.7605

> <Gold.PLP.part.hbond>
-1.1023

> <Gold.PLP.part.metal>
0.0000

> <Gold.PLP.part.buried>
-4.1643

> <Gold.PLP.part.nonpolar>
-30.5918

> <Gold.PLP.part.repulsive>
0.2511

> <Gold.PLP.ligand.clash>
0.0000

> <Gold.PLP.ligand.torsion>
0.9113

> <Gold.PLP.Chemscore.Hbond>
2.0000

> <Gold.PLP.Chemscore.CHOScore>
0.9977

> <Gold.PLP.Chemscore.Metal>
0.0000

> <Gold.Chemscore.Hbonds>
donor molecule, donor type, donor heavy atom, donor atom, acceptor molecule, acceptor atom, score
      L1  H     9    27       P1  8028  2.00
      L1  C     5    24       P1 10175  0.99

> <Gold.PLP.Chemscore.Internal.Correction>
0.0924

> <Gold.Rescore>
     Score         DG    S(hbond)    S(metal)    S(lipo)     H(rot)  DE(clash)    DE(int)     intcor
     12.33     -13.18       0.99        0.00      82.55       2.06       0.00       0.84       ----

> <Gold.Chemscore.Fitness>
12.3288

> <Gold.Chemscore.DG>
-13.1772

> <Gold.Chemscore.ZeroCoef>
-5.4800

> <Gold.Chemscore.Hbond>
0.9886

> <Gold.Chemscore.Metal>
0.0000

> <Gold.Chemscore.Lipo>
82.5465

> <Gold.Chemscore.Internal_Hbond>
0.0000

> <Gold.Chemscore.DEClash>
0.0038

> <Gold.Chemscore.DEInternal>
0.8447

> <Gold.Chemscore.Rot>
2.0557

> <Gold.Chemscore.Internal.Correction>
   9.000000E+99

> <Gold.Chemscore.Hbonds>
donor molecule, donor type, donor heavy atom, donor atom, acceptor molecule, acceptor atom, score
      L1  H     9    27       P1  8028  0.96

> <Gold.Chemscore.Hbond.Weighted>
-3.3020

> <Gold.Chemscore.Metal.Weighted>
-0.0000

> <Gold.Chemscore.Lipo.Weighted>
-9.6579

> <Gold.Chemscore.Internal_Hbond.Weighted>
0.0000

> <Gold.Chemscore.DEClash.Weighted>
0.0038

> <Gold.Chemscore.DEInternal.Weighted>
0.8447

> <Gold.Chemscore.Rot.Weighted>
5.2627

> <Gold.Chemscore.Internal.Correction.Weighted>
   9.000000E+99

> <Gold.Protein.RotatedTorsions>
[ 6907 6896 6895 6894 ] final  -57.92 input  -60.11 | X-H torsion
[ 7974 7965 7964 7962 ] final -135.66 input  175.53 | X-H torsion
[ 8008 7997 7996 7995 ] final -106.49 input   59.86 | X-H torsion
[ 10167 10162 10161 10158 ] final -145.26 input  -65.29 | X-H torsion
[ 10718 10713 10712 10709 ] final    1.71 input   66.30 | X-H torsion
[ 10763 10752 10751 10750 ] final  -80.05 input  -60.55 | X-H torsion
[ 11005 11000 10999 10996 ] final -170.68 input  -57.11 | X-H torsion

> <Gold.Protein.ActiveResidues>
 VAL166  LYS551  ARG553  GLY616  TRP617  ASP618  TYR619  PRO620  LYS621  CYS622 
 ASP623  PHE694  ASN695  SER759  ASP760  ASP761  ALA762  ILE779  LEU786  VAL792 
 PHE793  MET794  SER795  GLU796  ALA797  LYS798  CYS799  TRP800  GLU811  SER814 

> <Gold.Protein.RotatedAtoms>
  150.8047  134.7164  159.6632 H   0  0  0  0  0  0  0  0  0  0  0  0  # atno 6907 bound_to 6896
  152.4166  134.6027  160.0014 H   0  0  0  0  0  0  0  0  0  0  0  0  # atno 6908 bound_to 6896
  151.6254  133.3299  159.3133 H   0  0  0  0  0  0  0  0  0  0  0  0  # atno 6909 bound_to 6896
  144.8994  140.6751  143.5094 H   0  0  0  0  0  0  0  0  0  0  0  0  # atno 7974 bound_to 7965
  154.9154  140.0409  157.1969 H   0  0  0  0  0  0  0  0  0  0  0  0  # atno 8008 bound_to 7997
  154.8307  140.2898  155.5703 H   0  0  0  0  0  0  0  0  0  0  0  0  # atno 8009 bound_to 7997
  156.2986  140.2501  156.3231 H   0  0  0  0  0  0  0  0  0  0  0  0  # atno 8010 bound_to 7997
  139.7822  143.8085  152.2640 H   0  0  0  0  0  0  0  0  0  0  0  0  # atno 10167 bound_to 10162
  156.8522  130.5557  149.5669 H   0  0  0  0  0  0  0  0  0  0  0  0  # atno 10718 bound_to 10713
  154.5464  135.5674  153.6884 H   0  0  0  0  0  0  0  0  0  0  0  0  # atno 10763 bound_to 10752
  152.9977  135.6240  154.2433 H   0  0  0  0  0  0  0  0  0  0  0  0  # atno 10764 bound_to 10752
  154.2366  135.2864  155.2849 H   0  0  0  0  0  0  0  0  0  0  0  0  # atno 10765 bound_to 10752
  140.5168  134.5748  157.5036 H   0  0  0  0  0  0  0  0  0  0  0  0  # atno 11005 bound_to 11000
  145.3643  139.1674  143.4366 LP  0  0  0  0  0  0  0  0  0  0  0  0  # atno 17320 bound_to 7965
  146.3100  140.3708  142.8674 LP  0  0  0  0  0  0  0  0  0  0  0  0  # atno 17321 bound_to 7965
  139.8151  144.7319  150.9646 LP  0  0  0  0  0  0  0  0  0  0  0  0  # atno 17342 bound_to 10162
  140.7818  143.4213  151.0837 LP  0  0  0  0  0  0  0  0  0  0  0  0  # atno 17343 bound_to 10162
  156.0822  130.5829  150.9583 LP  0  0  0  0  0  0  0  0  0  0  0  0  # atno 17370 bound_to 10713
  157.6297  131.0922  150.8465 LP  0  0  0  0  0  0  0  0  0  0  0  0  # atno 17371 bound_to 10713
  139.9628  134.7424  156.0201 LP  0  0  0  0  0  0  0  0  0  0  0  0  # atno 17394 bound_to 11000
  141.1356  133.6576  156.3584 LP  0  0  0  0  0  0  0  0  0  0  0  0  # atno 17395 bound_to 11000

$$$$
