AV-unprocessed.smi:1772|AV-procd|sdf|7162|dock8
  -GOLD-   22720 8403D 1   1.00000     0.00000
 Structure written by MMmdl.
 34 35  0  0  0  0  0  0  0  0  2 V2000
  146.5388  132.3774  153.9354 O   0  0  0  0  0  0  0  0  0  0  0  0
  147.2690  131.9916  153.0228 C   0  0  0  0  0  0  0  0  0  0  0  0
  148.5272  131.5699  153.2131 N   0  0  0  0  0  0  0  0  0  0  0  0
  149.2070  131.5189  154.5037 C   0  0  0  0  0  0  0  0  0  0  0  0
  149.8286  132.8757  154.8890 C   0  0  1  0  0  0  0  0  0  0  0  0
  148.8852  134.0585  154.5972 C   0  0  0  0  0  0  0  0  0  0  0  0
  149.4635  135.3179  155.2504 C   0  0  0  0  0  0  0  0  0  0  0  0
  150.2855  134.7461  156.7839 S   0  0  0  0  0  0  0  0  0  0  0  0
  151.6781  135.2187  156.7859 O   0  0  0  0  0  0  0  0  0  0  0  0
  149.4019  134.9872  157.9345 O   0  0  0  0  0  0  0  0  0  0  0  0
  150.2446  132.9614  156.3676 C   0  0  0  0  0  0  0  0  0  0  0  0
  146.9217  131.9202  151.7259 N   0  0  0  0  0  0  0  0  0  0  0  0
  145.6866  132.2739  151.1166 C   0  0  0  0  0  0  0  0  0  0  0  0
  144.6503  132.7309  151.9611 C   0  0  0  0  0  0  0  0  0  0  0  0
  143.4025  133.0808  151.4058 C   0  0  0  0  0  0  0  0  0  0  0  0
  143.2034  132.9676  150.0753 N   0  3  0  0  0  0  0  0  0  0  0  0
  144.1575  132.5219  149.2300 C   0  0  0  0  0  0  0  0  0  0  0  0
  145.4254  132.1574  149.7273 C   0  0  0  0  0  0  0  0  0  0  0  0
  149.0568  131.2645  152.4095 H   0  0  0  0  0  0  0  0  0  0  0  0
  148.5109  131.1881  155.2764 H   0  0  0  0  0  0  0  0  0  0  0  0
  149.9837  130.7559  154.4444 H   0  0  0  0  0  0  0  0  0  0  0  0
  150.7259  133.0322  154.2882 H   0  0  0  0  0  0  0  0  0  0  0  0
  148.7333  134.2000  153.5269 H   0  0  0  0  0  0  0  0  0  0  0  0
  147.9063  133.8538  155.0332 H   0  0  0  0  0  0  0  0  0  0  0  0
  150.2209  135.7720  154.6109 H   0  0  0  0  0  0  0  0  0  0  0  0
  148.7065  136.0671  155.4830 H   0  0  0  0  0  0  0  0  0  0  0  0
  149.5039  132.4877  157.0125 H   0  0  0  0  0  0  0  0  0  0  0  0
  151.2170  132.5091  156.5639 H   0  0  0  0  0  0  0  0  0  0  0  0
  147.6061  131.5089  151.1083 H   0  0  0  0  0  0  0  0  0  0  0  0
  144.8078  132.8206  153.0263 H   0  0  0  0  0  0  0  0  0  0  0  0
  142.5640  133.4436  151.9824 H   0  0  0  0  0  0  0  0  0  0  0  0
  143.8783  132.4648  148.1880 H   0  0  0  0  0  0  0  0  0  0  0  0
  146.1652  131.7856  149.0352 H   0  0  0  0  0  0  0  0  0  0  0  0
  142.2927  133.2251  149.6932 H   0  0  0  0  0  0  0  0  0  0  0  0
  1  2  2  0  0  0  0
  2  3  1  0  0  0  0
  2 12  1  0  0  0  0
  3  4  1  0  0  0  0
  3 19  1  0  0  0  0
  4  5  1  0  0  0  0
  4 20  1  0  0  0  0
  4 21  1  0  0  0  0
  5 11  1  0  0  0  0
  5  6  1  0  0  0  0
  5 22  1  0  0  0  0
  6  7  1  0  0  0  0
  6 23  1  0  0  0  0
  6 24  1  0  0  0  0
  7  8  1  0  0  0  0
  7 25  1  0  0  0  0
  7 26  1  0  0  0  0
  8  9  2  0  0  0  0
  8 10  2  0  0  0  0
  8 11  1  0  0  0  0
 11 27  1  0  0  0  0
 11 28  1  0  0  0  0
 12 13  1  0  0  0  0
 12 29  1  0  0  0  0
 13 18  1  0  0  0  0
 13 14  2  0  0  0  0
 14 15  1  0  0  0  0
 14 30  1  0  0  0  0
 15 16  2  0  0  0  0
 15 31  1  0  0  0  0
 16 17  1  0  0  0  0
 16 34  1  0  0  0  0
 17 18  2  0  0  0  0
 17 32  1  0  0  0  0
 18 33  1  0  0  0  0
M  CHG  1  16   1
M  END
> <s_m_source_file>
AV-unprocessed.smi

> <i_m_source_file_index>
1772

> <i_lp_mmshare_version>
43012

> <i_f3d_flags>
0

> <s_epik_input>
W2NIXTFbY0hdbltjSF1bY0hdYzFbTkhdQyg9TylbTkhdW0NIMl1bQ0BASF0oW0NIMl0yKVtDSDJdW0NIMl1TMig9Tyk9Tw==

> <s_epik_cmdline>
J2VwaWtfcHl0aG9uJywgJy1waCcsICc3LjAnLCAnLXRuJywgJzgnLCAnLW1hJywgJzIwMCcsICctbWV0YWxfYmluZGluZycsICctaW1hZScsICc8aW5maWxlLm1hZT4nLCAnLW9tYWUnLCAnPG91dGZpbGUubWFlPic=

> <r_epik_Ionization_Penalty>
1.04917

> <r_epik_Ionization_Penalty_Charging>
1.04915

> <r_epik_Ionization_Penalty_Neutral>
1.90771e-05

> <r_epik_State_Penalty>
1.10185

> <r_epik_Charging_Adjusted_Penalty>
2.151

> <i_epik_Tot_Q>
1

> <i_epik_Tot_abs_Q>
1

> <r_epik_Metal_State_Penalty>
1.19638

> <b_epik_Metal_Only>
0

> <s_lp_Force_Field>
OPLS_2005

> <r_lp_Energy>
14.8117

> <b_lp_Chiralities_Consistent>
1

> <s_lp_Variant>
AV-unprocessed.smi:1772-4

> <Gold.Version>
5.8.1

> <Gold.Id.Protein>
6NUR|6NUR_protein|mol2

> <Gold.PLP.Fitness>
52.2602

> <Gold.PLP.PLP>
-35.0737

> <Gold.PLP.part.hbond>
-5.0000

> <Gold.PLP.part.metal>
0.0000

> <Gold.PLP.part.buried>
-5.7675

> <Gold.PLP.part.nonpolar>
-25.2466

> <Gold.PLP.part.repulsive>
0.1892

> <Gold.PLP.ligand.clash>
0.0000

> <Gold.PLP.ligand.torsion>
0.2882

> <Gold.PLP.Chemscore.Hbond>
5.9200

> <Gold.PLP.Chemscore.CHOScore>
0.0000

> <Gold.PLP.Chemscore.Metal>
0.0000

> <Gold.Chemscore.Hbonds>
donor molecule, donor type, donor heavy atom, donor atom, acceptor molecule, acceptor atom, score
      L1  H     3    19       P1 10747  0.66
      L1  H    12    29       P1 10747  1.00
      L1  H    16    34       P1 10186  1.95
      P1  H  6896  6907       L1    10  0.70
      P1  H 10752 10763       L1     9  0.37

> <Gold.PLP.Chemscore.Internal.Correction>
0.0029

> <Gold.Rescore>
     Score         DG    S(hbond)    S(metal)    S(lipo)     H(rot)  DE(clash)    DE(int)     intcor
     22.83     -25.57       4.45        0.00      73.31       1.32       0.07       2.67       ----

> <Gold.Chemscore.Fitness>
22.8306

> <Gold.Chemscore.DG>
-25.5680

> <Gold.Chemscore.ZeroCoef>
-5.4800

> <Gold.Chemscore.Hbond>
4.4544

> <Gold.Chemscore.Metal>
0.0000

> <Gold.Chemscore.Lipo>
73.3112

> <Gold.Chemscore.Internal_Hbond>
0.0000

> <Gold.Chemscore.DEClash>
0.0657

> <Gold.Chemscore.DEInternal>
2.6717

> <Gold.Chemscore.Rot>
1.3153

> <Gold.Chemscore.Internal.Correction>
   9.000000E+99

> <Gold.Chemscore.Hbonds>
donor molecule, donor type, donor heavy atom, donor atom, acceptor molecule, acceptor atom, score
      L1  H     3    19       P1 10747  0.32
      L1  H    12    29       P1 10747  1.00
      L1  H    16    34       P1 10186  0.93
      P1  H  6896  6907       L1    10  0.10
      P1  H 10752 10763       L1     9  0.37

> <Gold.Chemscore.Hbond.Weighted>
-14.8779

> <Gold.Chemscore.Metal.Weighted>
-0.0000

> <Gold.Chemscore.Lipo.Weighted>
-8.5774

> <Gold.Chemscore.Internal_Hbond.Weighted>
0.0000

> <Gold.Chemscore.DEClash.Weighted>
0.0657

> <Gold.Chemscore.DEInternal.Weighted>
2.6717

> <Gold.Chemscore.Rot.Weighted>
3.3673

> <Gold.Chemscore.Internal.Correction.Weighted>
   9.000000E+99

> <Gold.Protein.RotatedTorsions>
[ 6907 6896 6895 6894 ] final  -98.34 input  -60.11 | X-H torsion
[ 7974 7965 7964 7962 ] final   38.06 input  175.53 | X-H torsion
[ 8008 7997 7996 7995 ] final  174.15 input   59.86 | X-H torsion
[ 10167 10162 10161 10158 ] final   -1.74 input  -65.29 | X-H torsion
[ 10718 10713 10712 10709 ] final -135.33 input   66.30 | X-H torsion
[ 10763 10752 10751 10750 ] final   87.12 input  -60.55 | X-H torsion
[ 11005 11000 10999 10996 ] final  -27.65 input  -57.11 | X-H torsion

> <Gold.Protein.ActiveResidues>
 VAL166  LYS551  ARG553  GLY616  TRP617  ASP618  TYR619  PRO620  LYS621  CYS622 
 ASP623  PHE694  ASN695  SER759  ASP760  ASP761  ALA762  ILE779  LEU786  VAL792 
 PHE793  MET794  SER795  GLU796  ALA797  LYS798  CYS799  TRP800  GLU811  SER814 

> <Gold.Protein.RotatedAtoms>
  150.7044  134.1209  159.4034 H   0  0  0  0  0  0  0  0  0  0  0  0  # atno 6907 bound_to 6896
  151.9195  135.0302  160.0530 H   0  0  0  0  0  0  0  0  0  0  0  0  # atno 6908 bound_to 6896
  152.2268  133.4991  159.5230 H   0  0  0  0  0  0  0  0  0  0  0  0  # atno 6909 bound_to 6896
  146.1091  139.5818  142.9364 H   0  0  0  0  0  0  0  0  0  0  0  0  # atno 7974 bound_to 7965
  156.1004  140.1442  156.9475 H   0  0  0  0  0  0  0  0  0  0  0  0  # atno 8008 bound_to 7997
  154.4698  140.0913  156.7161 H   0  0  0  0  0  0  0  0  0  0  0  0  # atno 8009 bound_to 7997
  155.4770  140.3443  155.4336 H   0  0  0  0  0  0  0  0  0  0  0  0  # atno 8010 bound_to 7997
  140.6822  143.6739  150.8161 H   0  0  0  0  0  0  0  0  0  0  0  0  # atno 10167 bound_to 10162
  156.2650  130.7232  151.1179 H   0  0  0  0  0  0  0  0  0  0  0  0  # atno 10718 bound_to 10713
  153.1637  135.4555  154.9807 H   0  0  0  0  0  0  0  0  0  0  0  0  # atno 10763 bound_to 10752
  154.7916  135.3222  154.7766 H   0  0  0  0  0  0  0  0  0  0  0  0  # atno 10764 bound_to 10752
  153.8252  135.6943  153.4876 H   0  0  0  0  0  0  0  0  0  0  0  0  # atno 10765 bound_to 10752
  140.9138  133.7443  156.0707 H   0  0  0  0  0  0  0  0  0  0  0  0  # atno 11005 bound_to 11000
  145.5701  141.0395  143.2179 LP  0  0  0  0  0  0  0  0  0  0  0  0  # atno 17320 bound_to 7965
  144.7496  139.7229  143.7278 LP  0  0  0  0  0  0  0  0  0  0  0  0  # atno 17321 bound_to 7965
  140.0441  143.5316  152.2704 LP  0  0  0  0  0  0  0  0  0  0  0  0  # atno 17342 bound_to 10162
  139.6154  144.7618  151.2859 LP  0  0  0  0  0  0  0  0  0  0  0  0  # atno 17343 bound_to 10162
  157.7264  131.0646  150.5911 LP  0  0  0  0  0  0  0  0  0  0  0  0  # atno 17370 bound_to 10713
  156.6002  130.4352  149.5900 LP  0  0  0  0  0  0  0  0  0  0  0  0  # atno 17371 bound_to 10713
  140.8076  134.3437  157.5421 LP  0  0  0  0  0  0  0  0  0  0  0  0  # atno 17394 bound_to 11000
  139.8762  134.9235  156.3326 LP  0  0  0  0  0  0  0  0  0  0  0  0  # atno 17395 bound_to 11000

$$$$
