AV-unprocessed.smi:1830|AV-procd|sdf|7447|dock7
  -GOLD-   22720 9133D 1   1.00000     0.00000
 Structure written by MMmdl.
 54 57  0  0  0  0  0  0  0  0  3 V2000
  147.3567  141.6545  158.9254 O   0  0  0  0  0  0  0  0  0  0  0  0
  147.5025  142.4642  158.0104 C   0  0  0  0  0  0  0  0  0  0  0  0
  148.4765  142.3780  157.0941 N   0  0  0  0  0  0  0  0  0  0  0  0
  149.5110  141.3480  157.0665 C   0  0  0  0  0  0  0  0  0  0  0  0
  150.8452  141.8183  157.6791 C   0  0  1  0  0  0  0  0  0  0  0  0
  151.1704  143.2911  157.3692 C   0  0  0  0  0  0  0  0  0  0  0  0
  152.4295  143.7214  158.0291 N   0  3  1  0  0  0  0  0  0  0  0  0
  152.6048  145.1907  157.9973 C   0  0  0  0  0  0  0  0  0  0  0  0
  152.1362  145.7223  159.3644 C   0  0  0  0  0  0  0  0  0  0  0  0
  151.7774  144.4823  160.1906 C   0  0  0  0  0  0  0  0  0  0  0  0
  152.4940  143.3477  159.4590 C   0  0  1  0  0  0  0  0  0  0  0  0
  151.9747  141.9239  159.7432 C   0  0  0  0  0  0  0  0  0  0  0  0
  150.7357  141.6882  159.0899 O   0  0  0  0  0  0  0  0  0  0  0  0
  146.7086  143.5236  157.7827 N   0  0  0  0  0  0  0  0  0  0  0  0
  145.5465  143.9145  158.5067 C   0  0  0  0  0  0  0  0  0  0  0  0
  145.3470  143.5381  159.8598 C   0  0  0  0  0  0  0  0  0  0  0  0
  144.2020  143.9823  160.5484 C   0  0  0  0  0  0  0  0  0  0  0  0
  143.2793  144.8050  159.8784 C   0  0  0  0  0  0  0  0  0  0  0  0
  143.5063  145.1584  158.5961 N   0  3  0  0  0  0  0  0  0  0  0  0
  144.5898  144.7624  157.8833 C   0  0  0  0  0  0  0  0  0  0  0  0
  144.7105  145.1760  156.5392 N   0  0  0  0  0  0  0  0  0  0  0  0
  144.6319  144.0915  155.5643 C   0  0  0  0  0  0  0  0  0  0  0  0
  143.9414  144.6710  154.3286 C   0  0  0  0  0  0  0  0  0  0  0  0
  143.0719  145.7791  154.9092 C   0  0  0  0  0  0  0  0  0  0  0  0
  143.9342  146.3154  156.0508 C   0  0  0  0  0  0  0  0  0  0  0  0
  148.5223  143.0867  156.3761 H   0  0  0  0  0  0  0  0  0  0  0  0
  149.1377  140.4815  157.6132 H   0  0  0  0  0  0  0  0  0  0  0  0
  149.6666  141.0174  156.0382 H   0  0  0  0  0  0  0  0  0  0  0  0
  151.6503  141.1756  157.3185 H   0  0  0  0  0  0  0  0  0  0  0  0
  151.2714  143.4452  156.2943 H   0  0  0  0  0  0  0  0  0  0  0  0
  150.3435  143.9205  157.7026 H   0  0  0  0  0  0  0  0  0  0  0  0
  153.6659  145.4063  157.8657 H   0  0  0  0  0  0  0  0  0  0  0  0
  152.0758  145.6571  157.1648 H   0  0  0  0  0  0  0  0  0  0  0  0
  152.9382  146.2858  159.8423 H   0  0  0  0  0  0  0  0  0  0  0  0
  151.2792  146.3893  159.2675 H   0  0  0  0  0  0  0  0  0  0  0  0
  152.0823  144.5685  161.2340 H   0  0  0  0  0  0  0  0  0  0  0  0
  150.6984  144.3225  160.1711 H   0  0  0  0  0  0  0  0  0  0  0  0
  153.5447  143.3868  159.7522 H   0  0  0  0  0  0  0  0  0  0  0  0
  152.7031  141.1829  159.4107 H   0  0  0  0  0  0  0  0  0  0  0  0
  151.8491  141.7745  160.8158 H   0  0  0  0  0  0  0  0  0  0  0  0
  146.8959  144.0502  156.9418 H   0  0  0  0  0  0  0  0  0  0  0  0
  146.0644  142.9279  160.3875 H   0  0  0  0  0  0  0  0  0  0  0  0
  144.0384  143.7010  161.5786 H   0  0  0  0  0  0  0  0  0  0  0  0
  142.3757  145.1923  160.3262 H   0  0  0  0  0  0  0  0  0  0  0  0
  145.6214  143.7065  155.3175 H   0  0  0  0  0  0  0  0  0  0  0  0
  144.0426  143.2672  155.9694 H   0  0  0  0  0  0  0  0  0  0  0  0
  144.6843  145.1009  153.6552 H   0  0  0  0  0  0  0  0  0  0  0  0
  143.3715  143.9265  153.7721 H   0  0  0  0  0  0  0  0  0  0  0  0
  142.8096  146.5450  154.1790 H   0  0  0  0  0  0  0  0  0  0  0  0
  142.1480  145.3569  155.3066 H   0  0  0  0  0  0  0  0  0  0  0  0
  143.3317  146.8183  156.8069 H   0  0  0  0  0  0  0  0  0  0  0  0
  144.6384  147.0541  155.6669 H   0  0  0  0  0  0  0  0  0  0  0  0
  153.1947  143.2777  157.5414 H   0  0  0  0  0  0  0  0  0  0  0  0
  142.8195  145.7562  158.1360 H   0  0  0  0  0  0  0  0  0  0  0  0
  1  2  2  0  0  0  0
  2  3  1  0  0  0  0
  2 14  1  0  0  0  0
  3  4  1  0  0  0  0
  3 26  1  0  0  0  0
  4  5  1  0  0  0  0
  4 27  1  0  0  0  0
  4 28  1  0  0  0  0
  5 13  1  0  0  0  0
  5  6  1  0  0  0  0
  5 29  1  0  0  0  0
  6  7  1  0  0  0  0
  6 30  1  0  0  0  0
  6 31  1  0  0  0  0
  7 11  1  0  0  0  0
  7  8  1  0  0  0  0
  7 53  1  0  0  0  0
  8  9  1  0  0  0  0
  8 32  1  0  0  0  0
  8 33  1  0  0  0  0
  9 10  1  0  0  0  0
  9 34  1  0  0  0  0
  9 35  1  0  0  0  0
 10 11  1  0  0  0  0
 10 36  1  0  0  0  0
 10 37  1  0  0  0  0
 11 12  1  0  0  0  0
 11 38  1  0  0  0  0
 12 13  1  0  0  0  0
 12 39  1  0  0  0  0
 12 40  1  0  0  0  0
 14 15  1  0  0  0  0
 14 41  1  0  0  0  0
 15 20  1  0  0  0  0
 15 16  2  0  0  0  0
 16 17  1  0  0  0  0
 16 42  1  0  0  0  0
 17 18  2  0  0  0  0
 17 43  1  0  0  0  0
 18 19  1  0  0  0  0
 18 44  1  0  0  0  0
 19 20  2  0  0  0  0
 19 54  1  0  0  0  0
 20 21  1  0  0  0  0
 21 25  1  0  0  0  0
 21 22  1  0  0  0  0
 22 23  1  0  0  0  0
 22 45  1  0  0  0  0
 22 46  1  0  0  0  0
 23 24  1  0  0  0  0
 23 47  1  0  0  0  0
 23 48  1  0  0  0  0
 24 25  1  0  0  0  0
 24 49  1  0  0  0  0
 24 50  1  0  0  0  0
 25 51  1  0  0  0  0
 25 52  1  0  0  0  0
M  CHG  1   7   1
M  CHG  1  19   1
M  END
> <s_m_source_file>
AV-unprocessed.smi

> <i_m_source_file_index>
1830

> <i_lp_mmshare_version>
43012

> <i_f3d_flags>
0

> <s_epik_input>
W0NIMl0xW0NIMl1bQ0gyXVtDQEhdKE4xMilbQ0gyXU9bQ0BASF0oW0NIMl0yKVtDSDJdW05IXUMoPU8pW05IXWMzW2NIXVtjSF1bY0hdbmMzTjRbQ0gyXVtDSDJdW0NIMl1bQ0gyXTQ=

> <s_epik_cmdline>
J2VwaWtfcHl0aG9uJywgJy1waCcsICc3LjAnLCAnLXRuJywgJzgnLCAnLW1hJywgJzIwMCcsICctbWV0YWxfYmluZGluZycsICctaW1hZScsICc8aW5maWxlLm1hZT4nLCAnLW9tYWUnLCAnPG91dGZpbGUubWFlPic=

> <r_lp_tautomer_probability>
0.999994

> <r_epik_Ionization_Penalty>
1.29113

> <r_epik_Ionization_Penalty_Charging>
1.29111

> <r_epik_Ionization_Penalty_Neutral>
1.88144e-05

> <r_epik_State_Penalty>
1.32676

> <r_epik_Charging_Adjusted_Penalty>
2.61787

> <i_epik_Tot_Q>
2

> <i_epik_Tot_abs_Q>
2

> <r_epik_Metal_State_Penalty>
1.40425

> <b_epik_Metal_Only>
0

> <s_lp_Force_Field>
OPLS_2005

> <r_lp_Energy>
75.2676

> <b_lp_Chiralities_Consistent>
1

> <s_lp_Variant>
AV-unprocessed.smi:1830-16

> <Gold.Version>
5.8.1

> <Gold.Id.Protein>
6NUR|6NUR_protein|mol2

> <Gold.PLP.Fitness>
42.5703

> <Gold.PLP.PLP>
-40.6682

> <Gold.PLP.part.hbond>
-3.4267

> <Gold.PLP.part.metal>
0.0000

> <Gold.PLP.part.buried>
-5.9502

> <Gold.PLP.part.nonpolar>
-31.2321

> <Gold.PLP.part.repulsive>
0.1833

> <Gold.PLP.ligand.clash>
0.0000

> <Gold.PLP.ligand.torsion>
0.7588

> <Gold.PLP.Chemscore.Hbond>
1.0811

> <Gold.PLP.Chemscore.CHOScore>
0.0000

> <Gold.PLP.Chemscore.Metal>
0.0000

> <Gold.Chemscore.Hbonds>
donor molecule, donor type, donor heavy atom, donor atom, acceptor molecule, acceptor atom, score
      L1  H     3    26       P1  8028  1.00
      P1  H  6934  6946       L1     1  0.38

> <Gold.PLP.Chemscore.Internal.Correction>
0.1764

> <Gold.Rescore>
     Score         DG    S(hbond)    S(metal)    S(lipo)     H(rot)  DE(clash)    DE(int)     intcor
     15.90     -18.14       0.96        0.00     112.05       1.43       0.38       1.86       ----

> <Gold.Chemscore.Fitness>
15.8962

> <Gold.Chemscore.DG>
-18.1404

> <Gold.Chemscore.ZeroCoef>
-5.4800

> <Gold.Chemscore.Hbond>
0.9597

> <Gold.Chemscore.Metal>
0.0000

> <Gold.Chemscore.Lipo>
112.0530

> <Gold.Chemscore.Internal_Hbond>
0.0000

> <Gold.Chemscore.DEClash>
0.3806

> <Gold.Chemscore.DEInternal>
1.8636

> <Gold.Chemscore.Rot>
1.4278

> <Gold.Chemscore.Internal.Correction>
   9.000000E+99

> <Gold.Chemscore.Hbonds>
donor molecule, donor type, donor heavy atom, donor atom, acceptor molecule, acceptor atom, score
      L1  H     3    26       P1  8028  0.84
      P1  H  6934  6946       L1     1  0.37

> <Gold.Chemscore.Hbond.Weighted>
-3.2053

> <Gold.Chemscore.Metal.Weighted>
-0.0000

> <Gold.Chemscore.Lipo.Weighted>
-13.1102

> <Gold.Chemscore.Internal_Hbond.Weighted>
0.0000

> <Gold.Chemscore.DEClash.Weighted>
0.3806

> <Gold.Chemscore.DEInternal.Weighted>
1.8636

> <Gold.Chemscore.Rot.Weighted>
3.6551

> <Gold.Chemscore.Internal.Correction.Weighted>
   9.000000E+99

> <Gold.Protein.RotatedTorsions>
[ 6907 6896 6895 6894 ] final  -92.93 input  -60.11 | X-H torsion
[ 7974 7965 7964 7962 ] final  156.93 input  175.53 | X-H torsion
[ 8008 7997 7996 7995 ] final  163.21 input   59.86 | X-H torsion
[ 10167 10162 10161 10158 ] final  -15.56 input  -65.29 | X-H torsion
[ 10718 10713 10712 10709 ] final -151.81 input   66.30 | X-H torsion
[ 10763 10752 10751 10750 ] final    7.59 input  -60.55 | X-H torsion
[ 11005 11000 10999 10996 ] final    7.46 input  -57.11 | X-H torsion

> <Gold.Protein.ActiveResidues>
 VAL166  LYS551  ARG553  GLY616  TRP617  ASP618  TYR619  PRO620  LYS621  CYS622 
 ASP623  PHE694  ASN695  SER759  ASP760  ASP761  ALA762  ILE779  LEU786  VAL792 
 PHE793  MET794  SER795  GLU796  ALA797  LYS798  CYS799  TRP800  GLU811  SER814 

> <Gold.Protein.RotatedAtoms>
  150.6914  134.2046  159.4335 H   0  0  0  0  0  0  0  0  0  0  0  0  # atno 6907 bound_to 6896
  152.0010  134.9926  160.0574 H   0  0  0  0  0  0  0  0  0  0  0  0  # atno 6908 bound_to 6896
  152.1578  133.4527  159.4882 H   0  0  0  0  0  0  0  0  0  0  0  0  # atno 6909 bound_to 6896
  144.7933  139.7271  143.6212 H   0  0  0  0  0  0  0  0  0  0  0  0  # atno 7974 bound_to 7965
  156.1974  140.1730  156.7969 H   0  0  0  0  0  0  0  0  0  0  0  0  # atno 8008 bound_to 7997
  154.5547  140.0711  156.8756 H   0  0  0  0  0  0  0  0  0  0  0  0  # atno 8009 bound_to 7997
  155.2961  140.3358  155.4252 H   0  0  0  0  0  0  0  0  0  0  0  0  # atno 8010 bound_to 7997
  140.7220  143.5205  150.9639 H   0  0  0  0  0  0  0  0  0  0  0  0  # atno 10167 bound_to 10162
  156.4642  130.8227  151.2458 H   0  0  0  0  0  0  0  0  0  0  0  0  # atno 10718 bound_to 10713
  153.2345  135.6896  153.7852 H   0  0  0  0  0  0  0  0  0  0  0  0  # atno 10763 bound_to 10752
  153.7004  135.3298  155.3224 H   0  0  0  0  0  0  0  0  0  0  0  0  # atno 10764 bound_to 10752
  154.8329  135.4566  154.1244 H   0  0  0  0  0  0  0  0  0  0  0  0  # atno 10765 bound_to 10752
  140.5479  134.0311  155.7926 H   0  0  0  0  0  0  0  0  0  0  0  0  # atno 11005 bound_to 11000
  146.2193  139.5606  142.9629 LP  0  0  0  0  0  0  0  0  0  0  0  0  # atno 17320 bound_to 7965
  145.5737  141.0391  143.2160 LP  0  0  0  0  0  0  0  0  0  0  0  0  # atno 17321 bound_to 7965
  139.8923  143.6938  152.3143 LP  0  0  0  0  0  0  0  0  0  0  0  0  # atno 17342 bound_to 10162
  139.7258  144.7593  151.0881 LP  0  0  0  0  0  0  0  0  0  0  0  0  # atno 17343 bound_to 10162
  157.7496  131.0097  150.3279 LP  0  0  0  0  0  0  0  0  0  0  0  0  # atno 17370 bound_to 10713
  156.3685  130.3859  149.7194 LP  0  0  0  0  0  0  0  0  0  0  0  0  # atno 17371 bound_to 10713
  141.1189  133.9495  157.2769 LP  0  0  0  0  0  0  0  0  0  0  0  0  # atno 17394 bound_to 11000
  139.9470  135.0182  156.8881 LP  0  0  0  0  0  0  0  0  0  0  0  0  # atno 17395 bound_to 11000

$$$$
