AV-unprocessed.smi:3202|AV-procd|sdf|12241|dock5
  -GOLD-   2272018 73D 1   1.00000     0.00000
 Structure written by MMmdl.
 43 44  0  0  0  0  0  0  0  0  2 V2000
  151.6120  138.5039  154.6538 C   0  0  0  0  0  0  0  0  0  0  0  0
  150.4708  139.4358  154.8810 C   0  0  0  0  0  0  0  0  0  0  0  0
  150.0604  140.1082  155.9974 C   0  0  0  0  0  0  0  0  0  0  0  0
  148.9097  140.8337  155.5700 C   0  0  0  0  0  0  0  0  0  0  0  0
  148.0392  141.7460  156.3914 C   0  0  0  0  0  0  0  0  0  0  0  0
  148.6223  142.0603  157.7889 C   0  0  2  0  0  0  0  0  0  0  0  0
  147.6395  142.8315  158.6855 C   0  0  0  0  0  0  0  0  0  0  0  0
  149.8740  142.8432  157.6706 N   0  3  0  0  0  0  0  0  0  0  0  0
  150.4747  143.3102  158.9432 C   0  0  2  0  0  0  0  0  0  0  0  0
  149.9163  144.6580  159.4222 C   0  0  0  0  0  0  0  0  0  0  0  0
  151.0271  145.2838  160.2754 C   0  0  0  0  0  0  0  0  0  0  0  0
  152.2591  144.3823  160.1084 C   0  0  0  0  0  0  0  0  0  0  0  0
  152.0021  143.5198  158.8595 C   0  0  0  0  0  0  0  0  0  0  0  0
  152.7674  142.1856  158.9379 C   0  0  0  0  0  0  0  0  0  0  0  0
  152.4361  144.2913  157.5914 C   0  0  0  0  0  0  0  0  0  0  0  0
  148.6296  140.6273  154.2908 N   0  0  0  0  0  0  0  0  0  0  0  0
  149.5865  139.7734  153.8827 N   0  0  0  0  0  0  0  0  0  0  0  0
  149.6253  139.4352  152.9313 H   0  0  0  0  0  0  0  0  0  0  0  0
  152.2271  138.4147  155.5495 H   0  0  0  0  0  0  0  0  0  0  0  0
  152.2485  138.8595  153.8433 H   0  0  0  0  0  0  0  0  0  0  0  0
  151.2529  137.5086  154.3918 H   0  0  0  0  0  0  0  0  0  0  0  0
  150.5151  140.0853  156.9769 H   0  0  0  0  0  0  0  0  0  0  0  0
  147.8866  142.6689  155.8329 H   0  0  0  0  0  0  0  0  0  0  0  0
  147.0461  141.3079  156.5030 H   0  0  0  0  0  0  0  0  0  0  0  0
  148.8485  141.1214  158.2945 H   0  0  0  0  0  0  0  0  0  0  0  0
  146.7486  142.2431  158.9052 H   0  0  0  0  0  0  0  0  0  0  0  0
  147.3186  143.7620  158.2162 H   0  0  0  0  0  0  0  0  0  0  0  0
  148.0974  143.0827  159.6427 H   0  0  0  0  0  0  0  0  0  0  0  0
  150.5515  142.2789  157.1780 H   0  0  0  0  0  0  0  0  0  0  0  0
  150.2810  142.5718  159.7218 H   0  0  0  0  0  0  0  0  0  0  0  0
  149.7005  145.3074  158.5725 H   0  0  0  0  0  0  0  0  0  0  0  0
  148.9898  144.5404  159.9851 H   0  0  0  0  0  0  0  0  0  0  0  0
  151.2391  146.2963  159.9300 H   0  0  0  0  0  0  0  0  0  0  0  0
  150.7367  145.3527  161.3244 H   0  0  0  0  0  0  0  0  0  0  0  0
  153.1852  144.9550  160.0465 H   0  0  0  0  0  0  0  0  0  0  0  0
  152.3428  143.7434  160.9890 H   0  0  0  0  0  0  0  0  0  0  0  0
  153.8447  142.3515  158.9682 H   0  0  0  0  0  0  0  0  0  0  0  0
  152.5552  141.5556  158.0734 H   0  0  0  0  0  0  0  0  0  0  0  0
  152.4990  141.6185  159.8299 H   0  0  0  0  0  0  0  0  0  0  0  0
  153.5025  144.5179  157.6188 H   0  0  0  0  0  0  0  0  0  0  0  0
  151.9082  145.2392  157.4855 H   0  0  0  0  0  0  0  0  0  0  0  0
  152.2572  143.7122  156.6851 H   0  0  0  0  0  0  0  0  0  0  0  0
  149.6806  143.6633  157.1135 H   0  0  0  0  0  0  0  0  0  0  0  0
  1  2  1  0  0  0  0
  1 19  1  0  0  0  0
  1 20  1  0  0  0  0
  1 21  1  0  0  0  0
  2 17  1  0  0  0  0
  2  3  2  0  0  0  0
  3  4  1  0  0  0  0
  3 22  1  0  0  0  0
  4  5  1  0  0  0  0
  4 16  2  0  0  0  0
  5  6  1  0  0  0  0
  5 23  1  0  0  0  0
  5 24  1  0  0  0  0
  6  7  1  0  0  0  0
  6  8  1  0  0  0  0
  6 25  1  0  0  0  0
  7 26  1  0  0  0  0
  7 27  1  0  0  0  0
  7 28  1  0  0  0  0
  8  9  1  0  0  0  0
  8 29  1  0  0  0  0
  8 43  1  0  0  0  0
  9 13  1  0  0  0  0
  9 10  1  0  0  0  0
  9 30  1  0  0  0  0
 10 11  1  0  0  0  0
 10 31  1  0  0  0  0
 10 32  1  0  0  0  0
 11 12  1  0  0  0  0
 11 33  1  0  0  0  0
 11 34  1  0  0  0  0
 12 13  1  0  0  0  0
 12 35  1  0  0  0  0
 12 36  1  0  0  0  0
 13 14  1  0  0  0  0
 13 15  1  0  0  0  0
 14 37  1  0  0  0  0
 14 38  1  0  0  0  0
 14 39  1  0  0  0  0
 15 40  1  0  0  0  0
 15 41  1  0  0  0  0
 15 42  1  0  0  0  0
 16 17  1  0  0  0  0
 17 18  1  0  0  0  0
M  CHG  1   8   1
M  END
> <s_m_source_file>
AV-unprocessed.smi

> <i_m_source_file_index>
3202

> <i_lp_mmshare_version>
43012

> <i_f3d_flags>
0

> <s_epik_input>
W0NIM11jMVtjSF1jKG5bbkhdMSlbQ0gyXVtDQEhdKFtDSDNdKVtOSF1bQ0BASF0oQzIoW0NIM10pW0NIM10pW0NIMl1bQ0gyXVtDSDJdMg==

> <s_epik_cmdline>
J2VwaWtfcHl0aG9uJywgJy1waCcsICc3LjAnLCAnLXRuJywgJzgnLCAnLW1hJywgJzIwMCcsICctbWV0YWxfYmluZGluZycsICctaW1hZScsICc8aW5maWxlLm1hZT4nLCAnLW9tYWUnLCAnPG91dGZpbGUubWFlPic=

> <r_lp_tautomer_probability>
0.5

> <r_epik_Ionization_Penalty>
0.000341671

> <r_epik_Ionization_Penalty_Charging>
0.000281809

> <r_epik_Ionization_Penalty_Neutral>
5.9862e-05

> <r_epik_State_Penalty>
0.41068

> <r_epik_Charging_Adjusted_Penalty>
0.410962

> <i_epik_Tot_Q>
1

> <i_epik_Tot_abs_Q>
1

> <r_epik_Metal_State_Penalty>
0.410672

> <b_epik_Metal_Only>
0

> <s_lp_Force_Field>
OPLS_2005

> <r_lp_Energy>
28.8614

> <b_lp_Chiralities_Consistent>
1

> <s_lp_Variant>
AV-unprocessed.smi:3202-1

> <Gold.Version>
5.8.1

> <Gold.Id.Protein>
6NUR|6NUR_protein|mol2

> <Gold.PLP.Fitness>
42.6905

> <Gold.PLP.PLP>
-34.8983

> <Gold.PLP.part.hbond>
-2.0000

> <Gold.PLP.part.metal>
0.0000

> <Gold.PLP.part.buried>
-3.7669

> <Gold.PLP.part.nonpolar>
-29.2987

> <Gold.PLP.part.repulsive>
1.5292

> <Gold.PLP.ligand.clash>
0.0000

> <Gold.PLP.ligand.torsion>
0.4515

> <Gold.PLP.Chemscore.Hbond>
2.8960

> <Gold.PLP.Chemscore.CHOScore>
0.0000

> <Gold.PLP.Chemscore.Metal>
0.0000

> <Gold.Chemscore.Hbonds>
donor molecule, donor type, donor heavy atom, donor atom, acceptor molecule, acceptor atom, score
      L1  H     8    43       P1  8028  2.00
      L1  H    17    18       P1  7957  0.85

> <Gold.PLP.Chemscore.Internal.Correction>
0.0072

> <Gold.Rescore>
     Score         DG    S(hbond)    S(metal)    S(lipo)     H(rot)  DE(clash)    DE(int)     intcor
     18.66     -20.25       1.78        0.00     107.35       1.46       0.10       1.49       ----

> <Gold.Chemscore.Fitness>
18.6616

> <Gold.Chemscore.DG>
-20.2462

> <Gold.Chemscore.ZeroCoef>
-5.4800

> <Gold.Chemscore.Hbond>
1.7792

> <Gold.Chemscore.Metal>
0.0000

> <Gold.Chemscore.Lipo>
107.3524

> <Gold.Chemscore.Internal_Hbond>
0.0000

> <Gold.Chemscore.DEClash>
0.0954

> <Gold.Chemscore.DEInternal>
1.4892

> <Gold.Chemscore.Rot>
1.4596

> <Gold.Chemscore.Internal.Correction>
   9.000000E+99

> <Gold.Chemscore.Hbonds>
donor molecule, donor type, donor heavy atom, donor atom, acceptor molecule, acceptor atom, score
      L1  H     8    43       P1  8028  0.89
      L1  H    17    18       P1  7957  0.83

> <Gold.Chemscore.Hbond.Weighted>
-5.9424

> <Gold.Chemscore.Metal.Weighted>
-0.0000

> <Gold.Chemscore.Lipo.Weighted>
-12.5602

> <Gold.Chemscore.Internal_Hbond.Weighted>
0.0000

> <Gold.Chemscore.DEClash.Weighted>
0.0954

> <Gold.Chemscore.DEInternal.Weighted>
1.4892

> <Gold.Chemscore.Rot.Weighted>
3.7365

> <Gold.Chemscore.Internal.Correction.Weighted>
   9.000000E+99

> <Gold.Protein.RotatedTorsions>
[ 6907 6896 6895 6894 ] final   38.65 input  -60.11 | X-H torsion
[ 7974 7965 7964 7962 ] final -101.89 input  175.53 | X-H torsion
[ 8008 7997 7996 7995 ] final   38.91 input   59.86 | X-H torsion
[ 10167 10162 10161 10158 ] final   81.13 input  -65.29 | X-H torsion
[ 10718 10713 10712 10709 ] final -112.76 input   66.30 | X-H torsion
[ 10763 10752 10751 10750 ] final  -41.04 input  -60.55 | X-H torsion
[ 11005 11000 10999 10996 ] final  -10.95 input  -57.11 | X-H torsion

> <Gold.Protein.ActiveResidues>
 VAL166  LYS551  ARG553  GLY616  TRP617  ASP618  TYR619  PRO620  LYS621  CYS622 
 ASP623  PHE694  ASN695  SER759  ASP760  ASP761  ALA762  ILE779  LEU786  VAL792 
 PHE793  MET794  SER795  GLU796  ALA797  LYS798  CYS799  TRP800  GLU811  SER814 

> <Gold.Protein.RotatedAtoms>
  152.1592  134.8926  160.0542 H   0  0  0  0  0  0  0  0  0  0  0  0  # atno 6907 bound_to 6896
  151.9928  133.3792  159.4159 H   0  0  0  0  0  0  0  0  0  0  0  0  # atno 6908 bound_to 6896
  150.6885  134.3841  159.5091 H   0  0  0  0  0  0  0  0  0  0  0  0  # atno 6909 bound_to 6896
  145.2758  140.9312  143.2960 H   0  0  0  0  0  0  0  0  0  0  0  0  # atno 7974 bound_to 7965
  155.2279  140.3336  155.4307 H   0  0  0  0  0  0  0  0  0  0  0  0  # atno 8008 bound_to 7997
  156.2307  140.1849  156.7297 H   0  0  0  0  0  0  0  0  0  0  0  0  # atno 8009 bound_to 7997
  154.5972  140.0628  156.9305 H   0  0  0  0  0  0  0  0  0  0  0  0  # atno 8010 bound_to 7997
  139.9424  144.6081  150.8239 H   0  0  0  0  0  0  0  0  0  0  0  0  # atno 10167 bound_to 10162
  156.0725  130.5937  150.8552 H   0  0  0  0  0  0  0  0  0  0  0  0  # atno 10718 bound_to 10713
  153.9560  135.6745  153.4744 H   0  0  0  0  0  0  0  0  0  0  0  0  # atno 10763 bound_to 10752
  153.0861  135.4898  154.8596 H   0  0  0  0  0  0  0  0  0  0  0  0  # atno 10764 bound_to 10752
  154.7299  135.3136  154.8868 H   0  0  0  0  0  0  0  0  0  0  0  0  # atno 10765 bound_to 10752
  140.7502  133.8599  155.9038 H   0  0  0  0  0  0  0  0  0  0  0  0  # atno 11005 bound_to 11000
  144.9295  139.4315  143.6502 LP  0  0  0  0  0  0  0  0  0  0  0  0  # atno 17320 bound_to 7965
  146.3232  139.8199  142.8929 LP  0  0  0  0  0  0  0  0  0  0  0  0  # atno 17321 bound_to 7965
  140.7607  143.3157  151.2739 LP  0  0  0  0  0  0  0  0  0  0  0  0  # atno 17342 bound_to 10162
  139.6693  144.0048  152.2743 LP  0  0  0  0  0  0  0  0  0  0  0  0  # atno 17343 bound_to 10162
  157.5804  131.0946  150.9280 LP  0  0  0  0  0  0  0  0  0  0  0  0  # atno 17370 bound_to 10713
  156.9477  130.5408  149.5281 LP  0  0  0  0  0  0  0  0  0  0  0  0  # atno 17371 bound_to 10713
  140.9758  134.1471  157.4537 LP  0  0  0  0  0  0  0  0  0  0  0  0  # atno 17394 bound_to 11000
  139.8789  134.9994  156.5952 LP  0  0  0  0  0  0  0  0  0  0  0  0  # atno 17395 bound_to 11000

$$$$
