AV-unprocessed.smi:1736|AV-procd|sdf|6992|dock7
  -GOLD-   22720 8203D 1   1.00000     0.00000
 Structure written by MMmdl.
 44 45  0  0  0  0  0  0  0  0  1 V2000
  152.5086  139.8680  155.6064 C   0  0  0  0  0  0  0  0  0  0  0  0
  151.2337  139.9052  154.9067 N   0  0  0  0  0  0  0  0  0  0  0  0
  150.6210  138.5820  154.8355 C   0  0  0  0  0  0  0  0  0  0  0  0
  149.2778  138.6212  154.0837 C   0  0  0  0  0  0  0  0  0  0  0  0
  148.3216  139.5443  154.7177 N   0  0  0  0  0  0  0  0  0  0  0  0
  146.9552  139.5364  154.1230 C   0  0  0  0  0  0  0  0  0  0  0  0
  146.0377  140.6422  154.6988 C   0  0  0  0  0  0  0  0  0  0  0  0
  147.0165  139.7485  152.5889 C   0  0  0  0  0  0  0  0  0  0  0  0
  146.2333  138.1759  154.3562 C   0  0  0  0  0  0  0  0  0  0  0  0
  146.6342  137.1466  153.3974 N   0  0  0  0  0  0  0  0  0  0  0  0
  145.8085  136.3076  152.7565 C   0  0  0  0  0  0  0  0  0  0  0  0
  144.5879  136.2952  152.9154 O   0  0  0  0  0  0  0  0  0  0  0  0
  146.4869  135.5010  151.9247 N   0  0  0  0  0  0  0  0  0  0  0  0
  145.9543  134.4932  151.0827 C   0  0  0  0  0  0  0  0  0  0  0  0
  146.5427  133.2645  150.6618 C   0  0  0  0  0  0  0  0  0  0  0  0
  145.7236  132.5873  149.8694 N   0  0  0  0  0  0  0  0  0  0  0  0
  144.6233  133.3681  149.7808 N   0  0  0  0  0  0  0  0  0  0  0  0
  144.7217  134.5368  150.5028 C   0  0  0  0  0  0  0  0  0  0  0  0
  148.9539  140.8714  154.7957 C   0  0  0  0  0  0  0  0  0  0  0  0
  150.2958  140.8211  155.5485 C   0  0  0  0  0  0  0  0  0  0  0  0
  143.8228  133.0921  149.2300 H   0  0  0  0  0  0  0  0  0  0  0  0
  153.2047  139.1950  155.1049 H   0  0  0  0  0  0  0  0  0  0  0  0
  152.3850  139.5249  156.6344 H   0  0  0  0  0  0  0  0  0  0  0  0
  152.9643  140.8584  155.6310 H   0  0  0  0  0  0  0  0  0  0  0  0
  151.2962  137.8911  154.3292 H   0  0  0  0  0  0  0  0  0  0  0  0
  150.4660  138.1859  155.8406 H   0  0  0  0  0  0  0  0  0  0  0  0
  149.4573  138.9096  153.0478 H   0  0  0  0  0  0  0  0  0  0  0  0
  148.8834  137.6068  154.0658 H   0  0  0  0  0  0  0  0  0  0  0  0
  145.0523  140.6144  154.2319 H   0  0  0  0  0  0  0  0  0  0  0  0
  146.4369  141.6414  154.5262 H   0  0  0  0  0  0  0  0  0  0  0  0
  145.8792  140.5293  155.7709 H   0  0  0  0  0  0  0  0  0  0  0  0
  146.0503  139.5593  152.1195 H   0  0  0  0  0  0  0  0  0  0  0  0
  147.7413  139.0833  152.1184 H   0  0  0  0  0  0  0  0  0  0  0  0
  147.2879  140.7700  152.3231 H   0  0  0  0  0  0  0  0  0  0  0  0
  146.4361  137.7926  155.3559 H   0  0  0  0  0  0  0  0  0  0  0  0
  145.1507  138.3147  154.3370 H   0  0  0  0  0  0  0  0  0  0  0  0
  147.6207  137.0870  153.1921 H   0  0  0  0  0  0  0  0  0  0  0  0
  147.4881  135.6230  151.8875 H   0  0  0  0  0  0  0  0  0  0  0  0
  147.5099  132.8434  150.8931 H   0  0  0  0  0  0  0  0  0  0  0  0
  143.9306  135.2716  150.5382 H   0  0  0  0  0  0  0  0  0  0  0  0
  149.1202  141.2740  153.7963 H   0  0  0  0  0  0  0  0  0  0  0  0
  148.3114  141.5774  155.3180 H   0  0  0  0  0  0  0  0  0  0  0  0
  150.1244  140.5184  156.5828 H   0  0  0  0  0  0  0  0  0  0  0  0
  150.7256  141.8227  155.5843 H   0  0  0  0  0  0  0  0  0  0  0  0
  1  2  1  0  0  0  0
  1 22  1  0  0  0  0
  1 23  1  0  0  0  0
  1 24  1  0  0  0  0
  2 20  1  0  0  0  0
  2  3  1  0  0  0  0
  3  4  1  0  0  0  0
  3 25  1  0  0  0  0
  3 26  1  0  0  0  0
  4  5  1  0  0  0  0
  4 27  1  0  0  0  0
  4 28  1  0  0  0  0
  5  6  1  0  0  0  0
  5 19  1  0  0  0  0
  6  7  1  0  0  0  0
  6  8  1  0  0  0  0
  6  9  1  0  0  0  0
  7 29  1  0  0  0  0
  7 30  1  0  0  0  0
  7 31  1  0  0  0  0
  8 32  1  0  0  0  0
  8 33  1  0  0  0  0
  8 34  1  0  0  0  0
  9 10  1  0  0  0  0
  9 35  1  0  0  0  0
  9 36  1  0  0  0  0
 10 11  1  0  0  0  0
 10 37  1  0  0  0  0
 11 12  2  0  0  0  0
 11 13  1  0  0  0  0
 13 14  1  0  0  0  0
 13 38  1  0  0  0  0
 14 18  2  0  0  0  0
 14 15  1  0  0  0  0
 15 16  2  0  0  0  0
 15 39  1  0  0  0  0
 16 17  1  0  0  0  0
 17 21  1  0  0  0  0
 17 18  1  0  0  0  0
 18 40  1  0  0  0  0
 19 20  1  0  0  0  0
 19 41  1  0  0  0  0
 19 42  1  0  0  0  0
 20 43  1  0  0  0  0
 20 44  1  0  0  0  0
M  END
> <s_m_source_file>
AV-unprocessed.smi

> <i_m_source_file_index>
1736

> <i_lp_mmshare_version>
43012

> <i_f3d_flags>
0

> <s_epik_input>
W0NIM11OMVtDSDJdW0NIMl1OKFtDSDJdW0NIMl0xKUMoW0NIM10pKFtDSDNdKVtDSDJdW05IXUMoPU8pW05IXWMyW2NIXW5bbkhdW2NIXTI=

> <s_epik_cmdline>
J2VwaWtfcHl0aG9uJywgJy1waCcsICc3LjAnLCAnLXRuJywgJzgnLCAnLW1hJywgJzIwMCcsICctbWV0YWxfYmluZGluZycsICctaW1hZScsICc8aW5maWxlLm1hZT4nLCAnLW9tYWUnLCAnPG91dGZpbGUubWFlPic=

> <r_lp_tautomer_probability>
0.5

> <r_epik_Ionization_Penalty>
3.08539

> <r_epik_Ionization_Penalty_Charging>
0

> <r_epik_Ionization_Penalty_Neutral>
3.08539

> <r_epik_State_Penalty>
2.1584

> <r_epik_Charging_Adjusted_Penalty>
2.1584

> <i_epik_Tot_Q>
0

> <i_epik_Tot_abs_Q>
0

> <r_epik_Metal_State_Penalty>
2.1584

> <b_epik_Metal_Only>
0

> <s_lp_Force_Field>
OPLS_2005

> <r_lp_Energy>
53.1153

> <b_lp_Chiralities_Consistent>
1

> <s_lp_Variant>
AV-unprocessed.smi:1736-3

> <Gold.Version>
5.8.1

> <Gold.Id.Protein>
6NUR|6NUR_protein|mol2

> <Gold.PLP.Fitness>
36.9516

> <Gold.PLP.PLP>
-27.2257

> <Gold.PLP.part.hbond>
-4.0000

> <Gold.PLP.part.metal>
0.0000

> <Gold.PLP.part.buried>
0.6539

> <Gold.PLP.part.nonpolar>
-23.6408

> <Gold.PLP.part.repulsive>
0.5897

> <Gold.PLP.ligand.clash>
0.0000

> <Gold.PLP.ligand.torsion>
0.8127

> <Gold.PLP.Chemscore.Hbond>
2.7706

> <Gold.PLP.Chemscore.CHOScore>
0.9998

> <Gold.PLP.Chemscore.Metal>
0.0000

> <Gold.Chemscore.Hbonds>
donor molecule, donor type, donor heavy atom, donor atom, acceptor molecule, acceptor atom, score
      L1  H    10    37       P1  7948  0.76
      L1  H    13    38       P1  7948  1.00
      P1  H  7989  7998       L1     2  0.95
      L1  C    15    39       P1 10747  0.98

> <Gold.PLP.Chemscore.Internal.Correction>
0.0401

> <Gold.Rescore>
     Score         DG    S(hbond)    S(metal)    S(lipo)     H(rot)  DE(clash)    DE(int)     intcor
     14.27     -18.39       2.35        0.00      77.95       1.59       2.13       2.00       ----

> <Gold.Chemscore.Fitness>
14.2659

> <Gold.Chemscore.DG>
-18.3910

> <Gold.Chemscore.ZeroCoef>
-5.4800

> <Gold.Chemscore.Hbond>
2.3537

> <Gold.Chemscore.Metal>
0.0000

> <Gold.Chemscore.Lipo>
77.9521

> <Gold.Chemscore.Internal_Hbond>
0.0000

> <Gold.Chemscore.DEClash>
2.1266

> <Gold.Chemscore.DEInternal>
1.9986

> <Gold.Chemscore.Rot>
1.5901

> <Gold.Chemscore.Internal.Correction>
   9.000000E+99

> <Gold.Chemscore.Hbonds>
donor molecule, donor type, donor heavy atom, donor atom, acceptor molecule, acceptor atom, score
      L1  H    10    37       P1  7948  0.72
      L1  H    13    38       P1  7948  0.95
      P1  H  7989  7998       L1     2  0.06

> <Gold.Chemscore.Hbond.Weighted>
-7.8612

> <Gold.Chemscore.Metal.Weighted>
-0.0000

> <Gold.Chemscore.Lipo.Weighted>
-9.1204

> <Gold.Chemscore.Internal_Hbond.Weighted>
0.0000

> <Gold.Chemscore.DEClash.Weighted>
2.1266

> <Gold.Chemscore.DEInternal.Weighted>
1.9986

> <Gold.Chemscore.Rot.Weighted>
4.0706

> <Gold.Chemscore.Internal.Correction.Weighted>
   9.000000E+99

> <Gold.Protein.RotatedTorsions>
[ 6907 6896 6895 6894 ] final -120.83 input  -60.11 | X-H torsion
[ 7974 7965 7964 7962 ] final  -26.42 input  175.53 | X-H torsion
[ 8008 7997 7996 7995 ] final -114.01 input   59.86 | X-H torsion
[ 10167 10162 10161 10158 ] final   89.23 input  -65.29 | X-H torsion
[ 10718 10713 10712 10709 ] final  112.08 input   66.30 | X-H torsion
[ 10763 10752 10751 10750 ] final  169.70 input  -60.55 | X-H torsion
[ 11005 11000 10999 10996 ] final -108.57 input  -57.11 | X-H torsion

> <Gold.Protein.ActiveResidues>
 VAL166  LYS551  ARG553  GLY616  TRP617  ASP618  TYR619  PRO620  LYS621  CYS622 
 ASP623  PHE694  ASN695  SER759  ASP760  ASP761  ALA762  ILE779  LEU786  VAL792 
 PHE793  MET794  SER795  GLU796  ALA797  LYS798  CYS799  TRP800  GLU811  SER814 

> <Gold.Protein.RotatedAtoms>
  150.8428  133.7908  159.3053 H   0  0  0  0  0  0  0  0  0  0  0  0  # atno 6907 bound_to 6896
  151.5604  135.1064  159.9981 H   0  0  0  0  0  0  0  0  0  0  0  0  # atno 6908 bound_to 6896
  152.4489  133.7547  159.6769 H   0  0  0  0  0  0  0  0  0  0  0  0  # atno 6909 bound_to 6896
  146.1427  140.5017  142.8645 H   0  0  0  0  0  0  0  0  0  0  0  0  # atno 7974 bound_to 7965
  155.0297  140.0393  157.2469 H   0  0  0  0  0  0  0  0  0  0  0  0  # atno 8008 bound_to 7997
  154.7307  140.2730  155.6435 H   0  0  0  0  0  0  0  0  0  0  0  0  # atno 8009 bound_to 7997
  156.2840  140.2684  156.2006 H   0  0  0  0  0  0  0  0  0  0  0  0  # atno 8010 bound_to 7997
  139.8593  144.6552  150.9077 H   0  0  0  0  0  0  0  0  0  0  0  0  # atno 10167 bound_to 10162
  157.6411  131.0961  150.6843 H   0  0  0  0  0  0  0  0  0  0  0  0  # atno 10718 bound_to 10713
  154.3869  135.2754  155.2178 H   0  0  0  0  0  0  0  0  0  0  0  0  # atno 10763 bound_to 10752
  154.4261  135.5988  153.6043 H   0  0  0  0  0  0  0  0  0  0  0  0  # atno 10764 bound_to 10752
  152.9833  135.5984  154.4119 H   0  0  0  0  0  0  0  0  0  0  0  0  # atno 10765 bound_to 10752
  141.0894  133.9081  157.2109 H   0  0  0  0  0  0  0  0  0  0  0  0  # atno 11005 bound_to 11000
  144.7810  140.5841  143.6605 LP  0  0  0  0  0  0  0  0  0  0  0  0  # atno 17320 bound_to 7965
  145.5010  139.1483  143.3657 LP  0  0  0  0  0  0  0  0  0  0  0  0  # atno 17321 bound_to 7965
  140.7777  143.3758  151.1566 LP  0  0  0  0  0  0  0  0  0  0  0  0  # atno 17342 bound_to 10162
  139.7389  143.8955  152.3043 LP  0  0  0  0  0  0  0  0  0  0  0  0  # atno 17343 bound_to 10162
  156.7166  130.4668  149.5533 LP  0  0  0  0  0  0  0  0  0  0  0  0  # atno 17370 bound_to 10713
  156.1693  130.6426  151.0818 LP  0  0  0  0  0  0  0  0  0  0  0  0  # atno 17371 bound_to 10713
  139.9718  135.0126  156.9531 LP  0  0  0  0  0  0  0  0  0  0  0  0  # atno 17394 bound_to 11000
  140.5286  134.0836  155.7310 LP  0  0  0  0  0  0  0  0  0  0  0  0  # atno 17395 bound_to 11000

$$$$
