AV-unprocessed.smi:3316|AV-procd|sdf|12757|dock5
  -GOLD-   2272019 93D 1   1.00000     0.00000
 Structure written by MMmdl.
 41 43  0  0  0  0  0  0  0  0  2 V2000
  147.7703  139.9187  156.4295 C   0  0  0  0  0  0  0  0  0  0  0  0
  147.9939  140.8027  155.1924 C   0  0  2  0  0  0  0  0  0  0  0  0
  149.3947  141.4447  155.2034 C   0  0  0  0  0  0  0  0  0  0  0  0
  149.6068  142.2694  156.4105 N   0  3  0  0  0  0  0  0  0  0  0  0
  151.0239  142.4193  156.7936 C   0  0  0  0  0  0  0  0  0  0  0  0
  151.1612  142.8305  158.2708 C   0  0  2  0  0  0  0  0  0  0  0  0
  150.4170  144.1560  158.6305 C   0  0  0  0  0  0  0  0  0  0  0  0
  151.5320  145.0292  159.2508 C   0  0  1  0  0  0  0  0  0  0  0  0
  151.9888  144.3690  160.5343 C   0  0  0  0  0  0  0  0  0  0  0  0
  152.6448  143.2572  160.1965 C   0  0  0  0  0  0  0  0  0  0  0  0
  152.6191  143.1608  158.6849 C   0  0  2  0  0  0  0  0  0  0  0  0
  152.6944  144.6514  158.3286 C   0  0  0  0  0  0  0  0  0  0  0  0
  146.8869  141.8400  155.0476 C   0  0  0  0  0  0  0  0  0  0  0  0
  145.9438  142.0297  156.0798 C   0  0  0  0  0  0  0  0  0  0  0  0
  144.9342  142.9969  155.9026 C   0  0  0  0  0  0  0  0  0  0  0  0
  144.8194  143.7530  154.7903 N   0  0  0  0  0  0  0  0  0  0  0  0
  145.7245  143.5696  153.8055 C   0  0  0  0  0  0  0  0  0  0  0  0
  146.7714  142.6293  153.8825 C   0  0  0  0  0  0  0  0  0  0  0  0
  146.7995  139.4239  156.3857 H   0  0  0  0  0  0  0  0  0  0  0  0
  147.8062  140.4987  157.3522 H   0  0  0  0  0  0  0  0  0  0  0  0
  148.5315  139.1412  156.4988 H   0  0  0  0  0  0  0  0  0  0  0  0
  147.9445  140.1453  154.3227 H   0  0  0  0  0  0  0  0  0  0  0  0
  150.1684  140.6776  155.1498 H   0  0  0  0  0  0  0  0  0  0  0  0
  149.5151  142.0777  154.3235 H   0  0  0  0  0  0  0  0  0  0  0  0
  149.2218  143.1884  156.2447 H   0  0  0  0  0  0  0  0  0  0  0  0
  151.5303  141.4670  156.6309 H   0  0  0  0  0  0  0  0  0  0  0  0
  151.5006  143.1494  156.1391 H   0  0  0  0  0  0  0  0  0  0  0  0
  150.7915  142.0110  158.8904 H   0  0  0  0  0  0  0  0  0  0  0  0
  150.0056  144.6396  157.7433 H   0  0  0  0  0  0  0  0  0  0  0  0
  149.5944  143.9898  159.3273 H   0  0  0  0  0  0  0  0  0  0  0  0
  151.3247  146.0966  159.3308 H   0  0  0  0  0  0  0  0  0  0  0  0
  151.7797  144.7384  161.5274 H   0  0  0  0  0  0  0  0  0  0  0  0
  153.0839  142.5223  160.8549 H   0  0  0  0  0  0  0  0  0  0  0  0
  153.4029  142.5340  158.2583 H   0  0  0  0  0  0  0  0  0  0  0  0
  152.5140  144.8738  157.2758 H   0  0  0  0  0  0  0  0  0  0  0  0
  153.6394  145.1123  158.6239 H   0  0  0  0  0  0  0  0  0  0  0  0
  145.9883  141.4527  156.9918 H   0  0  0  0  0  0  0  0  0  0  0  0
  144.1983  143.1662  156.6747 H   0  0  0  0  0  0  0  0  0  0  0  0
  145.6105  144.1895  152.9287 H   0  0  0  0  0  0  0  0  0  0  0  0
  147.4681  142.5241  153.0638 H   0  0  0  0  0  0  0  0  0  0  0  0
  149.1085  141.8453  157.1802 H   0  0  0  0  0  0  0  0  0  0  0  0
  1  2  1  0  0  0  0
  1 19  1  0  0  0  0
  1 20  1  0  0  0  0
  1 21  1  0  0  0  0
  2  3  1  0  0  0  0
  2 13  1  0  0  0  0
  2 22  1  0  0  0  0
  3  4  1  0  0  0  0
  3 23  1  0  0  0  0
  3 24  1  0  0  0  0
  4  5  1  0  0  0  0
  4 25  1  0  0  0  0
  4 41  1  0  0  0  0
  5  6  1  0  0  0  0
  5 26  1  0  0  0  0
  5 27  1  0  0  0  0
  6 11  1  0  0  0  0
  6  7  1  0  0  0  0
  6 28  1  0  0  0  0
  7  8  1  0  0  0  0
  7 29  1  0  0  0  0
  7 30  1  0  0  0  0
  8 12  1  0  0  0  0
  8  9  1  0  0  0  0
  8 31  1  0  0  0  0
  9 10  2  0  0  0  0
  9 32  1  0  0  0  0
 10 11  1  0  0  0  0
 10 33  1  0  0  0  0
 11 12  1  0  0  0  0
 11 34  1  0  0  0  0
 12 35  1  0  0  0  0
 12 36  1  0  0  0  0
 13 18  1  0  0  0  0
 13 14  2  0  0  0  0
 14 15  1  0  0  0  0
 14 37  1  0  0  0  0
 15 16  2  0  0  0  0
 15 38  1  0  0  0  0
 16 17  1  0  0  0  0
 17 18  2  0  0  0  0
 17 39  1  0  0  0  0
 18 40  1  0  0  0  0
M  CHG  1   4   1
M  END
> <s_m_source_file>
AV-unprocessed.smi

> <i_m_source_file_index>
3316

> <i_lp_mmshare_version>
43012

> <i_f3d_flags>
0

> <s_epik_input>
W2NIXTFbY0hdbltjSF1bY0hdYzFbQ0BIXShbQ0gzXSlbQ0gyXVtOSF1bQ0gyXVtDQEhdKFtDSDJdW0NASF0yMylbQ0BIXShbQ0gyXTMpW0NIXT1bQ0hdMg==

> <s_epik_cmdline>
J2VwaWtfcHl0aG9uJywgJy1waCcsICc3LjAnLCAnLXRuJywgJzgnLCAnLW1hJywgJzIwMCcsICctbWV0YWxfYmluZGluZycsICctaW1hZScsICc8aW5maWxlLm1hZT4nLCAnLW9tYWUnLCAnPG91dGZpbGUubWFlPic=

> <r_lp_tautomer_probability>
1

> <r_epik_Ionization_Penalty>
0.00280406

> <r_epik_Ionization_Penalty_Charging>
0.000446589

> <r_epik_Ionization_Penalty_Neutral>
0.00235747

> <r_epik_State_Penalty>
-0

> <r_epik_Charging_Adjusted_Penalty>
0.000446589

> <i_epik_Tot_Q>
1

> <i_epik_Tot_abs_Q>
1

> <r_epik_Metal_State_Penalty>
-0

> <b_epik_Metal_Only>
0

> <s_lp_Force_Field>
OPLS_2005

> <r_lp_Energy>
65.5539

> <b_lp_Chiralities_Consistent>
1

> <s_lp_Variant>
AV-unprocessed.smi:3316-5

> <Gold.Version>
5.8.1

> <Gold.Id.Protein>
6NUR|6NUR_protein|mol2

> <Gold.PLP.Fitness>
50.1845

> <Gold.PLP.PLP>
-44.7922

> <Gold.PLP.part.hbond>
-1.0000

> <Gold.PLP.part.metal>
0.0000

> <Gold.PLP.part.buried>
-7.5231

> <Gold.PLP.part.nonpolar>
-37.7542

> <Gold.PLP.part.repulsive>
0.2482

> <Gold.PLP.ligand.clash>
0.0000

> <Gold.PLP.ligand.torsion>
0.3596

> <Gold.PLP.Chemscore.Hbond>
2.0000

> <Gold.PLP.Chemscore.CHOScore>
0.0000

> <Gold.PLP.Chemscore.Metal>
0.0000

> <Gold.Chemscore.Hbonds>
donor molecule, donor type, donor heavy atom, donor atom, acceptor molecule, acceptor atom, score
      L1  H     4    25       P1  8028  2.00

> <Gold.PLP.Chemscore.Internal.Correction>
0.1115

> <Gold.Rescore>
     Score         DG    S(hbond)    S(metal)    S(lipo)     H(rot)  DE(clash)    DE(int)     intcor
     20.21     -20.64       1.00        0.00     130.94       1.36       0.20       0.23       ----

> <Gold.Chemscore.Fitness>
20.2097

> <Gold.Chemscore.DG>
-20.6419

> <Gold.Chemscore.ZeroCoef>
-5.4800

> <Gold.Chemscore.Hbond>
0.9983

> <Gold.Chemscore.Metal>
0.0000

> <Gold.Chemscore.Lipo>
130.9373

> <Gold.Chemscore.Internal_Hbond>
0.0000

> <Gold.Chemscore.DEClash>
0.2031

> <Gold.Chemscore.DEInternal>
0.2291

> <Gold.Chemscore.Rot>
1.3640

> <Gold.Chemscore.Internal.Correction>
   9.000000E+99

> <Gold.Chemscore.Hbonds>
donor molecule, donor type, donor heavy atom, donor atom, acceptor molecule, acceptor atom, score
      L1  H     4    25       P1  8028  1.00

> <Gold.Chemscore.Hbond.Weighted>
-3.3342

> <Gold.Chemscore.Metal.Weighted>
-0.0000

> <Gold.Chemscore.Lipo.Weighted>
-15.3197

> <Gold.Chemscore.Internal_Hbond.Weighted>
0.0000

> <Gold.Chemscore.DEClash.Weighted>
0.2031

> <Gold.Chemscore.DEInternal.Weighted>
0.2291

> <Gold.Chemscore.Rot.Weighted>
3.4919

> <Gold.Chemscore.Internal.Correction.Weighted>
   9.000000E+99

> <Gold.Protein.RotatedTorsions>
[ 6907 6896 6895 6894 ] final  -42.78 input  -60.11 | X-H torsion
[ 7974 7965 7964 7962 ] final  -67.12 input  175.53 | X-H torsion
[ 8008 7997 7996 7995 ] final -118.53 input   59.86 | X-H torsion
[ 10167 10162 10161 10158 ] final -179.35 input  -65.29 | X-H torsion
[ 10718 10713 10712 10709 ] final  148.17 input   66.30 | X-H torsion
[ 10763 10752 10751 10750 ] final  111.36 input  -60.55 | X-H torsion
[ 11005 11000 10999 10996 ] final  134.57 input  -57.11 | X-H torsion

> <Gold.Protein.ActiveResidues>
 VAL166  LYS551  ARG553  GLY616  TRP617  ASP618  TYR619  PRO620  LYS621  CYS622 
 ASP623  PHE694  ASN695  SER759  ASP760  ASP761  ALA762  ILE779  LEU786  VAL792 
 PHE793  MET794  SER795  GLU796  ALA797  LYS798  CYS799  TRP800  GLU811  SER814 

> <Gold.Protein.RotatedAtoms>
  150.9514  134.8913  159.7673 H   0  0  0  0  0  0  0  0  0  0  0  0  # atno 6907 bound_to 6896
  152.5121  134.3801  159.9358 H   0  0  0  0  0  0  0  0  0  0  0  0  # atno 6908 bound_to 6896
  151.3817  133.3779  159.2745 H   0  0  0  0  0  0  0  0  0  0  0  0  # atno 6909 bound_to 6896
  145.7332  140.8987  143.0569 H   0  0  0  0  0  0  0  0  0  0  0  0  # atno 7974 bound_to 7965
  155.1012  140.0396  157.2697 H   0  0  0  0  0  0  0  0  0  0  0  0  # atno 8008 bound_to 7997
  154.6757  140.2622  155.6935 H   0  0  0  0  0  0  0  0  0  0  0  0  # atno 8009 bound_to 7997
  156.2675  140.2789  156.1282 H   0  0  0  0  0  0  0  0  0  0  0  0  # atno 8010 bound_to 7997
  139.5390  144.2416  152.0856 H   0  0  0  0  0  0  0  0  0  0  0  0  # atno 10167 bound_to 10162
  157.3119  131.0889  151.1309 H   0  0  0  0  0  0  0  0  0  0  0  0  # atno 10718 bound_to 10713
  153.4622  135.3719  155.2344 H   0  0  0  0  0  0  0  0  0  0  0  0  # atno 10763 bound_to 10752
  154.8757  135.3911  154.3911 H   0  0  0  0  0  0  0  0  0  0  0  0  # atno 10764 bound_to 10752
  153.4486  135.7085  153.6187 H   0  0  0  0  0  0  0  0  0  0  0  0  # atno 10765 bound_to 10752
  139.9924  134.9510  156.9886 H   0  0  0  0  0  0  0  0  0  0  0  0  # atno 11005 bound_to 11000
  144.6888  139.9359  143.7473 LP  0  0  0  0  0  0  0  0  0  0  0  0  # atno 17320 bound_to 7965
  146.0518  139.3518  143.0635 LP  0  0  0  0  0  0  0  0  0  0  0  0  # atno 17321 bound_to 7965
  140.1891  144.4769  150.6488 LP  0  0  0  0  0  0  0  0  0  0  0  0  # atno 17342 bound_to 10162
  140.6611  143.2252  151.5853 LP  0  0  0  0  0  0  0  0  0  0  0  0  # atno 17343 bound_to 10162
  157.2628  130.6667  149.5982 LP  0  0  0  0  0  0  0  0  0  0  0  0  # atno 17370 bound_to 10713
  155.9678  130.4503  150.5693 LP  0  0  0  0  0  0  0  0  0  0  0  0  # atno 17371 bound_to 10713
  140.4883  134.1219  155.7228 LP  0  0  0  0  0  0  0  0  0  0  0  0  # atno 17394 bound_to 11000
  141.1576  133.8853  157.1934 LP  0  0  0  0  0  0  0  0  0  0  0  0  # atno 17395 bound_to 11000

$$$$
