#       Name:                AV-unprocessed.smi:1708
#       Creating user name   scv26
#       Creation time:       Fri Mar 27 08:09:42 2020


#       File generated by GOLD software.
#

@<TRIPOS>MOLECULE
AV-unprocessed.smi:1708
    40    42     1
SMALL
NO_CHARGES


@<TRIPOS>ATOM
      1 ****        -0.6386   3.6691  -1.3438 C.3            1 S1                 0.0000
      2 ****        -0.7536   2.2235  -1.1945 N.am           1 S1                 0.0000
      3 ****        -0.1802   1.2753  -1.9712 C.2            1 S1                 0.0000
      4 ****         0.5451   1.4767  -2.9451 O.2            1 S1                 0.0000
      5 ****        -0.5276   0.0625  -1.4792 N.am           1 S1                 0.0000
      6 ****        -0.0906  -1.2355  -1.9960 C.3            1 S1                 0.0000
      7 ****         1.3621  -1.5702  -1.5937 C.3            1 S1                 0.0000
      8 ****         1.6861  -2.8441  -2.1113 O.3            1 S1                 0.0000
      9 ****         1.5922  -1.4802  -0.0907 C.ar           1 S1                 0.0000
     10 ****         1.1273  -2.4994   0.7693 C.ar           1 S1                 0.0000
     11 ****         1.3155  -2.3945   2.1609 C.ar           1 S1                 0.0000
     12 ****         1.9687  -1.2701   2.7010 C.ar           1 S1                 0.0000
     13 ****         2.4341  -0.2507   1.8486 C.ar           1 S1                 0.0000
     14 ****         3.0581   0.8331   2.3673 F              1 S1                 0.0000
     15 ****         2.2475  -0.3560   0.4568 C.ar           1 S1                 0.0000
     16 ****        -1.3405   0.2417  -0.3484 C.ar           1 S1                 0.0000
     17 ****        -1.9403  -0.6852   0.5228 C.ar           1 S1                 0.0000
     18 ****        -2.6992  -0.1662   1.5977 C.ar           1 S1                 0.0000
     19 ****        -2.8415   1.2341   1.7785 C.ar           1 S1                 0.0000
     20 ****        -2.2265   2.1453   0.8882 C.ar           1 S1                 0.0000
     21 ****        -1.4785   1.6022  -0.1702 C.ar           1 S1                 0.0000
     22 ****        -0.1028   3.9464  -2.2525 H              1 S1                 0.0000
     23 ****        -0.1039   4.0927  -0.4934 H              1 S1                 0.0000
     24 ****        -1.6285   4.1240  -1.3867 H              1 S1                 0.0000
     25 ****        -0.7655  -2.0136  -1.6389 H              1 S1                 0.0000
     26 ****        -0.1858  -1.2373  -3.0831 H              1 S1                 0.0000
     27 ****         2.0316  -0.8620  -2.0836 H              1 S1                 0.0000
     28 ****         2.6077  -2.9988  -1.9702 H              1 S1                 0.0000
     29 ****         0.6153  -3.3601   0.3645 H              1 S1                 0.0000
     30 ****         0.9552  -3.1752   2.8144 H              1 S1                 0.0000
     31 ****         2.1109  -1.1891   3.7685 H              1 S1                 0.0000
     32 ****         2.5993   0.4354  -0.1889 H              1 S1                 0.0000
     33 ****        -1.8265  -1.7502   0.3869 H              1 S1                 0.0000
     34 ****        -3.1747  -0.8447   2.2905 H              1 S1                 0.0000
     35 ****        -3.4245   1.6088   2.6067 H              1 S1                 0.0000
     36 ****        -2.3269   3.2124   1.0202 H              1 S1                 0.0000
     37 ****         0.7576   2.4129  -3.2252 LP             1 S1                 0.0000
     38 ****         0.9218   0.7042  -3.4563 LP             1 S1                 0.0000
     39 ****         1.4853  -2.8716  -3.0906 LP             1 S1                 0.0000
     40 ****         1.1503  -3.5456  -1.6414 LP             1 S1                 0.0000
@<TRIPOS>BOND
    1    1    2 1     
    2    1   22 1     
    3    1   23 1     
    4    1   24 1     
    5    2   21 1     
    6    2    3 am    
    7    3    4 2     
    8    3    5 am    
    9    5    6 1     
   10    5   16 1     
   11    6    7 1     
   12    6   25 1     
   13    6   26 1     
   14    7    8 1     
   15    7    9 1     
   16    7   27 1     
   17    8   28 1     
   18    9   15 ar    
   19    9   10 ar    
   20   10   11 ar    
   21   10   29 1     
   22   11   12 ar    
   23   11   30 1     
   24   12   13 ar    
   25   12   31 1     
   26   13   14 1     
   27   13   15 ar    
   28   15   32 1     
   29   16   21 ar    
   30   16   17 ar    
   31   17   18 ar    
   32   17   33 1     
   33   18   19 ar    
   34   18   34 1     
   35   19   20 ar    
   36   19   35 1     
   37   20   21 ar    
   38   20   36 1     
   39    4   37 1     
   40    4   38 1     
   41    8   39 1     
   42    8   40 1     
@<TRIPOS>SUBSTRUCTURE
      1 S1             1
@<TRIPOS>SET
LONE_PAIRS      STATIC     ATOMS    <user>   **** ""
4 37 38 39 40
DONOR_HYDROGENS      STATIC     ATOMS    <user>   **** ""
1 28
ATOM$BLUE        STATIC     ATOMS    COLORGROUP SYSTEM
4 37 38 39 40
ATOM$RED        STATIC     ATOMS    COLORGROUP SYSTEM
1 28
