AV-unprocessed.smi:921|AV-procd|sdf|4170|dock1
  -GOLD-   22720 2 73D 1   1.00000     0.00000
 Structure written by MMmdl.
 39 41  0  0  0  0  0  0  0  0  1 V2000
  151.7810  137.9018  154.8198 N   0  0  0  0  0  0  0  0  0  0  0  0
  152.5836  138.9250  155.1251 C   0  0  0  0  0  0  0  0  0  0  0  0
  153.7103  139.0380  154.6463 O   0  0  0  0  0  0  0  0  0  0  0  0
  152.0410  139.9721  156.1060 C   0  0  0  0  0  0  0  0  0  0  0  0
  150.6980  140.4663  155.6259 C   0  0  0  0  0  0  0  0  0  0  0  0
  150.2205  140.1489  154.4179 N   0  0  0  0  0  0  0  0  0  0  0  0
  148.9972  140.7859  154.3884 C   0  0  0  0  0  0  0  0  0  0  0  0
  148.0033  140.8208  153.3842 C   0  0  0  0  0  0  0  0  0  0  0  0
  146.8145  141.5531  153.5820 C   0  0  0  0  0  0  0  0  0  0  0  0
  146.6041  142.2608  154.7831 C   0  0  0  0  0  0  0  0  0  0  0  0
  147.5831  142.2405  155.7951 C   0  0  0  0  0  0  0  0  0  0  0  0
  148.7673  141.5058  155.5931 C   0  0  0  0  0  0  0  0  0  0  0  0
  149.9033  141.2865  156.3662 N   0  0  0  0  0  0  0  0  0  0  0  0
  150.1356  141.8542  157.6888 C   0  0  0  0  0  0  0  0  0  0  0  0
  151.4345  142.6817  157.7637 C   0  0  1  0  0  0  0  0  0  0  0  0
  151.2656  143.9289  157.1216 O   0  0  0  0  0  0  0  0  0  0  0  0
  151.9201  142.8333  159.1985 C   0  0  0  0  0  0  0  0  0  0  0  0
  152.7464  141.8365  159.7616 C   0  0  0  0  0  0  0  0  0  0  0  0
  153.2028  141.9549  161.0882 C   0  0  0  0  0  0  0  0  0  0  0  0
  153.9950  140.9937  161.6192 F   0  0  0  0  0  0  0  0  0  0  0  0
  152.8352  143.0712  161.8627 C   0  0  0  0  0  0  0  0  0  0  0  0
  152.0083  144.0674  161.3098 C   0  0  0  0  0  0  0  0  0  0  0  0
  151.5493  143.9508  159.9831 C   0  0  0  0  0  0  0  0  0  0  0  0
  150.7481  144.9165  159.4724 F   0  0  0  0  0  0  0  0  0  0  0  0
  152.1028  137.1860  154.1846 H   0  0  0  0  0  0  0  0  0  0  0  0
  150.8605  137.8423  155.2305 H   0  0  0  0  0  0  0  0  0  0  0  0
  151.9793  139.5110  157.0896 H   0  0  0  0  0  0  0  0  0  0  0  0
  152.7236  140.8187  156.1889 H   0  0  0  0  0  0  0  0  0  0  0  0
  148.1559  140.2820  152.4608 H   0  0  0  0  0  0  0  0  0  0  0  0
  146.0609  141.5720  152.8085 H   0  0  0  0  0  0  0  0  0  0  0  0
  145.6911  142.8197  154.9272 H   0  0  0  0  0  0  0  0  0  0  0  0
  147.4246  142.7819  156.7158 H   0  0  0  0  0  0  0  0  0  0  0  0
  149.2690  142.4332  158.0038 H   0  0  0  0  0  0  0  0  0  0  0  0
  150.1973  141.0262  158.3961 H   0  0  0  0  0  0  0  0  0  0  0  0
  152.2055  142.1552  157.1997 H   0  0  0  0  0  0  0  0  0  0  0  0
  150.3701  143.9988  156.8281 H   0  0  0  0  0  0  0  0  0  0  0  0
  153.0337  140.9741  159.1778 H   0  0  0  0  0  0  0  0  0  0  0  0
  153.1856  143.1623  162.8803 H   0  0  0  0  0  0  0  0  0  0  0  0
  151.7238  144.9225  161.9047 H   0  0  0  0  0  0  0  0  0  0  0  0
  1  2  1  0  0  0  0
  1 25  1  0  0  0  0
  1 26  1  0  0  0  0
  2  3  2  0  0  0  0
  2  4  1  0  0  0  0
  4  5  1  0  0  0  0
  4 27  1  0  0  0  0
  4 28  1  0  0  0  0
  5 13  1  0  0  0  0
  5  6  2  0  0  0  0
  6  7  1  0  0  0  0
  7 12  2  0  0  0  0
  7  8  1  0  0  0  0
  8  9  2  0  0  0  0
  8 29  1  0  0  0  0
  9 10  1  0  0  0  0
  9 30  1  0  0  0  0
 10 11  2  0  0  0  0
 10 31  1  0  0  0  0
 11 12  1  0  0  0  0
 11 32  1  0  0  0  0
 12 13  1  0  0  0  0
 13 14  1  0  0  0  0
 14 15  1  0  0  0  0
 14 33  1  0  0  0  0
 14 34  1  0  0  0  0
 15 16  1  0  0  0  0
 15 17  1  0  0  0  0
 15 35  1  0  0  0  0
 16 36  1  0  0  0  0
 17 23  1  0  0  0  0
 17 18  2  0  0  0  0
 18 19  1  0  0  0  0
 18 37  1  0  0  0  0
 19 20  1  0  0  0  0
 19 21  2  0  0  0  0
 21 22  1  0  0  0  0
 21 38  1  0  0  0  0
 22 23  2  0  0  0  0
 22 39  1  0  0  0  0
 23 24  1  0  0  0  0
M  END
> <s_m_source_file>
AV-unprocessed.smi

> <i_m_source_file_index>
921

> <i_lp_mmshare_version>
43012

> <i_f3d_flags>
0

> <s_epik_input>
W2NIXTFbY0hdW2NIXVtjSF1jKGMxMiluKGMobjIpW0NIMl1DKD1PKVtOSDJdKVtDSDJdW0NASF0oW09IXSljM1tjSF1jKEYpW2NIXVtjSF1jM0Y=

> <s_epik_cmdline>
J2VwaWtfcHl0aG9uJywgJy1waCcsICc3LjAnLCAnLXRuJywgJzgnLCAnLW1hJywgJzIwMCcsICctbWV0YWxfYmluZGluZycsICctaW1hZScsICc8aW5maWxlLm1hZT4nLCAnLW9tYWUnLCAnPG91dGZpbGUubWFlPic=

> <r_epik_Ionization_Penalty>
0.0366909

> <r_epik_Ionization_Penalty_Charging>
0

> <r_epik_Ionization_Penalty_Neutral>
0.0366909

> <r_epik_State_Penalty>
0.0306642

> <r_epik_Charging_Adjusted_Penalty>
0.0306642

> <i_epik_Tot_Q>
0

> <i_epik_Tot_abs_Q>
0

> <r_epik_Metal_State_Penalty>
0.028853

> <b_epik_Metal_Only>
0

> <s_lp_Force_Field>
OPLS_2005

> <r_lp_Energy>
12.6205

> <b_lp_Chiralities_Consistent>
1

> <s_lp_Variant>
AV-unprocessed.smi:921-2

> <Gold.Version>
5.8.1

> <Gold.Id.Protein>
6NUR|6NUR_protein|mol2

> <Gold.PLP.Fitness>
64.4080

> <Gold.PLP.PLP>
-57.8561

> <Gold.PLP.part.hbond>
-3.0000

> <Gold.PLP.part.metal>
0.0000

> <Gold.PLP.part.buried>
-3.5698

> <Gold.PLP.part.nonpolar>
-51.7696

> <Gold.PLP.part.repulsive>
0.2688

> <Gold.PLP.ligand.clash>
0.0000

> <Gold.PLP.ligand.torsion>
1.0203

> <Gold.PLP.Chemscore.Hbond>
2.8000

> <Gold.PLP.Chemscore.CHOScore>
0.0000

> <Gold.PLP.Chemscore.Metal>
0.0000

> <Gold.Chemscore.Hbonds>
donor molecule, donor type, donor heavy atom, donor atom, acceptor molecule, acceptor atom, score
      L1  H    16    36       P1  8028  1.00
      P1  H  7989  7998       L1     6  0.80
      P1  H  7997  8008       L1     3  1.00

> <Gold.PLP.Chemscore.Internal.Correction>
0.1925

> <Gold.Rescore>
     Score         DG    S(hbond)    S(metal)    S(lipo)     H(rot)  DE(clash)    DE(int)     intcor
     13.02     -18.00       1.90        0.00     120.85       3.11       1.10       3.88       ----

> <Gold.Chemscore.Fitness>
13.0232

> <Gold.Chemscore.DG>
-18.0001

> <Gold.Chemscore.ZeroCoef>
-5.4800

> <Gold.Chemscore.Hbond>
1.9005

> <Gold.Chemscore.Metal>
0.0000

> <Gold.Chemscore.Lipo>
120.8513

> <Gold.Chemscore.Internal_Hbond>
0.0000

> <Gold.Chemscore.DEClash>
1.0964

> <Gold.Chemscore.DEInternal>
3.8805

> <Gold.Chemscore.Rot>
3.1121

> <Gold.Chemscore.Internal.Correction>
   9.000000E+99

> <Gold.Chemscore.Hbonds>
donor molecule, donor type, donor heavy atom, donor atom, acceptor molecule, acceptor atom, score
      L1  H    16    36       P1  8028  0.93
      P1  H  7989  7998       L1     6  0.11
      P1  H  7997  8008       L1     3  0.64

> <Gold.Chemscore.Hbond.Weighted>
-6.3475

> <Gold.Chemscore.Metal.Weighted>
-0.0000

> <Gold.Chemscore.Lipo.Weighted>
-14.1396

> <Gold.Chemscore.Internal_Hbond.Weighted>
0.0000

> <Gold.Chemscore.DEClash.Weighted>
1.0964

> <Gold.Chemscore.DEInternal.Weighted>
3.8805

> <Gold.Chemscore.Rot.Weighted>
7.9670

> <Gold.Chemscore.Internal.Correction.Weighted>
   9.000000E+99

> <Gold.Protein.RotatedTorsions>
[ 6907 6896 6895 6894 ] final -177.16 input  -60.11 | X-H torsion
[ 7974 7965 7964 7962 ] final   20.18 input  175.53 | X-H torsion
[ 8008 7997 7996 7995 ] final    1.17 input   59.86 | X-H torsion
[ 10167 10162 10161 10158 ] final   71.01 input  -65.29 | X-H torsion
[ 10718 10713 10712 10709 ] final -109.65 input   66.30 | X-H torsion
[ 10763 10752 10751 10750 ] final  100.50 input  -60.55 | X-H torsion
[ 11005 11000 10999 10996 ] final  134.29 input  -57.11 | X-H torsion

> <Gold.Protein.ActiveResidues>
 VAL166  LYS551  ARG553  GLY616  TRP617  ASP618  TYR619  PRO620  LYS621  CYS622 
 ASP623  PHE694  ASN695  SER759  ASP760  ASP761  ALA762  ILE779  LEU786  VAL792 
 PHE793  MET794  SER795  GLU796  ALA797  LYS798  CYS799  TRP800  GLU811  SER814 

> <Gold.Protein.RotatedAtoms>
  151.6165  133.3342  159.3078 H   0  0  0  0  0  0  0  0  0  0  0  0  # atno 6907 bound_to 6896
  150.8129  134.7297  159.6715 H   0  0  0  0  0  0  0  0  0  0  0  0  # atno 6908 bound_to 6896
  152.4225  134.5934  160.0032 H   0  0  0  0  0  0  0  0  0  0  0  0  # atno 6909 bound_to 6896
  146.2121  139.8207  142.8680 H   0  0  0  0  0  0  0  0  0  0  0  0  # atno 7974 bound_to 7965
  154.6766  140.2623  155.6951 H   0  0  0  0  0  0  0  0  0  0  0  0  # atno 8008 bound_to 7997
  156.2680  140.2818  156.1218 H   0  0  0  0  0  0  0  0  0  0  0  0  # atno 8009 bound_to 7997
  155.1091  140.0375  157.2709 H   0  0  0  0  0  0  0  0  0  0  0  0  # atno 8010 bound_to 7997
  140.0508  144.5313  150.7365 H   0  0  0  0  0  0  0  0  0  0  0  0  # atno 10167 bound_to 10162
  156.0548  130.5774  150.8128 H   0  0  0  0  0  0  0  0  0  0  0  0  # atno 10718 bound_to 10713
  153.3147  135.4077  155.1366 H   0  0  0  0  0  0  0  0  0  0  0  0  # atno 10763 bound_to 10752
  154.8585  135.3573  154.5677 H   0  0  0  0  0  0  0  0  0  0  0  0  # atno 10764 bound_to 10752
  153.6107  135.7068  153.5407 H   0  0  0  0  0  0  0  0  0  0  0  0  # atno 10765 bound_to 10752
  139.9906  134.9516  156.9846 H   0  0  0  0  0  0  0  0  0  0  0  0  # atno 11005 bound_to 11000
  145.3100  141.0217  143.3560 LP  0  0  0  0  0  0  0  0  0  0  0  0  # atno 17320 bound_to 7965
  144.8943  139.4733  143.6663 LP  0  0  0  0  0  0  0  0  0  0  0  0  # atno 17321 bound_to 7965
  140.7218  143.2596  151.4255 LP  0  0  0  0  0  0  0  0  0  0  0  0  # atno 17342 bound_to 10162
  139.5954  144.1408  152.2138 LP  0  0  0  0  0  0  0  0  0  0  0  0  # atno 17343 bound_to 10162
  157.5508  131.0944  150.9698 LP  0  0  0  0  0  0  0  0  0  0  0  0  # atno 17370 bound_to 10713
  156.9959  130.5581  149.5307 LP  0  0  0  0  0  0  0  0  0  0  0  0  # atno 17371 bound_to 10713
  140.4916  134.1187  155.7234 LP  0  0  0  0  0  0  0  0  0  0  0  0  # atno 17394 bound_to 11000
  141.1562  133.8878  157.1970 LP  0  0  0  0  0  0  0  0  0  0  0  0  # atno 17395 bound_to 11000

$$$$
