AV-unprocessed.smi:253|AV-procd|sdf|1944|dock1
  -GOLD-   2262021 73D 1   1.00000     0.00000
 Structure written by MMmdl.
 52 54  0  0  0  0  0  0  0  0  1 V2000
  152.4583  144.4097  158.6074 C   0  0  0  0  0  0  0  0  0  0  0  0
  152.5355  142.9155  158.9453 C   0  0  0  0  0  0  0  0  0  0  0  0
  151.8003  142.1109  157.9777 N   0  0  0  0  0  0  0  0  0  0  0  0
  150.4627  141.9921  157.9211 C   0  0  0  0  0  0  0  0  0  0  0  0
  149.7090  142.5673  158.7054 O   0  0  0  0  0  0  0  0  0  0  0  0
  149.8590  141.0937  156.8307 C   0  0  0  0  0  0  0  0  0  0  0  0
  148.3898  141.1126  156.7830 N   0  0  0  0  0  0  0  0  0  0  0  0
  147.7399  142.0170  155.8334 C   0  0  0  0  0  0  0  0  0  0  0  0
  148.2344  141.8450  154.3874 C   0  0  0  0  0  0  0  0  0  0  0  0
  147.7926  139.9405  157.1176 C   0  0  0  0  0  0  0  0  0  0  0  0
  146.4537  139.8485  156.9115 N   0  0  0  0  0  0  0  0  0  0  0  0
  145.7995  138.7249  157.2170 C   0  0  0  0  0  0  0  0  0  0  0  0
  146.2810  137.5951  157.7373 N   0  0  0  0  0  0  0  0  0  0  0  0
  147.6227  137.6864  157.9631 C   0  0  0  0  0  0  0  0  0  0  0  0
  148.4514  138.8115  157.6868 C   0  0  0  0  0  0  0  0  0  0  0  0
  149.7598  138.5321  158.0661 N   0  0  0  0  0  0  0  0  0  0  0  0
  149.7088  137.3130  158.5282 C   0  0  0  0  0  0  0  0  0  0  0  0
  148.4621  136.7313  158.5093 N   0  0  0  0  0  0  0  0  0  0  0  0
  148.1174  135.3937  158.9669 C   0  0  0  0  0  0  0  0  0  0  0  0
  147.2984  135.3719  160.2814 C   0  0  0  0  0  0  0  0  0  0  0  0
  146.0253  135.9294  160.0027 O   0  0  0  0  0  0  0  0  0  0  0  0
  147.0953  133.9440  160.8342 C   0  0  0  0  0  0  0  0  0  0  0  0
  146.4632  133.9505  162.2375 C   0  0  0  0  0  0  0  0  0  0  0  0
  147.2427  134.7459  163.1223 O   0  0  0  0  0  0  0  0  0  0  0  0
  147.2988  136.1115  162.7291 C   0  0  0  0  0  0  0  0  0  0  0  0
  147.9851  136.2369  161.3573 C   0  0  0  0  0  0  0  0  0  0  0  0
  152.9795  145.0036  159.3582 H   0  0  0  0  0  0  0  0  0  0  0  0
  151.4240  144.7525  158.5714 H   0  0  0  0  0  0  0  0  0  0  0  0
  152.9164  144.6219  157.6410 H   0  0  0  0  0  0  0  0  0  0  0  0
  153.5755  142.5901  158.9979 H   0  0  0  0  0  0  0  0  0  0  0  0
  152.1049  142.7380  159.9307 H   0  0  0  0  0  0  0  0  0  0  0  0
  152.3461  141.6085  157.2921 H   0  0  0  0  0  0  0  0  0  0  0  0
  150.2573  141.4144  155.8671 H   0  0  0  0  0  0  0  0  0  0  0  0
  150.2310  140.0777  156.9779 H   0  0  0  0  0  0  0  0  0  0  0  0
  146.6680  141.8162  155.8508 H   0  0  0  0  0  0  0  0  0  0  0  0
  147.8532  143.0504  156.1599 H   0  0  0  0  0  0  0  0  0  0  0  0
  147.6697  142.4865  153.7110 H   0  0  0  0  0  0  0  0  0  0  0  0
  148.1057  140.8159  154.0510 H   0  0  0  0  0  0  0  0  0  0  0  0
  149.2869  142.1042  154.2763 H   0  0  0  0  0  0  0  0  0  0  0  0
  144.7383  138.7325  157.0162 H   0  0  0  0  0  0  0  0  0  0  0  0
  150.5833  136.8033  158.9057 H   0  0  0  0  0  0  0  0  0  0  0  0
  147.5599  134.8980  158.1712 H   0  0  0  0  0  0  0  0  0  0  0  0
  149.0412  134.8257  159.0862 H   0  0  0  0  0  0  0  0  0  0  0  0
  145.8347  135.7984  159.0864 H   0  0  0  0  0  0  0  0  0  0  0  0
  146.4801  133.3475  160.1593 H   0  0  0  0  0  0  0  0  0  0  0  0
  148.0613  133.4411  160.8927 H   0  0  0  0  0  0  0  0  0  0  0  0
  145.4376  134.3207  162.2055 H   0  0  0  0  0  0  0  0  0  0  0  0
  146.4177  132.9339  162.6285 H   0  0  0  0  0  0  0  0  0  0  0  0
  146.2949  136.5380  162.7085 H   0  0  0  0  0  0  0  0  0  0  0  0
  147.8617  136.6684  163.4785 H   0  0  0  0  0  0  0  0  0  0  0  0
  149.0239  135.9214  161.4635 H   0  0  0  0  0  0  0  0  0  0  0  0
  148.0146  137.2824  161.0477 H   0  0  0  0  0  0  0  0  0  0  0  0
  1  2  1  0  0  0  0
  1 27  1  0  0  0  0
  1 28  1  0  0  0  0
  1 29  1  0  0  0  0
  2  3  1  0  0  0  0
  2 30  1  0  0  0  0
  2 31  1  0  0  0  0
  3  4  1  0  0  0  0
  3 32  1  0  0  0  0
  4  5  2  0  0  0  0
  4  6  1  0  0  0  0
  6  7  1  0  0  0  0
  6 33  1  0  0  0  0
  6 34  1  0  0  0  0
  7  8  1  0  0  0  0
  7 10  1  0  0  0  0
  8  9  1  0  0  0  0
  8 35  1  0  0  0  0
  8 36  1  0  0  0  0
  9 37  1  0  0  0  0
  9 38  1  0  0  0  0
  9 39  1  0  0  0  0
 10 15  1  0  0  0  0
 10 11  2  0  0  0  0
 11 12  1  0  0  0  0
 12 13  2  0  0  0  0
 12 40  1  0  0  0  0
 13 14  1  0  0  0  0
 14 18  1  0  0  0  0
 14 15  2  0  0  0  0
 15 16  1  0  0  0  0
 16 17  2  0  0  0  0
 17 18  1  0  0  0  0
 17 41  1  0  0  0  0
 18 19  1  0  0  0  0
 19 20  1  0  0  0  0
 19 42  1  0  0  0  0
 19 43  1  0  0  0  0
 20 26  1  0  0  0  0
 20 21  1  0  0  0  0
 20 22  1  0  0  0  0
 21 44  1  0  0  0  0
 22 23  1  0  0  0  0
 22 45  1  0  0  0  0
 22 46  1  0  0  0  0
 23 24  1  0  0  0  0
 23 47  1  0  0  0  0
 23 48  1  0  0  0  0
 24 25  1  0  0  0  0
 25 26  1  0  0  0  0
 25 49  1  0  0  0  0
 25 50  1  0  0  0  0
 26 51  1  0  0  0  0
 26 52  1  0  0  0  0
M  END
> <s_m_source_file>
AV-unprocessed.smi

> <i_m_source_file_index>
253

> <i_lp_mmshare_version>
43012

> <i_f3d_flags>
0

> <s_epik_input>
W0NIM11bQ0gyXVtOSF1DKD1PKVtDSDJdTihbQ0gyXVtDSDNdKWMobltjSF1uMSljKGMxMiluW2NIXW4yW0NIMl1DMyhbT0hdKVtDSDJdW0NIMl1PW0NIMl1bQ0gyXTM=

> <s_epik_cmdline>
J2VwaWtfcHl0aG9uJywgJy1waCcsICc3LjAnLCAnLXRuJywgJzgnLCAnLW1hJywgJzIwMCcsICctbWV0YWxfYmluZGluZycsICctaW1hZScsICc8aW5maWxlLm1hZT4nLCAnLW9tYWUnLCAnPG91dGZpbGUubWFlPic=

> <r_lp_tautomer_probability>
1

> <r_epik_Ionization_Penalty>
0.000710585

> <r_epik_Ionization_Penalty_Charging>
0

> <r_epik_Ionization_Penalty_Neutral>
0.000710585

> <r_epik_State_Penalty>
0.000343566

> <r_epik_Charging_Adjusted_Penalty>
0.000343566

> <i_epik_Tot_Q>
0

> <i_epik_Tot_abs_Q>
0

> <r_epik_Metal_State_Penalty>
-0

> <b_epik_Metal_Only>
0

> <s_lp_Force_Field>
OPLS_2005

> <r_lp_Energy>
18.5015

> <b_lp_Chiralities_Consistent>
1

> <s_lp_Variant>
AV-unprocessed.smi:253-1

> <Gold.Version>
5.8.1

> <Gold.Id.Protein>
6NUR|6NUR_protein|mol2

> <Gold.PLP.Fitness>
40.7643

> <Gold.PLP.PLP>
-41.3754

> <Gold.PLP.part.hbond>
-2.0173

> <Gold.PLP.part.metal>
0.0000

> <Gold.PLP.part.buried>
-4.3185

> <Gold.PLP.part.nonpolar>
-34.8708

> <Gold.PLP.part.repulsive>
0.2011

> <Gold.PLP.ligand.clash>
0.0000

> <Gold.PLP.ligand.torsion>
0.7918

> <Gold.PLP.Chemscore.Hbond>
0.0000

> <Gold.PLP.Chemscore.CHOScore>
0.0000

> <Gold.PLP.Chemscore.Metal>
0.0000

> <Gold.PLP.Chemscore.Internal.Correction>
0.9724

> <Gold.Rescore>
     Score         DG    S(hbond)    S(metal)    S(lipo)     H(rot)  DE(clash)    DE(int)     intcor
      5.82      -7.84       0.00        0.00      86.12       3.01       0.03       2.00       ----

> <Gold.Chemscore.Fitness>
5.8216

> <Gold.Chemscore.DG>
-7.8439

> <Gold.Chemscore.ZeroCoef>
-5.4800

> <Gold.Chemscore.Hbond>
0.0000

> <Gold.Chemscore.Metal>
0.0000

> <Gold.Chemscore.Lipo>
86.1192

> <Gold.Chemscore.Internal_Hbond>
0.0000

> <Gold.Chemscore.DEClash>
0.0272

> <Gold.Chemscore.DEInternal>
1.9952

> <Gold.Chemscore.Rot>
3.0125

> <Gold.Chemscore.Internal.Correction>
   9.000000E+99

> <Gold.Chemscore.Hbond.Weighted>
-0.0000

> <Gold.Chemscore.Metal.Weighted>
-0.0000

> <Gold.Chemscore.Lipo.Weighted>
-10.0759

> <Gold.Chemscore.Internal_Hbond.Weighted>
0.0000

> <Gold.Chemscore.DEClash.Weighted>
0.0272

> <Gold.Chemscore.DEInternal.Weighted>
1.9952

> <Gold.Chemscore.Rot.Weighted>
7.7120

> <Gold.Chemscore.Internal.Correction.Weighted>
   9.000000E+99

> <Gold.Protein.RotatedTorsions>
[ 6907 6896 6895 6894 ] final   84.08 input  -60.11 | X-H torsion
[ 7974 7965 7964 7962 ] final   68.46 input  175.53 | X-H torsion
[ 8008 7997 7996 7995 ] final  148.17 input   59.86 | X-H torsion
[ 10167 10162 10161 10158 ] final   -4.66 input  -65.29 | X-H torsion
[ 10718 10713 10712 10709 ] final   95.60 input   66.30 | X-H torsion
[ 10763 10752 10751 10750 ] final -171.90 input  -60.55 | X-H torsion
[ 11005 11000 10999 10996 ] final -133.71 input  -57.11 | X-H torsion

> <Gold.Protein.ActiveResidues>
 VAL166  LYS551  ARG553  GLY616  TRP617  ASP618  TYR619  PRO620  LYS621  CYS622 
 ASP623  PHE694  ASN695  SER759  ASP760  ASP761  ALA762  ILE779  LEU786  VAL792 
 PHE793  MET794  SER795  GLU796  ALA797  LYS798  CYS799  TRP800  GLU811  SER814 

> <Gold.Protein.RotatedAtoms>
  152.5343  134.2796  159.9002 H   0  0  0  0  0  0  0  0  0  0  0  0  # atno 6907 bound_to 6896
  151.2750  133.4230  159.2631 H   0  0  0  0  0  0  0  0  0  0  0  0  # atno 6908 bound_to 6896
  151.0334  134.9570  159.8179 H   0  0  0  0  0  0  0  0  0  0  0  0  # atno 6909 bound_to 6896
  145.8023  139.2988  143.1148 H   0  0  0  0  0  0  0  0  0  0  0  0  # atno 7974 bound_to 7965
  156.2800  140.2136  156.5655 H   0  0  0  0  0  0  0  0  0  0  0  0  # atno 8008 bound_to 7997
  154.7178  140.0506  157.0634 H   0  0  0  0  0  0  0  0  0  0  0  0  # atno 8009 bound_to 7997
  155.0519  140.3157  155.4692 H   0  0  0  0  0  0  0  0  0  0  0  0  # atno 8010 bound_to 7997
  140.6935  143.6398  150.8446 H   0  0  0  0  0  0  0  0  0  0  0  0  # atno 10167 bound_to 10162
  157.6937  131.0551  150.4364 H   0  0  0  0  0  0  0  0  0  0  0  0  # atno 10718 bound_to 10713
  154.6254  135.2880  155.0279 H   0  0  0  0  0  0  0  0  0  0  0  0  # atno 10763 bound_to 10752
  154.1459  135.6511  153.4956 H   0  0  0  0  0  0  0  0  0  0  0  0  # atno 10764 bound_to 10752
  153.0255  135.5344  154.7060 H   0  0  0  0  0  0  0  0  0  0  0  0  # atno 10765 bound_to 10752
  140.9056  134.1634  157.4428 H   0  0  0  0  0  0  0  0  0  0  0  0  # atno 11005 bound_to 11000
  145.9865  140.8639  143.0088 LP  0  0  0  0  0  0  0  0  0  0  0  0  # atno 17320 bound_to 7965
  144.6767  140.2155  143.7372 LP  0  0  0  0  0  0  0  0  0  0  0  0  # atno 17321 bound_to 7965
  140.0113  143.5639  152.2838 LP  0  0  0  0  0  0  0  0  0  0  0  0  # atno 17342 bound_to 10162
  139.6364  144.7650  151.2428 LP  0  0  0  0  0  0  0  0  0  0  0  0  # atno 17343 bound_to 10162
  156.4726  130.4056  149.6509 LP  0  0  0  0  0  0  0  0  0  0  0  0  # atno 17370 bound_to 10713
  156.3584  130.7468  151.2437 LP  0  0  0  0  0  0  0  0  0  0  0  0  # atno 17371 bound_to 10713
  139.8749  134.9915  156.5554 LP  0  0  0  0  0  0  0  0  0  0  0  0  # atno 17394 bound_to 11000
  140.8175  133.8380  155.8865 LP  0  0  0  0  0  0  0  0  0  0  0  0  # atno 17395 bound_to 11000

$$$$
