#       Name:                AV-unprocessed.smi:3116
#       Creating user name   scv26
#       Creation time:       Fri Mar 27 17:25:34 2020


#       File generated by GOLD software.
#

@<TRIPOS>MOLECULE
AV-unprocessed.smi:3116
    37    37     1
SMALL
NO_CHARGES


@<TRIPOS>ATOM
      1 ****        -2.6447   1.7385   0.2982 C.3            1 S1                 0.0000
      2 ****        -1.1136   1.7406   0.4256 C.3            1 S1                 0.0000
      3 ****        -0.6131   0.3558   0.3944 N.3            1 S1                 0.0000
      4 ****         0.8428   0.2137   0.3418 C.3            1 S1                 0.0000
      5 ****         1.3055  -0.4685   1.6416 C.3            1 S1                 0.0000
      6 ****         1.2653  -0.5633  -0.9337 C.3            1 S1                 0.0000
      7 ****         0.9022   0.1699  -2.2380 C.3            1 S1                 0.0000
      8 ****         0.7976  -1.9470  -0.9503 N.pl3          1 S1                 0.0000
      9 ****        -0.4658  -2.4356  -1.2216 C.2            1 S1                 0.0000
     10 ****        -0.4179  -3.7937  -1.0923 C.2            1 S1                 0.0000
     11 ****         0.9331  -4.0499  -0.7295 C.2            1 S1                 0.0000
     12 ****         1.6557  -2.9454  -0.6423 N.2            1 S1                 0.0000
     13 ****        -0.6809   2.5088   1.6849 C.2            1 S1                 0.0000
     14 ****         0.0665   3.6010   1.5074 N.am           1 S1                 0.0000
     15 ****        -1.0041   2.1116   2.8029 O.2            1 S1                 0.0000
     16 ****        -3.0441   2.7535   0.2960 H              1 S1                 0.0000
     17 ****        -3.1167   1.1965   1.1189 H              1 S1                 0.0000
     18 ****        -2.9572   1.2637  -0.6325 H              1 S1                 0.0000
     19 ****        -0.7154   2.2583  -0.4490 H              1 S1                 0.0000
     20 ****        -0.9888  -0.1968   1.1521 H              1 S1                 0.0000
     21 ****         1.3208   1.1929   0.2892 H              1 S1                 0.0000
     22 ****         2.3839  -0.6284   1.6336 H              1 S1                 0.0000
     23 ****         0.8283  -1.4388   1.7844 H              1 S1                 0.0000
     24 ****         1.0748   0.1421   2.5147 H              1 S1                 0.0000
     25 ****         2.3561  -0.6037  -0.9169 H              1 S1                 0.0000
     26 ****         1.3297   1.1727  -2.2540 H              1 S1                 0.0000
     27 ****        -0.1761   0.2697  -2.3632 H              1 S1                 0.0000
     28 ****         1.2878  -0.3654  -3.1063 H              1 S1                 0.0000
     29 ****        -1.2868  -1.7831  -1.4797 H              1 S1                 0.0000
     30 ****        -1.2253  -4.4968  -1.2327 H              1 S1                 0.0000
     31 ****         1.4067  -4.9989  -0.5263 H              1 S1                 0.0000
     32 ****         0.3748   4.1370   2.3054 H              1 S1                 0.0000
     33 ****         0.3212   3.8862   0.5728 H              1 S1                 0.0000
     34 ****        -0.9493   0.0039  -0.4792 LP             1 S1                 0.0000
     35 ****         2.6231  -2.8663  -0.4017 LP             1 S1                 0.0000
     36 ****        -1.5536   1.2816   2.8991 LP             1 S1                 0.0000
     37 ****        -0.7176   2.6186   3.6158 LP             1 S1                 0.0000
@<TRIPOS>BOND
    1    1    2 1     
    2    1   16 1     
    3    1   17 1     
    4    1   18 1     
    5    2    3 1     
    6    2   13 1     
    7    2   19 1     
    8    3    4 1     
    9    3   20 1     
   10    4    5 1     
   11    4    6 1     
   12    4   21 1     
   13    5   22 1     
   14    5   23 1     
   15    5   24 1     
   16    6    7 1     
   17    6    8 1     
   18    6   25 1     
   19    7   26 1     
   20    7   27 1     
   21    7   28 1     
   22    8   12 1     
   23    8    9 1     
   24    9   10 2     
   25    9   29 1     
   26   10   11 1     
   27   10   30 1     
   28   11   12 2     
   29   11   31 1     
   30   13   14 am    
   31   13   15 2     
   32   14   32 1     
   33   14   33 1     
   34    3   34 1     
   35   12   35 1     
   36   15   36 1     
   37   15   37 1     
@<TRIPOS>SUBSTRUCTURE
      1 S1             1
@<TRIPOS>SET
LONE_PAIRS      STATIC     ATOMS    <user>   **** ""
4 34 35 36 37
DONOR_HYDROGENS      STATIC     ATOMS    <user>   **** ""
3 20 32 33
ATOM$BLUE        STATIC     ATOMS    COLORGROUP SYSTEM
4 34 35 36 37
ATOM$RED        STATIC     ATOMS    COLORGROUP SYSTEM
3 20 32 33
