AV-unprocessed.smi:2879|AV-procd|sdf|11050|dock5
  -GOLD-   2272015513D 1   1.00000     0.00000
 Structure written by MMmdl.
 44 45  0  0  0  0  0  0  0  0  1 V2000
  147.1386  135.1661  162.4285 C   0  0  0  0  0  0  0  0  0  0  0  0
  147.4174  135.6845  161.0484 C   0  0  0  0  0  0  0  0  0  0  0  0
  148.6185  136.2724  160.5542 C   0  0  0  0  0  0  0  0  0  0  0  0
  148.3402  136.5655  159.2485 C   0  0  0  0  0  0  0  0  0  0  0  0
  149.1781  137.1885  158.1766 C   0  0  0  0  0  0  0  0  0  0  0  0
  150.5804  137.5449  158.6787 C   0  0  0  0  0  0  0  0  0  0  0  0
  151.3207  136.6716  159.1325 O   0  0  0  0  0  0  0  0  0  0  0  0
  150.9349  138.8361  158.5818 N   0  0  0  0  0  0  0  0  0  0  0  0
  152.2106  139.4041  159.0088 C   0  0  0  0  0  0  0  0  0  0  0  0
  152.3198  140.9123  158.6994 C   0  0  0  0  0  0  0  0  0  0  0  0
  153.3402  141.6390  159.6012 C   0  0  0  0  0  0  0  0  0  0  0  0
  153.4040  143.1476  159.3017 C   0  0  0  0  0  0  0  0  0  0  0  0
  152.0303  143.8541  159.3935 C   0  0  0  0  0  0  0  0  0  0  0  0
  151.5450  143.9290  160.8578 C   0  0  0  0  0  0  0  0  0  0  0  0
  152.1734  145.2959  158.8688 C   0  0  0  0  0  0  0  0  0  0  0  0
  151.0110  143.0963  158.5092 C   0  0  0  0  0  0  0  0  0  0  0  0
  150.9409  141.5894  158.8145 C   0  0  0  0  0  0  0  0  0  0  0  0
  147.0441  136.1527  159.0324 N   0  0  0  0  0  0  0  0  0  0  0  0
  146.4702  135.6157  160.1248 N   0  0  0  0  0  0  0  0  0  0  0  0
  146.5438  136.2356  158.1589 H   0  0  0  0  0  0  0  0  0  0  0  0
  148.0255  135.2285  163.0594 H   0  0  0  0  0  0  0  0  0  0  0  0
  146.8245  134.1225  162.4008 H   0  0  0  0  0  0  0  0  0  0  0  0
  146.3471  135.7406  162.9105 H   0  0  0  0  0  0  0  0  0  0  0  0
  149.5447  136.4518  161.0802 H   0  0  0  0  0  0  0  0  0  0  0  0
  148.6782  138.0793  157.7927 H   0  0  0  0  0  0  0  0  0  0  0  0
  149.2773  136.5011  157.3361 H   0  0  0  0  0  0  0  0  0  0  0  0
  150.2641  139.4799  158.1881 H   0  0  0  0  0  0  0  0  0  0  0  0
  152.2848  139.2467  160.0853 H   0  0  0  0  0  0  0  0  0  0  0  0
  153.0497  138.8625  158.5681 H   0  0  0  0  0  0  0  0  0  0  0  0
  152.6525  141.0170  157.6654 H   0  0  0  0  0  0  0  0  0  0  0  0
  153.0921  141.4753  160.6501 H   0  0  0  0  0  0  0  0  0  0  0  0
  154.3351  141.2177  159.4588 H   0  0  0  0  0  0  0  0  0  0  0  0
  154.1170  143.6235  159.9761 H   0  0  0  0  0  0  0  0  0  0  0  0
  153.8111  143.2786  158.2981 H   0  0  0  0  0  0  0  0  0  0  0  0
  150.5831  144.4382  160.9286 H   0  0  0  0  0  0  0  0  0  0  0  0
  152.2515  144.4807  161.4791 H   0  0  0  0  0  0  0  0  0  0  0  0
  151.4217  142.9454  161.3089 H   0  0  0  0  0  0  0  0  0  0  0  0
  151.2229  145.8291  158.9091 H   0  0  0  0  0  0  0  0  0  0  0  0
  152.5140  145.3136  157.8329 H   0  0  0  0  0  0  0  0  0  0  0  0
  152.8938  145.8635  159.4590 H   0  0  0  0  0  0  0  0  0  0  0  0
  150.0191  143.5373  158.6161 H   0  0  0  0  0  0  0  0  0  0  0  0
  151.2808  143.2203  157.4592 H   0  0  0  0  0  0  0  0  0  0  0  0
  150.2422  141.1186  158.1221 H   0  0  0  0  0  0  0  0  0  0  0  0
  150.5291  141.4285  159.8110 H   0  0  0  0  0  0  0  0  0  0  0  0
  1 21  1  0  0  0  0
  1 22  1  0  0  0  0
  1 23  1  0  0  0  0
  1  2  1  0  0  0  0
  2 19  2  0  0  0  0
  2  3  1  0  0  0  0
  3  4  2  0  0  0  0
  3 24  1  0  0  0  0
  4 18  1  0  0  0  0
  4  5  1  0  0  0  0
  5  6  1  0  0  0  0
  5 25  1  0  0  0  0
  5 26  1  0  0  0  0
  6  7  2  0  0  0  0
  6  8  1  0  0  0  0
  8  9  1  0  0  0  0
  8 27  1  0  0  0  0
  9 10  1  0  0  0  0
  9 28  1  0  0  0  0
  9 29  1  0  0  0  0
 10 17  1  0  0  0  0
 10 11  1  0  0  0  0
 10 30  1  0  0  0  0
 11 12  1  0  0  0  0
 11 31  1  0  0  0  0
 11 32  1  0  0  0  0
 12 13  1  0  0  0  0
 12 33  1  0  0  0  0
 12 34  1  0  0  0  0
 13 14  1  0  0  0  0
 13 15  1  0  0  0  0
 13 16  1  0  0  0  0
 14 35  1  0  0  0  0
 14 36  1  0  0  0  0
 14 37  1  0  0  0  0
 15 38  1  0  0  0  0
 15 39  1  0  0  0  0
 15 40  1  0  0  0  0
 16 17  1  0  0  0  0
 16 41  1  0  0  0  0
 16 42  1  0  0  0  0
 17 43  1  0  0  0  0
 17 44  1  0  0  0  0
 18 19  1  0  0  0  0
 18 20  1  0  0  0  0
M  END
> <s_m_source_file>
AV-unprocessed.smi

> <i_m_source_file_index>
2879

> <i_lp_mmshare_version>
43012

> <i_f3d_flags>
0

> <s_epik_input>
W0NIM11jMVtjSF1jKG5bbkhdMSlbQ0gyXUMoPU8pW05IXVtDSDJdW0NIXShbQ0gyXVtDSDJdMilbQ0gyXVtDSDJdQzIoW0NIM10pW0NIM10=

> <s_epik_cmdline>
J2VwaWtfcHl0aG9uJywgJy1waCcsICc3LjAnLCAnLXRuJywgJzgnLCAnLW1hJywgJzIwMCcsICctbWV0YWxfYmluZGluZycsICctaW1hZScsICc8aW5maWxlLm1hZT4nLCAnLW9tYWUnLCAnPG91dGZpbGUubWFlPic=

> <r_lp_tautomer_probability>
0.5

> <r_epik_Ionization_Penalty>
0.000119486

> <r_epik_Ionization_Penalty_Charging>
0

> <r_epik_Ionization_Penalty_Neutral>
0.000119486

> <r_epik_State_Penalty>
0.41068

> <r_epik_Charging_Adjusted_Penalty>
0.41068

> <i_epik_Tot_Q>
0

> <i_epik_Tot_abs_Q>
0

> <r_epik_Metal_State_Penalty>
0.41066

> <b_epik_Metal_Only>
0

> <s_lp_Force_Field>
OPLS_2005

> <r_lp_Energy>
12.3825

> <b_lp_Chiralities_Consistent>
1

> <s_lp_Variant>
AV-unprocessed.smi:2879-2

> <Gold.Version>
5.8.1

> <Gold.Id.Protein>
6NUR|6NUR_protein|mol2

> <Gold.PLP.Fitness>
42.2277

> <Gold.PLP.PLP>
-39.7906

> <Gold.PLP.part.hbond>
-1.0000

> <Gold.PLP.part.metal>
0.0000

> <Gold.PLP.part.buried>
-5.1785

> <Gold.PLP.part.nonpolar>
-34.2412

> <Gold.PLP.part.repulsive>
0.1861

> <Gold.PLP.ligand.clash>
0.0000

> <Gold.PLP.ligand.torsion>
0.2840

> <Gold.PLP.Chemscore.Hbond>
1.0000

> <Gold.PLP.Chemscore.CHOScore>
0.0000

> <Gold.PLP.Chemscore.Metal>
0.0000

> <Gold.Chemscore.Hbonds>
donor molecule, donor type, donor heavy atom, donor atom, acceptor molecule, acceptor atom, score
      P1  H  6896  6909       L1     7  1.00

> <Gold.PLP.Chemscore.Internal.Correction>
0.0051

> <Gold.Rescore>
     Score         DG    S(hbond)    S(metal)    S(lipo)     H(rot)  DE(clash)    DE(int)     intcor
     18.80     -19.12       0.99        0.00     122.12       1.55       0.12       0.20       ----

> <Gold.Chemscore.Fitness>
18.7950

> <Gold.Chemscore.DG>
-19.1216

> <Gold.Chemscore.ZeroCoef>
-5.4800

> <Gold.Chemscore.Hbond>
0.9937

> <Gold.Chemscore.Metal>
0.0000

> <Gold.Chemscore.Lipo>
122.1177

> <Gold.Chemscore.Internal_Hbond>
0.0000

> <Gold.Chemscore.DEClash>
0.1239

> <Gold.Chemscore.DEInternal>
0.2026

> <Gold.Chemscore.Rot>
1.5489

> <Gold.Chemscore.Internal.Correction>
   9.000000E+99

> <Gold.Chemscore.Hbonds>
donor molecule, donor type, donor heavy atom, donor atom, acceptor molecule, acceptor atom, score
      P1  H  6896  6909       L1     7  0.95

> <Gold.Chemscore.Hbond.Weighted>
-3.3190

> <Gold.Chemscore.Metal.Weighted>
-0.0000

> <Gold.Chemscore.Lipo.Weighted>
-14.2878

> <Gold.Chemscore.Internal_Hbond.Weighted>
0.0000

> <Gold.Chemscore.DEClash.Weighted>
0.1239

> <Gold.Chemscore.DEInternal.Weighted>
0.2026

> <Gold.Chemscore.Rot.Weighted>
3.9652

> <Gold.Chemscore.Internal.Correction.Weighted>
   9.000000E+99

> <Gold.Protein.RotatedTorsions>
[ 6907 6896 6895 6894 ] final  114.31 input  -60.11 | X-H torsion
[ 7974 7965 7964 7962 ] final   69.75 input  175.53 | X-H torsion
[ 8008 7997 7996 7995 ] final   39.01 input   59.86 | X-H torsion
[ 10167 10162 10161 10158 ] final   21.95 input  -65.29 | X-H torsion
[ 10718 10713 10712 10709 ] final  112.20 input   66.30 | X-H torsion
[ 10763 10752 10751 10750 ] final  160.11 input  -60.55 | X-H torsion
[ 11005 11000 10999 10996 ] final -162.70 input  -57.11 | X-H torsion

> <Gold.Protein.ActiveResidues>
 VAL166  LYS551  ARG553  GLY616  TRP617  ASP618  TYR619  PRO620  LYS621  CYS622 
 ASP623  PHE694  ASN695  SER759  ASP760  ASP761  ALA762  ILE779  LEU786  VAL792 
 PHE793  MET794  SER795  GLU796  ALA797  LYS798  CYS799  TRP800  GLU811  SER814 

> <Gold.Protein.RotatedAtoms>
  152.4810  133.8254  159.7075 H   0  0  0  0  0  0  0  0  0  0  0  0  # atno 6907 bound_to 6896
  150.8860  133.7298  159.2925 H   0  0  0  0  0  0  0  0  0  0  0  0  # atno 6908 bound_to 6896
  151.4786  135.1054  159.9823 H   0  0  0  0  0  0  0  0  0  0  0  0  # atno 6909 bound_to 6896
  145.7866  139.2913  143.1235 H   0  0  0  0  0  0  0  0  0  0  0  0  # atno 7974 bound_to 7965
  155.2296  140.3337  155.4305 H   0  0  0  0  0  0  0  0  0  0  0  0  # atno 8008 bound_to 7997
  156.2300  140.1846  156.7312 H   0  0  0  0  0  0  0  0  0  0  0  0  # atno 8009 bound_to 7997
  154.5962  140.0630  156.9292 H   0  0  0  0  0  0  0  0  0  0  0  0  # atno 8010 bound_to 7997
  140.5387  143.9715  150.6506 H   0  0  0  0  0  0  0  0  0  0  0  0  # atno 10167 bound_to 10162
  157.6405  131.0963  150.6860 H   0  0  0  0  0  0  0  0  0  0  0  0  # atno 10718 bound_to 10713
  154.2423  135.2774  155.2849 H   0  0  0  0  0  0  0  0  0  0  0  0  # atno 10763 bound_to 10752
  154.5535  135.5668  153.6946 H   0  0  0  0  0  0  0  0  0  0  0  0  # atno 10764 bound_to 10752
  152.9997  135.6280  154.2567 H   0  0  0  0  0  0  0  0  0  0  0  0  # atno 10765 bound_to 10752
  140.6063  134.4895  157.5211 H   0  0  0  0  0  0  0  0  0  0  0  0  # atno 11005 bound_to 11000
  146.0020  140.8512  143.0014 LP  0  0  0  0  0  0  0  0  0  0  0  0  # atno 17320 bound_to 7965
  144.6788  140.2366  143.7349 LP  0  0  0  0  0  0  0  0  0  0  0  0  # atno 17321 bound_to 7965
  140.3110  143.3198  152.0879 LP  0  0  0  0  0  0  0  0  0  0  0  0  # atno 17342 bound_to 10162
  139.4980  144.6636  151.6408 LP  0  0  0  0  0  0  0  0  0  0  0  0  # atno 17343 bound_to 10162
  156.7184  130.4673  149.5529 LP  0  0  0  0  0  0  0  0  0  0  0  0  # atno 17370 bound_to 10713
  156.1682  130.6419  151.0804 LP  0  0  0  0  0  0  0  0  0  0  0  0  # atno 17371 bound_to 10713
  139.9211  134.8147  156.1209 LP  0  0  0  0  0  0  0  0  0  0  0  0  # atno 17394 bound_to 11000
  141.0838  133.6743  156.2393 LP  0  0  0  0  0  0  0  0  0  0  0  0  # atno 17395 bound_to 11000

$$$$
