AV-unprocessed.smi:213|AV-procd|sdf|1647|dock7
  -GOLD-   2262020 23D 1   1.00000     0.00000
 Structure written by MMmdl.
 58 61  0  0  0  0  0  0  0  0  1 V2000
  150.5560  139.4965  154.8654 C   0  0  0  0  0  0  0  0  0  0  0  0
  149.6098  140.6212  155.3210 C   0  0  2  0  0  0  0  0  0  0  0  0
  149.6026  140.7930  156.8567 C   0  0  0  0  0  0  0  0  0  0  0  0
  150.8838  141.1726  157.4534 N   0  0  0  0  0  0  0  0  0  0  0  0
  151.1945  140.3304  158.6038 C   0  0  0  0  0  0  0  0  0  0  0  0
  152.5406  140.7075  159.2460 C   0  0  0  0  0  0  0  0  0  0  0  0
  152.5205  142.0806  159.6209 O   0  0  0  0  0  0  0  0  0  0  0  0
  152.2631  142.9459  158.5199 C   0  0  0  0  0  0  0  0  0  0  0  0
  150.9187  142.5736  157.8704 C   0  0  0  0  0  0  0  0  0  0  0  0
  148.2525  140.4017  154.8137 N   0  0  0  0  0  0  0  0  0  0  0  0
  147.4896  141.4855  154.1982 C   0  0  0  0  0  0  0  0  0  0  0  0
  147.7103  139.1550  154.8182 C   0  0  0  0  0  0  0  0  0  0  0  0
  147.8956  138.3770  155.9178 N   0  0  0  0  0  0  0  0  0  0  0  0
  147.3774  137.1471  155.9751 C   0  0  0  0  0  0  0  0  0  0  0  0
  146.6555  136.5030  155.0573 N   0  0  0  0  0  0  0  0  0  0  0  0
  146.4782  137.2679  153.9426 C   0  0  0  0  0  0  0  0  0  0  0  0
  146.9657  138.5913  153.7390 C   0  0  0  0  0  0  0  0  0  0  0  0
  146.5984  139.0319  152.4711 N   0  0  0  0  0  0  0  0  0  0  0  0
  145.9259  138.0363  151.9630 C   0  0  0  0  0  0  0  0  0  0  0  0
  145.8074  136.9357  152.7786 N   0  0  0  0  0  0  0  0  0  0  0  0
  145.1252  135.6933  152.4616 C   0  0  0  0  0  0  0  0  0  0  0  0
  146.0280  134.7070  151.6946 C   0  0  1  0  0  0  0  0  0  0  0  0
  147.1331  134.3195  152.4895 O   0  0  0  0  0  0  0  0  0  0  0  0
  145.2623  133.4694  151.1820 C   0  0  1  0  0  0  0  0  0  0  0  0
  144.0934  133.7333  150.2279 C   0  0  0  0  0  0  0  0  0  0  0  0
  143.9905  132.4044  149.5133 C   0  0  0  0  0  0  0  0  0  0  0  0
  145.4598  132.0157  149.3682 C   0  0  0  0  0  0  0  0  0  0  0  0
  146.1194  132.5462  150.5144 O   0  0  0  0  0  0  0  0  0  0  0  0
  151.5849  139.7089  155.1565 H   0  0  0  0  0  0  0  0  0  0  0  0
  150.5419  139.3864  153.7810 H   0  0  0  0  0  0  0  0  0  0  0  0
  150.2831  138.5354  155.3009 H   0  0  0  0  0  0  0  0  0  0  0  0
  149.9764  141.5543  154.9014 H   0  0  0  0  0  0  0  0  0  0  0  0
  148.8475  141.5310  157.1327 H   0  0  0  0  0  0  0  0  0  0  0  0
  149.2727  139.8528  157.3008 H   0  0  0  0  0  0  0  0  0  0  0  0
  150.4026  140.4153  159.3499 H   0  0  0  0  0  0  0  0  0  0  0  0
  151.2241  139.2837  158.2992 H   0  0  0  0  0  0  0  0  0  0  0  0
  152.7225  140.0983  160.1313 H   0  0  0  0  0  0  0  0  0  0  0  0
  153.3644  140.5233  158.5544 H   0  0  0  0  0  0  0  0  0  0  0  0
  152.2406  143.9767  158.8740 H   0  0  0  0  0  0  0  0  0  0  0  0
  153.0749  142.8742  157.7943 H   0  0  0  0  0  0  0  0  0  0  0  0
  150.7552  143.2312  157.0179 H   0  0  0  0  0  0  0  0  0  0  0  0
  150.1107  142.7700  158.5770 H   0  0  0  0  0  0  0  0  0  0  0  0
  146.4328  141.4144  154.4591 H   0  0  0  0  0  0  0  0  0  0  0  0
  147.5805  141.4450  153.1124 H   0  0  0  0  0  0  0  0  0  0  0  0
  147.8466  142.4600  154.5299 H   0  0  0  0  0  0  0  0  0  0  0  0
  147.5683  136.6012  156.8870 H   0  0  0  0  0  0  0  0  0  0  0  0
  145.5002  138.0754  150.9709 H   0  0  0  0  0  0  0  0  0  0  0  0
  144.7659  135.2456  153.3890 H   0  0  0  0  0  0  0  0  0  0  0  0
  144.2414  135.9325  151.8691 H   0  0  0  0  0  0  0  0  0  0  0  0
  146.4408  135.2226  150.8265 H   0  0  0  0  0  0  0  0  0  0  0  0
  147.9034  134.7641  152.1710 H   0  0  0  0  0  0  0  0  0  0  0  0
  144.8679  132.9321  152.0463 H   0  0  0  0  0  0  0  0  0  0  0  0
  143.1758  134.0132  150.7460 H   0  0  0  0  0  0  0  0  0  0  0  0
  144.3287  134.5153  149.5051 H   0  0  0  0  0  0  0  0  0  0  0  0
  143.4691  131.6797  150.1405 H   0  0  0  0  0  0  0  0  0  0  0  0
  143.4699  132.4680  148.5574 H   0  0  0  0  0  0  0  0  0  0  0  0
  145.6012  130.9376  149.2893 H   0  0  0  0  0  0  0  0  0  0  0  0
  145.8884  132.4792  148.4788 H   0  0  0  0  0  0  0  0  0  0  0  0
  1  2  1  0  0  0  0
  1 29  1  0  0  0  0
  1 30  1  0  0  0  0
  1 31  1  0  0  0  0
  2  3  1  0  0  0  0
  2 10  1  0  0  0  0
  2 32  1  0  0  0  0
  3  4  1  0  0  0  0
  3 33  1  0  0  0  0
  3 34  1  0  0  0  0
  4  9  1  0  0  0  0
  4  5  1  0  0  0  0
  5  6  1  0  0  0  0
  5 35  1  0  0  0  0
  5 36  1  0  0  0  0
  6  7  1  0  0  0  0
  6 37  1  0  0  0  0
  6 38  1  0  0  0  0
  7  8  1  0  0  0  0
  8  9  1  0  0  0  0
  8 39  1  0  0  0  0
  8 40  1  0  0  0  0
  9 41  1  0  0  0  0
  9 42  1  0  0  0  0
 10 11  1  0  0  0  0
 10 12  1  0  0  0  0
 11 43  1  0  0  0  0
 11 44  1  0  0  0  0
 11 45  1  0  0  0  0
 12 17  1  0  0  0  0
 12 13  2  0  0  0  0
 13 14  1  0  0  0  0
 14 15  2  0  0  0  0
 14 46  1  0  0  0  0
 15 16  1  0  0  0  0
 16 20  1  0  0  0  0
 16 17  2  0  0  0  0
 17 18  1  0  0  0  0
 18 19  2  0  0  0  0
 19 20  1  0  0  0  0
 19 47  1  0  0  0  0
 20 21  1  0  0  0  0
 21 22  1  0  0  0  0
 21 48  1  0  0  0  0
 21 49  1  0  0  0  0
 22 23  1  0  0  0  0
 22 24  1  0  0  0  0
 22 50  1  0  0  0  0
 23 51  1  0  0  0  0
 24 28  1  0  0  0  0
 24 25  1  0  0  0  0
 24 52  1  0  0  0  0
 25 26  1  0  0  0  0
 25 53  1  0  0  0  0
 25 54  1  0  0  0  0
 26 27  1  0  0  0  0
 26 55  1  0  0  0  0
 26 56  1  0  0  0  0
 27 28  1  0  0  0  0
 27 57  1  0  0  0  0
 27 58  1  0  0  0  0
M  END
> <s_m_source_file>
AV-unprocessed.smi

> <i_m_source_file_index>
213

> <i_lp_mmshare_version>
43012

> <i_f3d_flags>
0

> <s_epik_input>
W0NIMl0xW0NIMl1PW0NIMl1bQ0gyXU4xW0NIMl1bQ0BASF0oW0NIM10pTihbQ0gzXSljKG5bY0hdbjIpYyhjMjMpbltjSF1uM1tDSDJdW0NASF0oW09IXSlbQ0BASF00W0NIMl1bQ0gyXVtDSDJdTzQ=

> <s_epik_cmdline>
J2VwaWtfcHl0aG9uJywgJy1waCcsICc3LjAnLCAnLXRuJywgJzgnLCAnLW1hJywgJzIwMCcsICctbWV0YWxfYmluZGluZycsICctaW1hZScsICc8aW5maWxlLm1hZT4nLCAnLW9tYWUnLCAnPG91dGZpbGUubWFlPic=

> <r_lp_tautomer_probability>
1

> <r_epik_Ionization_Penalty>
0.423322

> <r_epik_Ionization_Penalty_Charging>
0

> <r_epik_Ionization_Penalty_Neutral>
0.423322

> <r_epik_State_Penalty>
0.569486

> <r_epik_Charging_Adjusted_Penalty>
0.569486

> <i_epik_Tot_Q>
0

> <i_epik_Tot_abs_Q>
0

> <r_epik_Metal_State_Penalty>
0.568671

> <b_epik_Metal_Only>
0

> <s_lp_Force_Field>
OPLS_2005

> <r_lp_Energy>
53.6453

> <b_lp_Chiralities_Consistent>
1

> <s_lp_Variant>
AV-unprocessed.smi:213-15

> <Gold.Version>
5.8.1

> <Gold.Id.Protein>
6NUR|6NUR_protein|mol2

> <Gold.PLP.Fitness>
46.1240

> <Gold.PLP.PLP>
-44.3727

> <Gold.PLP.part.hbond>
-1.0000

> <Gold.PLP.part.metal>
0.0000

> <Gold.PLP.part.buried>
-5.3397

> <Gold.PLP.part.nonpolar>
-39.9220

> <Gold.PLP.part.repulsive>
1.3570

> <Gold.PLP.ligand.clash>
0.0000

> <Gold.PLP.ligand.torsion>
2.2154

> <Gold.PLP.Chemscore.Hbond>
1.0000

> <Gold.PLP.Chemscore.CHOScore>
1.0000

> <Gold.PLP.Chemscore.Metal>
0.0000

> <Gold.Chemscore.Hbonds>
donor molecule, donor type, donor heavy atom, donor atom, acceptor molecule, acceptor atom, score
      L1  H    23    51       P1  7948  1.00
      L1  C    19    47       P1 10171  1.00

> <Gold.PLP.Chemscore.Internal.Correction>
0.1821

> <Gold.Rescore>
     Score         DG    S(hbond)    S(metal)    S(lipo)     H(rot)  DE(clash)    DE(int)     intcor
     10.86     -14.04       0.94        0.00     106.23       2.74       0.37       2.81       ----

> <Gold.Chemscore.Fitness>
10.8559

> <Gold.Chemscore.DG>
-14.0381

> <Gold.Chemscore.ZeroCoef>
-5.4800

> <Gold.Chemscore.Hbond>
0.9395

> <Gold.Chemscore.Metal>
0.0000

> <Gold.Chemscore.Lipo>
106.2300

> <Gold.Chemscore.Internal_Hbond>
0.0000

> <Gold.Chemscore.DEClash>
0.3678

> <Gold.Chemscore.DEInternal>
2.8143

> <Gold.Chemscore.Rot>
2.7378

> <Gold.Chemscore.Internal.Correction>
   9.000000E+99

> <Gold.Chemscore.Hbonds>
donor molecule, donor type, donor heavy atom, donor atom, acceptor molecule, acceptor atom, score
      L1  H    23    51       P1  7948  0.54

> <Gold.Chemscore.Hbond.Weighted>
-3.1378

> <Gold.Chemscore.Metal.Weighted>
-0.0000

> <Gold.Chemscore.Lipo.Weighted>
-12.4289

> <Gold.Chemscore.Internal_Hbond.Weighted>
0.0000

> <Gold.Chemscore.DEClash.Weighted>
0.3678

> <Gold.Chemscore.DEInternal.Weighted>
2.8143

> <Gold.Chemscore.Rot.Weighted>
7.0087

> <Gold.Chemscore.Internal.Correction.Weighted>
   9.000000E+99

> <Gold.Protein.RotatedTorsions>
[ 6907 6896 6895 6894 ] final  139.23 input  -60.11 | X-H torsion
[ 7974 7965 7964 7962 ] final  160.79 input  175.53 | X-H torsion
[ 8008 7997 7996 7995 ] final  -90.77 input   59.86 | X-H torsion
[ 10167 10162 10161 10158 ] final -166.73 input  -65.29 | X-H torsion
[ 10718 10713 10712 10709 ] final   24.80 input   66.30 | X-H torsion
[ 10763 10752 10751 10750 ] final   52.16 input  -60.55 | X-H torsion
[ 11005 11000 10999 10996 ] final  107.11 input  -57.11 | X-H torsion

> <Gold.Protein.ActiveResidues>
 VAL166  LYS551  ARG553  GLY616  TRP617  ASP618  TYR619  PRO620  LYS621  CYS622 
 ASP623  PHE694  ASN695  SER759  ASP760  ASP761  ALA762  ILE779  LEU786  VAL792 
 PHE793  MET794  SER795  GLU796  ALA797  LYS798  CYS799  TRP800  GLU811  SER814 

> <Gold.Protein.RotatedAtoms>
  152.2573  133.5266  159.5360 H   0  0  0  0  0  0  0  0  0  0  0  0  # atno 6907 bound_to 6896
  150.7113  134.0878  159.3930 H   0  0  0  0  0  0  0  0  0  0  0  0  # atno 6908 bound_to 6896
  151.8797  135.0458  160.0538 H   0  0  0  0  0  0  0  0  0  0  0  0  # atno 6909 bound_to 6896
  144.7719  139.7806  143.6294 H   0  0  0  0  0  0  0  0  0  0  0  0  # atno 7974 bound_to 7965
  154.7026  140.0527  157.0472 H   0  0  0  0  0  0  0  0  0  0  0  0  # atno 8008 bound_to 7997
  155.0664  140.3195  155.4625 H   0  0  0  0  0  0  0  0  0  0  0  0  # atno 8009 bound_to 7997
  156.2764  140.2089  156.5792 H   0  0  0  0  0  0  0  0  0  0  0  0  # atno 8010 bound_to 7997
  139.6096  144.0842  152.1828 H   0  0  0  0  0  0  0  0  0  0  0  0  # atno 10167 bound_to 10162
  157.1847  130.6818  149.6126 H   0  0  0  0  0  0  0  0  0  0  0  0  # atno 10718 bound_to 10713
  152.9787  135.5821  154.4534 H   0  0  0  0  0  0  0  0  0  0  0  0  # atno 10763 bound_to 10752
  154.4120  135.2770  155.2033 H   0  0  0  0  0  0  0  0  0  0  0  0  # atno 10764 bound_to 10752
  154.3819  135.6145  153.5849 H   0  0  0  0  0  0  0  0  0  0  0  0  # atno 10765 bound_to 10752
  139.8823  134.9390  156.5769 H   0  0  0  0  0  0  0  0  0  0  0  0  # atno 11005 bound_to 11000
  146.1871  139.5092  142.9829 LP  0  0  0  0  0  0  0  0  0  0  0  0  # atno 17320 bound_to 7965
  145.6300  141.0306  143.1868 LP  0  0  0  0  0  0  0  0  0  0  0  0  # atno 17321 bound_to 7965
  140.0458  144.5972  150.7375 LP  0  0  0  0  0  0  0  0  0  0  0  0  # atno 17342 bound_to 10162
  140.7309  143.2689  151.3954 LP  0  0  0  0  0  0  0  0  0  0  0  0  # atno 17343 bound_to 10162
  155.9719  130.4635  150.6183 LP  0  0  0  0  0  0  0  0  0  0  0  0  # atno 17370 bound_to 10713
  157.3919  131.0797  151.1386 LP  0  0  0  0  0  0  0  0  0  0  0  0  # atno 17371 bound_to 10713
  140.8056  133.8470  155.8765 LP  0  0  0  0  0  0  0  0  0  0  0  0  # atno 17394 bound_to 11000
  140.9553  134.1726  157.4697 LP  0  0  0  0  0  0  0  0  0  0  0  0  # atno 17395 bound_to 11000

$$$$
