AV-unprocessed.smi:3094|AV-procd|sdf|11790|dock9
  -GOLD-   2272017163D 1   1.00000     0.00000
 Structure written by MMmdl.
 29 30  0  0  0  0  0  0  0  0  1 V2000
  149.3708  140.5808  156.9286 C   0  0  0  0  0  0  0  0  0  0  0  0
  150.3836  141.3071  156.0303 C   0  0  2  0  0  0  0  0  0  0  0  0
  151.6979  140.5135  155.9051 C   0  0  0  0  0  0  0  0  0  0  0  0
  151.4895  139.1870  155.3541 N   0  0  0  0  0  0  0  0  0  0  0  0
  150.3175  138.6823  154.8061 C   0  0  0  0  0  0  0  0  0  0  0  0
  150.5917  137.3923  154.4119 C   0  0  0  0  0  0  0  0  0  0  0  0
  151.9170  137.0829  154.7086 N   0  0  0  0  0  0  0  0  0  0  0  0
  152.3836  138.1926  155.2664 C   0  0  0  0  0  0  0  0  0  0  0  0
  150.6524  142.6422  156.5618 N   0  0  0  0  0  0  0  0  0  0  0  0
  151.3078  142.9105  157.7014 C   0  0  0  0  0  0  0  0  0  0  0  0
  151.7835  142.0356  158.4263 O   0  0  0  0  0  0  0  0  0  0  0  0
  151.4060  144.3681  158.0121 C   0  0  0  0  0  0  0  0  0  0  0  0
  152.7882  144.9869  158.0529 C   0  0  0  0  0  0  0  0  0  0  0  0
  152.0279  144.7631  159.3360 C   0  0  0  0  0  0  0  0  0  0  0  0
  149.1438  139.5880  156.5395 H   0  0  0  0  0  0  0  0  0  0  0  0
  148.4309  141.1307  156.9887 H   0  0  0  0  0  0  0  0  0  0  0  0
  149.7531  140.4614  157.9429 H   0  0  0  0  0  0  0  0  0  0  0  0
  149.9479  141.3948  155.0331 H   0  0  0  0  0  0  0  0  0  0  0  0
  152.4152  141.0485  155.2803 H   0  0  0  0  0  0  0  0  0  0  0  0
  152.1617  140.3987  156.8854 H   0  0  0  0  0  0  0  0  0  0  0  0
  149.4122  139.2678  154.7408 H   0  0  0  0  0  0  0  0  0  0  0  0
  149.9419  136.6690  153.9416 H   0  0  0  0  0  0  0  0  0  0  0  0
  153.4017  138.2860  155.6152 H   0  0  0  0  0  0  0  0  0  0  0  0
  150.2972  143.4228  156.0292 H   0  0  0  0  0  0  0  0  0  0  0  0
  150.5979  144.9996  157.6452 H   0  0  0  0  0  0  0  0  0  0  0  0
  153.6502  144.3492  157.8643 H   0  0  0  0  0  0  0  0  0  0  0  0
  152.8827  146.0068  157.6857 H   0  0  0  0  0  0  0  0  0  0  0  0
  151.6067  145.6310  159.8391 H   0  0  0  0  0  0  0  0  0  0  0  0
  152.3854  143.9768  159.9988 H   0  0  0  0  0  0  0  0  0  0  0  0
  1  2  1  0  0  0  0
  1 15  1  0  0  0  0
  1 16  1  0  0  0  0
  1 17  1  0  0  0  0
  2  3  1  0  0  0  0
  2  9  1  0  0  0  0
  2 18  1  0  0  0  0
  3  4  1  0  0  0  0
  3 19  1  0  0  0  0
  3 20  1  0  0  0  0
  4  8  1  0  0  0  0
  4  5  1  0  0  0  0
  5  6  2  0  0  0  0
  5 21  1  0  0  0  0
  6  7  1  0  0  0  0
  6 22  1  0  0  0  0
  7  8  2  0  0  0  0
  8 23  1  0  0  0  0
  9 10  1  0  0  0  0
  9 24  1  0  0  0  0
 10 11  2  0  0  0  0
 10 12  1  0  0  0  0
 12 14  1  0  0  0  0
 12 13  1  0  0  0  0
 12 25  1  0  0  0  0
 13 14  1  0  0  0  0
 13 26  1  0  0  0  0
 13 27  1  0  0  0  0
 14 28  1  0  0  0  0
 14 29  1  0  0  0  0
M  END
> <s_m_source_file>
AV-unprocessed.smi

> <i_m_source_file_index>
3094

> <i_lp_mmshare_version>
43012

> <i_f3d_flags>
0

> <s_epik_input>
W0NIMl0xW0NIMl1bQ0hdMUMoPU8pW05IXVtDQEhdKFtDSDNdKVtDSDJdbjJbY0hdW2NIXW5bY0hdMg==

> <s_epik_cmdline>
J2VwaWtfcHl0aG9uJywgJy1waCcsICc3LjAnLCAnLXRuJywgJzgnLCAnLW1hJywgJzIwMCcsICctbWV0YWxfYmluZGluZycsICctaW1hZScsICc8aW5maWxlLm1hZT4nLCAnLW9tYWUnLCAnPG91dGZpbGUubWFlPic=

> <r_lp_tautomer_probability>
1

> <r_epik_Ionization_Penalty>
0.642614

> <r_epik_Ionization_Penalty_Charging>
0.642614

> <r_epik_Ionization_Penalty_Neutral>
4.09963e-08

> <r_epik_State_Penalty>
0.660429

> <r_epik_Charging_Adjusted_Penalty>
1.30304

> <i_epik_Tot_Q>
0

> <i_epik_Tot_abs_Q>
0

> <r_epik_Metal_State_Penalty>
0.31224

> <b_epik_Metal_Only>
0

> <s_lp_Force_Field>
OPLS_2005

> <r_lp_Energy>
8.14958

> <b_lp_Chiralities_Consistent>
1

> <s_lp_Variant>
AV-unprocessed.smi:3094-3

> <Gold.Version>
5.8.1

> <Gold.Id.Protein>
6NUR|6NUR_protein|mol2

> <Gold.PLP.Fitness>
42.9274

> <Gold.PLP.PLP>
-34.1685

> <Gold.PLP.part.hbond>
-2.0000

> <Gold.PLP.part.metal>
0.0000

> <Gold.PLP.part.buried>
-3.9729

> <Gold.PLP.part.nonpolar>
-28.1854

> <Gold.PLP.part.repulsive>
0.2013

> <Gold.PLP.ligand.clash>
0.0000

> <Gold.PLP.ligand.torsion>
0.1607

> <Gold.PLP.Chemscore.Hbond>
2.0000

> <Gold.PLP.Chemscore.CHOScore>
1.0000

> <Gold.PLP.Chemscore.Metal>
0.0000

> <Gold.Chemscore.Hbonds>
donor molecule, donor type, donor heavy atom, donor atom, acceptor molecule, acceptor atom, score
      L1  H     9    24       P1  8028  1.00
      P1  H 10752 10763       L1     7  1.00
      L1  C     6    22       P1  7948  1.00

> <Gold.PLP.Chemscore.Internal.Correction>
0.0803

> <Gold.Rescore>
     Score         DG    S(hbond)    S(metal)    S(lipo)     H(rot)  DE(clash)    DE(int)     intcor
     13.98     -15.52       1.92        0.00      71.10       1.83       0.08       1.46       ----

> <Gold.Chemscore.Fitness>
13.9799

> <Gold.Chemscore.DG>
-15.5219

> <Gold.Chemscore.ZeroCoef>
-5.4800

> <Gold.Chemscore.Hbond>
1.9222

> <Gold.Chemscore.Metal>
0.0000

> <Gold.Chemscore.Lipo>
71.0994

> <Gold.Chemscore.Internal_Hbond>
0.0000

> <Gold.Chemscore.DEClash>
0.0787

> <Gold.Chemscore.DEInternal>
1.4633

> <Gold.Chemscore.Rot>
1.8347

> <Gold.Chemscore.Internal.Correction>
   9.000000E+99

> <Gold.Chemscore.Hbonds>
donor molecule, donor type, donor heavy atom, donor atom, acceptor molecule, acceptor atom, score
      L1  H     9    24       P1  8028  0.95
      P1  H 10752 10763       L1     7  0.94

> <Gold.Chemscore.Hbond.Weighted>
-6.4201

> <Gold.Chemscore.Metal.Weighted>
-0.0000

> <Gold.Chemscore.Lipo.Weighted>
-8.3186

> <Gold.Chemscore.Internal_Hbond.Weighted>
0.0000

> <Gold.Chemscore.DEClash.Weighted>
0.0787

> <Gold.Chemscore.DEInternal.Weighted>
1.4633

> <Gold.Chemscore.Rot.Weighted>
4.6969

> <Gold.Chemscore.Internal.Correction.Weighted>
   9.000000E+99

> <Gold.Protein.RotatedTorsions>
[ 6907 6896 6895 6894 ] final   20.61 input  -60.11 | X-H torsion
[ 7974 7965 7964 7962 ] final   13.04 input  175.53 | X-H torsion
[ 8008 7997 7996 7995 ] final -166.91 input   59.86 | X-H torsion
[ 10167 10162 10161 10158 ] final  170.56 input  -65.29 | X-H torsion
[ 10718 10713 10712 10709 ] final   27.94 input   66.30 | X-H torsion
[ 10763 10752 10751 10750 ] final   48.16 input  -60.55 | X-H torsion
[ 11005 11000 10999 10996 ] final  170.73 input  -57.11 | X-H torsion

> <Gold.Protein.ActiveResidues>
 VAL166  LYS551  ARG553  GLY616  TRP617  ASP618  TYR619  PRO620  LYS621  CYS622 
 ASP623  PHE694  ASN695  SER759  ASP760  ASP761  ALA762  ILE779  LEU786  VAL792 
 PHE793  MET794  SER795  GLU796  ALA797  LYS798  CYS799  TRP800  GLU811  SER814 

> <Gold.Protein.RotatedAtoms>
  151.8990  135.0386  160.0504 H   0  0  0  0  0  0  0  0  0  0  0  0  # atno 6907 bound_to 6896
  152.2373  133.5102  159.5258 H   0  0  0  0  0  0  0  0  0  0  0  0  # atno 6908 bound_to 6896
  150.7043  134.1052  159.4023 H   0  0  0  0  0  0  0  0  0  0  0  0  # atno 6909 bound_to 6896
  146.2338  139.9248  142.8505 H   0  0  0  0  0  0  0  0  0  0  0  0  # atno 7974 bound_to 7965
  155.8703  140.0992  157.1554 H   0  0  0  0  0  0  0  0  0  0  0  0  # atno 8008 bound_to 7997
  154.3996  140.1348  156.4133 H   0  0  0  0  0  0  0  0  0  0  0  0  # atno 8009 bound_to 7997
  155.7758  140.3459  155.5273 H   0  0  0  0  0  0  0  0  0  0  0  0  # atno 8010 bound_to 7997
  139.5022  144.3583  151.9851 H   0  0  0  0  0  0  0  0  0  0  0  0  # atno 10167 bound_to 10162
  157.2269  130.7005  149.6295 H   0  0  0  0  0  0  0  0  0  0  0  0  # atno 10718 bound_to 10713
  152.9794  135.5953  154.3881 H   0  0  0  0  0  0  0  0  0  0  0  0  # atno 10763 bound_to 10752
  154.3539  135.2767  155.2359 H   0  0  0  0  0  0  0  0  0  0  0  0  # atno 10764 bound_to 10752
  154.4386  135.6019  153.6169 H   0  0  0  0  0  0  0  0  0  0  0  0  # atno 10765 bound_to 10752
  140.3115  134.7513  157.3995 H   0  0  0  0  0  0  0  0  0  0  0  0  # atno 11005 bound_to 11000
  145.2102  140.9892  143.4105 LP  0  0  0  0  0  0  0  0  0  0  0  0  # atno 17320 bound_to 7965
  144.9698  139.3892  143.6314 LP  0  0  0  0  0  0  0  0  0  0  0  0  # atno 17321 bound_to 7965
  140.3020  144.3636  150.6057 LP  0  0  0  0  0  0  0  0  0  0  0  0  # atno 17342 bound_to 10162
  140.5866  143.2170  151.7330 LP  0  0  0  0  0  0  0  0  0  0  0  0  # atno 17343 bound_to 10162
  155.9678  130.4501  150.5686 LP  0  0  0  0  0  0  0  0  0  0  0  0  # atno 17370 bound_to 10713
  157.3518  131.0735  151.1707 LP  0  0  0  0  0  0  0  0  0  0  0  0  # atno 17371 bound_to 10713
  140.1021  134.5459  155.8343 LP  0  0  0  0  0  0  0  0  0  0  0  0  # atno 17394 bound_to 11000
  141.2107  133.6698  156.6528 LP  0  0  0  0  0  0  0  0  0  0  0  0  # atno 17395 bound_to 11000

$$$$
