#       Name:                AV-unprocessed.smi:2519
#       Creating user name   scv26
#       Creation time:       Fri Mar 27 13:54:15 2020


#       File generated by GOLD software.
#

@<TRIPOS>MOLECULE
AV-unprocessed.smi:2519
    48    49     1
SMALL
NO_CHARGES


@<TRIPOS>ATOM
      1 ****        -4.6411   4.2780   1.4651 C.3            1 S1                 0.0000
      2 ****        -4.1021   2.9545   1.1940 N.am           1 S1                 0.0000
      3 ****        -4.8477   1.8561   0.9888 C.2            1 S1                 0.0000
      4 ****        -6.0796   1.8707   1.0016 O.2            1 S1                 0.0000
      5 ****        -4.0891   0.5803   0.7268 C.ar           1 S1                 0.0000
      6 ****        -4.7868  -0.6032   0.3972 C.ar           1 S1                 0.0000
      7 ****        -4.0522  -1.7795   0.1653 C.ar           1 S1                 0.0000
      8 ****        -2.6497  -1.7373   0.2690 C.ar           1 S1                 0.0000
      9 ****        -2.0180  -0.5200   0.6020 C.ar           1 S1                 0.0000
     10 ****        -0.6017  -0.5754   0.6775 N.am           1 S1                 0.0000
     11 ****         0.2602   0.4239   0.9532 C.2            1 S1                 0.0000
     12 ****        -0.0691   1.5710   1.2505 O.2            1 S1                 0.0000
     13 ****         1.5569   0.0695   0.8883 N.am           1 S1                 0.0000
     14 ****         2.7471   0.8937   1.1256 C.3            1 S1                 0.0000
     15 ****         3.9820   0.2318   0.4848 C.3            1 S1                 0.0000
     16 ****         4.4095  -1.0441   1.2303 C.3            1 S1                 0.0000
     17 ****         4.6382  -0.7724   2.7254 C.3            1 S1                 0.0000
     18 ****         3.3954  -0.1437   3.3895 C.3            1 S1                 0.0000
     19 ****         3.6137   0.1192   4.8936 C.3            1 S1                 0.0000
     20 ****         4.6049   0.9904   5.0843 F              1 S1                 0.0000
     21 ****         2.4994   0.6082   5.4379 F              1 S1                 0.0000
     22 ****         3.9151  -1.0200   5.5170 F              1 S1                 0.0000
     23 ****         2.9841   1.1396   2.6332 C.3            1 S1                 0.0000
     24 ****        -2.7375   0.6066   0.8240 N.ar           1 S1                 0.0000
     25 ****        -3.8305   5.0049   1.5183 H              1 S1                 0.0000
     26 ****        -5.1741   4.2902   2.4165 H              1 S1                 0.0000
     27 ****        -5.3272   4.5899   0.6768 H              1 S1                 0.0000
     28 ****        -3.0968   2.8571   1.1636 H              1 S1                 0.0000
     29 ****        -5.8644  -0.6190   0.3215 H              1 S1                 0.0000
     30 ****        -4.5563  -2.7004  -0.0880 H              1 S1                 0.0000
     31 ****        -2.0699  -2.6319   0.0933 H              1 S1                 0.0000
     32 ****        -0.1909  -1.4737   0.4704 H              1 S1                 0.0000
     33 ****         1.7401  -0.8982   0.6650 H              1 S1                 0.0000
     34 ****         2.6019   1.8554   0.6306 H              1 S1                 0.0000
     35 ****         3.7888   0.0050  -0.5644 H              1 S1                 0.0000
     36 ****         4.8108   0.9408   0.4925 H              1 S1                 0.0000
     37 ****         3.6480  -1.8157   1.1111 H              1 S1                 0.0000
     38 ****         5.3208  -1.4435   0.7845 H              1 S1                 0.0000
     39 ****         4.8989  -1.7057   3.2250 H              1 S1                 0.0000
     40 ****         5.4959  -0.1094   2.8456 H              1 S1                 0.0000
     41 ****         2.5765  -0.8601   3.3048 H              1 S1                 0.0000
     42 ****         3.7691   1.8882   2.7469 H              1 S1                 0.0000
     43 ****         2.0947   1.5738   3.0901 H              1 S1                 0.0000
     44 ****        -6.5677   2.7270   1.1703 LP             1 S1                 0.0000
     45 ****        -6.5913   1.0262   0.8434 LP             1 S1                 0.0000
     46 ****        -1.0373   1.8161   1.3010 LP             1 S1                 0.0000
     47 ****         0.6314   2.2586   1.4418 LP             1 S1                 0.0000
     48 ****        -2.2704   1.4588   1.0600 LP             1 S1                 0.0000
@<TRIPOS>BOND
    1    1    2 1     
    2    1   25 1     
    3    1   26 1     
    4    1   27 1     
    5    2    3 am    
    6    2   28 1     
    7    3    4 2     
    8    3    5 1     
    9    5   24 ar    
   10    5    6 ar    
   11    6    7 ar    
   12    6   29 1     
   13    7    8 ar    
   14    7   30 1     
   15    8    9 ar    
   16    8   31 1     
   17    9   10 1     
   18    9   24 ar    
   19   10   11 am    
   20   10   32 1     
   21   11   12 2     
   22   11   13 am    
   23   13   14 1     
   24   13   33 1     
   25   14   23 1     
   26   14   15 1     
   27   14   34 1     
   28   15   16 1     
   29   15   35 1     
   30   15   36 1     
   31   16   17 1     
   32   16   37 1     
   33   16   38 1     
   34   17   18 1     
   35   17   39 1     
   36   17   40 1     
   37   18   19 1     
   38   18   23 1     
   39   18   41 1     
   40   19   20 1     
   41   19   21 1     
   42   19   22 1     
   43   23   42 1     
   44   23   43 1     
   45    4   44 1     
   46    4   45 1     
   47   12   46 1     
   48   12   47 1     
   49   24   48 1     
@<TRIPOS>SUBSTRUCTURE
      1 S1             1
@<TRIPOS>SET
LONE_PAIRS      STATIC     ATOMS    <user>   **** ""
5 44 45 46 47 48
DONOR_HYDROGENS      STATIC     ATOMS    <user>   **** ""
3 28 32 33
ATOM$BLUE        STATIC     ATOMS    COLORGROUP SYSTEM
5 44 45 46 47 48
ATOM$RED        STATIC     ATOMS    COLORGROUP SYSTEM
3 28 32 33
