AV-unprocessed.smi:177|AV-procd|sdf|1442|dock4
  -GOLD-   2262019233D 1   1.00000     0.00000
 Structure written by MMmdl.
 61 65  0  0  0  0  0  0  0  0  1 V2000
  154.9609  138.9500  159.6189 C   0  0  0  0  0  0  0  0  0  0  0  0
  155.0377  140.2439  160.1976 O   0  0  0  0  0  0  0  0  0  0  0  0
  153.7753  140.8445  160.4579 C   0  0  1  0  0  0  0  0  0  0  0  0
  154.0132  142.0317  161.4049 C   0  0  0  0  0  0  0  0  0  0  0  0
  152.7030  142.7726  161.7139 C   0  0  0  0  0  0  0  0  0  0  0  0
  151.9773  143.2301  160.4365 C   0  0  1  0  0  0  0  0  0  0  0  0
  152.7143  144.2823  159.8189 O   0  0  0  0  0  0  0  0  0  0  0  0
  152.0230  144.8321  158.7023 C   0  0  0  0  0  0  0  0  0  0  0  0
  151.8170  143.7493  157.6309 C   0  0  0  0  0  0  0  0  0  0  0  0
  151.1586  142.5768  158.2092 N   0  0  0  0  0  0  0  0  0  0  0  0
  150.6513  141.6458  157.3561 C   0  0  0  0  0  0  0  0  0  0  0  0
  150.1918  142.0337  156.1355 N   0  0  0  0  0  0  0  0  0  0  0  0
  149.7035  141.1358  155.2758 C   0  0  0  0  0  0  0  0  0  0  0  0
  149.5826  139.8166  155.4277 N   0  0  0  0  0  0  0  0  0  0  0  0
  150.0367  139.4166  156.6495 C   0  0  0  0  0  0  0  0  0  0  0  0
  150.5754  140.2566  157.6663 C   0  0  0  0  0  0  0  0  0  0  0  0
  150.9022  139.4907  158.7796 N   0  0  0  0  0  0  0  0  0  0  0  0
  150.5915  138.2717  158.4355 C   0  0  0  0  0  0  0  0  0  0  0  0
  150.0794  138.1321  157.1654 N   0  0  0  0  0  0  0  0  0  0  0  0
  149.6424  136.8944  156.5342 C   0  0  0  0  0  0  0  0  0  0  0  0
  150.5883  136.3457  155.4191 C   0  0  0  0  0  0  0  0  0  0  0  0
  151.0632  137.5387  154.5436 C   0  0  0  0  0  0  0  0  0  0  0  0
  152.0458  137.1823  153.5909 O   0  0  0  0  0  0  0  0  0  0  0  0
  151.8177  135.6063  156.0085 C   0  0  0  0  0  0  0  0  0  0  0  0
  151.4314  134.2819  156.6904 C   0  0  0  0  0  0  0  0  0  0  0  0
  150.7578  133.4413  155.7618 O   0  0  0  0  0  0  0  0  0  0  0  0
  149.5364  133.9982  155.2907 C   0  0  0  0  0  0  0  0  0  0  0  0
  149.8047  135.3246  154.5533 C   0  0  0  0  0  0  0  0  0  0  0  0
  151.7858  142.0682  159.4329 C   0  0  1  0  0  0  0  0  0  0  0  0
  153.1170  141.3322  159.1532 C   0  0  0  0  0  0  0  0  0  0  0  0
  155.9676  138.5577  159.4761 H   0  0  0  0  0  0  0  0  0  0  0  0
  154.4721  138.9658  158.6453 H   0  0  0  0  0  0  0  0  0  0  0  0
  154.4237  138.2586  160.2692 H   0  0  0  0  0  0  0  0  0  0  0  0
  153.1208  140.1288  160.9594 H   0  0  0  0  0  0  0  0  0  0  0  0
  154.4633  141.6800  162.3338 H   0  0  0  0  0  0  0  0  0  0  0  0
  154.7287  142.7237  160.9582 H   0  0  0  0  0  0  0  0  0  0  0  0
  152.0460  142.1113  162.2797 H   0  0  0  0  0  0  0  0  0  0  0  0
  152.9010  143.6303  162.3575 H   0  0  0  0  0  0  0  0  0  0  0  0
  151.0006  143.6208  160.7284 H   0  0  0  0  0  0  0  0  0  0  0  0
  151.0662  145.2477  159.0218 H   0  0  0  0  0  0  0  0  0  0  0  0
  152.6064  145.6572  158.2935 H   0  0  0  0  0  0  0  0  0  0  0  0
  151.2120  144.1582  156.8205 H   0  0  0  0  0  0  0  0  0  0  0  0
  152.7768  143.4608  157.2010 H   0  0  0  0  0  0  0  0  0  0  0  0
  149.3628  141.5316  154.3303 H   0  0  0  0  0  0  0  0  0  0  0  0
  150.7313  137.4351  159.1043 H   0  0  0  0  0  0  0  0  0  0  0  0
  149.5019  136.1644  157.3297 H   0  0  0  0  0  0  0  0  0  0  0  0
  148.6466  137.0631  156.1224 H   0  0  0  0  0  0  0  0  0  0  0  0
  150.2192  137.9756  154.0087 H   0  0  0  0  0  0  0  0  0  0  0  0
  151.4886  138.3282  155.1630 H   0  0  0  0  0  0  0  0  0  0  0  0
  151.6354  137.1309  152.7411 H   0  0  0  0  0  0  0  0  0  0  0  0
  152.5222  135.3672  155.2113 H   0  0  0  0  0  0  0  0  0  0  0  0
  152.3688  136.2433  156.6992 H   0  0  0  0  0  0  0  0  0  0  0  0
  152.3291  133.7686  157.0354 H   0  0  0  0  0  0  0  0  0  0  0  0
  150.8098  134.4471  157.5706 H   0  0  0  0  0  0  0  0  0  0  0  0
  149.0729  133.2856  154.6084 H   0  0  0  0  0  0  0  0  0  0  0  0
  148.8387  134.1272  156.1183 H   0  0  0  0  0  0  0  0  0  0  0  0
  148.8639  135.7578  154.2117 H   0  0  0  0  0  0  0  0  0  0  0  0
  150.3676  135.0836  153.6514 H   0  0  0  0  0  0  0  0  0  0  0  0
  151.1167  141.3565  159.9120 H   0  0  0  0  0  0  0  0  0  0  0  0
  153.8121  141.9891  158.6298 H   0  0  0  0  0  0  0  0  0  0  0  0
  152.9309  140.4897  158.4879 H   0  0  0  0  0  0  0  0  0  0  0  0
  1  2  1  0  0  0  0
  1 31  1  0  0  0  0
  1 32  1  0  0  0  0
  1 33  1  0  0  0  0
  2  3  1  0  0  0  0
  3 30  1  0  0  0  0
  3  4  1  0  0  0  0
  3 34  1  0  0  0  0
  4  5  1  0  0  0  0
  4 35  1  0  0  0  0
  4 36  1  0  0  0  0
  5  6  1  0  0  0  0
  5 37  1  0  0  0  0
  5 38  1  0  0  0  0
  6 29  1  0  0  0  0
  6  7  1  0  0  0  0
  6 39  1  0  0  0  0
  7  8  1  0  0  0  0
  8  9  1  0  0  0  0
  8 40  1  0  0  0  0
  8 41  1  0  0  0  0
  9 10  1  0  0  0  0
  9 42  1  0  0  0  0
  9 43  1  0  0  0  0
 10 11  1  0  0  0  0
 10 29  1  0  0  0  0
 11 16  1  0  0  0  0
 11 12  2  0  0  0  0
 12 13  1  0  0  0  0
 13 14  2  0  0  0  0
 13 44  1  0  0  0  0
 14 15  1  0  0  0  0
 15 19  1  0  0  0  0
 15 16  2  0  0  0  0
 16 17  1  0  0  0  0
 17 18  2  0  0  0  0
 18 19  1  0  0  0  0
 18 45  1  0  0  0  0
 19 20  1  0  0  0  0
 20 21  1  0  0  0  0
 20 46  1  0  0  0  0
 20 47  1  0  0  0  0
 21 28  1  0  0  0  0
 21 22  1  0  0  0  0
 21 24  1  0  0  0  0
 22 23  1  0  0  0  0
 22 48  1  0  0  0  0
 22 49  1  0  0  0  0
 23 50  1  0  0  0  0
 24 25  1  0  0  0  0
 24 51  1  0  0  0  0
 24 52  1  0  0  0  0
 25 26  1  0  0  0  0
 25 53  1  0  0  0  0
 25 54  1  0  0  0  0
 26 27  1  0  0  0  0
 27 28  1  0  0  0  0
 27 55  1  0  0  0  0
 27 56  1  0  0  0  0
 28 57  1  0  0  0  0
 28 58  1  0  0  0  0
 29 30  1  0  0  0  0
 29 59  1  0  0  0  0
 30 60  1  0  0  0  0
 30 61  1  0  0  0  0
M  END
> <s_m_source_file>
AV-unprocessed.smi

> <i_m_source_file_index>
177

> <i_lp_mmshare_version>
43012

> <i_f3d_flags>
0

> <s_epik_input>
W0NIM11PW0NASF0oW0NIMl1bQ0gyXTEpW0NIMl1bQ0BIXShbQ0BASF0xMilOKFtDSDJdW0NIMl1PMiljKG5bY0hdbjMpYyhjMzQpbltjSF1uNFtDSDJdQzUoW0NIMl1bT0hdKVtDSDJdW0NIMl1PW0NIMl1bQ0gyXTU=

> <s_epik_cmdline>
J2VwaWtfcHl0aG9uJywgJy1waCcsICc3LjAnLCAnLXRuJywgJzgnLCAnLW1hJywgJzIwMCcsICctbWV0YWxfYmluZGluZycsICctaW1hZScsICc8aW5maWxlLm1hZT4nLCAnLW9tYWUnLCAnPG91dGZpbGUubWFlPic=

> <r_lp_tautomer_probability>
1

> <r_epik_Ionization_Penalty>
0.0065899

> <r_epik_Ionization_Penalty_Charging>
0

> <r_epik_Ionization_Penalty_Neutral>
0.0065899

> <r_epik_State_Penalty>
0.00470042

> <r_epik_Charging_Adjusted_Penalty>
0.00470042

> <i_epik_Tot_Q>
0

> <i_epik_Tot_abs_Q>
0

> <r_epik_Metal_State_Penalty>
-0

> <b_epik_Metal_Only>
0

> <s_lp_Force_Field>
OPLS_2005

> <r_lp_Energy>
44.6168

> <b_lp_Chiralities_Consistent>
1

> <s_lp_Variant>
AV-unprocessed.smi:177-6

> <Gold.Version>
5.8.1

> <Gold.Id.Protein>
6NUR|6NUR_protein|mol2

> <Gold.PLP.Fitness>
47.9414

> <Gold.PLP.PLP>
-43.4195

> <Gold.PLP.part.hbond>
-2.0000

> <Gold.PLP.part.metal>
0.0000

> <Gold.PLP.part.buried>
-1.7876

> <Gold.PLP.part.nonpolar>
-40.1117

> <Gold.PLP.part.repulsive>
0.4694

> <Gold.PLP.ligand.clash>
0.0000

> <Gold.PLP.ligand.torsion>
0.9819

> <Gold.PLP.Chemscore.Hbond>
2.0000

> <Gold.PLP.Chemscore.CHOScore>
0.0000

> <Gold.PLP.Chemscore.Metal>
0.0000

> <Gold.Chemscore.Hbonds>
donor molecule, donor type, donor heavy atom, donor atom, acceptor molecule, acceptor atom, score
      L1  H    23    50       P1  7949  0.85
      P1  H 10752 10765       L1    23  0.94

> <Gold.PLP.Chemscore.Internal.Correction>
0.4857

> <Gold.Rescore>
     Score         DG    S(hbond)    S(metal)    S(lipo)     H(rot)  DE(clash)    DE(int)     intcor
     13.01     -19.58       1.84        0.00     124.52       2.58       0.97       5.60       ----

> <Gold.Chemscore.Fitness>
13.0067

> <Gold.Chemscore.DG>
-19.5769

> <Gold.Chemscore.ZeroCoef>
-5.4800

> <Gold.Chemscore.Hbond>
1.8366

> <Gold.Chemscore.Metal>
0.0000

> <Gold.Chemscore.Lipo>
124.5205

> <Gold.Chemscore.Internal_Hbond>
0.0000

> <Gold.Chemscore.DEClash>
0.9685

> <Gold.Chemscore.DEInternal>
5.6016

> <Gold.Chemscore.Rot>
2.5806

> <Gold.Chemscore.Internal.Correction>
   9.000000E+99

> <Gold.Chemscore.Hbonds>
donor molecule, donor type, donor heavy atom, donor atom, acceptor molecule, acceptor atom, score
      L1  H    23    50       P1  7949  0.81
      P1  H 10752 10765       L1    23  0.61

> <Gold.Chemscore.Hbond.Weighted>
-6.1342

> <Gold.Chemscore.Metal.Weighted>
-0.0000

> <Gold.Chemscore.Lipo.Weighted>
-14.5689

> <Gold.Chemscore.Internal_Hbond.Weighted>
0.0000

> <Gold.Chemscore.DEClash.Weighted>
0.9685

> <Gold.Chemscore.DEInternal.Weighted>
5.6016

> <Gold.Chemscore.Rot.Weighted>
6.6062

> <Gold.Chemscore.Internal.Correction.Weighted>
   9.000000E+99

> <Gold.Protein.RotatedTorsions>
[ 6907 6896 6895 6894 ] final   46.32 input  -60.11 | X-H torsion
[ 7974 7965 7964 7962 ] final  155.62 input  175.53 | X-H torsion
[ 8008 7997 7996 7995 ] final  -36.73 input   59.86 | X-H torsion
[ 10167 10162 10161 10158 ] final  102.37 input  -65.29 | X-H torsion
[ 10718 10713 10712 10709 ] final -109.52 input   66.30 | X-H torsion
[ 10763 10752 10751 10750 ] final  159.12 input  -60.55 | X-H torsion
[ 11005 11000 10999 10996 ] final   43.38 input  -57.11 | X-H torsion

> <Gold.Protein.ActiveResidues>
 VAL166  LYS551  ARG553  GLY616  TRP617  ASP618  TYR619  PRO620  LYS621  CYS622 
 ASP623  PHE694  ASN695  SER759  ASP760  ASP761  ALA762  ILE779  LEU786  VAL792 
 PHE793  MET794  SER795  GLU796  ALA797  LYS798  CYS799  TRP800  GLU811  SER814 

> <Gold.Protein.RotatedAtoms>
  152.2550  134.8093  160.0439 H   0  0  0  0  0  0  0  0  0  0  0  0  # atno 6907 bound_to 6896
  151.8759  133.3480  159.3758 H   0  0  0  0  0  0  0  0  0  0  0  0  # atno 6908 bound_to 6896
  150.7097  134.4993  159.5598 H   0  0  0  0  0  0  0  0  0  0  0  0  # atno 6909 bound_to 6896
  144.8013  139.7093  143.6180 H   0  0  0  0  0  0  0  0  0  0  0  0  # atno 7974 bound_to 7965
  154.4067  140.1623  156.2421 H   0  0  0  0  0  0  0  0  0  0  0  0  # atno 8008 bound_to 7997
  155.9192  140.3422  155.6137 H   0  0  0  0  0  0  0  0  0  0  0  0  # atno 8009 bound_to 7997
  155.7243  140.0772  157.2308 H   0  0  0  0  0  0  0  0  0  0  0  0  # atno 8010 bound_to 7997
  139.7356  144.7025  151.0655 H   0  0  0  0  0  0  0  0  0  0  0  0  # atno 10167 bound_to 10162
  156.0541  130.5768  150.8111 H   0  0  0  0  0  0  0  0  0  0  0  0  # atno 10718 bound_to 10713
  154.2268  135.2780  155.2904 H   0  0  0  0  0  0  0  0  0  0  0  0  # atno 10763 bound_to 10752
  154.5656  135.5634  153.7051 H   0  0  0  0  0  0  0  0  0  0  0  0  # atno 10764 bound_to 10752
  153.0029  135.6308  154.2410 H   0  0  0  0  0  0  0  0  0  0  0  0  # atno 10765 bound_to 10752
  140.1650  134.4293  155.8293 H   0  0  0  0  0  0  0  0  0  0  0  0  # atno 11005 bound_to 11000
  146.2295  139.5786  142.9565 LP  0  0  0  0  0  0  0  0  0  0  0  0  # atno 17320 bound_to 7965
  145.5546  141.0410  143.2260 LP  0  0  0  0  0  0  0  0  0  0  0  0  # atno 17321 bound_to 7965
  140.7778  143.4989  150.9797 LP  0  0  0  0  0  0  0  0  0  0  0  0  # atno 17342 bound_to 10162
  139.8677  143.7233  152.3169 LP  0  0  0  0  0  0  0  0  0  0  0  0  # atno 17343 bound_to 10162
  157.5495  131.0943  150.9715 LP  0  0  0  0  0  0  0  0  0  0  0  0  # atno 17370 bound_to 10713
  156.9978  130.5588  149.5309 LP  0  0  0  0  0  0  0  0  0  0  0  0  # atno 17371 bound_to 10713
  141.2213  133.6930  156.7662 LP  0  0  0  0  0  0  0  0  0  0  0  0  # atno 17394 bound_to 11000
  140.2444  134.8588  157.3606 LP  0  0  0  0  0  0  0  0  0  0  0  0  # atno 17395 bound_to 11000

$$$$
