AV-unprocessed.smi:3251|AV-procd|sdf|12438|dock3
  -GOLD-   2272018333D 1   1.00000     0.00000
 Structure written by MMmdl.
 40 41  0  0  0  0  0  0  0  0  1 V2000
  153.1568  142.9933  163.1537 C   0  0  0  0  0  0  0  0  0  0  0  0
  152.9963  142.7716  161.6772 C   0  0  0  0  0  0  0  0  0  0  0  0
  153.3891  141.6348  160.9145 C   0  0  0  0  0  0  0  0  0  0  0  0
  153.1054  141.7554  159.6281 N   0  0  0  0  0  0  0  0  0  0  0  0
  152.5228  142.9685  159.5237 N   0  0  0  0  0  0  0  0  0  0  0  0
  152.0726  143.4431  158.2296 C   0  0  0  0  0  0  0  0  0  0  0  0
  150.6884  142.8837  157.8704 C   0  0  0  0  0  0  0  0  0  0  0  0
  150.6107  142.6810  156.4278 N   0  0  0  0  0  0  0  0  0  0  0  0
  150.0905  141.3545  156.0463 C   0  0  1  0  0  0  0  0  0  0  0  0
  149.3201  141.4681  154.7218 C   0  0  0  0  0  0  0  0  0  0  0  0
  151.1877  140.2723  155.9217 C   0  0  0  0  0  0  0  0  0  0  0  0
  151.5666  139.9372  154.7980 O   0  0  0  0  0  0  0  0  0  0  0  0
  151.7037  139.7160  157.0396 N   0  0  0  0  0  0  0  0  0  0  0  0
  152.7581  138.7032  157.0132 C   0  0  0  0  0  0  0  0  0  0  0  0
  153.2003  138.5224  158.4651 C   0  0  0  0  0  0  0  0  0  0  0  0
  151.9803  138.9320  159.2766 C   0  0  0  0  0  0  0  0  0  0  0  0
  151.3022  139.9994  158.4174 C   0  0  0  0  0  0  0  0  0  0  0  0
  152.4442  143.6037  160.7447 C   0  0  0  0  0  0  0  0  0  0  0  0
  153.4958  142.0919  163.6648 H   0  0  0  0  0  0  0  0  0  0  0  0
  152.2184  143.2929  163.6205 H   0  0  0  0  0  0  0  0  0  0  0  0
  153.8859  143.7755  163.3649 H   0  0  0  0  0  0  0  0  0  0  0  0
  153.8700  140.7301  161.2564 H   0  0  0  0  0  0  0  0  0  0  0  0
  152.0504  144.5337  158.2513 H   0  0  0  0  0  0  0  0  0  0  0  0
  152.8101  143.1556  157.4782 H   0  0  0  0  0  0  0  0  0  0  0  0
  150.5205  141.9488  158.4063 H   0  0  0  0  0  0  0  0  0  0  0  0
  149.9129  143.5842  158.1838 H   0  0  0  0  0  0  0  0  0  0  0  0
  150.0607  143.4218  156.0176 H   0  0  0  0  0  0  0  0  0  0  0  0
  149.3736  141.0691  156.8155 H   0  0  0  0  0  0  0  0  0  0  0  0
  148.8863  140.5109  154.4298 H   0  0  0  0  0  0  0  0  0  0  0  0
  149.9678  141.8006  153.9093 H   0  0  0  0  0  0  0  0  0  0  0  0
  148.5009  142.1829  154.8055 H   0  0  0  0  0  0  0  0  0  0  0  0
  152.3460  137.7728  156.6197 H   0  0  0  0  0  0  0  0  0  0  0  0
  153.5953  138.9987  156.3787 H   0  0  0  0  0  0  0  0  0  0  0  0
  153.5332  137.5071  158.6829 H   0  0  0  0  0  0  0  0  0  0  0  0
  154.0273  139.1995  158.6828 H   0  0  0  0  0  0  0  0  0  0  0  0
  151.3138  138.0759  159.3896 H   0  0  0  0  0  0  0  0  0  0  0  0
  152.2357  139.2908  160.2740 H   0  0  0  0  0  0  0  0  0  0  0  0
  151.6588  140.9924  158.6948 H   0  0  0  0  0  0  0  0  0  0  0  0
  150.2195  139.9736  158.5475 H   0  0  0  0  0  0  0  0  0  0  0  0
  152.0061  144.5855  160.8483 H   0  0  0  0  0  0  0  0  0  0  0  0
  1  2  1  0  0  0  0
  1 19  1  0  0  0  0
  1 20  1  0  0  0  0
  1 21  1  0  0  0  0
  2 18  2  0  0  0  0
  2  3  1  0  0  0  0
  3  4  2  0  0  0  0
  3 22  1  0  0  0  0
  4  5  1  0  0  0  0
  5  6  1  0  0  0  0
  5 18  1  0  0  0  0
  6  7  1  0  0  0  0
  6 23  1  0  0  0  0
  6 24  1  0  0  0  0
  7  8  1  0  0  0  0
  7 25  1  0  0  0  0
  7 26  1  0  0  0  0
  8  9  1  0  0  0  0
  8 27  1  0  0  0  0
  9 10  1  0  0  0  0
  9 11  1  0  0  0  0
  9 28  1  0  0  0  0
 10 29  1  0  0  0  0
 10 30  1  0  0  0  0
 10 31  1  0  0  0  0
 11 12  2  0  0  0  0
 11 13  1  0  0  0  0
 13 17  1  0  0  0  0
 13 14  1  0  0  0  0
 14 15  1  0  0  0  0
 14 32  1  0  0  0  0
 14 33  1  0  0  0  0
 15 16  1  0  0  0  0
 15 34  1  0  0  0  0
 15 35  1  0  0  0  0
 16 17  1  0  0  0  0
 16 36  1  0  0  0  0
 16 37  1  0  0  0  0
 17 38  1  0  0  0  0
 17 39  1  0  0  0  0
 18 40  1  0  0  0  0
M  END
> <s_m_source_file>
AV-unprocessed.smi

> <i_m_source_file_index>
3251

> <i_lp_mmshare_version>
43012

> <i_f3d_flags>
0

> <s_epik_input>
W0NIM11jMVtjSF1ubihbY0hdMSlbQ0gyXVtDSDJdW05IXVtDQEhdKFtDSDNdKUMoPU8pTjJbQ0gyXVtDSDJdW0NIMl1bQ0gyXTI=

> <s_epik_cmdline>
J2VwaWtfcHl0aG9uJywgJy1waCcsICc3LjAnLCAnLXRuJywgJzgnLCAnLW1hJywgJzIwMCcsICctbWV0YWxfYmluZGluZycsICctaW1hZScsICc8aW5maWxlLm1hZT4nLCAnLW9tYWUnLCAnPG91dGZpbGUubWFlPic=

> <r_lp_tautomer_probability>
1

> <r_epik_Ionization_Penalty>
0.734676

> <r_epik_Ionization_Penalty_Charging>
0

> <r_epik_Ionization_Penalty_Neutral>
0.734676

> <r_epik_State_Penalty>
0.75825

> <r_epik_Charging_Adjusted_Penalty>
0.75825

> <i_epik_Tot_Q>
0

> <i_epik_Tot_abs_Q>
0

> <r_epik_Metal_State_Penalty>
0.756914

> <b_epik_Metal_Only>
0

> <s_lp_Force_Field>
OPLS_2005

> <r_lp_Energy>
31.4715

> <b_lp_Chiralities_Consistent>
1

> <s_lp_Variant>
AV-unprocessed.smi:3251-4

> <Gold.Version>
5.8.1

> <Gold.Id.Protein>
6NUR|6NUR_protein|mol2

> <Gold.PLP.Fitness>
45.9802

> <Gold.PLP.PLP>
-43.5102

> <Gold.PLP.part.hbond>
-1.9100

> <Gold.PLP.part.metal>
0.0000

> <Gold.PLP.part.buried>
-5.5171

> <Gold.PLP.part.nonpolar>
-36.2470

> <Gold.PLP.part.repulsive>
0.0700

> <Gold.PLP.ligand.clash>
0.0266

> <Gold.PLP.ligand.torsion>
1.7741

> <Gold.PLP.Chemscore.Hbond>
2.0000

> <Gold.PLP.Chemscore.CHOScore>
0.0000

> <Gold.PLP.Chemscore.Metal>
0.0000

> <Gold.Chemscore.Hbonds>
donor molecule, donor type, donor heavy atom, donor atom, acceptor molecule, acceptor atom, score
      L1  H     8    27       P1  8028  1.00
      P1  H  7989  7998       L1    12  1.00

> <Gold.PLP.Chemscore.Internal.Correction>
0.0449

> <Gold.Rescore>
     Score         DG    S(hbond)    S(metal)    S(lipo)     H(rot)  DE(clash)    DE(int)     intcor
     17.54     -19.48       1.99        0.00      99.92       1.70       0.06       1.88       ----

> <Gold.Chemscore.Fitness>
17.5414

> <Gold.Chemscore.DG>
-19.4815

> <Gold.Chemscore.ZeroCoef>
-5.4800

> <Gold.Chemscore.Hbond>
1.9912

> <Gold.Chemscore.Metal>
0.0000

> <Gold.Chemscore.Lipo>
99.9187

> <Gold.Chemscore.Internal_Hbond>
0.0000

> <Gold.Chemscore.DEClash>
0.0638

> <Gold.Chemscore.DEInternal>
1.8763

> <Gold.Chemscore.Rot>
1.6951

> <Gold.Chemscore.Internal.Correction>
   9.000000E+99

> <Gold.Chemscore.Hbonds>
donor molecule, donor type, donor heavy atom, donor atom, acceptor molecule, acceptor atom, score
      L1  H     8    27       P1  8028  1.00
      P1  H  7989  7998       L1    12  0.97

> <Gold.Chemscore.Hbond.Weighted>
-6.6506

> <Gold.Chemscore.Metal.Weighted>
-0.0000

> <Gold.Chemscore.Lipo.Weighted>
-11.6905

> <Gold.Chemscore.Internal_Hbond.Weighted>
0.0000

> <Gold.Chemscore.DEClash.Weighted>
0.0638

> <Gold.Chemscore.DEInternal.Weighted>
1.8763

> <Gold.Chemscore.Rot.Weighted>
4.3395

> <Gold.Chemscore.Internal.Correction.Weighted>
   9.000000E+99

> <Gold.Protein.RotatedTorsions>
[ 6907 6896 6895 6894 ] final   29.84 input  -60.11 | X-H torsion
[ 7974 7965 7964 7962 ] final   30.85 input  175.53 | X-H torsion
[ 8008 7997 7996 7995 ] final   52.57 input   59.86 | X-H torsion
[ 10167 10162 10161 10158 ] final   97.77 input  -65.29 | X-H torsion
[ 10718 10713 10712 10709 ] final -153.01 input   66.30 | X-H torsion
[ 10763 10752 10751 10750 ] final   85.80 input  -60.55 | X-H torsion
[ 11005 11000 10999 10996 ] final  -88.25 input  -57.11 | X-H torsion

> <Gold.Protein.ActiveResidues>
 VAL166  LYS551  ARG553  GLY616  TRP617  ASP618  TYR619  PRO620  LYS621  CYS622 
 ASP623  PHE694  ASN695  SER759  ASP760  ASP761  ALA762  ILE779  LEU786  VAL792 
 PHE793  MET794  SER795  GLU796  ALA797  LYS798  CYS799  TRP800  GLU811  SER814 

> <Gold.Protein.RotatedAtoms>
  152.0373  134.9732  160.0573 H   0  0  0  0  0  0  0  0  0  0  0  0  # atno 6907 bound_to 6896
  152.1185  133.4335  159.4672 H   0  0  0  0  0  0  0  0  0  0  0  0  # atno 6908 bound_to 6896
  150.6847  134.2482  159.4543 H   0  0  0  0  0  0  0  0  0  0  0  0  # atno 6909 bound_to 6896
  146.1586  139.6733  142.9049 H   0  0  0  0  0  0  0  0  0  0  0  0  # atno 7974 bound_to 7965
  155.4539  140.3459  155.4304 H   0  0  0  0  0  0  0  0  0  0  0  0  # atno 8008 bound_to 7997
  156.1203  140.1485  156.9244 H   0  0  0  0  0  0  0  0  0  0  0  0  # atno 8009 bound_to 7997
  154.4818  140.0867  156.7375 H   0  0  0  0  0  0  0  0  0  0  0  0  # atno 8010 bound_to 7997
  139.7770  144.6902  151.0075 H   0  0  0  0  0  0  0  0  0  0  0  0  # atno 10167 bound_to 10162
  156.4800  130.8299  151.2526 H   0  0  0  0  0  0  0  0  0  0  0  0  # atno 10718 bound_to 10713
  153.1509  135.4604  154.9635 H   0  0  0  0  0  0  0  0  0  0  0  0  # atno 10763 bound_to 10752
  154.7824  135.3193  154.7963 H   0  0  0  0  0  0  0  0  0  0  0  0  # atno 10764 bound_to 10752
  153.8469  135.6925  153.4851 H   0  0  0  0  0  0  0  0  0  0  0  0  # atno 10765 bound_to 10752
  141.1605  133.7558  156.9423 H   0  0  0  0  0  0  0  0  0  0  0  0  # atno 11005 bound_to 11000
  145.4645  141.0434  143.2733 LP  0  0  0  0  0  0  0  0  0  0  0  0  # atno 17320 bound_to 7965
  144.7997  139.6166  143.7077 LP  0  0  0  0  0  0  0  0  0  0  0  0  # atno 17321 bound_to 7965
  140.7817  143.4524  151.0393 LP  0  0  0  0  0  0  0  0  0  0  0  0  # atno 17342 bound_to 10162
  139.8206  143.7825  152.3176 LP  0  0  0  0  0  0  0  0  0  0  0  0  # atno 17343 bound_to 10162
  157.7484  131.0048  150.3089 LP  0  0  0  0  0  0  0  0  0  0  0  0  # atno 17370 bound_to 10713
  156.3531  130.3834  149.7313 LP  0  0  0  0  0  0  0  0  0  0  0  0  # atno 17371 bound_to 10713
  140.1313  134.9354  157.2340 LP  0  0  0  0  0  0  0  0  0  0  0  0  # atno 17394 bound_to 11000
  140.2950  134.3197  155.7305 LP  0  0  0  0  0  0  0  0  0  0  0  0  # atno 17395 bound_to 11000

$$$$
