#       Name:                AV-unprocessed.smi:137
#       Creating user name   scv26
#       Creation time:       Thu Mar 26 18:32:34 2020


#       File generated by GOLD software.
#

@<TRIPOS>MOLECULE
AV-unprocessed.smi:137
    58    61     1
SMALL
NO_CHARGES


@<TRIPOS>ATOM
      1 ****        -3.5739  -2.6407  -1.7353 C.3            1 S1                 0.0000
      2 ****        -3.7846  -1.4246  -0.8204 C.3            1 S1                 0.0000
      3 ****        -3.3716  -0.1348  -1.5657 C.3            1 S1                 0.0000
      4 ****        -3.0721   0.9693  -0.6541 N.pl3          1 S1                 0.0000
      5 ****        -1.7676   1.3303  -0.4766 C.ar           1 S1                 0.0000
      6 ****        -1.4715   2.6495  -0.3187 N.ar           1 S1                 0.0000
      7 ****        -0.2107   3.0557  -0.1520 C.ar           1 S1                 0.0000
      8 ****         0.9003   2.3220  -0.1035 N.ar           1 S1                 0.0000
      9 ****         0.6213   0.9958  -0.2475 C.ar           1 S1                 0.0000
     10 ****        -0.6679   0.4178  -0.4432 C.ar           1 S1                 0.0000
     11 ****        -0.5392  -0.9630  -0.5548 N.2            1 S1                 0.0000
     12 ****         0.7415  -1.1842  -0.4475 C.2            1 S1                 0.0000
     13 ****         1.5103  -0.0649  -0.2297 N.pl3          1 S1                 0.0000
     14 ****         2.9382  -0.0131  -0.1108 C.3            1 S1                 0.0000
     15 ****         3.7296  -1.1772   0.4905 C.3            1 S1                 0.0000
     16 ****         4.7624  -0.1732   1.0523 C.3            1 S1                 0.0000
     17 ****         5.2617  -0.4620   2.4776 C.3            1 S1                 0.0000
     18 ****         5.8412   0.6876   3.0607 O.3            1 S1                 0.0000
     19 ****         5.9731   0.1079   0.1393 C.3            1 S1                 0.0000
     20 ****         6.7711  -1.0461  -0.0290 O.3            1 S1                 0.0000
     21 ****         3.6137   0.8545   0.9540 C.3            1 S1                 0.0000
     22 ****        -4.1151   1.9419  -0.3103 C.3            1 S1                 0.0000
     23 ****        -5.5271   1.3535  -0.1577 C.3            1 S1                 0.0000
     24 ****        -5.4752  -0.1044   0.9897 S.o            1 S1                 0.0000
     25 ****        -6.8864  -0.2794   1.5534 O.2            1 S1                 0.0000
     26 ****        -5.2393  -1.4150  -0.3062 C.3            1 S1                 0.0000
     27 ****        -4.2034  -2.5816  -2.6238 H              1 S1                 0.0000
     28 ****        -3.8130  -3.5703  -1.2181 H              1 S1                 0.0000
     29 ****        -2.5371  -2.7108  -2.0657 H              1 S1                 0.0000
     30 ****        -3.1271  -1.5588   0.0391 H              1 S1                 0.0000
     31 ****        -2.5067  -0.3256  -2.2014 H              1 S1                 0.0000
     32 ****        -4.1587   0.1637  -2.2583 H              1 S1                 0.0000
     33 ****        -0.0728   4.1210  -0.0404 H              1 S1                 0.0000
     34 ****         1.1597  -2.1779  -0.5169 H              1 S1                 0.0000
     35 ****         3.3128   0.2346  -1.1054 H              1 S1                 0.0000
     36 ****         3.1746  -1.6986   1.2729 H              1 S1                 0.0000
     37 ****         4.1197  -1.8824  -0.2440 H              1 S1                 0.0000
     38 ****         4.4388  -0.7796   3.1185 H              1 S1                 0.0000
     39 ****         5.9896  -1.2734   2.4922 H              1 S1                 0.0000
     40 ****         6.1187   0.4721   3.9381 H              1 S1                 0.0000
     41 ****         5.6544   0.4386  -0.8492 H              1 S1                 0.0000
     42 ****         6.5960   0.9093   0.5373 H              1 S1                 0.0000
     43 ****         7.5026  -0.8259  -0.5853 H              1 S1                 0.0000
     44 ****         3.9128   1.8443   0.6082 H              1 S1                 0.0000
     45 ****         3.0243   0.9237   1.8704 H              1 S1                 0.0000
     46 ****        -3.8517   2.4162   0.6363 H              1 S1                 0.0000
     47 ****        -4.1300   2.7308  -1.0632 H              1 S1                 0.0000
     48 ****        -6.1813   2.1110   0.2737 H              1 S1                 0.0000
     49 ****        -5.9644   1.0728  -1.1156 H              1 S1                 0.0000
     50 ****        -5.9572  -1.2817  -1.1158 H              1 S1                 0.0000
     51 ****        -5.4649  -2.3739   0.1611 H              1 S1                 0.0000
     52 ****        -2.2093   3.3244  -0.3277 LP             1 S1                 0.0000
     53 ****         1.8193   2.6957   0.0222 LP             1 S1                 0.0000
     54 ****        -1.2667  -1.6360  -0.6877 LP             1 S1                 0.0000
     55 ****         5.1675   1.4259   3.0919 LP             1 S1                 0.0000
     56 ****         6.6301   0.9789   2.5196 LP             1 S1                 0.0000
     57 ****         6.2300  -1.7714  -0.4545 LP             1 S1                 0.0000
     58 ****         7.1055  -1.3578   0.8604 LP             1 S1                 0.0000
@<TRIPOS>BOND
    1    1    2 1     
    2    1   27 1     
    3    1   28 1     
    4    1   29 1     
    5    2   26 1     
    6    2    3 1     
    7    2   30 1     
    8    3    4 1     
    9    3   31 1     
   10    3   32 1     
   11    4    5 1     
   12    4   22 1     
   13    5   10 ar    
   14    5    6 ar    
   15    6    7 ar    
   16    7    8 ar    
   17    7   33 1     
   18    8    9 ar    
   19    9   13 1     
   20    9   10 ar    
   21   10   11 1     
   22   11   12 2     
   23   12   13 1     
   24   12   34 1     
   25   13   14 1     
   26   14   21 1     
   27   14   15 1     
   28   14   35 1     
   29   15   16 1     
   30   15   36 1     
   31   15   37 1     
   32   16   17 1     
   33   16   19 1     
   34   16   21 1     
   35   17   18 1     
   36   17   38 1     
   37   17   39 1     
   38   18   40 1     
   39   19   20 1     
   40   19   41 1     
   41   19   42 1     
   42   20   43 1     
   43   21   44 1     
   44   21   45 1     
   45   22   23 1     
   46   22   46 1     
   47   22   47 1     
   48   23   24 1     
   49   23   48 1     
   50   23   49 1     
   51   24   25 2     
   52   24   26 1     
   53   26   50 1     
   54   26   51 1     
   55    6   52 1     
   56    8   53 1     
   57   11   54 1     
   58   18   55 1     
   59   18   56 1     
   60   20   57 1     
   61   20   58 1     
@<TRIPOS>SUBSTRUCTURE
      1 S1             1
@<TRIPOS>SET
LONE_PAIRS      STATIC     ATOMS    <user>   **** ""
8 52 53 54 55 56 57 58 25
DONOR_HYDROGENS      STATIC     ATOMS    <user>   **** ""
2 40 43
ATOM$BLUE        STATIC     ATOMS    COLORGROUP SYSTEM
8 52 53 54 55 56 57 58 25
ATOM$RED        STATIC     ATOMS    COLORGROUP SYSTEM
2 40 43
