AV-unprocessed.smi:269|AV-procd|sdf|2043|dock6
  -GOLD-   2262021263D 1   1.00000     0.00000
 Structure written by MMmdl.
 61 64  0  0  0  0  0  0  0  0  1 V2000
  152.0975  145.1160  159.5423 C   0  0  0  0  0  0  0  0  0  0  0  0
  152.3212  143.5984  159.5853 C   0  0  0  0  0  0  0  0  0  0  0  0
  152.1194  142.9936  158.2744 N   0  0  0  0  0  0  0  0  0  0  0  0
  151.2675  141.9906  158.0107 C   0  0  0  0  0  0  0  0  0  0  0  0
  150.5694  141.4499  158.8681 O   0  0  0  0  0  0  0  0  0  0  0  0
  151.1734  141.5362  156.5498 C   0  0  0  0  0  0  0  0  0  0  0  0
  150.4700  140.2478  156.3578 N   0  0  0  0  0  0  0  0  0  0  0  0
  150.6123  139.8181  154.9618 C   0  0  0  0  0  0  0  0  0  0  0  0
  149.9706  138.4324  154.7657 C   0  0  0  0  0  0  0  0  0  0  0  0
  148.5643  138.4731  155.1440 N   0  0  0  0  0  0  0  0  0  0  0  0
  147.8877  137.3428  154.8522 C   0  0  0  0  0  0  0  0  0  0  0  0
  148.3752  136.1855  155.3617 N   0  0  0  0  0  0  0  0  0  0  0  0
  147.7508  135.0308  155.1108 C   0  0  0  0  0  0  0  0  0  0  0  0
  146.6492  134.8167  154.3878 N   0  0  0  0  0  0  0  0  0  0  0  0
  146.1584  135.9807  153.8722 C   0  0  0  0  0  0  0  0  0  0  0  0
  146.7080  137.2803  154.0578 C   0  0  0  0  0  0  0  0  0  0  0  0
  145.9308  138.2222  153.3953 N   0  0  0  0  0  0  0  0  0  0  0  0
  144.9770  137.5195  152.8482 C   0  0  0  0  0  0  0  0  0  0  0  0
  145.0453  136.1614  153.0687 N   0  0  0  0  0  0  0  0  0  0  0  0
  144.1193  135.1494  152.5795 C   0  0  0  0  0  0  0  0  0  0  0  0
  144.5971  134.3836  151.3095 C   0  0  0  0  0  0  0  0  0  0  0  0
  144.4863  135.2840  150.0454 C   0  0  0  0  0  0  0  0  0  0  0  0
  145.4200  136.3454  150.0606 O   0  0  0  0  0  0  0  0  0  0  0  0
  146.0675  133.9294  151.4927 C   0  0  0  0  0  0  0  0  0  0  0  0
  146.5174  132.9021  150.4374 C   0  0  0  0  0  0  0  0  0  0  0  0
  145.6460  131.7792  150.4467 O   0  0  0  0  0  0  0  0  0  0  0  0
  144.3048  132.1181  150.1193 C   0  0  0  0  0  0  0  0  0  0  0  0
  143.7426  133.0992  151.1636 C   0  0  0  0  0  0  0  0  0  0  0  0
  148.3809  138.9424  156.5116 C   0  0  0  0  0  0  0  0  0  0  0  0
  149.0399  140.3218  156.6966 C   0  0  0  0  0  0  0  0  0  0  0  0
  152.2862  145.5633  160.5184 H   0  0  0  0  0  0  0  0  0  0  0  0
  151.0722  145.3584  159.2608 H   0  0  0  0  0  0  0  0  0  0  0  0
  152.7640  145.5928  158.8228 H   0  0  0  0  0  0  0  0  0  0  0  0
  153.3417  143.3861  159.9050 H   0  0  0  0  0  0  0  0  0  0  0  0
  151.6622  143.1371  160.3225 H   0  0  0  0  0  0  0  0  0  0  0  0
  152.6508  143.3782  157.5066 H   0  0  0  0  0  0  0  0  0  0  0  0
  150.6903  142.3132  155.9537 H   0  0  0  0  0  0  0  0  0  0  0  0
  152.1936  141.4493  156.1730 H   0  0  0  0  0  0  0  0  0  0  0  0
  150.1540  140.5451  154.2884 H   0  0  0  0  0  0  0  0  0  0  0  0
  151.6690  139.7610  154.6974 H   0  0  0  0  0  0  0  0  0  0  0  0
  150.0613  138.1266  153.7226 H   0  0  0  0  0  0  0  0  0  0  0  0
  150.4985  137.6891  155.3649 H   0  0  0  0  0  0  0  0  0  0  0  0
  148.1986  134.1520  155.5514 H   0  0  0  0  0  0  0  0  0  0  0  0
  144.1956  137.9757  152.2579 H   0  0  0  0  0  0  0  0  0  0  0  0
  143.9343  134.4471  153.3935 H   0  0  0  0  0  0  0  0  0  0  0  0
  143.1606  135.6349  152.3924 H   0  0  0  0  0  0  0  0  0  0  0  0
  144.6428  134.7011  149.1378 H   0  0  0  0  0  0  0  0  0  0  0  0
  143.4947  135.7221  149.9466 H   0  0  0  0  0  0  0  0  0  0  0  0
  144.9483  137.1613  149.9907 H   0  0  0  0  0  0  0  0  0  0  0  0
  146.7412  134.7869  151.4743 H   0  0  0  0  0  0  0  0  0  0  0  0
  146.1853  133.4723  152.4760 H   0  0  0  0  0  0  0  0  0  0  0  0
  146.5580  133.3405  149.4398 H   0  0  0  0  0  0  0  0  0  0  0  0
  147.5270  132.5587  150.6639 H   0  0  0  0  0  0  0  0  0  0  0  0
  144.2527  132.5296  149.1110 H   0  0  0  0  0  0  0  0  0  0  0  0
  143.7097  131.2048  150.1124 H   0  0  0  0  0  0  0  0  0  0  0  0
  143.7049  132.5803  152.1226 H   0  0  0  0  0  0  0  0  0  0  0  0
  142.7087  133.3464  150.9215 H   0  0  0  0  0  0  0  0  0  0  0  0
  147.3155  139.0079  156.7365 H   0  0  0  0  0  0  0  0  0  0  0  0
  148.8135  138.2303  157.2154 H   0  0  0  0  0  0  0  0  0  0  0  0
  148.8990  140.6271  157.7334 H   0  0  0  0  0  0  0  0  0  0  0  0
  148.5414  141.0677  156.0750 H   0  0  0  0  0  0  0  0  0  0  0  0
  1  2  1  0  0  0  0
  1 31  1  0  0  0  0
  1 32  1  0  0  0  0
  1 33  1  0  0  0  0
  2  3  1  0  0  0  0
  2 34  1  0  0  0  0
  2 35  1  0  0  0  0
  3  4  1  0  0  0  0
  3 36  1  0  0  0  0
  4  5  2  0  0  0  0
  4  6  1  0  0  0  0
  6  7  1  0  0  0  0
  6 37  1  0  0  0  0
  6 38  1  0  0  0  0
  7 30  1  0  0  0  0
  7  8  1  0  0  0  0
  8  9  1  0  0  0  0
  8 39  1  0  0  0  0
  8 40  1  0  0  0  0
  9 10  1  0  0  0  0
  9 41  1  0  0  0  0
  9 42  1  0  0  0  0
 10 11  1  0  0  0  0
 10 29  1  0  0  0  0
 11 16  1  0  0  0  0
 11 12  2  0  0  0  0
 12 13  1  0  0  0  0
 13 14  2  0  0  0  0
 13 43  1  0  0  0  0
 14 15  1  0  0  0  0
 15 19  1  0  0  0  0
 15 16  2  0  0  0  0
 16 17  1  0  0  0  0
 17 18  2  0  0  0  0
 18 19  1  0  0  0  0
 18 44  1  0  0  0  0
 19 20  1  0  0  0  0
 20 21  1  0  0  0  0
 20 45  1  0  0  0  0
 20 46  1  0  0  0  0
 21 28  1  0  0  0  0
 21 22  1  0  0  0  0
 21 24  1  0  0  0  0
 22 23  1  0  0  0  0
 22 47  1  0  0  0  0
 22 48  1  0  0  0  0
 23 49  1  0  0  0  0
 24 25  1  0  0  0  0
 24 50  1  0  0  0  0
 24 51  1  0  0  0  0
 25 26  1  0  0  0  0
 25 52  1  0  0  0  0
 25 53  1  0  0  0  0
 26 27  1  0  0  0  0
 27 28  1  0  0  0  0
 27 54  1  0  0  0  0
 27 55  1  0  0  0  0
 28 56  1  0  0  0  0
 28 57  1  0  0  0  0
 29 30  1  0  0  0  0
 29 58  1  0  0  0  0
 29 59  1  0  0  0  0
 30 60  1  0  0  0  0
 30 61  1  0  0  0  0
M  END
> <s_m_source_file>
AV-unprocessed.smi

> <i_m_source_file_index>
269

> <i_lp_mmshare_version>
43012

> <i_f3d_flags>
0

> <s_epik_input>
W0NIM11bQ0gyXVtOSF1DKD1PKVtDSDJdTjFbQ0gyXVtDSDJdTihbQ0gyXVtDSDJdMSljKG5bY0hdbjIpYyhjMjMpbltjSF1uM1tDSDJdQzQoW0NIMl1bT0hdKVtDSDJdW0NIMl1PW0NIMl1bQ0gyXTQ=

> <s_epik_cmdline>
J2VwaWtfcHl0aG9uJywgJy1waCcsICc3LjAnLCAnLXRuJywgJzgnLCAnLW1hJywgJzIwMCcsICctbWV0YWxfYmluZGluZycsICctaW1hZScsICc8aW5maWxlLm1hZT4nLCAnLW9tYWUnLCAnPG91dGZpbGUubWFlPic=

> <r_lp_tautomer_probability>
1

> <r_epik_Ionization_Penalty>
0.90547

> <r_epik_Ionization_Penalty_Charging>
0

> <r_epik_Ionization_Penalty_Neutral>
0.90547

> <r_epik_State_Penalty>
0.940417

> <r_epik_Charging_Adjusted_Penalty>
0.940417

> <i_epik_Tot_Q>
0

> <i_epik_Tot_abs_Q>
0

> <r_epik_Metal_State_Penalty>
0.947257

> <b_epik_Metal_Only>
0

> <s_lp_Force_Field>
OPLS_2005

> <r_lp_Energy>
47.1209

> <b_lp_Chiralities_Consistent>
1

> <s_lp_Variant>
AV-unprocessed.smi:269-2

> <Gold.Version>
5.8.1

> <Gold.Id.Protein>
6NUR|6NUR_protein|mol2

> <Gold.PLP.Fitness>
49.9142

> <Gold.PLP.PLP>
-43.2076

> <Gold.PLP.part.hbond>
-2.4026

> <Gold.PLP.part.metal>
0.0000

> <Gold.PLP.part.buried>
-5.0187

> <Gold.PLP.part.nonpolar>
-36.8817

> <Gold.PLP.part.repulsive>
0.6334

> <Gold.PLP.ligand.clash>
0.0000

> <Gold.PLP.ligand.torsion>
0.9125

> <Gold.PLP.Chemscore.Hbond>
1.0000

> <Gold.PLP.Chemscore.CHOScore>
1.7516

> <Gold.PLP.Chemscore.Metal>
0.0000

> <Gold.Chemscore.Hbonds>
donor molecule, donor type, donor heavy atom, donor atom, acceptor molecule, acceptor atom, score
      L1  H    23    49       P1 10171  1.00
      L1  C    18    44       P1 10171  0.99
      L1  C    18    44       P1 10175  0.84

> <Gold.PLP.Chemscore.Internal.Correction>
0.2769

> <Gold.Rescore>
     Score         DG    S(hbond)    S(metal)    S(lipo)     H(rot)  DE(clash)    DE(int)     intcor
      9.10     -11.80       0.99        0.00      98.35       3.32       0.27       2.43       ----

> <Gold.Chemscore.Fitness>
9.1018

> <Gold.Chemscore.DG>
-11.8038

> <Gold.Chemscore.ZeroCoef>
-5.4800

> <Gold.Chemscore.Hbond>
0.9937

> <Gold.Chemscore.Metal>
0.0000

> <Gold.Chemscore.Lipo>
98.3520

> <Gold.Chemscore.Internal_Hbond>
0.0000

> <Gold.Chemscore.DEClash>
0.2712

> <Gold.Chemscore.DEInternal>
2.4307

> <Gold.Chemscore.Rot>
3.3213

> <Gold.Chemscore.Internal.Correction>
   9.000000E+99

> <Gold.Chemscore.Hbonds>
donor molecule, donor type, donor heavy atom, donor atom, acceptor molecule, acceptor atom, score
      L1  H    23    49       P1 10171  1.00

> <Gold.Chemscore.Hbond.Weighted>
-3.3190

> <Gold.Chemscore.Metal.Weighted>
-0.0000

> <Gold.Chemscore.Lipo.Weighted>
-11.5072

> <Gold.Chemscore.Internal_Hbond.Weighted>
0.0000

> <Gold.Chemscore.DEClash.Weighted>
0.2712

> <Gold.Chemscore.DEInternal.Weighted>
2.4307

> <Gold.Chemscore.Rot.Weighted>
8.5024

> <Gold.Chemscore.Internal.Correction.Weighted>
   9.000000E+99

> <Gold.Protein.RotatedTorsions>
[ 6907 6896 6895 6894 ] final  -58.13 input  -60.11 | X-H torsion
[ 7974 7965 7964 7962 ] final  -51.17 input  175.53 | X-H torsion
[ 8008 7997 7996 7995 ] final   39.57 input   59.86 | X-H torsion
[ 10167 10162 10161 10158 ] final -135.78 input  -65.29 | X-H torsion
[ 10718 10713 10712 10709 ] final  176.25 input   66.30 | X-H torsion
[ 10763 10752 10751 10750 ] final   45.72 input  -60.55 | X-H torsion
[ 11005 11000 10999 10996 ] final -144.63 input  -57.11 | X-H torsion

> <Gold.Protein.ActiveResidues>
 VAL166  LYS551  ARG553  GLY616  TRP617  ASP618  TYR619  PRO620  LYS621  CYS622 
 ASP623  PHE694  ASN695  SER759  ASP760  ASP761  ALA762  ILE779  LEU786  VAL792 
 PHE793  MET794  SER795  GLU796  ALA797  LYS798  CYS799  TRP800  GLU811  SER814 

> <Gold.Protein.RotatedAtoms>
  150.8031  134.7138  159.6618 H   0  0  0  0  0  0  0  0  0  0  0  0  # atno 6907 bound_to 6896
  152.4149  134.6055  160.0021 H   0  0  0  0  0  0  0  0  0  0  0  0  # atno 6908 bound_to 6896
  151.6288  133.3296  159.3140 H   0  0  0  0  0  0  0  0  0  0  0  0  # atno 6909 bound_to 6896
  145.9218  140.7826  142.9643 H   0  0  0  0  0  0  0  0  0  0  0  0  # atno 7974 bound_to 7965
  155.2388  140.3344  155.4294 H   0  0  0  0  0  0  0  0  0  0  0  0  # atno 8008 bound_to 7997
  156.2264  140.1831  156.7397 H   0  0  0  0  0  0  0  0  0  0  0  0  # atno 8009 bound_to 7997
  154.5906  140.0638  156.9219 H   0  0  0  0  0  0  0  0  0  0  0  0  # atno 8010 bound_to 7997
  139.8744  143.6917  152.2636 H   0  0  0  0  0  0  0  0  0  0  0  0  # atno 10167 bound_to 10162
  156.9228  130.9946  151.3001 H   0  0  0  0  0  0  0  0  0  0  0  0  # atno 10718 bound_to 10713
  152.9820  135.6030  154.3483 H   0  0  0  0  0  0  0  0  0  0  0  0  # atno 10763 bound_to 10752
  154.3175  135.2770  155.2538 H   0  0  0  0  0  0  0  0  0  0  0  0  # atno 10764 bound_to 10752
  154.4720  135.5939  153.6384 H   0  0  0  0  0  0  0  0  0  0  0  0  # atno 10765 bound_to 10752
  140.8004  134.2863  157.4980 H   0  0  0  0  0  0  0  0  0  0  0  0  # atno 11005 bound_to 11000
  144.6754  140.1988  143.7389 LP  0  0  0  0  0  0  0  0  0  0  0  0  # atno 17320 bound_to 7965
  145.8539  139.2189  143.1756 LP  0  0  0  0  0  0  0  0  0  0  0  0  # atno 17321 bound_to 7965
  139.7254  144.7594  151.0887 LP  0  0  0  0  0  0  0  0  0  0  0  0  # atno 17342 bound_to 10162
  140.7755  143.5155  150.9600 LP  0  0  0  0  0  0  0  0  0  0  0  0  # atno 17343 bound_to 10162
  157.5896  130.8434  149.8640 LP  0  0  0  0  0  0  0  0  0  0  0  0  # atno 17370 bound_to 10713
  156.0483  130.3723  150.1264 LP  0  0  0  0  0  0  0  0  0  0  0  0  # atno 17371 bound_to 10713
  139.8722  134.9426  156.3830 LP  0  0  0  0  0  0  0  0  0  0  0  0  # atno 17394 bound_to 11000
  140.9300  133.7586  156.0013 LP  0  0  0  0  0  0  0  0  0  0  0  0  # atno 17395 bound_to 11000

$$$$
