AV-unprocessed.smi:1206|AV-procd|sdf|5048|dock3
  -GOLD-   22720 4 73D 1   1.00000     0.00000
 Structure written by MMmdl.
 40 41  0  0  0  0  0  0  0  0  3 V2000
  147.6886  135.5916  155.2922 C   0  0  0  0  0  0  0  0  0  0  0  0
  149.0477  135.8273  154.7384 N   0  3  0  0  0  0  0  0  0  0  0  0
  149.7962  134.5477  154.6570 C   0  0  0  0  0  0  0  0  0  0  0  0
  149.7847  137.0145  155.3154 C   0  0  0  0  0  0  0  0  0  0  0  0
  150.2362  136.6411  156.7638 C   0  0  0  0  0  0  0  0  0  0  0  0
  149.2181  136.9448  157.7704 N   0  0  0  0  0  0  0  0  0  0  0  0
  148.6393  136.0764  158.6119 C   0  0  0  0  0  0  0  0  0  0  0  0
  148.9912  134.8951  158.6188 O   0  0  0  0  0  0  0  0  0  0  0  0
  147.6735  136.6273  159.3787 N   0  5  0  0  0  0  0  0  0  0  0  0
  147.5826  136.2995  160.6783 C   0  0  0  0  0  0  0  0  0  0  0  0
  147.6855  137.2133  161.6566 N   0  0  0  0  0  0  0  0  0  0  0  0
  147.5617  136.6682  162.9275 N   0  0  0  0  0  0  0  0  0  0  0  0
  147.3779  135.3491  162.8747 C   0  0  0  0  0  0  0  0  0  0  0  0
  147.3390  134.6533  161.2683 S   0  0  0  0  0  0  0  0  0  0  0  0
  151.0248  137.3766  154.4431 C   0  0  0  0  0  0  0  0  0  0  0  0
  151.7488  138.6631  154.8861 C   0  0  0  0  0  0  0  0  0  0  0  0
  150.7944  139.8624  154.9517 C   0  0  0  0  0  0  0  0  0  0  0  0
  149.5828  139.5600  155.8429 C   0  0  0  0  0  0  0  0  0  0  0  0
  148.8651  138.2806  155.3753 C   0  0  0  0  0  0  0  0  0  0  0  0
  147.7371  135.1482  156.2873 H   0  0  0  0  0  0  0  0  0  0  0  0
  147.1386  134.9023  154.6510 H   0  0  0  0  0  0  0  0  0  0  0  0
  147.0970  136.5031  155.3547 H   0  0  0  0  0  0  0  0  0  0  0  0
  150.1649  134.2394  155.6358 H   0  0  0  0  0  0  0  0  0  0  0  0
  150.6355  134.6156  153.9649 H   0  0  0  0  0  0  0  0  0  0  0  0
  149.1562  133.7513  154.2759 H   0  0  0  0  0  0  0  0  0  0  0  0
  150.5332  135.5943  156.8274 H   0  0  0  0  0  0  0  0  0  0  0  0
  151.1318  137.1853  157.0551 H   0  0  0  0  0  0  0  0  0  0  0  0
  148.9011  137.9025  157.8159 H   0  0  0  0  0  0  0  0  0  0  0  0
  147.2677  134.7820  163.7869 H   0  0  0  0  0  0  0  0  0  0  0  0
  151.7532  136.5657  154.4493 H   0  0  0  0  0  0  0  0  0  0  0  0
  150.7157  137.4983  153.4042 H   0  0  0  0  0  0  0  0  0  0  0  0
  152.2208  138.5144  155.8575 H   0  0  0  0  0  0  0  0  0  0  0  0
  152.5606  138.8812  154.1915 H   0  0  0  0  0  0  0  0  0  0  0  0
  151.3224  140.7406  155.3242 H   0  0  0  0  0  0  0  0  0  0  0  0
  150.4541  140.1099  153.9455 H   0  0  0  0  0  0  0  0  0  0  0  0
  149.8904  139.4771  156.8848 H   0  0  0  0  0  0  0  0  0  0  0  0
  148.8886  140.4001  155.8069 H   0  0  0  0  0  0  0  0  0  0  0  0
  148.4754  138.5170  154.3855 H   0  0  0  0  0  0  0  0  0  0  0  0
  147.9937  138.0987  156.0051 H   0  0  0  0  0  0  0  0  0  0  0  0
  148.8904  136.0859  153.7737 H   0  0  0  0  0  0  0  0  0  0  0  0
  1  2  1  0  0  0  0
  1 20  1  0  0  0  0
  1 21  1  0  0  0  0
  1 22  1  0  0  0  0
  2  3  1  0  0  0  0
  2  4  1  0  0  0  0
  2 40  1  0  0  0  0
  3 23  1  0  0  0  0
  3 24  1  0  0  0  0
  3 25  1  0  0  0  0
  4 19  1  0  0  0  0
  4  5  1  0  0  0  0
  4 15  1  0  0  0  0
  5  6  1  0  0  0  0
  5 26  1  0  0  0  0
  5 27  1  0  0  0  0
  6  7  1  0  0  0  0
  6 28  1  0  0  0  0
  7  8  2  0  0  0  0
  7  9  1  0  0  0  0
  9 10  1  0  0  0  0
 10 14  1  0  0  0  0
 10 11  2  0  0  0  0
 11 12  1  0  0  0  0
 12 13  2  0  0  0  0
 13 14  1  0  0  0  0
 13 29  1  0  0  0  0
 15 16  1  0  0  0  0
 15 30  1  0  0  0  0
 15 31  1  0  0  0  0
 16 17  1  0  0  0  0
 16 32  1  0  0  0  0
 16 33  1  0  0  0  0
 17 18  1  0  0  0  0
 17 34  1  0  0  0  0
 17 35  1  0  0  0  0
 18 19  1  0  0  0  0
 18 36  1  0  0  0  0
 18 37  1  0  0  0  0
 19 38  1  0  0  0  0
 19 39  1  0  0  0  0
M  CHG  1   2   1
M  CHG  1   9  -1
M  END
> <s_m_source_file>
AV-unprocessed.smi

> <i_m_source_file_index>
1206

> <i_lp_mmshare_version>
43012

> <i_f3d_flags>
0

> <s_epik_input>
W0NIMl0xW0NIMl1bQ0gyXVtDSDJdW0NIMl1DMShOKFtDSDNdKVtDSDNdKVtDSDJdW05IXUMoPU8pW05IXWMybm5bY0hdczI=

> <s_epik_cmdline>
J2VwaWtfcHl0aG9uJywgJy1waCcsICc3LjAnLCAnLXRuJywgJzgnLCAnLW1hJywgJzIwMCcsICctbWV0YWxfYmluZGluZycsICctaW1hZScsICc8aW5maWxlLm1hZT4nLCAnLW9tYWUnLCAnPG91dGZpbGUubWFlPic=

> <r_lp_tautomer_probability>
1

> <r_epik_Ionization_Penalty>
3.99546

> <r_epik_Ionization_Penalty_Charging>
3.96229

> <r_epik_Ionization_Penalty_Neutral>
0.0331711

> <r_epik_State_Penalty>
3.95985

> <r_epik_Charging_Adjusted_Penalty>
7.92214

> <i_epik_Tot_Q>
0

> <i_epik_Tot_abs_Q>
2

> <r_epik_Metal_State_Penalty>
0.609364

> <b_epik_Metal_Only>
1

> <s_lp_Force_Field>
OPLS_2005

> <r_lp_Energy>
23.6676

> <b_lp_Chiralities_Consistent>
1

> <s_lp_Variant>
AV-unprocessed.smi:1206-2

> <Gold.Version>
5.8.1

> <Gold.Id.Protein>
6NUR|6NUR_protein|mol2

> <Gold.PLP.Fitness>
40.1918

> <Gold.PLP.PLP>
-28.8578

> <Gold.PLP.part.hbond>
-4.1539

> <Gold.PLP.part.metal>
0.0000

> <Gold.PLP.part.buried>
-3.4453

> <Gold.PLP.part.nonpolar>
-21.9113

> <Gold.PLP.part.repulsive>
0.0748

> <Gold.PLP.ligand.clash>
0.0000

> <Gold.PLP.ligand.torsion>
1.5297

> <Gold.PLP.Chemscore.Hbond>
4.7440

> <Gold.PLP.Chemscore.CHOScore>
0.0000

> <Gold.PLP.Chemscore.Metal>
0.0000

> <Gold.Chemscore.Hbonds>
donor molecule, donor type, donor heavy atom, donor atom, acceptor molecule, acceptor atom, score
      L1  H     2    40       P1  7948  2.00
      P1  H  6896  6909       L1     8  1.00
      P1  H  6931  6943       L1    11  1.00
      P1  H  6934  6947       L1    11  0.72

> <Gold.PLP.Chemscore.Internal.Correction>
0.1612

> <Gold.Rescore>
     Score         DG    S(hbond)    S(metal)    S(lipo)     H(rot)  DE(clash)    DE(int)     intcor
     16.43     -18.04       2.91        0.00      60.10       1.64       0.13       1.48       ----

> <Gold.Chemscore.Fitness>
16.4267

> <Gold.Chemscore.DG>
-18.0405

> <Gold.Chemscore.ZeroCoef>
-5.4800

> <Gold.Chemscore.Hbond>
2.9101

> <Gold.Chemscore.Metal>
0.0000

> <Gold.Chemscore.Lipo>
60.1006

> <Gold.Chemscore.Internal_Hbond>
0.0000

> <Gold.Chemscore.DEClash>
0.1334

> <Gold.Chemscore.DEInternal>
1.4804

> <Gold.Chemscore.Rot>
1.6371

> <Gold.Chemscore.Internal.Correction>
   9.000000E+99

> <Gold.Chemscore.Hbonds>
donor molecule, donor type, donor heavy atom, donor atom, acceptor molecule, acceptor atom, score
      L1  H     2    40       P1  7948  0.99
      P1  H  6896  6909       L1     8  0.97
      P1  H  6931  6943       L1    11  0.24
      P1  H  6934  6947       L1    11  0.51

> <Gold.Chemscore.Hbond.Weighted>
-9.7197

> <Gold.Chemscore.Metal.Weighted>
-0.0000

> <Gold.Chemscore.Lipo.Weighted>
-7.0318

> <Gold.Chemscore.Internal_Hbond.Weighted>
0.0000

> <Gold.Chemscore.DEClash.Weighted>
0.1334

> <Gold.Chemscore.DEInternal.Weighted>
1.4804

> <Gold.Chemscore.Rot.Weighted>
4.1909

> <Gold.Chemscore.Internal.Correction.Weighted>
   9.000000E+99

> <Gold.Protein.RotatedTorsions>
[ 6907 6896 6895 6894 ] final   38.93 input  -60.11 | X-H torsion
[ 7974 7965 7964 7962 ] final   23.86 input  175.53 | X-H torsion
[ 8008 7997 7996 7995 ] final  135.50 input   59.86 | X-H torsion
[ 10167 10162 10161 10158 ] final -123.66 input  -65.29 | X-H torsion
[ 10718 10713 10712 10709 ] final   86.32 input   66.30 | X-H torsion
[ 10763 10752 10751 10750 ] final  -76.17 input  -60.55 | X-H torsion
[ 11005 11000 10999 10996 ] final  111.91 input  -57.11 | X-H torsion

> <Gold.Protein.ActiveResidues>
 VAL166  LYS551  ARG553  GLY616  TRP617  ASP618  TYR619  PRO620  LYS621  CYS622 
 ASP623  PHE694  ASN695  SER759  ASP760  ASP761  ALA762  ILE779  LEU786  VAL792 
 PHE793  MET794  SER795  GLU796  ALA797  LYS798  CYS799  TRP800  GLU811  SER814 

> <Gold.Protein.RotatedAtoms>
  152.1629  134.8897  160.0540 H   0  0  0  0  0  0  0  0  0  0  0  0  # atno 6907 bound_to 6896
  151.9886  133.3778  159.4143 H   0  0  0  0  0  0  0  0  0  0  0  0  # atno 6908 bound_to 6896
  150.6890  134.3884  159.5109 H   0  0  0  0  0  0  0  0  0  0  0  0  # atno 6909 bound_to 6896
  146.1965  139.7685  142.8794 H   0  0  0  0  0  0  0  0  0  0  0  0  # atno 7974 bound_to 7965
  156.3003  140.2469  156.3591 H   0  0  0  0  0  0  0  0  0  0  0  0  # atno 8008 bound_to 7997
  154.8894  140.0410  157.1849 H   0  0  0  0  0  0  0  0  0  0  0  0  # atno 8009 bound_to 7997
  154.8613  140.2921  155.5541 H   0  0  0  0  0  0  0  0  0  0  0  0  # atno 8010 bound_to 7997
  140.0011  143.5539  152.2303 H   0  0  0  0  0  0  0  0  0  0  0  0  # atno 10167 bound_to 10162
  157.6927  131.0210  150.2954 H   0  0  0  0  0  0  0  0  0  0  0  0  # atno 10718 bound_to 10713
  154.4962  135.5807  153.6497 H   0  0  0  0  0  0  0  0  0  0  0  0  # atno 10763 bound_to 10752
  152.9871  135.6125  154.3061 H   0  0  0  0  0  0  0  0  0  0  0  0  # atno 10764 bound_to 10752
  154.2965  135.2847  155.2610 H   0  0  0  0  0  0  0  0  0  0  0  0  # atno 10765 bound_to 10752
  139.8915  134.9518  156.6505 H   0  0  0  0  0  0  0  0  0  0  0  0  # atno 11005 bound_to 11000
  145.3627  141.0329  143.3275 LP  0  0  0  0  0  0  0  0  0  0  0  0  # atno 17320 bound_to 7965
  144.8591  139.5205  143.6821 LP  0  0  0  0  0  0  0  0  0  0  0  0  # atno 17321 bound_to 7965
  139.6271  144.7639  151.2615 LP  0  0  0  0  0  0  0  0  0  0  0  0  # atno 17342 bound_to 10162
  140.7418  143.6545  150.8219 LP  0  0  0  0  0  0  0  0  0  0  0  0  # atno 17343 bound_to 10162
  156.3479  130.3826  149.7354 LP  0  0  0  0  0  0  0  0  0  0  0  0  # atno 17370 bound_to 10713
  156.4841  130.8055  151.3068 LP  0  0  0  0  0  0  0  0  0  0  0  0  # atno 17371 bound_to 10713
  140.7524  133.8886  155.8357 LP  0  0  0  0  0  0  0  0  0  0  0  0  # atno 17394 bound_to 11000
  140.9990  134.1176  157.4336 LP  0  0  0  0  0  0  0  0  0  0  0  0  # atno 17395 bound_to 11000

$$$$
