AV-unprocessed.smi:2012|AV-procd|sdf|8155|dock4
  -GOLD-   2272010393D 1   1.00000     0.00000
 Structure written by MMmdl.
 50 51  0  0  0  0  0  0  0  0  1 V2000
  146.8309  143.1461  159.4996 C   0  0  0  0  0  0  0  0  0  0  0  0
  145.9143  142.6781  158.3751 C   0  0  0  0  0  0  0  0  0  0  0  0
  145.3186  141.6055  158.4717 O   0  0  0  0  0  0  0  0  0  0  0  0
  145.8140  143.4926  157.3118 N   0  0  0  0  0  0  0  0  0  0  0  0
  145.0290  143.2227  156.1047 C   0  0  2  0  0  0  0  0  0  0  0  0
  146.0105  142.8572  154.9761 C   0  0  0  0  0  0  0  0  0  0  0  0
  145.9741  143.4518  153.8976 O   0  0  0  0  0  0  0  0  0  0  0  0
  146.8933  141.8840  155.2485 N   0  0  0  0  0  0  0  0  0  0  0  0
  147.9681  141.4568  154.3571 C   0  0  0  0  0  0  0  0  0  0  0  0
  149.2664  141.0663  155.0570 C   0  0  0  0  0  0  0  0  0  0  0  0
  149.9474  139.9002  154.6571 C   0  0  0  0  0  0  0  0  0  0  0  0
  151.1505  139.5672  155.3075 C   0  0  0  0  0  0  0  0  0  0  0  0
  151.6873  140.3096  156.2983 N   0  0  0  0  0  0  0  0  0  0  0  0
  151.0382  141.4292  156.7027 C   0  0  0  0  0  0  0  0  0  0  0  0
  151.6157  142.2068  157.7302 N   0  0  0  0  0  0  0  0  0  0  0  0
  151.7643  141.6089  159.0554 C   0  0  0  0  0  0  0  0  0  0  0  0
  152.7117  142.4586  159.9200 C   0  0  0  0  0  0  0  0  0  0  0  0
  152.2487  143.8043  159.9656 O   0  0  0  0  0  0  0  0  0  0  0  0
  152.2170  144.3987  158.6719 C   0  0  0  0  0  0  0  0  0  0  0  0
  151.2474  143.6202  157.7669 C   0  0  0  0  0  0  0  0  0  0  0  0
  149.8212  141.8337  156.1063 C   0  0  0  0  0  0  0  0  0  0  0  0
  144.2230  144.4999  155.7260 C   0  0  0  0  0  0  0  0  0  0  0  0
  143.4149  145.0418  156.9213 C   0  0  0  0  0  0  0  0  0  0  0  0
  143.2703  144.2767  154.5330 C   0  0  0  0  0  0  0  0  0  0  0  0
  147.8703  143.1293  159.1714 H   0  0  0  0  0  0  0  0  0  0  0  0
  146.7376  142.4973  160.3712 H   0  0  0  0  0  0  0  0  0  0  0  0
  146.5786  144.1627  159.8026 H   0  0  0  0  0  0  0  0  0  0  0  0
  146.3449  144.3513  157.3223 H   0  0  0  0  0  0  0  0  0  0  0  0
  144.3376  142.3968  156.2858 H   0  0  0  0  0  0  0  0  0  0  0  0
  146.8534  141.4474  156.1580 H   0  0  0  0  0  0  0  0  0  0  0  0
  147.6137  140.5950  153.7915 H   0  0  0  0  0  0  0  0  0  0  0  0
  148.1726  142.2421  153.6274 H   0  0  0  0  0  0  0  0  0  0  0  0
  149.5625  139.2767  153.8636 H   0  0  0  0  0  0  0  0  0  0  0  0
  151.6994  138.6824  155.0207 H   0  0  0  0  0  0  0  0  0  0  0  0
  150.7847  141.5373  159.5301 H   0  0  0  0  0  0  0  0  0  0  0  0
  152.1636  140.5971  158.9741 H   0  0  0  0  0  0  0  0  0  0  0  0
  152.7506  142.0616  160.9345 H   0  0  0  0  0  0  0  0  0  0  0  0
  153.7291  142.4272  159.5266 H   0  0  0  0  0  0  0  0  0  0  0  0
  151.8923  145.4350  158.7654 H   0  0  0  0  0  0  0  0  0  0  0  0
  153.2198  144.4172  158.2413 H   0  0  0  0  0  0  0  0  0  0  0  0
  151.2503  144.0733  156.7775 H   0  0  0  0  0  0  0  0  0  0  0  0
  150.2298  143.7071  158.1499 H   0  0  0  0  0  0  0  0  0  0  0  0
  149.3331  142.7377  156.4327 H   0  0  0  0  0  0  0  0  0  0  0  0
  144.9261  145.2830  155.4362 H   0  0  0  0  0  0  0  0  0  0  0  0
  142.7075  144.2977  157.2886 H   0  0  0  0  0  0  0  0  0  0  0  0
  142.8456  145.9284  156.6406 H   0  0  0  0  0  0  0  0  0  0  0  0
  144.0582  145.3287  157.7533 H   0  0  0  0  0  0  0  0  0  0  0  0
  142.5637  143.4718  154.7385 H   0  0  0  0  0  0  0  0  0  0  0  0
  143.8068  144.0238  153.6184 H   0  0  0  0  0  0  0  0  0  0  0  0
  142.6928  145.1766  154.3194 H   0  0  0  0  0  0  0  0  0  0  0  0
  1  2  1  0  0  0  0
  1 25  1  0  0  0  0
  1 26  1  0  0  0  0
  1 27  1  0  0  0  0
  2  3  2  0  0  0  0
  2  4  1  0  0  0  0
  4  5  1  0  0  0  0
  4 28  1  0  0  0  0
  5  6  1  0  0  0  0
  5 22  1  0  0  0  0
  5 29  1  0  0  0  0
  6  7  2  0  0  0  0
  6  8  1  0  0  0  0
  8  9  1  0  0  0  0
  8 30  1  0  0  0  0
  9 10  1  0  0  0  0
  9 31  1  0  0  0  0
  9 32  1  0  0  0  0
 10 21  1  0  0  0  0
 10 11  2  0  0  0  0
 11 12  1  0  0  0  0
 11 33  1  0  0  0  0
 12 13  2  0  0  0  0
 12 34  1  0  0  0  0
 13 14  1  0  0  0  0
 14 15  1  0  0  0  0
 14 21  2  0  0  0  0
 15 20  1  0  0  0  0
 15 16  1  0  0  0  0
 16 17  1  0  0  0  0
 16 35  1  0  0  0  0
 16 36  1  0  0  0  0
 17 18  1  0  0  0  0
 17 37  1  0  0  0  0
 17 38  1  0  0  0  0
 18 19  1  0  0  0  0
 19 20  1  0  0  0  0
 19 39  1  0  0  0  0
 19 40  1  0  0  0  0
 20 41  1  0  0  0  0
 20 42  1  0  0  0  0
 21 43  1  0  0  0  0
 22 23  1  0  0  0  0
 22 24  1  0  0  0  0
 22 44  1  0  0  0  0
 23 45  1  0  0  0  0
 23 46  1  0  0  0  0
 23 47  1  0  0  0  0
 24 48  1  0  0  0  0
 24 49  1  0  0  0  0
 24 50  1  0  0  0  0
M  END
> <s_m_source_file>
AV-unprocessed.smi

> <i_m_source_file_index>
2012

> <i_lp_mmshare_version>
43012

> <i_f3d_flags>
0

> <s_epik_input>
W0NIM11DKD1PKVtOSF1bQ0BASF0oW0NIXShbQ0gzXSlbQ0gzXSlDKD1PKVtOSF1bQ0gyXWMxW2NIXVtjSF1uYyhbY0hdMSlOMltDSDJdW0NIMl1PW0NIMl1bQ0gyXTI=

> <s_epik_cmdline>
J2VwaWtfcHl0aG9uJywgJy1waCcsICc3LjAnLCAnLXRuJywgJzgnLCAnLW1hJywgJzIwMCcsICctbWV0YWxfYmluZGluZycsICctaW1hZScsICc8aW5maWxlLm1hZT4nLCAnLW9tYWUnLCAnPG91dGZpbGUubWFlPic=

> <r_lp_tautomer_probability>
1

> <r_epik_Ionization_Penalty>
0.00518786

> <r_epik_Ionization_Penalty_Charging>
0

> <r_epik_Ionization_Penalty_Neutral>
0.00518786

> <r_epik_State_Penalty>
0.00378052

> <r_epik_Charging_Adjusted_Penalty>
0.00378052

> <i_epik_Tot_Q>
0

> <i_epik_Tot_abs_Q>
0

> <r_epik_Metal_State_Penalty>
-0

> <b_epik_Metal_Only>
0

> <s_lp_Force_Field>
OPLS_2005

> <r_lp_Energy>
14.5368

> <b_lp_Chiralities_Consistent>
1

> <s_lp_Variant>
AV-unprocessed.smi:2012-1

> <Gold.Version>
5.8.1

> <Gold.Id.Protein>
6NUR|6NUR_protein|mol2

> <Gold.PLP.Fitness>
39.6480

> <Gold.PLP.PLP>
-39.9382

> <Gold.PLP.part.hbond>
-1.2446

> <Gold.PLP.part.metal>
0.0000

> <Gold.PLP.part.buried>
-3.5255

> <Gold.PLP.part.nonpolar>
-36.5096

> <Gold.PLP.part.repulsive>
0.3042

> <Gold.PLP.ligand.clash>
0.0000

> <Gold.PLP.ligand.torsion>
1.0723

> <Gold.PLP.Chemscore.Hbond>
0.4500

> <Gold.PLP.Chemscore.CHOScore>
0.0000

> <Gold.PLP.Chemscore.Metal>
0.0000

> <Gold.Chemscore.Hbonds>
donor molecule, donor type, donor heavy atom, donor atom, acceptor molecule, acceptor atom, score
      L1  H     4    28       P1  8029  0.23

> <Gold.PLP.Chemscore.Internal.Correction>
0.5044

> <Gold.Rescore>
     Score         DG    S(hbond)    S(metal)    S(lipo)     H(rot)  DE(clash)    DE(int)     intcor
     10.23     -11.42       0.00        0.00      98.40       2.18       0.13       1.06       ----

> <Gold.Chemscore.Fitness>
10.2286

> <Gold.Chemscore.DG>
-11.4180

> <Gold.Chemscore.ZeroCoef>
-5.4800

> <Gold.Chemscore.Hbond>
0.0027

> <Gold.Chemscore.Metal>
0.0000

> <Gold.Chemscore.Lipo>
98.4038

> <Gold.Chemscore.Internal_Hbond>
0.0000

> <Gold.Chemscore.DEClash>
0.1334

> <Gold.Chemscore.DEInternal>
1.0559

> <Gold.Chemscore.Rot>
2.1813

> <Gold.Chemscore.Internal.Correction>
   9.000000E+99

> <Gold.Chemscore.Hbond.Weighted>
-0.0089

> <Gold.Chemscore.Metal.Weighted>
-0.0000

> <Gold.Chemscore.Lipo.Weighted>
-11.5132

> <Gold.Chemscore.Internal_Hbond.Weighted>
0.0000

> <Gold.Chemscore.DEClash.Weighted>
0.1334

> <Gold.Chemscore.DEInternal.Weighted>
1.0559

> <Gold.Chemscore.Rot.Weighted>
5.5842

> <Gold.Chemscore.Internal.Correction.Weighted>
   9.000000E+99

> <Gold.Protein.RotatedTorsions>
[ 6907 6896 6895 6894 ] final  169.80 input  -60.11 | X-H torsion
[ 7974 7965 7964 7962 ] final  149.30 input  175.53 | X-H torsion
[ 8008 7997 7996 7995 ] final -119.08 input   59.86 | X-H torsion
[ 10167 10162 10161 10158 ] final  113.80 input  -65.29 | X-H torsion
[ 10718 10713 10712 10709 ] final   71.32 input   66.30 | X-H torsion
[ 10763 10752 10751 10750 ] final   62.80 input  -60.55 | X-H torsion
[ 11005 11000 10999 10996 ] final  -64.12 input  -57.11 | X-H torsion

> <Gold.Protein.ActiveResidues>
 VAL166  LYS551  ARG553  GLY616  TRP617  ASP618  TYR619  PRO620  LYS621  CYS622 
 ASP623  PHE694  ASN695  SER759  ASP760  ASP761  ALA762  ILE779  LEU786  VAL792 
 PHE793  MET794  SER795  GLU796  ALA797  LYS798  CYS799  TRP800  GLU811  SER814 

> <Gold.Protein.RotatedAtoms>
  151.8261  133.3401  159.3598 H   0  0  0  0  0  0  0  0  0  0  0  0  # atno 6907 bound_to 6896
  150.7279  134.5527  159.5812 H   0  0  0  0  0  0  0  0  0  0  0  0  # atno 6908 bound_to 6896
  152.2970  134.7656  160.0417 H   0  0  0  0  0  0  0  0  0  0  0  0  # atno 6909 bound_to 6896
  144.8448  139.6263  143.6000 H   0  0  0  0  0  0  0  0  0  0  0  0  # atno 7974 bound_to 7965
  155.1100  140.0397  157.2721 H   0  0  0  0  0  0  0  0  0  0  0  0  # atno 8008 bound_to 7997
  154.6693  140.2608  155.6999 H   0  0  0  0  0  0  0  0  0  0  0  0  # atno 8009 bound_to 7997
  156.2651  140.2801  156.1195 H   0  0  0  0  0  0  0  0  0  0  0  0  # atno 8010 bound_to 7997
  139.6435  144.7125  151.2189 H   0  0  0  0  0  0  0  0  0  0  0  0  # atno 10167 bound_to 10162
  157.6445  130.9522  150.0773 H   0  0  0  0  0  0  0  0  0  0  0  0  # atno 10718 bound_to 10713
  152.9995  135.5452  154.6251 H   0  0  0  0  0  0  0  0  0  0  0  0  # atno 10763 bound_to 10752
  154.5542  135.2829  155.0982 H   0  0  0  0  0  0  0  0  0  0  0  0  # atno 10764 bound_to 10752
  154.2211  135.6450  153.5197 H   0  0  0  0  0  0  0  0  0  0  0  0  # atno 10765 bound_to 10752
  141.1415  133.6661  156.5784 H   0  0  0  0  0  0  0  0  0  0  0  0  # atno 11005 bound_to 11000
  146.2735  139.6693  142.9279 LP  0  0  0  0  0  0  0  0  0  0  0  0  # atno 17320 bound_to 7965
  145.4619  141.0433  143.2747 LP  0  0  0  0  0  0  0  0  0  0  0  0  # atno 17321 bound_to 7965
  140.7503  143.6271  150.8458 LP  0  0  0  0  0  0  0  0  0  0  0  0  # atno 17342 bound_to 10162
  139.9911  143.5846  152.2910 LP  0  0  0  0  0  0  0  0  0  0  0  0  # atno 17343 bound_to 10162
  156.1759  130.3648  149.9101 LP  0  0  0  0  0  0  0  0  0  0  0  0  # atno 17370 bound_to 10713
  156.7065  130.8953  151.3605 LP  0  0  0  0  0  0  0  0  0  0  0  0  # atno 17371 bound_to 10713
  140.3857  134.7484  157.4690 LP  0  0  0  0  0  0  0  0  0  0  0  0  # atno 17394 bound_to 11000
  140.0604  134.6004  155.8756 LP  0  0  0  0  0  0  0  0  0  0  0  0  # atno 17395 bound_to 11000

$$$$
