AV-unprocessed.smi:1207|AV-procd|sdf|5056|dock7
  -GOLD-   22720 4 93D 1   1.00000     0.00000
 Structure written by MMmdl.
 52 54  0  0  0  0  0  0  0  0  2 V2000
  152.1180  144.8015  160.9739 C   0  0  0  0  0  0  0  0  0  0  0  0
  151.9744  143.7188  159.9177 C   0  0  0  0  0  0  0  0  0  0  0  0
  151.2041  143.9980  158.7659 C   0  0  0  0  0  0  0  0  0  0  0  0
  151.0862  142.9855  157.8211 C   0  0  0  0  0  0  0  0  0  0  0  0
  150.4051  142.9442  156.6023 N   0  3  0  0  0  0  0  0  0  0  0  0
  150.5807  141.7233  156.0247 C   0  0  0  0  0  0  0  0  0  0  0  0
  151.3654  140.9862  156.8566 N   0  0  0  0  0  0  0  0  0  0  0  0
  151.8536  139.6079  156.7205 C   0  0  0  0  0  0  0  0  0  0  0  0
  151.8204  139.1044  155.2646 C   0  0  1  0  0  0  0  0  0  0  0  0
  153.0729  139.3619  154.6603 O   0  0  0  0  0  0  0  0  0  0  0  0
  151.5445  137.5891  155.1970 C   0  0  0  0  0  0  0  0  0  0  0  0
  150.9971  136.9897  156.4169 N   0  0  0  0  0  0  0  0  0  0  0  0
  150.9429  135.5299  156.3271 C   0  0  0  0  0  0  0  0  0  0  0  0
  149.6748  137.5448  156.7099 C   0  0  0  0  0  0  0  0  0  0  0  0
  149.3043  137.4460  158.1679 C   0  0  0  0  0  0  0  0  0  0  0  0
  148.0044  137.3352  158.7389 C   0  0  0  0  0  0  0  0  0  0  0  0
  146.6783  137.2861  158.0362 C   0  0  0  0  0  0  0  0  0  0  0  0
  148.0487  137.2678  160.0591 N   0  0  0  0  0  0  0  0  0  0  0  0
  149.4033  137.3307  160.4007 O   0  0  0  0  0  0  0  0  0  0  0  0
  150.1293  137.4369  159.2589 C   0  0  0  0  0  0  0  0  0  0  0  0
  151.6107  137.5129  159.4122 C   0  0  0  0  0  0  0  0  0  0  0  0
  151.7051  141.7319  157.9895 C   0  0  0  0  0  0  0  0  0  0  0  0
  152.4699  141.4406  159.1160 C   0  0  0  0  0  0  0  0  0  0  0  0
  152.5991  142.4563  160.0901 C   0  0  0  0  0  0  0  0  0  0  0  0
  153.4236  142.1665  161.3326 C   0  0  0  0  0  0  0  0  0  0  0  0
  151.6067  145.7181  160.6781 H   0  0  0  0  0  0  0  0  0  0  0  0
  153.1683  145.0448  161.1360 H   0  0  0  0  0  0  0  0  0  0  0  0
  151.6883  144.4709  161.9197 H   0  0  0  0  0  0  0  0  0  0  0  0
  150.7253  144.9564  158.6279 H   0  0  0  0  0  0  0  0  0  0  0  0
  150.1688  141.3965  155.0807 H   0  0  0  0  0  0  0  0  0  0  0  0
  152.8726  139.5812  157.1093 H   0  0  0  0  0  0  0  0  0  0  0  0
  151.2574  138.9663  157.3704 H   0  0  0  0  0  0  0  0  0  0  0  0
  151.0575  139.6619  154.7240 H   0  0  0  0  0  0  0  0  0  0  0  0
  153.4283  138.5408  154.3549 H   0  0  0  0  0  0  0  0  0  0  0  0
  150.8571  137.4163  154.3673 H   0  0  0  0  0  0  0  0  0  0  0  0
  152.4648  137.0681  154.9286 H   0  0  0  0  0  0  0  0  0  0  0  0
  150.5286  135.0926  157.2356 H   0  0  0  0  0  0  0  0  0  0  0  0
  151.9345  135.0982  156.2033 H   0  0  0  0  0  0  0  0  0  0  0  0
  150.3234  135.2098  155.4885 H   0  0  0  0  0  0  0  0  0  0  0  0
  149.6552  138.5950  156.4158 H   0  0  0  0  0  0  0  0  0  0  0  0
  148.9276  137.0575  156.0822 H   0  0  0  0  0  0  0  0  0  0  0  0
  146.7064  136.5876  157.1997 H   0  0  0  0  0  0  0  0  0  0  0  0
  146.4110  138.2666  157.6418 H   0  0  0  0  0  0  0  0  0  0  0  0
  145.8776  136.9667  158.7047 H   0  0  0  0  0  0  0  0  0  0  0  0
  152.0686  137.9838  158.5423 H   0  0  0  0  0  0  0  0  0  0  0  0
  152.0367  136.5155  159.5196 H   0  0  0  0  0  0  0  0  0  0  0  0
  151.8824  138.0955  160.2925 H   0  0  0  0  0  0  0  0  0  0  0  0
  152.9443  140.4791  159.2462 H   0  0  0  0  0  0  0  0  0  0  0  0
  153.8219  141.1514  161.3199 H   0  0  0  0  0  0  0  0  0  0  0  0
  152.8145  142.2737  162.2305 H   0  0  0  0  0  0  0  0  0  0  0  0
  154.2668  142.8542  161.4006 H   0  0  0  0  0  0  0  0  0  0  0  0
  149.8583  143.6910  156.1932 H   0  0  0  0  0  0  0  0  0  0  0  0
  1  2  1  0  0  0  0
  1 26  1  0  0  0  0
  1 27  1  0  0  0  0
  1 28  1  0  0  0  0
  2 24  1  0  0  0  0
  2  3  2  0  0  0  0
  3  4  1  0  0  0  0
  3 29  1  0  0  0  0
  4 22  2  0  0  0  0
  4  5  1  0  0  0  0
  5  6  2  0  0  0  0
  5 52  1  0  0  0  0
  6  7  1  0  0  0  0
  6 30  1  0  0  0  0
  7  8  1  0  0  0  0
  7 22  1  0  0  0  0
  8  9  1  0  0  0  0
  8 31  1  0  0  0  0
  8 32  1  0  0  0  0
  9 10  1  0  0  0  0
  9 11  1  0  0  0  0
  9 33  1  0  0  0  0
 10 34  1  0  0  0  0
 11 12  1  0  0  0  0
 11 35  1  0  0  0  0
 11 36  1  0  0  0  0
 12 13  1  0  0  0  0
 12 14  1  0  0  0  0
 13 37  1  0  0  0  0
 13 38  1  0  0  0  0
 13 39  1  0  0  0  0
 14 15  1  0  0  0  0
 14 40  1  0  0  0  0
 14 41  1  0  0  0  0
 15 20  2  0  0  0  0
 15 16  1  0  0  0  0
 16 17  1  0  0  0  0
 16 18  2  0  0  0  0
 17 42  1  0  0  0  0
 17 43  1  0  0  0  0
 17 44  1  0  0  0  0
 18 19  1  0  0  0  0
 19 20  1  0  0  0  0
 20 21  1  0  0  0  0
 21 45  1  0  0  0  0
 21 46  1  0  0  0  0
 21 47  1  0  0  0  0
 22 23  1  0  0  0  0
 23 24  2  0  0  0  0
 23 48  1  0  0  0  0
 24 25  1  0  0  0  0
 25 49  1  0  0  0  0
 25 50  1  0  0  0  0
 25 51  1  0  0  0  0
M  CHG  1   5   1
M  END
> <s_m_source_file>
AV-unprocessed.smi

> <i_m_source_file_index>
1207

> <i_lp_mmshare_version>
43012

> <i_f3d_flags>
0

> <s_epik_input>
W0NIM11jKFtjSF0xKWMoW0NIM10pW2NIXWMoYzEyKW4oW2NIXW4yKVtDSDJdW0NASF0oW09IXSlbQ0gyXU4oW0NIM10pW0NIMl1jM2MoW0NIM10pbm9jM1tDSDNd

> <s_epik_cmdline>
J2VwaWtfcHl0aG9uJywgJy1waCcsICc3LjAnLCAnLXRuJywgJzgnLCAnLW1hJywgJzIwMCcsICctbWV0YWxfYmluZGluZycsICctaW1hZScsICc8aW5maWxlLm1hZT4nLCAnLW9tYWUnLCAnPG91dGZpbGUubWFlPic=

> <r_epik_Ionization_Penalty>
1.48114

> <r_epik_Ionization_Penalty_Charging>
1.21121

> <r_epik_Ionization_Penalty_Neutral>
0.269933

> <r_epik_State_Penalty>
1.53013

> <r_epik_Charging_Adjusted_Penalty>
2.74134

> <i_epik_Tot_Q>
1

> <i_epik_Tot_abs_Q>
1

> <r_epik_Metal_State_Penalty>
1.60462

> <b_epik_Metal_Only>
0

> <s_lp_Force_Field>
OPLS_2005

> <r_lp_Energy>
20.0432

> <b_lp_Chiralities_Consistent>
1

> <s_lp_Variant>
AV-unprocessed.smi:1207-8

> <Gold.Version>
5.8.1

> <Gold.Id.Protein>
6NUR|6NUR_protein|mol2

> <Gold.PLP.Fitness>
56.3707

> <Gold.PLP.PLP>
-47.6496

> <Gold.PLP.part.hbond>
-5.8928

> <Gold.PLP.part.metal>
0.0000

> <Gold.PLP.part.buried>
-6.9466

> <Gold.PLP.part.nonpolar>
-36.9270

> <Gold.PLP.part.repulsive>
0.0668

> <Gold.PLP.ligand.clash>
0.0000

> <Gold.PLP.ligand.torsion>
1.9335

> <Gold.PLP.Chemscore.Hbond>
4.1137

> <Gold.PLP.Chemscore.CHOScore>
0.0000

> <Gold.PLP.Chemscore.Metal>
0.0000

> <Gold.Chemscore.Hbonds>
donor molecule, donor type, donor heavy atom, donor atom, acceptor molecule, acceptor atom, score
      L1  H     5    52       P1  8028  1.89
      P1  H  6931  6943       L1    19  0.26
      P1  H  6934  6947       L1    18  0.51
      P1  H  7997  8009       L1    10  0.94

> <Gold.PLP.Chemscore.Internal.Correction>
0.2471

> <Gold.Rescore>
     Score         DG    S(hbond)    S(metal)    S(lipo)     H(rot)  DE(clash)    DE(int)     intcor
     19.60     -21.63       2.45        0.00     121.92       2.46       0.07       1.96       ----

> <Gold.Chemscore.Fitness>
19.6040

> <Gold.Chemscore.DG>
-21.6345

> <Gold.Chemscore.ZeroCoef>
-5.4800

> <Gold.Chemscore.Hbond>
2.4477

> <Gold.Chemscore.Metal>
0.0000

> <Gold.Chemscore.Lipo>
121.9242

> <Gold.Chemscore.Internal_Hbond>
0.0000

> <Gold.Chemscore.DEClash>
0.0718

> <Gold.Chemscore.DEInternal>
1.9587

> <Gold.Chemscore.Rot>
2.4555

> <Gold.Chemscore.Internal.Correction>
   9.000000E+99

> <Gold.Chemscore.Hbonds>
donor molecule, donor type, donor heavy atom, donor atom, acceptor molecule, acceptor atom, score
      L1  H     5    52       P1  8028  0.90
      P1  H  6931  6943       L1    19  0.02
      P1  H  6934  6947       L1    18  0.17
      P1  H  7997  8009       L1    10  0.35

> <Gold.Chemscore.Hbond.Weighted>
-8.1754

> <Gold.Chemscore.Metal.Weighted>
-0.0000

> <Gold.Chemscore.Lipo.Weighted>
-14.2651

> <Gold.Chemscore.Internal_Hbond.Weighted>
0.0000

> <Gold.Chemscore.DEClash.Weighted>
0.0718

> <Gold.Chemscore.DEInternal.Weighted>
1.9587

> <Gold.Chemscore.Rot.Weighted>
6.2861

> <Gold.Chemscore.Internal.Correction.Weighted>
   9.000000E+99

> <Gold.Protein.RotatedTorsions>
[ 6907 6896 6895 6894 ] final -171.73 input  -60.11 | X-H torsion
[ 7974 7965 7964 7962 ] final -167.53 input  175.53 | X-H torsion
[ 8008 7997 7996 7995 ] final -115.31 input   59.86 | X-H torsion
[ 10167 10162 10161 10158 ] final  -68.14 input  -65.29 | X-H torsion
[ 10718 10713 10712 10709 ] final   30.41 input   66.30 | X-H torsion
[ 10763 10752 10751 10750 ] final  132.00 input  -60.55 | X-H torsion
[ 11005 11000 10999 10996 ] final  130.26 input  -57.11 | X-H torsion

> <Gold.Protein.ActiveResidues>
 VAL166  LYS551  ARG553  GLY616  TRP617  ASP618  TYR619  PRO620  LYS621  CYS622 
 ASP623  PHE694  ASN695  SER759  ASP760  ASP761  ALA762  ILE779  LEU786  VAL792 
 PHE793  MET794  SER795  GLU796  ALA797  LYS798  CYS799  TRP800  GLU811  SER814 

> <Gold.Protein.RotatedAtoms>
  151.5285  133.3453  159.2913 H   0  0  0  0  0  0  0  0  0  0  0  0  # atno 6907 bound_to 6896
  150.8608  134.7962  159.7092 H   0  0  0  0  0  0  0  0  0  0  0  0  # atno 6908 bound_to 6896
  152.4628  134.5154  159.9818 H   0  0  0  0  0  0  0  0  0  0  0  0  # atno 6909 bound_to 6896
  144.7221  140.2504  143.6279 H   0  0  0  0  0  0  0  0  0  0  0  0  # atno 7974 bound_to 7965
  155.0500  140.0393  157.2540 H   0  0  0  0  0  0  0  0  0  0  0  0  # atno 8008 bound_to 7997
  154.7145  140.2699  155.6574 H   0  0  0  0  0  0  0  0  0  0  0  0  # atno 8009 bound_to 7997
  156.2799  140.2715  156.1797 H   0  0  0  0  0  0  0  0  0  0  0  0  # atno 8010 bound_to 7997
  140.5530  143.2312  151.6875 H   0  0  0  0  0  0  0  0  0  0  0  0  # atno 10167 bound_to 10162
  157.2592  130.7153  149.6445 H   0  0  0  0  0  0  0  0  0  0  0  0  # atno 10718 bound_to 10713
  153.7835  135.3165  155.3369 H   0  0  0  0  0  0  0  0  0  0  0  0  # atno 10763 bound_to 10752
  154.8152  135.4640  154.0628 H   0  0  0  0  0  0  0  0  0  0  0  0  # atno 10764 bound_to 10752
  153.1924  135.6910  153.8421 H   0  0  0  0  0  0  0  0  0  0  0  0  # atno 10765 bound_to 10752
  139.9662  134.9590  156.9268 H   0  0  0  0  0  0  0  0  0  0  0  0  # atno 11005 bound_to 11000
  145.8233  139.2053  143.1925 LP  0  0  0  0  0  0  0  0  0  0  0  0  # atno 17320 bound_to 7965
  146.0495  140.8084  142.9789 LP  0  0  0  0  0  0  0  0  0  0  0  0  # atno 17321 bound_to 7965
  139.5035  144.3787  152.0398 LP  0  0  0  0  0  0  0  0  0  0  0  0  # atno 17342 bound_to 10162
  140.2906  144.3758  150.6090 LP  0  0  0  0  0  0  0  0  0  0  0  0  # atno 17343 bound_to 10162
  155.9664  130.4403  150.5293 LP  0  0  0  0  0  0  0  0  0  0  0  0  # atno 17370 bound_to 10713
  157.3194  131.0679  151.1943 LP  0  0  0  0  0  0  0  0  0  0  0  0  # atno 17371 bound_to 10713
  140.5392  134.0737  155.7337 LP  0  0  0  0  0  0  0  0  0  0  0  0  # atno 17394 bound_to 11000
  141.1341  133.9251  157.2471 LP  0  0  0  0  0  0  0  0  0  0  0  0  # atno 17395 bound_to 11000

$$$$
