AV-unprocessed.smi:1904|AV-procd|sdf|7723|dock9
  -GOLD-   22720 9463D 1   1.00000     0.00000
 Structure written by MMmdl.
 50 51  0  0  0  0  0  0  0  0  2 V2000
  152.5404  138.6865  154.5451 C   0  0  0  0  0  0  0  0  0  0  0  0
  152.0007  139.3876  155.7588 C   0  0  0  0  0  0  0  0  0  0  0  0
  152.6929  139.3568  156.8849 N   0  0  0  0  0  0  0  0  0  0  0  0
  151.9491  140.0557  157.7655 N   0  0  0  0  0  0  0  0  0  0  0  0
  152.4268  140.2226  159.1245 C   0  0  0  0  0  0  0  0  0  0  0  0
  150.7799  140.5218  157.1966 C   0  0  0  0  0  0  0  0  0  0  0  0
  149.7774  141.3134  157.9733 C   0  0  0  0  0  0  0  0  0  0  0  0
  150.7793  140.1127  155.8896 C   0  0  0  0  0  0  0  0  0  0  0  0
  149.7367  140.3532  154.8275 C   0  0  0  0  0  0  0  0  0  0  0  0
  148.4970  139.5146  155.1364 C   0  0  0  0  0  0  0  0  0  0  0  0
  148.1332  139.3574  156.3019 O   0  0  0  0  0  0  0  0  0  0  0  0
  147.8693  138.9625  154.0867 N   0  0  0  0  0  0  0  0  0  0  0  0
  146.7140  138.0790  154.1766 C   0  0  0  0  0  0  0  0  0  0  0  0
  147.1515  136.6141  154.3682 C   0  0  0  0  0  0  0  0  0  0  0  0
  146.8054  135.7565  153.2066 N   0  3  2  0  0  0  0  0  0  0  0  0
  145.5209  136.1609  152.5785 C   0  0  0  0  0  0  0  0  0  0  0  0
  145.2503  135.3587  151.2947 C   0  0  0  0  0  0  0  0  0  0  0  0
  145.2571  133.8458  151.5685 C   0  0  1  0  0  0  0  0  0  0  0  0
  145.0237  133.0356  150.2855 C   0  0  0  0  0  0  0  0  0  0  0  0
  146.5801  133.4623  152.2518 C   0  0  0  0  0  0  0  0  0  0  0  0
  146.8211  134.3021  153.5176 C   0  0  0  0  0  0  0  0  0  0  0  0
  152.4376  139.3078  153.6556 H   0  0  0  0  0  0  0  0  0  0  0  0
  152.0029  137.7555  154.3650 H   0  0  0  0  0  0  0  0  0  0  0  0
  153.5978  138.4435  154.6561 H   0  0  0  0  0  0  0  0  0  0  0  0
  152.3478  141.2700  159.4166 H   0  0  0  0  0  0  0  0  0  0  0  0
  153.4701  139.9147  159.2064 H   0  0  0  0  0  0  0  0  0  0  0  0
  151.8238  139.6170  159.8013 H   0  0  0  0  0  0  0  0  0  0  0  0
  148.8498  141.4364  157.4150 H   0  0  0  0  0  0  0  0  0  0  0  0
  150.1652  142.3053  158.2048 H   0  0  0  0  0  0  0  0  0  0  0  0
  149.5333  140.8172  158.9129 H   0  0  0  0  0  0  0  0  0  0  0  0
  149.4455  141.4026  154.7780 H   0  0  0  0  0  0  0  0  0  0  0  0
  150.1162  140.1031  153.8359 H   0  0  0  0  0  0  0  0  0  0  0  0
  148.2356  139.1476  153.1639 H   0  0  0  0  0  0  0  0  0  0  0  0
  146.0591  138.3947  154.9907 H   0  0  0  0  0  0  0  0  0  0  0  0
  146.1458  138.1996  153.2552 H   0  0  0  0  0  0  0  0  0  0  0  0
  148.2228  136.5530  154.5672 H   0  0  0  0  0  0  0  0  0  0  0  0
  146.6518  136.2223  155.2556 H   0  0  0  0  0  0  0  0  0  0  0  0
  144.7061  136.0198  153.2905 H   0  0  0  0  0  0  0  0  0  0  0  0
  145.5474  137.2235  152.3339 H   0  0  0  0  0  0  0  0  0  0  0  0
  144.2901  135.6568  150.8721 H   0  0  0  0  0  0  0  0  0  0  0  0
  146.0054  135.6039  150.5463 H   0  0  0  0  0  0  0  0  0  0  0  0
  144.4406  133.6206  152.2564 H   0  0  0  0  0  0  0  0  0  0  0  0
  145.8100  133.2176  149.5522 H   0  0  0  0  0  0  0  0  0  0  0  0
  144.0711  133.2973  149.8238 H   0  0  0  0  0  0  0  0  0  0  0  0
  145.0051  131.9657  150.4945 H   0  0  0  0  0  0  0  0  0  0  0  0
  146.5731  132.4029  152.5107 H   0  0  0  0  0  0  0  0  0  0  0  0
  147.4103  133.6044  151.5582 H   0  0  0  0  0  0  0  0  0  0  0  0
  147.7786  134.0132  153.9486 H   0  0  0  0  0  0  0  0  0  0  0  0
  146.0588  134.0802  154.2661 H   0  0  0  0  0  0  0  0  0  0  0  0
  147.5200  135.9176  152.5110 H   0  0  0  0  0  0  0  0  0  0  0  0
  1  2  1  0  0  0  0
  1 22  1  0  0  0  0
  1 23  1  0  0  0  0
  1 24  1  0  0  0  0
  2  8  1  0  0  0  0
  2  3  2  0  0  0  0
  3  4  1  0  0  0  0
  4  5  1  0  0  0  0
  4  6  1  0  0  0  0
  5 25  1  0  0  0  0
  5 26  1  0  0  0  0
  5 27  1  0  0  0  0
  6  7  1  0  0  0  0
  6  8  2  0  0  0  0
  7 28  1  0  0  0  0
  7 29  1  0  0  0  0
  7 30  1  0  0  0  0
  8  9  1  0  0  0  0
  9 10  1  0  0  0  0
  9 31  1  0  0  0  0
  9 32  1  0  0  0  0
 10 11  2  0  0  0  0
 10 12  1  0  0  0  0
 12 13  1  0  0  0  0
 12 33  1  0  0  0  0
 13 14  1  0  0  0  0
 13 34  1  0  0  0  0
 13 35  1  0  0  0  0
 14 15  1  0  0  0  0
 14 36  1  0  0  0  0
 14 37  1  0  0  0  0
 15 21  1  0  0  0  0
 15 16  1  0  0  0  0
 15 50  1  0  0  0  0
 16 17  1  0  0  0  0
 16 38  1  0  0  0  0
 16 39  1  0  0  0  0
 17 18  1  0  0  0  0
 17 40  1  0  0  0  0
 17 41  1  0  0  0  0
 18 19  1  0  0  0  0
 18 20  1  0  0  0  0
 18 42  1  0  0  0  0
 19 43  1  0  0  0  0
 19 44  1  0  0  0  0
 19 45  1  0  0  0  0
 20 21  1  0  0  0  0
 20 46  1  0  0  0  0
 20 47  1  0  0  0  0
 21 48  1  0  0  0  0
 21 49  1  0  0  0  0
M  CHG  1  15   1
M  END
> <s_m_source_file>
AV-unprocessed.smi

> <i_m_source_file_index>
1904

> <i_lp_mmshare_version>
43012

> <i_f3d_flags>
0

> <s_epik_input>
W0NIM11jMW5uKFtDSDNdKWMoW0NIM10pYzFbQ0gyXUMoPU8pW05IXVtDSDJdW0NIMl1OMltDSDJdW0NIMl1bQ0hdKFtDSDNdKVtDSDJdW0NIMl0y

> <s_epik_cmdline>
J2VwaWtfcHl0aG9uJywgJy1waCcsICc3LjAnLCAnLXRuJywgJzgnLCAnLW1hJywgJzIwMCcsICctbWV0YWxfYmluZGluZycsICctaW1hZScsICc8aW5maWxlLm1hZT4nLCAnLW9tYWUnLCAnPG91dGZpbGUubWFlPic=

> <r_lp_tautomer_probability>
1

> <r_epik_Ionization_Penalty>
0.00374255

> <r_epik_Ionization_Penalty_Charging>
0.00158211

> <r_epik_Ionization_Penalty_Neutral>
0.00216044

> <r_epik_State_Penalty>
-0

> <r_epik_Charging_Adjusted_Penalty>
0.00158211

> <i_epik_Tot_Q>
1

> <i_epik_Tot_abs_Q>
1

> <r_epik_Metal_State_Penalty>
-0

> <b_epik_Metal_Only>
0

> <s_lp_Force_Field>
OPLS_2005

> <r_lp_Energy>
10.069

> <b_lp_Chiralities_Consistent>
1

> <s_lp_Variant>
AV-unprocessed.smi:1904-1

> <Gold.Version>
5.8.1

> <Gold.Id.Protein>
6NUR|6NUR_protein|mol2

> <Gold.PLP.Fitness>
44.9036

> <Gold.PLP.PLP>
-35.2840

> <Gold.PLP.part.hbond>
-3.0000

> <Gold.PLP.part.metal>
0.0000

> <Gold.PLP.part.buried>
-1.0119

> <Gold.PLP.part.nonpolar>
-31.5384

> <Gold.PLP.part.repulsive>
0.0581

> <Gold.PLP.ligand.clash>
0.0000

> <Gold.PLP.ligand.torsion>
1.2000

> <Gold.PLP.Chemscore.Hbond>
4.0000

> <Gold.PLP.Chemscore.CHOScore>
0.0000

> <Gold.PLP.Chemscore.Metal>
0.0000

> <Gold.Chemscore.Hbonds>
donor molecule, donor type, donor heavy atom, donor atom, acceptor molecule, acceptor atom, score
      L1  H    15    50       P1  7948  2.00
      P1  H  7997  8008       L1     3  1.00

> <Gold.PLP.Chemscore.Internal.Correction>
0.0195

> <Gold.Rescore>
     Score         DG    S(hbond)    S(metal)    S(lipo)     H(rot)  DE(clash)    DE(int)     intcor
     17.95     -19.68       2.54        0.00      84.33       1.61       0.62       1.11       ----

> <Gold.Chemscore.Fitness>
17.9550

> <Gold.Chemscore.DG>
-19.6843

> <Gold.Chemscore.ZeroCoef>
-5.4800

> <Gold.Chemscore.Hbond>
2.5360

> <Gold.Chemscore.Metal>
0.0000

> <Gold.Chemscore.Lipo>
84.3281

> <Gold.Chemscore.Internal_Hbond>
0.0000

> <Gold.Chemscore.DEClash>
0.6186

> <Gold.Chemscore.DEInternal>
1.1107

> <Gold.Chemscore.Rot>
1.6142

> <Gold.Chemscore.Internal.Correction>
   9.000000E+99

> <Gold.Chemscore.Hbonds>
donor molecule, donor type, donor heavy atom, donor atom, acceptor molecule, acceptor atom, score
      L1  H    15    50       P1  7948  0.98
      P1  H  7997  8008       L1     3  0.45

> <Gold.Chemscore.Hbond.Weighted>
-8.4703

> <Gold.Chemscore.Metal.Weighted>
-0.0000

> <Gold.Chemscore.Lipo.Weighted>
-9.8664

> <Gold.Chemscore.Internal_Hbond.Weighted>
0.0000

> <Gold.Chemscore.DEClash.Weighted>
0.6186

> <Gold.Chemscore.DEInternal.Weighted>
1.1107

> <Gold.Chemscore.Rot.Weighted>
4.1324

> <Gold.Chemscore.Internal.Correction.Weighted>
   9.000000E+99

> <Gold.Protein.RotatedTorsions>
[ 6907 6896 6895 6894 ] final -135.67 input  -60.11 | X-H torsion
[ 7974 7965 7964 7962 ] final -130.21 input  175.53 | X-H torsion
[ 8008 7997 7996 7995 ] final  -49.27 input   59.86 | X-H torsion
[ 10167 10162 10161 10158 ] final  -99.80 input  -65.29 | X-H torsion
[ 10718 10713 10712 10709 ] final  -26.03 input   66.30 | X-H torsion
[ 10763 10752 10751 10750 ] final   67.01 input  -60.55 | X-H torsion
[ 11005 11000 10999 10996 ] final -152.10 input  -57.11 | X-H torsion

> <Gold.Protein.ActiveResidues>
 VAL166  LYS551  ARG553  GLY616  TRP617  ASP618  TYR619  PRO620  LYS621  CYS622 
 ASP623  PHE694  ASN695  SER759  ASP760  ASP761  ALA762  ILE779  LEU786  VAL792 
 PHE793  MET794  SER795  GLU796  ALA797  LYS798  CYS799  TRP800  GLU811  SER814 

> <Gold.Protein.RotatedAtoms>
  151.0007  133.6059  159.2695 H   0  0  0  0  0  0  0  0  0  0  0  0  # atno 6907 bound_to 6896
  151.3246  135.0826  159.9327 H   0  0  0  0  0  0  0  0  0  0  0  0  # atno 6908 bound_to 6896
  152.5273  133.9648  159.7788 H   0  0  0  0  0  0  0  0  0  0  0  0  # atno 6909 bound_to 6896
  144.9497  140.7331  143.4795 H   0  0  0  0  0  0  0  0  0  0  0  0  # atno 7974 bound_to 7965
  154.4041  140.1301  156.4475 H   0  0  0  0  0  0  0  0  0  0  0  0  # atno 8008 bound_to 7997
  155.7399  140.3490  155.5079 H   0  0  0  0  0  0  0  0  0  0  0  0  # atno 8009 bound_to 7997
  155.9049  140.1026  157.1313 H   0  0  0  0  0  0  0  0  0  0  0  0  # atno 8010 bound_to 7997
  140.2586  143.3423  152.0647 H   0  0  0  0  0  0  0  0  0  0  0  0  # atno 10167 bound_to 10162
  156.4565  130.4495  149.6956 H   0  0  0  0  0  0  0  0  0  0  0  0  # atno 10718 bound_to 10713
  153.0166  135.5300  154.6912 H   0  0  0  0  0  0  0  0  0  0  0  0  # atno 10763 bound_to 10752
  154.6046  135.2872  155.0500 H   0  0  0  0  0  0  0  0  0  0  0  0  # atno 10764 bound_to 10752
  154.1545  135.6557  153.5023 H   0  0  0  0  0  0  0  0  0  0  0  0  # atno 10765 bound_to 10752
  140.7225  134.3712  157.5181 H   0  0  0  0  0  0  0  0  0  0  0  0  # atno 11005 bound_to 11000
  145.2863  139.1900  143.4764 LP  0  0  0  0  0  0  0  0  0  0  0  0  # atno 17320 bound_to 7965
  146.3316  140.2833  142.8611 LP  0  0  0  0  0  0  0  0  0  0  0  0  # atno 17321 bound_to 7965
  139.5024  144.6733  151.6190 LP  0  0  0  0  0  0  0  0  0  0  0  0  # atno 17342 bound_to 10162
  140.5984  143.9655  150.6369 LP  0  0  0  0  0  0  0  0  0  0  0  0  # atno 17343 bound_to 10162
  156.3761  130.7555  151.2543 LP  0  0  0  0  0  0  0  0  0  0  0  0  # atno 17370 bound_to 10713
  157.7500  131.0309  150.4158 LP  0  0  0  0  0  0  0  0  0  0  0  0  # atno 17371 bound_to 10713
  139.8845  134.8964  156.2701 LP  0  0  0  0  0  0  0  0  0  0  0  0  # atno 17394 bound_to 11000
  140.9991  133.7162  156.0933 LP  0  0  0  0  0  0  0  0  0  0  0  0  # atno 17395 bound_to 11000

$$$$
