AV-unprocessed.smi:291|AV-procd|sdf|2248|dock8
  -GOLD-   2262022133D 1   1.00000     0.00000
 Structure written by MMmdl.
 35 36  0  0  0  0  0  0  0  0  1 V2000
  153.4856  141.8045  160.2381 C   0  0  0  0  0  0  0  0  0  0  0  0
  152.7692  142.9951  159.5853 C   0  0  2  0  0  0  0  0  0  0  0  0
  152.4673  144.1021  160.6135 C   0  0  0  0  0  0  0  0  0  0  0  0
  151.7429  145.2961  159.9660 C   0  0  0  0  0  0  0  0  0  0  0  0
  150.4575  144.8705  159.2318 C   0  0  2  0  0  0  0  0  0  0  0  0
  149.4422  144.4593  160.1982 N   0  0  0  0  0  0  0  0  0  0  0  0
  148.6009  145.2757  160.8523 C   0  0  0  0  0  0  0  0  0  0  0  0
  148.5850  146.4970  160.7023 O   0  0  0  0  0  0  0  0  0  0  0  0
  147.6150  144.6114  161.8162 C   0  0  0  0  0  0  0  0  0  0  0  0
  146.2850  144.5162  161.2394 N   0  0  0  0  0  0  0  0  0  0  0  0
  145.8233  144.9164  160.0499 C   0  0  0  0  0  0  0  0  0  0  0  0
  144.5312  144.6750  159.8638 N   0  0  0  0  0  0  0  0  0  0  0  0
  144.2513  144.0849  161.0621 C   0  0  0  0  0  0  0  0  0  0  0  0
  142.9140  143.6165  161.3838 C   0  0  0  0  0  0  0  0  0  0  0  0
  141.8490  143.2436  161.6404 N   0  0  0  0  0  0  0  0  0  0  0  0
  145.2564  143.9605  161.9262 N   0  0  0  0  0  0  0  0  0  0  0  0
  150.7502  143.7429  158.2210 C   0  0  0  0  0  0  0  0  0  0  0  0
  151.4764  142.5526  158.8731 C   0  0  0  0  0  0  0  0  0  0  0  0
  152.8625  141.3357  161.0002 H   0  0  0  0  0  0  0  0  0  0  0  0
  154.4149  142.1184  160.7144 H   0  0  0  0  0  0  0  0  0  0  0  0
  153.7359  141.0437  159.4982 H   0  0  0  0  0  0  0  0  0  0  0  0
  153.4417  143.4107  158.8334 H   0  0  0  0  0  0  0  0  0  0  0  0
  151.8592  143.6981  161.4243 H   0  0  0  0  0  0  0  0  0  0  0  0
  153.3950  144.4469  161.0713 H   0  0  0  0  0  0  0  0  0  0  0  0
  151.5139  146.0485  160.7219 H   0  0  0  0  0  0  0  0  0  0  0  0
  152.4164  145.7769  159.2555 H   0  0  0  0  0  0  0  0  0  0  0  0
  150.0841  145.7387  158.6857 H   0  0  0  0  0  0  0  0  0  0  0  0
  149.3751  143.4693  160.3868 H   0  0  0  0  0  0  0  0  0  0  0  0
  147.9569  143.6069  162.0691 H   0  0  0  0  0  0  0  0  0  0  0  0
  147.5700  145.1808  162.7459 H   0  0  0  0  0  0  0  0  0  0  0  0
  146.4439  145.3980  159.3086 H   0  0  0  0  0  0  0  0  0  0  0  0
  149.8262  143.4046  157.7505 H   0  0  0  0  0  0  0  0  0  0  0  0
  151.3701  144.1389  157.4157 H   0  0  0  0  0  0  0  0  0  0  0  0
  151.7076  141.8073  158.1113 H   0  0  0  0  0  0  0  0  0  0  0  0
  150.8109  142.0639  159.5861 H   0  0  0  0  0  0  0  0  0  0  0  0
  1  2  1  0  0  0  0
  1 19  1  0  0  0  0
  1 20  1  0  0  0  0
  1 21  1  0  0  0  0
  2 18  1  0  0  0  0
  2  3  1  0  0  0  0
  2 22  1  0  0  0  0
  3  4  1  0  0  0  0
  3 23  1  0  0  0  0
  3 24  1  0  0  0  0
  4  5  1  0  0  0  0
  4 25  1  0  0  0  0
  4 26  1  0  0  0  0
  5  6  1  0  0  0  0
  5 17  1  0  0  0  0
  5 27  1  0  0  0  0
  6  7  1  0  0  0  0
  6 28  1  0  0  0  0
  7  8  2  0  0  0  0
  7  9  1  0  0  0  0
  9 10  1  0  0  0  0
  9 29  1  0  0  0  0
  9 30  1  0  0  0  0
 10 16  1  0  0  0  0
 10 11  1  0  0  0  0
 11 12  2  0  0  0  0
 11 31  1  0  0  0  0
 12 13  1  0  0  0  0
 13 14  1  0  0  0  0
 13 16  2  0  0  0  0
 14 15  3  0  0  0  0
 17 18  1  0  0  0  0
 17 32  1  0  0  0  0
 17 33  1  0  0  0  0
 18 34  1  0  0  0  0
 18 35  1  0  0  0  0
M  END
> <s_m_source_file>
AV-unprocessed.smi

> <i_m_source_file_index>
291

> <i_lp_mmshare_version>
43012

> <i_f3d_flags>
0

> <s_epik_input>
W0NIM11bQ0BASF0xW0NIMl1bQ0gyXVtDQEhdKFtDSDJdW0NIMl0xKVtOSF1DKD1PKVtDSDJdbjJbY0hdbmMobjIpQyNO

> <s_epik_cmdline>
J2VwaWtfcHl0aG9uJywgJy1waCcsICc3LjAnLCAnLXRuJywgJzgnLCAnLW1hJywgJzIwMCcsICctbWV0YWxfYmluZGluZycsICctaW1hZScsICc8aW5maWxlLm1hZT4nLCAnLW9tYWUnLCAnPG91dGZpbGUubWFlPic=

> <r_lp_tautomer_probability>
1

> <r_epik_Ionization_Penalty>
5.31112e-08

> <r_epik_Ionization_Penalty_Charging>
0

> <r_epik_Ionization_Penalty_Neutral>
5.31112e-08

> <r_epik_State_Penalty>
-0

> <r_epik_Charging_Adjusted_Penalty>
0

> <i_epik_Tot_Q>
0

> <i_epik_Tot_abs_Q>
0

> <r_epik_Metal_State_Penalty>
-0

> <b_epik_Metal_Only>
0

> <s_lp_Force_Field>
OPLS_2005

> <r_lp_Energy>
11.449

> <b_lp_Chiralities_Consistent>
1

> <s_lp_Variant>
AV-unprocessed.smi:291-2

> <Gold.Version>
5.8.1

> <Gold.Id.Protein>
6NUR|6NUR_protein|mol2

> <Gold.PLP.Fitness>
40.0668

> <Gold.PLP.PLP>
-38.2371

> <Gold.PLP.part.hbond>
-1.2238

> <Gold.PLP.part.metal>
0.0000

> <Gold.PLP.part.buried>
-6.9263

> <Gold.PLP.part.nonpolar>
-29.8652

> <Gold.PLP.part.repulsive>
0.6180

> <Gold.PLP.ligand.clash>
0.0000

> <Gold.PLP.ligand.torsion>
0.5882

> <Gold.PLP.Chemscore.Hbond>
0.0000

> <Gold.PLP.Chemscore.CHOScore>
1.0000

> <Gold.PLP.Chemscore.Metal>
0.0000

> <Gold.Chemscore.Hbonds>
donor molecule, donor type, donor heavy atom, donor atom, acceptor molecule, acceptor atom, score
      L1  C    11    31       P1  8029  1.00

> <Gold.PLP.Chemscore.Internal.Correction>
0.0062

> <Gold.Rescore>
     Score         DG    S(hbond)    S(metal)    S(lipo)     H(rot)  DE(clash)    DE(int)     intcor
      8.07     -10.23       0.00        0.00      83.17       1.95       1.71       0.44       ----

> <Gold.Chemscore.Fitness>
8.0673

> <Gold.Chemscore.DG>
-10.2253

> <Gold.Chemscore.ZeroCoef>
-5.4800

> <Gold.Chemscore.Hbond>
0.0000

> <Gold.Chemscore.Metal>
0.0000

> <Gold.Chemscore.Lipo>
83.1671

> <Gold.Chemscore.Internal_Hbond>
0.0000

> <Gold.Chemscore.DEClash>
1.7138

> <Gold.Chemscore.DEInternal>
0.4442

> <Gold.Chemscore.Rot>
1.9474

> <Gold.Chemscore.Internal.Correction>
   9.000000E+99

> <Gold.Chemscore.Hbond.Weighted>
-0.0000

> <Gold.Chemscore.Metal.Weighted>
-0.0000

> <Gold.Chemscore.Lipo.Weighted>
-9.7306

> <Gold.Chemscore.Internal_Hbond.Weighted>
0.0000

> <Gold.Chemscore.DEClash.Weighted>
1.7138

> <Gold.Chemscore.DEInternal.Weighted>
0.4442

> <Gold.Chemscore.Rot.Weighted>
4.9852

> <Gold.Chemscore.Internal.Correction.Weighted>
   9.000000E+99

> <Gold.Protein.RotatedTorsions>
[ 6907 6896 6895 6894 ] final  121.00 input  -60.11 | X-H torsion
[ 7974 7965 7964 7962 ] final  122.13 input  175.53 | X-H torsion
[ 8008 7997 7996 7995 ] final  -74.43 input   59.86 | X-H torsion
[ 10167 10162 10161 10158 ] final  -51.56 input  -65.29 | X-H torsion
[ 10718 10713 10712 10709 ] final -136.05 input   66.30 | X-H torsion
[ 10763 10752 10751 10750 ] final   -7.31 input  -60.55 | X-H torsion
[ 11005 11000 10999 10996 ] final -103.54 input  -57.11 | X-H torsion

> <Gold.Protein.ActiveResidues>
 VAL166  LYS551  ARG553  GLY616  TRP617  ASP618  TYR619  PRO620  LYS621  CYS622 
 ASP623  PHE694  ASN695  SER759  ASP760  ASP761  ALA762  ILE779  LEU786  VAL792 
 PHE793  MET794  SER795  GLU796  ALA797  LYS798  CYS799  TRP800  GLU811  SER814 

> <Gold.Protein.RotatedAtoms>
  152.4355  133.7353  159.6610 H   0  0  0  0  0  0  0  0  0  0  0  0  # atno 6907 bound_to 6896
  150.8238  133.8195  159.3133 H   0  0  0  0  0  0  0  0  0  0  0  0  # atno 6908 bound_to 6896
  151.5870  135.1058  160.0082 H   0  0  0  0  0  0  0  0  0  0  0  0  # atno 6909 bound_to 6896
  145.1112  139.3451  143.4762 H   0  0  0  0  0  0  0  0  0  0  0  0  # atno 7974 bound_to 7965
  154.5330  140.0761  156.8378 H   0  0  0  0  0  0  0  0  0  0  0  0  # atno 8008 bound_to 7997
  155.3336  140.3403  155.4221 H   0  0  0  0  0  0  0  0  0  0  0  0  # atno 8009 bound_to 7997
  156.1800  140.1649  156.8278 H   0  0  0  0  0  0  0  0  0  0  0  0  # atno 8010 bound_to 7997
  140.6582  143.2615  151.4521 H   0  0  0  0  0  0  0  0  0  0  0  0  # atno 10167 bound_to 10162
  156.2729  130.7276  151.1248 H   0  0  0  0  0  0  0  0  0  0  0  0  # atno 10718 bound_to 10713
  153.4246  135.7011  153.6271 H   0  0  0  0  0  0  0  0  0  0  0  0  # atno 10763 bound_to 10752
  153.4711  135.3714  155.2392 H   0  0  0  0  0  0  0  0  0  0  0  0  # atno 10764 bound_to 10752
  154.8723  135.4043  154.3620 H   0  0  0  0  0  0  0  0  0  0  0  0  # atno 10765 bound_to 10752
  141.1141  133.8649  157.1499 H   0  0  0  0  0  0  0  0  0  0  0  0  # atno 11005 bound_to 11000
  146.3526  140.1032  142.8607 LP  0  0  0  0  0  0  0  0  0  0  0  0  # atno 17320 bound_to 7965
  145.0845  140.9243  143.4806 LP  0  0  0  0  0  0  0  0  0  0  0  0  # atno 17321 bound_to 7965
  139.5809  144.1711  152.1967 LP  0  0  0  0  0  0  0  0  0  0  0  0  # atno 17342 bound_to 10162
  140.1036  144.5518  150.6972 LP  0  0  0  0  0  0  0  0  0  0  0  0  # atno 17343 bound_to 10162
  157.7289  131.0628  150.5796 LP  0  0  0  0  0  0  0  0  0  0  0  0  # atno 17370 bound_to 10713
  156.5894  130.4325  149.5943 LP  0  0  0  0  0  0  0  0  0  0  0  0  # atno 17371 bound_to 10713
  140.0052  135.0011  157.0277 LP  0  0  0  0  0  0  0  0  0  0  0  0  # atno 17394 bound_to 11000
  140.4695  134.1401  155.7201 LP  0  0  0  0  0  0  0  0  0  0  0  0  # atno 17395 bound_to 11000

$$$$
