AV-unprocessed.smi:1|AV-procd|sdf|3|dock4
  -GOLD-   2262015 83D 1   1.00000     0.00000
 Structure written by MMmdl.
 57 62  0  0  0  0  0  0  0  0  1 V2000
  153.4519  142.0043  162.1600 O   0  0  0  0  0  0  0  0  0  0  0  0
  153.6346  142.1864  160.9559 C   0  0  0  0  0  0  0  0  0  0  0  0
  154.5964  141.4105  160.1935 N   0  0  0  0  0  0  0  0  0  0  0  0
  155.4674  140.4795  160.6481 C   0  0  0  0  0  0  0  0  0  0  0  0
  155.9898  140.5210  161.9019 N   0  0  0  0  0  0  0  0  0  0  0  0
  156.8501  139.5811  162.3028 C   0  0  0  0  0  0  0  0  0  0  0  0
  157.3166  138.5339  161.6208 N   0  0  0  0  0  0  0  0  0  0  0  0
  156.8020  138.4861  160.3569 C   0  0  0  0  0  0  0  0  0  0  0  0
  155.8791  139.4167  159.8025 C   0  0  0  0  0  0  0  0  0  0  0  0
  155.5760  139.0583  158.4956 N   0  0  0  0  0  0  0  0  0  0  0  0
  156.2873  137.9828  158.2901 C   0  0  0  0  0  0  0  0  0  0  0  0
  157.0607  137.5717  159.3529 N   0  0  0  0  0  0  0  0  0  0  0  0
  157.9867  136.3955  159.3960 C   0  0  2  0  0  0  0  0  0  0  0  0
  157.9984  135.7989  158.1355 O   0  0  0  0  0  0  0  0  0  0  0  0
  157.9731  134.3840  158.2597 C   0  0  2  0  0  0  0  0  0  0  0  0
  157.3762  133.7367  157.0044 C   0  0  0  0  0  0  0  0  0  0  0  0
  158.1313  134.1352  155.8725 O   0  0  0  0  0  0  0  0  0  0  0  0
  157.6365  135.0545  155.0212 C   0  0  0  0  0  0  0  0  0  0  0  0
  156.6593  135.7626  155.2735 O   0  0  0  0  0  0  0  0  0  0  0  0
  158.3949  135.1249  153.7390 C   0  0  0  0  0  0  0  0  0  0  0  0
  157.8226  135.7919  152.6306 C   0  0  0  0  0  0  0  0  0  0  0  0
  158.5147  135.8739  151.4068 C   0  0  0  0  0  0  0  0  0  0  0  0
  159.7877  135.2894  151.2759 C   0  0  0  0  0  0  0  0  0  0  0  0
  160.3684  134.6237  152.3712 C   0  0  0  0  0  0  0  0  0  0  0  0
  159.6781  134.5410  153.5961 C   0  0  0  0  0  0  0  0  0  0  0  0
  157.1744  134.1367  159.5376 C   0  0  2  0  0  0  0  0  0  0  0  0
  155.7759  134.1630  159.3109 O   0  0  0  0  0  0  0  0  0  0  0  0
  155.0630  134.8941  160.6307 S   0  0  0  0  0  0  0  0  0  0  0  0
  154.0615  135.8602  160.1556 O   0  0  0  0  0  0  0  0  0  0  0  0
  154.7443  133.8476  161.6142 O   0  0  0  0  0  0  0  0  0  0  0  0
  156.3998  135.7312  161.1836 O   0  0  0  0  0  0  0  0  0  0  0  0
  157.5358  135.3357  160.4235 C   0  0  2  0  0  0  0  0  0  0  0  0
  152.8072  143.1617  160.1706 C   0  0  0  0  0  0  0  0  0  0  0  0
  152.0279  144.1299  160.8430 C   0  0  0  0  0  0  0  0  0  0  0  0
  151.2591  145.0580  160.1139 C   0  0  0  0  0  0  0  0  0  0  0  0
  151.2697  145.0310  158.7066 C   0  0  0  0  0  0  0  0  0  0  0  0
  152.0530  144.0781  158.0286 C   0  0  0  0  0  0  0  0  0  0  0  0
  152.8216  143.1489  158.7565 C   0  0  0  0  0  0  0  0  0  0  0  0
  154.6243  141.5940  159.2012 H   0  0  0  0  0  0  0  0  0  0  0  0
  157.2188  139.6836  163.3127 H   0  0  0  0  0  0  0  0  0  0  0  0
  156.2763  137.4600  157.3449 H   0  0  0  0  0  0  0  0  0  0  0  0
  158.9629  136.8235  159.6275 H   0  0  0  0  0  0  0  0  0  0  0  0
  158.9960  134.0368  158.4158 H   0  0  0  0  0  0  0  0  0  0  0  0
  157.4159  132.6502  157.0899 H   0  0  0  0  0  0  0  0  0  0  0  0
  156.3291  134.0212  156.8908 H   0  0  0  0  0  0  0  0  0  0  0  0
  156.8457  136.2475  152.7069 H   0  0  0  0  0  0  0  0  0  0  0  0
  158.0673  136.3859  150.5677 H   0  0  0  0  0  0  0  0  0  0  0  0
  160.3182  135.3515  150.3371 H   0  0  0  0  0  0  0  0  0  0  0  0
  161.3457  134.1751  152.2724 H   0  0  0  0  0  0  0  0  0  0  0  0
  160.1530  134.0231  154.4165 H   0  0  0  0  0  0  0  0  0  0  0  0
  157.4333  133.1857  160.0044 H   0  0  0  0  0  0  0  0  0  0  0  0
  158.3774  135.1008  161.0756 H   0  0  0  0  0  0  0  0  0  0  0  0
  152.0098  144.1639  161.9230 H   0  0  0  0  0  0  0  0  0  0  0  0
  150.6615  145.7909  160.6356 H   0  0  0  0  0  0  0  0  0  0  0  0
  150.6805  145.7431  158.1478 H   0  0  0  0  0  0  0  0  0  0  0  0
  152.0670  144.0608  156.9487 H   0  0  0  0  0  0  0  0  0  0  0  0
  153.4226  142.4317  158.2162 H   0  0  0  0  0  0  0  0  0  0  0  0
  1  2  2  0  0  0  0
  2  3  1  0  0  0  0
  2 33  1  0  0  0  0
  3  4  1  0  0  0  0
  3 39  1  0  0  0  0
  4  9  1  0  0  0  0
  4  5  2  0  0  0  0
  5  6  1  0  0  0  0
  6  7  2  0  0  0  0
  6 40  1  0  0  0  0
  7  8  1  0  0  0  0
  8 12  1  0  0  0  0
  8  9  2  0  0  0  0
  9 10  1  0  0  0  0
 10 11  2  0  0  0  0
 11 12  1  0  0  0  0
 11 41  1  0  0  0  0
 12 13  1  0  0  0  0
 13 32  1  0  0  0  0
 13 14  1  0  0  0  0
 13 42  1  0  0  0  0
 14 15  1  0  0  0  0
 15 16  1  0  0  0  0
 15 26  1  0  0  0  0
 15 43  1  0  0  0  0
 16 17  1  0  0  0  0
 16 44  1  0  0  0  0
 16 45  1  0  0  0  0
 17 18  1  0  0  0  0
 18 19  2  0  0  0  0
 18 20  1  0  0  0  0
 20 25  1  0  0  0  0
 20 21  2  0  0  0  0
 21 22  1  0  0  0  0
 21 46  1  0  0  0  0
 22 23  2  0  0  0  0
 22 47  1  0  0  0  0
 23 24  1  0  0  0  0
 23 48  1  0  0  0  0
 24 25  2  0  0  0  0
 24 49  1  0  0  0  0
 25 50  1  0  0  0  0
 26 32  1  0  0  0  0
 26 27  1  0  0  0  0
 26 51  1  0  0  0  0
 27 28  1  0  0  0  0
 28 29  2  0  0  0  0
 28 30  2  0  0  0  0
 28 31  1  0  0  0  0
 31 32  1  0  0  0  0
 32 52  1  0  0  0  0
 33 38  1  0  0  0  0
 33 34  2  0  0  0  0
 34 35  1  0  0  0  0
 34 53  1  0  0  0  0
 35 36  2  0  0  0  0
 35 54  1  0  0  0  0
 36 37  1  0  0  0  0
 36 55  1  0  0  0  0
 37 38  2  0  0  0  0
 37 56  1  0  0  0  0
 38 57  1  0  0  0  0
M  END
> <s_m_source_file>
AV-unprocessed.smi

> <i_m_source_file_index>
1

> <i_lp_mmshare_version>
43012

> <i_f3d_flags>
0

> <s_epik_input>
W2NIXTFbY0hdW2NIXVtjSF1bY0hdYzFDKD1PKVtOSF1jKG5bY0hdbjIpYyhjMjMpbltjSF1uM1tDQEBIXShbQ0BIXShbQ0BIXTQ1KU9TKE81KSg9Tyk9TylPW0NASF00W0NIMl1PQyg9TyljNltjSF1bY0hdW2NIXVtjSF1bY0hdNg==

> <s_epik_cmdline>
J2VwaWtfcHl0aG9uJywgJy1waCcsICc3LjAnLCAnLXRuJywgJzgnLCAnLW1hJywgJzIwMCcsICctbWV0YWxfYmluZGluZycsICctaW1hZScsICc8aW5maWxlLm1hZT4nLCAnLW9tYWUnLCAnPG91dGZpbGUubWFlPic=

> <r_lp_tautomer_probability>
1

> <r_epik_Ionization_Penalty>
0.00195722

> <r_epik_Ionization_Penalty_Charging>
0

> <r_epik_Ionization_Penalty_Neutral>
0.00195722

> <r_epik_State_Penalty>
0.00633741

> <r_epik_Charging_Adjusted_Penalty>
0.00633741

> <i_epik_Tot_Q>
0

> <i_epik_Tot_abs_Q>
0

> <r_epik_Metal_State_Penalty>
0.341185

> <b_epik_Metal_Only>
0

> <s_epik_Chemistry_Notes>
This compound has an ester and may undergo hydrolysis at high or low pH. This compound contains an acetal/aminal-like group ( X-CH(R)-Y where X, Y are N, S, or O) that may be acid/base labile, releasing an aldehyde.

> <s_lp_Force_Field>
OPLS_2005

> <r_lp_Energy>
44.5828

> <b_lp_Chiralities_Consistent>
1

> <s_lp_Variant>
AV-unprocessed.smi:1-3

> <Gold.Version>
5.8.1

> <Gold.Id.Protein>
6NUR|6NUR_protein|mol2

> <Gold.PLP.Fitness>
62.1469

> <Gold.PLP.PLP>
-54.5798

> <Gold.PLP.part.hbond>
-3.8575

> <Gold.PLP.part.metal>
0.0000

> <Gold.PLP.part.buried>
-7.5708

> <Gold.PLP.part.nonpolar>
-44.1158

> <Gold.PLP.part.repulsive>
0.1800

> <Gold.PLP.ligand.clash>
0.0000

> <Gold.PLP.ligand.torsion>
0.8684

> <Gold.PLP.Chemscore.Hbond>
3.0000

> <Gold.PLP.Chemscore.CHOScore>
0.0000

> <Gold.PLP.Chemscore.Metal>
0.0000

> <Gold.Chemscore.Hbonds>
donor molecule, donor type, donor heavy atom, donor atom, acceptor molecule, acceptor atom, score
      P1  H  6896  6908       L1    29  1.00
      P1  H  7997  8008       L1    10  1.00
      P1  H 10752 10765       L1    19  1.00

> <Gold.PLP.Chemscore.Internal.Correction>
0.3039

> <Gold.Rescore>
     Score         DG    S(hbond)    S(metal)    S(lipo)     H(rot)  DE(clash)    DE(int)     intcor
     20.05     -24.35       2.55        0.00     135.17       2.13       1.20       3.10       ----

> <Gold.Chemscore.Fitness>
20.0520

> <Gold.Chemscore.DG>
-24.3504

> <Gold.Chemscore.ZeroCoef>
-5.4800

> <Gold.Chemscore.Hbond>
2.5500

> <Gold.Chemscore.Metal>
0.0000

> <Gold.Chemscore.Lipo>
135.1701

> <Gold.Chemscore.Internal_Hbond>
0.0000

> <Gold.Chemscore.DEClash>
1.2030

> <Gold.Chemscore.DEInternal>
3.0954

> <Gold.Chemscore.Rot>
2.1333

> <Gold.Chemscore.Internal.Correction>
   9.000000E+99

> <Gold.Chemscore.Hbonds>
donor molecule, donor type, donor heavy atom, donor atom, acceptor molecule, acceptor atom, score
      P1  H  6896  6908       L1    29  0.25
      P1  H  7997  8008       L1    10  0.68
      P1  H 10752 10765       L1    19  0.99

> <Gold.Chemscore.Hbond.Weighted>
-8.5169

> <Gold.Chemscore.Metal.Weighted>
-0.0000

> <Gold.Chemscore.Lipo.Weighted>
-15.8149

> <Gold.Chemscore.Internal_Hbond.Weighted>
0.0000

> <Gold.Chemscore.DEClash.Weighted>
1.2030

> <Gold.Chemscore.DEInternal.Weighted>
3.0954

> <Gold.Chemscore.Rot.Weighted>
5.4614

> <Gold.Chemscore.Internal.Correction.Weighted>
   9.000000E+99

> <Gold.Protein.RotatedTorsions>
[ 6907 6896 6895 6894 ] final  -59.43 input  -60.11 | X-H torsion
[ 7974 7965 7964 7962 ] final -170.99 input  175.53 | X-H torsion
[ 8008 7997 7996 7995 ] final -156.44 input   59.86 | X-H torsion
[ 10167 10162 10161 10158 ] final  -60.44 input  -65.29 | X-H torsion
[ 10718 10713 10712 10709 ] final  -58.96 input   66.30 | X-H torsion
[ 10763 10752 10751 10750 ] final  -22.61 input  -60.55 | X-H torsion
[ 11005 11000 10999 10996 ] final   76.21 input  -57.11 | X-H torsion

> <Gold.Protein.ActiveResidues>
 VAL166  LYS551  ARG553  GLY616  TRP617  ASP618  TYR619  PRO620  LYS621  CYS622 
 ASP623  PHE694  ASN695  SER759  ASP760  ASP761  ALA762  ILE779  LEU786  VAL792 
 PHE793  MET794  SER795  GLU796  ALA797  LYS798  CYS799  TRP800  GLU811  SER814 

> <Gold.Protein.RotatedAtoms>
  150.7931  134.6969  159.6527 H   0  0  0  0  0  0  0  0  0  0  0  0  # atno 6907 bound_to 6896
  152.4039  134.6236  160.0067 H   0  0  0  0  0  0  0  0  0  0  0  0  # atno 6908 bound_to 6896
  151.6499  133.3284  159.3186 H   0  0  0  0  0  0  0  0  0  0  0  0  # atno 6909 bound_to 6896
  144.7162  140.1989  143.6340 H   0  0  0  0  0  0  0  0  0  0  0  0  # atno 7974 bound_to 7965
  155.7172  140.0785  157.2346 H   0  0  0  0  0  0  0  0  0  0  0  0  # atno 8008 bound_to 7997
  154.4050  140.1619  156.2415 H   0  0  0  0  0  0  0  0  0  0  0  0  # atno 8009 bound_to 7997
  155.9229  140.3396  155.6190 H   0  0  0  0  0  0  0  0  0  0  0  0  # atno 8010 bound_to 7997
  140.6071  143.2376  151.5795 H   0  0  0  0  0  0  0  0  0  0  0  0  # atno 10167 bound_to 10162
  156.1097  130.4176  150.0648 H   0  0  0  0  0  0  0  0  0  0  0  0  # atno 10718 bound_to 10713
  153.6547  135.6979  153.5197 H   0  0  0  0  0  0  0  0  0  0  0  0  # atno 10763 bound_to 10752
  153.2679  135.4224  155.0958 H   0  0  0  0  0  0  0  0  0  0  0  0  # atno 10764 bound_to 10752
  154.8467  135.3571  154.6091 H   0  0  0  0  0  0  0  0  0  0  0  0  # atno 10765 bound_to 10752
  139.9309  134.7582  156.1367 H   0  0  0  0  0  0  0  0  0  0  0  0  # atno 11005 bound_to 11000
  145.8698  139.2266  143.1667 LP  0  0  0  0  0  0  0  0  0  0  0  0  # atno 17320 bound_to 7965
  146.0095  140.8448  142.9978 LP  0  0  0  0  0  0  0  0  0  0  0  0  # atno 17321 bound_to 7965
  139.5333  144.2853  152.1196 LP  0  0  0  0  0  0  0  0  0  0  0  0  # atno 17342 bound_to 10162
  140.2044  144.4625  150.6415 LP  0  0  0  0  0  0  0  0  0  0  0  0  # atno 17343 bound_to 10162
  156.8615  130.9493  151.3617 LP  0  0  0  0  0  0  0  0  0  0  0  0  # atno 17370 bound_to 10713
  157.6277  130.8704  149.9218 LP  0  0  0  0  0  0  0  0  0  0  0  0  # atno 17371 bound_to 10713
  141.0896  133.6720  156.2511 LP  0  0  0  0  0  0  0  0  0  0  0  0  # atno 17394 bound_to 11000
  140.6206  134.5365  157.5547 LP  0  0  0  0  0  0  0  0  0  0  0  0  # atno 17395 bound_to 11000

$$$$
