AV-unprocessed.smi:1305|AV-procd|sdf|5433|dock3
  -GOLD-   22720 4593D 1   1.00000     0.00000
 Structure written by MMmdl.
 32 33  0  0  0  0  0  0  0  0  1 V2000
  152.3110  144.6481  158.5848 C   0  0  0  0  0  0  0  0  0  0  0  0
  151.4561  143.6222  157.8334 C   0  0  0  0  0  0  0  0  0  0  0  0
  151.2012  142.3537  158.6565 C   0  0  0  0  0  0  0  0  0  0  0  0
  150.7513  140.9525  157.5908 S   0  0  0  0  0  0  0  0  0  0  0  0
  149.0314  141.2863  157.3372 C   0  0  0  0  0  0  0  0  0  0  0  0
  148.1353  141.4301  158.3188 N   0  0  0  0  0  0  0  0  0  0  0  0
  146.9301  141.6577  157.6957 N   0  0  0  0  0  0  0  0  0  0  0  0
  147.2013  141.6521  156.3895 C   0  0  0  0  0  0  0  0  0  0  0  0
  146.1587  141.8267  155.3305 C   0  0  0  0  0  0  0  0  0  0  0  0
  146.3453  142.8257  154.2101 C   0  0  0  0  0  0  0  0  0  0  0  0
  145.3012  143.0725  155.2665 C   0  0  0  0  0  0  0  0  0  0  0  0
  148.4978  141.4113  156.1023 N   0  0  0  0  0  0  0  0  0  0  0  0
  149.1455  141.3047  154.7991 C   0  0  0  0  0  0  0  0  0  0  0  0
  149.7502  139.9169  154.5673 C   0  0  0  0  0  0  0  0  0  0  0  0
  148.9072  138.8995  154.3718 N   0  0  0  0  0  0  0  0  0  0  0  0
  150.9698  139.7671  154.5521 O   0  0  0  0  0  0  0  0  0  0  0  0
  152.4777  145.5363  157.9752 H   0  0  0  0  0  0  0  0  0  0  0  0
  153.2859  144.2344  158.8434 H   0  0  0  0  0  0  0  0  0  0  0  0
  151.8253  144.9645  159.5081 H   0  0  0  0  0  0  0  0  0  0  0  0
  150.5041  144.0788  157.5609 H   0  0  0  0  0  0  0  0  0  0  0  0
  151.9511  143.3573  156.8986 H   0  0  0  0  0  0  0  0  0  0  0  0
  152.0941  142.0960  159.2270 H   0  0  0  0  0  0  0  0  0  0  0  0
  150.3955  142.5295  159.3701 H   0  0  0  0  0  0  0  0  0  0  0  0
  145.6872  140.8749  155.0938 H   0  0  0  0  0  0  0  0  0  0  0  0
  147.2326  143.4551  154.2321 H   0  0  0  0  0  0  0  0  0  0  0  0
  146.0038  142.5349  153.2188 H   0  0  0  0  0  0  0  0  0  0  0  0
  144.2588  142.9495  154.9811 H   0  0  0  0  0  0  0  0  0  0  0  0
  145.4969  143.8658  155.9851 H   0  0  0  0  0  0  0  0  0  0  0  0
  148.4255  141.5293  154.0120 H   0  0  0  0  0  0  0  0  0  0  0  0
  149.9248  142.0643  154.7269 H   0  0  0  0  0  0  0  0  0  0  0  0
  149.2663  137.9686  154.2152 H   0  0  0  0  0  0  0  0  0  0  0  0
  147.9112  139.0655  154.3812 H   0  0  0  0  0  0  0  0  0  0  0  0
  1  2  1  0  0  0  0
  1 17  1  0  0  0  0
  1 18  1  0  0  0  0
  1 19  1  0  0  0  0
  2  3  1  0  0  0  0
  2 20  1  0  0  0  0
  2 21  1  0  0  0  0
  3  4  1  0  0  0  0
  3 22  1  0  0  0  0
  3 23  1  0  0  0  0
  4  5  1  0  0  0  0
  5 12  1  0  0  0  0
  5  6  2  0  0  0  0
  6  7  1  0  0  0  0
  7  8  2  0  0  0  0
  8  9  1  0  0  0  0
  8 12  1  0  0  0  0
  9 11  1  0  0  0  0
  9 10  1  0  0  0  0
  9 24  1  0  0  0  0
 10 11  1  0  0  0  0
 10 25  1  0  0  0  0
 10 26  1  0  0  0  0
 11 27  1  0  0  0  0
 11 28  1  0  0  0  0
 12 13  1  0  0  0  0
 13 14  1  0  0  0  0
 13 29  1  0  0  0  0
 13 30  1  0  0  0  0
 14 15  1  0  0  0  0
 14 16  2  0  0  0  0
 15 31  1  0  0  0  0
 15 32  1  0  0  0  0
M  END
> <s_m_source_file>
AV-unprocessed.smi

> <i_m_source_file_index>
1305

> <i_lp_mmshare_version>
43012

> <i_f3d_flags>
0

> <s_epik_input>
W0NIM11bQ0gyXVtDSDJdU2Mxbm5jKFtDSF0yW0NIMl1bQ0gyXTIpbjFbQ0gyXUMoPU8pW05IMl0=

> <s_epik_cmdline>
J2VwaWtfcHl0aG9uJywgJy1waCcsICc3LjAnLCAnLXRuJywgJzgnLCAnLW1hJywgJzIwMCcsICctbWV0YWxfYmluZGluZycsICctaW1hZScsICc8aW5maWxlLm1hZT4nLCAnLW9tYWUnLCAnPG91dGZpbGUubWFlPic=

> <r_lp_tautomer_probability>
1

> <r_epik_Ionization_Penalty>
4.21319e-06

> <r_epik_Ionization_Penalty_Charging>
0

> <r_epik_Ionization_Penalty_Neutral>
4.21319e-06

> <r_epik_State_Penalty>
-0

> <r_epik_Charging_Adjusted_Penalty>
0

> <i_epik_Tot_Q>
0

> <i_epik_Tot_abs_Q>
0

> <r_epik_Metal_State_Penalty>
-0

> <b_epik_Metal_Only>
0

> <s_lp_Force_Field>
OPLS_2005

> <r_lp_Energy>
5.08374

> <b_lp_Chiralities_Consistent>
1

> <s_lp_Variant>
AV-unprocessed.smi:1305-1

> <Gold.Version>
5.8.1

> <Gold.Id.Protein>
6NUR|6NUR_protein|mol2

> <Gold.PLP.Fitness>
34.8477

> <Gold.PLP.PLP>
-32.4993

> <Gold.PLP.part.hbond>
-1.1592

> <Gold.PLP.part.metal>
0.0000

> <Gold.PLP.part.buried>
-3.8153

> <Gold.PLP.part.nonpolar>
-26.9012

> <Gold.PLP.part.repulsive>
0.3202

> <Gold.PLP.ligand.clash>
0.0000

> <Gold.PLP.ligand.torsion>
0.4142

> <Gold.PLP.Chemscore.Hbond>
1.0000

> <Gold.PLP.Chemscore.CHOScore>
0.0000

> <Gold.PLP.Chemscore.Metal>
0.0000

> <Gold.Chemscore.Hbonds>
donor molecule, donor type, donor heavy atom, donor atom, acceptor molecule, acceptor atom, score
      P1  H  7989  7998       L1    16  1.00

> <Gold.PLP.Chemscore.Internal.Correction>
0.1767

> <Gold.Rescore>
     Score         DG    S(hbond)    S(metal)    S(lipo)     H(rot)  DE(clash)    DE(int)     intcor
      9.10      -9.49       0.99        0.00      62.14       2.57       0.03       0.37       ----

> <Gold.Chemscore.Fitness>
9.0954

> <Gold.Chemscore.DG>
-9.4873

> <Gold.Chemscore.ZeroCoef>
-5.4800

> <Gold.Chemscore.Hbond>
0.9921

> <Gold.Chemscore.Metal>
0.0000

> <Gold.Chemscore.Lipo>
62.1432

> <Gold.Chemscore.Internal_Hbond>
0.0000

> <Gold.Chemscore.DEClash>
0.0255

> <Gold.Chemscore.DEInternal>
0.3663

> <Gold.Chemscore.Rot>
2.5691

> <Gold.Chemscore.Internal.Correction>
   9.000000E+99

> <Gold.Chemscore.Hbonds>
donor molecule, donor type, donor heavy atom, donor atom, acceptor molecule, acceptor atom, score
      P1  H  7989  7998       L1    16  0.70

> <Gold.Chemscore.Hbond.Weighted>
-3.3135

> <Gold.Chemscore.Metal.Weighted>
-0.0000

> <Gold.Chemscore.Lipo.Weighted>
-7.2708

> <Gold.Chemscore.Internal_Hbond.Weighted>
0.0000

> <Gold.Chemscore.DEClash.Weighted>
0.0255

> <Gold.Chemscore.DEInternal.Weighted>
0.3663

> <Gold.Chemscore.Rot.Weighted>
6.5770

> <Gold.Chemscore.Internal.Correction.Weighted>
   9.000000E+99

> <Gold.Protein.RotatedTorsions>
[ 6907 6896 6895 6894 ] final   93.52 input  -60.11 | X-H torsion
[ 7974 7965 7964 7962 ] final   60.19 input  175.53 | X-H torsion
[ 8008 7997 7996 7995 ] final  172.65 input   59.86 | X-H torsion
[ 10167 10162 10161 10158 ] final   54.81 input  -65.29 | X-H torsion
[ 10718 10713 10712 10709 ] final  -57.63 input   66.30 | X-H torsion
[ 10763 10752 10751 10750 ] final -163.47 input  -60.55 | X-H torsion
[ 11005 11000 10999 10996 ] final  -60.59 input  -57.11 | X-H torsion

> <Gold.Protein.ActiveResidues>
 VAL166  LYS551  ARG553  GLY616  TRP617  ASP618  TYR619  PRO620  LYS621  CYS622 
 ASP623  PHE694  ASN695  SER759  ASP760  ASP761  ALA762  ILE779  LEU786  VAL792 
 PHE793  MET794  SER795  GLU796  ALA797  LYS798  CYS799  TRP800  GLU811  SER814 

> <Gold.Protein.RotatedAtoms>
  152.5452  134.1335  159.8448 H   0  0  0  0  0  0  0  0  0  0  0  0  # atno 6907 bound_to 6896
  151.1378  133.4985  159.2605 H   0  0  0  0  0  0  0  0  0  0  0  0  # atno 6908 bound_to 6896
  151.1606  135.0281  159.8763 H   0  0  0  0  0  0  0  0  0  0  0  0  # atno 6909 bound_to 6896
  145.8988  139.3565  143.0605 H   0  0  0  0  0  0  0  0  0  0  0  0  # atno 7974 bound_to 7965
  156.1153  140.1480  156.9281 H   0  0  0  0  0  0  0  0  0  0  0  0  # atno 8008 bound_to 7997
  154.4796  140.0883  156.7388 H   0  0  0  0  0  0  0  0  0  0  0  0  # atno 8009 bound_to 7997
  155.4524  140.3435  155.4304 H   0  0  0  0  0  0  0  0  0  0  0  0  # atno 8010 bound_to 7997
  140.2261  144.3736  150.6432 H   0  0  0  0  0  0  0  0  0  0  0  0  # atno 10167 bound_to 10162
  156.1196  130.4167  150.0466 H   0  0  0  0  0  0  0  0  0  0  0  0  # atno 10718 bound_to 10713
  154.7119  135.3008  154.9183 H   0  0  0  0  0  0  0  0  0  0  0  0  # atno 10763 bound_to 10752
  154.0082  135.6698  153.4767 H   0  0  0  0  0  0  0  0  0  0  0  0  # atno 10764 bound_to 10752
  153.0762  135.5033  154.8323 H   0  0  0  0  0  0  0  0  0  0  0  0  # atno 10765 bound_to 10752
  141.1293  133.6623  156.5246 H   0  0  0  0  0  0  0  0  0  0  0  0  # atno 11005 bound_to 11000
  145.8817  140.9358  143.0598 LP  0  0  0  0  0  0  0  0  0  0  0  0  # atno 17320 bound_to 7965
  144.6734  140.0789  143.7470 LP  0  0  0  0  0  0  0  0  0  0  0  0  # atno 17321 bound_to 7965
  140.6219  143.2177  151.6676 LP  0  0  0  0  0  0  0  0  0  0  0  0  # atno 17342 bound_to 10162
  139.5126  144.3469  152.0688 LP  0  0  0  0  0  0  0  0  0  0  0  0  # atno 17343 bound_to 10162
  156.8408  130.9425  151.3632 LP  0  0  0  0  0  0  0  0  0  0  0  0  # atno 17370 bound_to 10713
  157.6380  130.8782  149.9394 LP  0  0  0  0  0  0  0  0  0  0  0  0  # atno 17371 bound_to 10713
  140.4264  134.7141  157.4918 LP  0  0  0  0  0  0  0  0  0  0  0  0  # atno 17394 bound_to 11000
  140.0324  134.6387  155.9089 LP  0  0  0  0  0  0  0  0  0  0  0  0  # atno 17395 bound_to 11000

$$$$
