AV-unprocessed.smi:2999|AV-procd|sdf|11421|dock8
  -GOLD-   2272016343D 1   1.00000     0.00000
 Structure written by MMmdl.
 38 40  0  0  0  0  0  0  0  0  2 V2000
  144.4783  136.5505  152.2806 O   0  0  0  0  0  0  0  0  0  0  0  0
  145.6751  136.3390  152.0852 C   0  0  0  0  0  0  0  0  0  0  0  0
  146.6317  137.2465  152.3278 N   0  0  0  0  0  0  0  0  0  0  0  0
  146.3951  138.5936  152.8367 C   0  0  0  0  0  0  0  0  0  0  0  0
  147.6933  139.2670  153.3174 C   0  0  2  0  0  0  0  0  0  0  0  0
  148.2987  138.5376  154.5357 C   0  0  0  0  0  0  0  0  0  0  0  0
  149.4919  139.2474  155.0563 N   0  3  1  0  0  0  0  0  0  0  0  0
  150.7072  139.0385  154.2347 C   0  0  0  0  0  0  0  0  0  0  0  0
  151.3921  137.7170  154.4932 C   0  0  0  0  0  0  0  0  0  0  0  0
  151.9827  138.9960  155.0435 C   0  0  0  0  0  0  0  0  0  0  0  0
  149.1911  140.6766  155.3078 C   0  0  0  0  0  0  0  0  0  0  0  0
  148.5508  141.3384  154.0741 C   0  0  0  0  0  0  0  0  0  0  0  0
  147.3920  140.6082  153.6913 O   0  0  0  0  0  0  0  0  0  0  0  0
  146.1960  135.1961  151.6109 N   0  0  0  0  0  0  0  0  0  0  0  0
  145.5066  134.0085  151.2624 C   0  0  0  0  0  0  0  0  0  0  0  0
  144.1910  134.0659  151.0476 N   0  0  0  0  0  0  0  0  0  0  0  0
  143.6594  132.8178  150.7109 C   0  0  0  0  0  0  0  0  0  0  0  0
  144.5938  131.8128  150.6699 C   0  0  0  0  0  0  0  0  0  0  0  0
  146.1906  132.3936  151.0581 S   0  0  0  0  0  0  0  0  0  0  0  0
  147.5908  136.9905  152.1429 H   0  0  0  0  0  0  0  0  0  0  0  0
  145.9376  139.1848  152.0431 H   0  0  0  0  0  0  0  0  0  0  0  0
  145.6670  138.5503  153.6485 H   0  0  0  0  0  0  0  0  0  0  0  0
  148.4161  139.2728  152.5001 H   0  0  0  0  0  0  0  0  0  0  0  0
  147.5585  138.4828  155.3350 H   0  0  0  0  0  0  0  0  0  0  0  0
  148.5568  137.5088  154.2818 H   0  0  0  0  0  0  0  0  0  0  0  0
  150.7081  139.4707  153.2360 H   0  0  0  0  0  0  0  0  0  0  0  0
  150.9370  137.0289  155.2036 H   0  0  0  0  0  0  0  0  0  0  0  0
  151.9094  137.2482  153.6585 H   0  0  0  0  0  0  0  0  0  0  0  0
  152.8891  139.3694  154.5714 H   0  0  0  0  0  0  0  0  0  0  0  0
  151.9172  139.1581  156.1179 H   0  0  0  0  0  0  0  0  0  0  0  0
  148.5009  140.7389  156.1502 H   0  0  0  0  0  0  0  0  0  0  0  0
  150.0949  141.2085  155.6073 H   0  0  0  0  0  0  0  0  0  0  0  0
  148.2586  142.3618  154.3096 H   0  0  0  0  0  0  0  0  0  0  0  0
  149.2540  141.3955  153.2420 H   0  0  0  0  0  0  0  0  0  0  0  0
  147.1973  135.1698  151.4857 H   0  0  0  0  0  0  0  0  0  0  0  0
  142.6008  132.7344  150.5144 H   0  0  0  0  0  0  0  0  0  0  0  0
  144.4403  130.7699  150.4361 H   0  0  0  0  0  0  0  0  0  0  0  0
  149.7020  138.8357  155.9545 H   0  0  0  0  0  0  0  0  0  0  0  0
  1  2  2  0  0  0  0
  2  3  1  0  0  0  0
  2 14  1  0  0  0  0
  3  4  1  0  0  0  0
  3 20  1  0  0  0  0
  4  5  1  0  0  0  0
  4 21  1  0  0  0  0
  4 22  1  0  0  0  0
  5 13  1  0  0  0  0
  5  6  1  0  0  0  0
  5 23  1  0  0  0  0
  6  7  1  0  0  0  0
  6 24  1  0  0  0  0
  6 25  1  0  0  0  0
  7  8  1  0  0  0  0
  7 11  1  0  0  0  0
  7 38  1  0  0  0  0
  8 10  1  0  0  0  0
  8  9  1  0  0  0  0
  8 26  1  0  0  0  0
  9 10  1  0  0  0  0
  9 27  1  0  0  0  0
  9 28  1  0  0  0  0
 10 29  1  0  0  0  0
 10 30  1  0  0  0  0
 11 12  1  0  0  0  0
 11 31  1  0  0  0  0
 11 32  1  0  0  0  0
 12 13  1  0  0  0  0
 12 33  1  0  0  0  0
 12 34  1  0  0  0  0
 14 15  1  0  0  0  0
 14 35  1  0  0  0  0
 15 19  1  0  0  0  0
 15 16  2  0  0  0  0
 16 17  1  0  0  0  0
 17 18  2  0  0  0  0
 17 36  1  0  0  0  0
 18 19  1  0  0  0  0
 18 37  1  0  0  0  0
M  CHG  1   7   1
M  END
> <s_m_source_file>
AV-unprocessed.smi

> <i_m_source_file_index>
2999

> <i_lp_mmshare_version>
43012

> <i_f3d_flags>
0

> <s_epik_input>
czFbY0hdW2NIXW5jMVtOSF1DKD1PKVtOSF1bQ0gyXVtDQEBIXTJbQ0gyXU4oW0NIMl1bQ0gyXU8yKVtDSF0zW0NIMl1bQ0gyXTM=

> <s_epik_cmdline>
J2VwaWtfcHl0aG9uJywgJy1waCcsICc3LjAnLCAnLXRuJywgJzgnLCAnLW1hJywgJzIwMCcsICctbWV0YWxfYmluZGluZycsICctaW1hZScsICc8aW5maWxlLm1hZT4nLCAnLW9tYWUnLCAnPG91dGZpbGUubWFlPic=

> <r_lp_tautomer_probability>
0.999

> <r_epik_Ionization_Penalty>
1.55235

> <r_epik_Ionization_Penalty_Charging>
1.55221

> <r_epik_Ionization_Penalty_Neutral>
0.000139685

> <r_epik_State_Penalty>
1.64652

> <r_epik_Charging_Adjusted_Penalty>
3.19873

> <i_epik_Tot_Q>
1

> <i_epik_Tot_abs_Q>
1

> <r_epik_Metal_State_Penalty>
1.68612

> <b_epik_Metal_Only>
0

> <s_lp_Force_Field>
OPLS_2005

> <r_lp_Energy>
21.4475

> <b_lp_Chiralities_Consistent>
1

> <s_lp_Variant>
AV-unprocessed.smi:2999-5

> <Gold.Version>
5.8.1

> <Gold.Id.Protein>
6NUR|6NUR_protein|mol2

> <Gold.PLP.Fitness>
42.1703

> <Gold.PLP.PLP>
-33.8060

> <Gold.PLP.part.hbond>
-2.0000

> <Gold.PLP.part.metal>
0.0000

> <Gold.PLP.part.buried>
-3.4867

> <Gold.PLP.part.nonpolar>
-29.1911

> <Gold.PLP.part.repulsive>
0.6563

> <Gold.PLP.ligand.clash>
0.0000

> <Gold.PLP.ligand.torsion>
0.7940

> <Gold.PLP.Chemscore.Hbond>
1.8960

> <Gold.PLP.Chemscore.CHOScore>
1.0000

> <Gold.PLP.Chemscore.Metal>
0.0000

> <Gold.Chemscore.Hbonds>
donor molecule, donor type, donor heavy atom, donor atom, acceptor molecule, acceptor atom, score
      L1  H     3    20       P1  7948  1.00
      L1  H    14    35       P1  7948  0.89
      L1  C    17    36       P1 10186  1.00

> <Gold.PLP.Chemscore.Internal.Correction>
1.2643

> <Gold.Rescore>
     Score         DG    S(hbond)    S(metal)    S(lipo)     H(rot)  DE(clash)    DE(int)     intcor
     14.58     -16.86       1.94        0.00      76.55       1.58       0.03       2.26       ----

> <Gold.Chemscore.Fitness>
14.5809

> <Gold.Chemscore.DG>
-16.8643

> <Gold.Chemscore.ZeroCoef>
-5.4800

> <Gold.Chemscore.Hbond>
1.9377

> <Gold.Chemscore.Metal>
0.0000

> <Gold.Chemscore.Lipo>
76.5450

> <Gold.Chemscore.Internal_Hbond>
0.0000

> <Gold.Chemscore.DEClash>
0.0274

> <Gold.Chemscore.DEInternal>
2.2559

> <Gold.Chemscore.Rot>
1.5795

> <Gold.Chemscore.Internal.Correction>
   9.000000E+99

> <Gold.Chemscore.Hbonds>
donor molecule, donor type, donor heavy atom, donor atom, acceptor molecule, acceptor atom, score
      L1  H     3    20       P1  7948  0.97
      L1  H    14    35       P1  7948  0.72

> <Gold.Chemscore.Hbond.Weighted>
-6.4719

> <Gold.Chemscore.Metal.Weighted>
-0.0000

> <Gold.Chemscore.Lipo.Weighted>
-8.9558

> <Gold.Chemscore.Internal_Hbond.Weighted>
0.0000

> <Gold.Chemscore.DEClash.Weighted>
0.0274

> <Gold.Chemscore.DEInternal.Weighted>
2.2559

> <Gold.Chemscore.Rot.Weighted>
4.0434

> <Gold.Chemscore.Internal.Correction.Weighted>
   9.000000E+99

> <Gold.Protein.RotatedTorsions>
[ 6907 6896 6895 6894 ] final  -30.73 input  -60.11 | X-H torsion
[ 7974 7965 7964 7962 ] final  -49.87 input  175.53 | X-H torsion
[ 8008 7997 7996 7995 ] final  137.28 input   59.86 | X-H torsion
[ 10167 10162 10161 10158 ] final  -16.13 input  -65.29 | X-H torsion
[ 10718 10713 10712 10709 ] final   30.39 input   66.30 | X-H torsion
[ 10763 10752 10751 10750 ] final   71.08 input  -60.55 | X-H torsion
[ 11005 11000 10999 10996 ] final  -44.21 input  -57.11 | X-H torsion

> <Gold.Protein.ActiveResidues>
 VAL166  LYS551  ARG553  GLY616  TRP617  ASP618  TYR619  PRO620  LYS621  CYS622 
 ASP623  PHE694  ASN695  SER759  ASP760  ASP761  ALA762  ILE779  LEU786  VAL792 
 PHE793  MET794  SER795  GLU796  ALA797  LYS798  CYS799  TRP800  GLU811  SER814 

> <Gold.Protein.RotatedAtoms>
  151.1017  134.9976  159.8451 H   0  0  0  0  0  0  0  0  0  0  0  0  # atno 6907 bound_to 6896
  152.5437  134.1943  159.8696 H   0  0  0  0  0  0  0  0  0  0  0  0  # atno 6908 bound_to 6896
  151.1986  133.4580  159.2629 H   0  0  0  0  0  0  0  0  0  0  0  0  # atno 6909 bound_to 6896
  145.9360  140.7706  142.9576 H   0  0  0  0  0  0  0  0  0  0  0  0  # atno 7974 bound_to 7965
  156.3002  140.2423  156.3884 H   0  0  0  0  0  0  0  0  0  0  0  0  # atno 8008 bound_to 7997
  154.8636  140.0419  157.1700 H   0  0  0  0  0  0  0  0  0  0  0  0  # atno 8009 bound_to 7997
  154.8870  140.2957  155.5396 H   0  0  0  0  0  0  0  0  0  0  0  0  # atno 8010 bound_to 7997
  140.7229  143.5147  150.9706 H   0  0  0  0  0  0  0  0  0  0  0  0  # atno 10167 bound_to 10162
  157.2589  130.7152  149.6444 H   0  0  0  0  0  0  0  0  0  0  0  0  # atno 10718 bound_to 10713
  153.0378  135.5150  154.7539 H   0  0  0  0  0  0  0  0  0  0  0  0  # atno 10763 bound_to 10752
  154.6501  135.2924  155.0000 H   0  0  0  0  0  0  0  0  0  0  0  0  # atno 10764 bound_to 10752
  154.0887  135.6653  153.4901 H   0  0  0  0  0  0  0  0  0  0  0  0  # atno 10765 bound_to 10752
  141.0435  133.6770  156.2840 H   0  0  0  0  0  0  0  0  0  0  0  0  # atno 11005 bound_to 11000
  144.6771  140.2203  143.7367 LP  0  0  0  0  0  0  0  0  0  0  0  0  # atno 17320 bound_to 7965
  145.8364  139.2109  143.1853 LP  0  0  0  0  0  0  0  0  0  0  0  0  # atno 17321 bound_to 7965
  139.8862  143.7010  152.3151 LP  0  0  0  0  0  0  0  0  0  0  0  0  # atno 17342 bound_to 10162
  139.7310  144.7582  151.0803 LP  0  0  0  0  0  0  0  0  0  0  0  0  # atno 17343 bound_to 10162
  155.9664  130.4403  150.5296 LP  0  0  0  0  0  0  0  0  0  0  0  0  # atno 17370 bound_to 10713
  157.3196  131.0679  151.1941 LP  0  0  0  0  0  0  0  0  0  0  0  0  # atno 17371 bound_to 10713
  140.6190  134.5381  157.5545 LP  0  0  0  0  0  0  0  0  0  0  0  0  # atno 17394 bound_to 11000
  139.9294  134.7993  156.0975 LP  0  0  0  0  0  0  0  0  0  0  0  0  # atno 17395 bound_to 11000

$$$$
