AV-unprocessed.smi:2607|AV-procd|sdf|10199|dock10
  -GOLD-   2272014213D 1   1.00000     0.00000
 Structure written by MMmdl.
 22 23  0  0  0  0  0  0  0  0  1 V2000
  150.2924  139.6289  158.5924 C   0  0  0  0  0  0  0  0  0  0  0  0
  151.0694  140.4654  157.5575 C   0  0  2  0  0  0  0  0  0  0  0  0
  151.5528  141.8011  158.1454 C   0  0  0  0  0  0  0  0  0  0  0  0
  151.1615  143.0547  157.6095 C   0  0  0  0  0  0  0  0  0  0  0  0
  151.5888  144.2252  158.1332 N   0  0  0  0  0  0  0  0  0  0  0  0
  152.4112  144.1471  159.2017 C   0  0  0  0  0  0  0  0  0  0  0  0
  152.8024  142.9067  159.7456 C   0  0  0  0  0  0  0  0  0  0  0  0
  152.3750  141.7369  159.2228 N   0  0  0  0  0  0  0  0  0  0  0  0
  150.2664  140.6262  156.3513 N   0  0  0  0  0  0  0  0  0  0  0  0
  150.8516  140.1238  155.2564 C   0  0  0  0  0  0  0  0  0  0  0  0
  150.3996  140.1594  154.1146 O   0  0  0  0  0  0  0  0  0  0  0  0
  152.0069  139.5677  155.6290 N   0  0  0  0  0  0  0  0  0  0  0  0
  152.2246  139.6772  156.9383 C   0  0  0  0  0  0  0  0  0  0  0  0
  153.1809  139.2146  157.5587 O   0  0  0  0  0  0  0  0  0  0  0  0
  150.8955  139.4256  159.4782 H   0  0  0  0  0  0  0  0  0  0  0  0
  149.9819  138.6669  158.1816 H   0  0  0  0  0  0  0  0  0  0  0  0
  149.3931  140.1511  158.9208 H   0  0  0  0  0  0  0  0  0  0  0  0
  150.5031  143.1350  156.7578 H   0  0  0  0  0  0  0  0  0  0  0  0
  152.7577  145.0778  159.6260 H   0  0  0  0  0  0  0  0  0  0  0  0
  153.4590  142.8524  160.6012 H   0  0  0  0  0  0  0  0  0  0  0  0
  149.3757  141.1015  156.3495 H   0  0  0  0  0  0  0  0  0  0  0  0
  152.6351  139.0984  154.9931 H   0  0  0  0  0  0  0  0  0  0  0  0
  1  2  1  0  0  0  0
  1 15  1  0  0  0  0
  1 16  1  0  0  0  0
  1 17  1  0  0  0  0
  2 13  1  0  0  0  0
  2  3  1  0  0  0  0
  2  9  1  0  0  0  0
  3  8  1  0  0  0  0
  3  4  2  0  0  0  0
  4  5  1  0  0  0  0
  4 18  1  0  0  0  0
  5  6  2  0  0  0  0
  6  7  1  0  0  0  0
  6 19  1  0  0  0  0
  7  8  2  0  0  0  0
  7 20  1  0  0  0  0
  9 10  1  0  0  0  0
  9 21  1  0  0  0  0
 10 11  2  0  0  0  0
 10 12  1  0  0  0  0
 12 13  1  0  0  0  0
 12 22  1  0  0  0  0
 13 14  2  0  0  0  0
M  END
> <s_m_source_file>
AV-unprocessed.smi

> <i_m_source_file_index>
2607

> <i_lp_mmshare_version>
43012

> <i_f3d_flags>
0

> <s_epik_input>
Tz1DMVtOSF1DKD1PKVtOSF1bQ0BAXTEoW0NIM10pYzJbY0hdbltjSF1bY0hdbjI=

> <s_epik_cmdline>
J2VwaWtfcHl0aG9uJywgJy1waCcsICc3LjAnLCAnLXRuJywgJzgnLCAnLW1hJywgJzIwMCcsICctbWV0YWxfYmluZGluZycsICctaW1hZScsICc8aW5maWxlLm1hZT4nLCAnLW9tYWUnLCAnPG91dGZpbGUubWFlPic=

> <r_lp_tautomer_probability>
1

> <r_epik_Ionization_Penalty>
0.0333762

> <r_epik_Ionization_Penalty_Charging>
0

> <r_epik_Ionization_Penalty_Neutral>
0.0333762

> <r_epik_State_Penalty>
0.027503

> <r_epik_Charging_Adjusted_Penalty>
0.027503

> <i_epik_Tot_Q>
0

> <i_epik_Tot_abs_Q>
0

> <r_epik_Metal_State_Penalty>
0.445281

> <b_epik_Metal_Only>
0

> <s_lp_Force_Field>
OPLS_2005

> <r_lp_Energy>
24.1998

> <b_lp_Chiralities_Consistent>
1

> <s_lp_Variant>
AV-unprocessed.smi:2607-2

> <Gold.Version>
5.8.1

> <Gold.Id.Protein>
6NUR|6NUR_protein|mol2

> <Gold.PLP.Fitness>
32.1227

> <Gold.PLP.PLP>
-23.5779

> <Gold.PLP.part.hbond>
-1.8555

> <Gold.PLP.part.metal>
0.0000

> <Gold.PLP.part.buried>
-3.1977

> <Gold.PLP.part.nonpolar>
-18.8800

> <Gold.PLP.part.repulsive>
0.8881

> <Gold.PLP.ligand.clash>
0.0000

> <Gold.PLP.ligand.torsion>
0.0614

> <Gold.PLP.Chemscore.Hbond>
1.8500

> <Gold.PLP.Chemscore.CHOScore>
1.0000

> <Gold.PLP.Chemscore.Metal>
0.0000

> <Gold.Chemscore.Hbonds>
donor molecule, donor type, donor heavy atom, donor atom, acceptor molecule, acceptor atom, score
      P1  H  7989  7998       L1    11  0.80
      P1  H  7997  8008       L1    14  1.00
      L1  C     4    18       P1  8028  1.00

> <Gold.PLP.Chemscore.Internal.Correction>
0.1175

> <Gold.Rescore>
     Score         DG    S(hbond)    S(metal)    S(lipo)     H(rot)  DE(clash)    DE(int)     intcor
     12.27     -12.34       1.04        0.00      50.89       1.00       0.00       0.07       ----

> <Gold.Chemscore.Fitness>
12.2690

> <Gold.Chemscore.DG>
-12.3366

> <Gold.Chemscore.ZeroCoef>
-5.4800

> <Gold.Chemscore.Hbond>
1.0368

> <Gold.Chemscore.Metal>
0.0000

> <Gold.Chemscore.Lipo>
50.8878

> <Gold.Chemscore.Internal_Hbond>
0.0000

> <Gold.Chemscore.DEClash>
0.0021

> <Gold.Chemscore.DEInternal>
0.0656

> <Gold.Chemscore.Rot>
1.0000

> <Gold.Chemscore.Internal.Correction>
   9.000000E+99

> <Gold.Chemscore.Hbonds>
donor molecule, donor type, donor heavy atom, donor atom, acceptor molecule, acceptor atom, score
      P1  H  7989  7998       L1    11  0.11
      P1  H  7997  8008       L1    14  0.60

> <Gold.Chemscore.Hbond.Weighted>
-3.4628

> <Gold.Chemscore.Metal.Weighted>
-0.0000

> <Gold.Chemscore.Lipo.Weighted>
-5.9539

> <Gold.Chemscore.Internal_Hbond.Weighted>
0.0000

> <Gold.Chemscore.DEClash.Weighted>
0.0021

> <Gold.Chemscore.DEInternal.Weighted>
0.0656

> <Gold.Chemscore.Rot.Weighted>
2.5600

> <Gold.Chemscore.Internal.Correction.Weighted>
   9.000000E+99

> <Gold.Protein.RotatedTorsions>
[ 6907 6896 6895 6894 ] final   97.39 input  -60.11 | X-H torsion
[ 7974 7965 7964 7962 ] final  164.35 input  175.53 | X-H torsion
[ 8008 7997 7996 7995 ] final  -84.22 input   59.86 | X-H torsion
[ 10167 10162 10161 10158 ] final  -19.79 input  -65.29 | X-H torsion
[ 10718 10713 10712 10709 ] final   -8.72 input   66.30 | X-H torsion
[ 10763 10752 10751 10750 ] final -125.34 input  -60.55 | X-H torsion
[ 11005 11000 10999 10996 ] final  153.91 input  -57.11 | X-H torsion

> <Gold.Protein.ActiveResidues>
 VAL166  LYS551  ARG553  GLY616  TRP617  ASP618  TYR619  PRO620  LYS621  CYS622 
 ASP623  PHE694  ASN695  SER759  ASP760  ASP761  ALA762  ILE779  LEU786  VAL792 
 PHE793  MET794  SER795  GLU796  ALA797  LYS798  CYS799  TRP800  GLU811  SER814 

> <Gold.Protein.RotatedAtoms>
  152.5424  134.0740  159.8206 H   0  0  0  0  0  0  0  0  0  0  0  0  # atno 6907 bound_to 6896
  151.0850  133.5352  159.2625 H   0  0  0  0  0  0  0  0  0  0  0  0  # atno 6908 bound_to 6896
  151.2165  135.0510  159.8986 H   0  0  0  0  0  0  0  0  0  0  0  0  # atno 6909 bound_to 6896
  144.7549  139.8313  143.6353 H   0  0  0  0  0  0  0  0  0  0  0  0  # atno 7974 bound_to 7965
  154.6275  140.0608  156.9691 H   0  0  0  0  0  0  0  0  0  0  0  0  # atno 8008 bound_to 7997
  155.1719  140.3291  155.4372 H   0  0  0  0  0  0  0  0  0  0  0  0  # atno 8009 bound_to 7997
  156.2465  140.1912  156.6820 H   0  0  0  0  0  0  0  0  0  0  0  0  # atno 8010 bound_to 7997
  140.7271  143.4785  151.0150 H   0  0  0  0  0  0  0  0  0  0  0  0  # atno 10167 bound_to 10162
  156.6985  130.5086  149.5923 H   0  0  0  0  0  0  0  0  0  0  0  0  # atno 10718 bound_to 10713
  154.8734  135.4033  154.3253 H   0  0  0  0  0  0  0  0  0  0  0  0  # atno 10763 bound_to 10752
  153.4075  135.7020  153.6388 H   0  0  0  0  0  0  0  0  0  0  0  0  # atno 10764 bound_to 10752
  153.5104  135.3708  155.2554 H   0  0  0  0  0  0  0  0  0  0  0  0  # atno 10765 bound_to 10752
  140.1441  134.8719  157.2370 H   0  0  0  0  0  0  0  0  0  0  0  0  # atno 11005 bound_to 11000
  146.1547  139.4641  143.0026 LP  0  0  0  0  0  0  0  0  0  0  0  0  # atno 17320 bound_to 7965
  145.6814  141.0190  143.1604 LP  0  0  0  0  0  0  0  0  0  0  0  0  # atno 17321 bound_to 7965
  139.8482  143.7474  152.3179 LP  0  0  0  0  0  0  0  0  0  0  0  0  # atno 17342 bound_to 10162
  139.7646  144.7496  151.0313 LP  0  0  0  0  0  0  0  0  0  0  0  0  # atno 17343 bound_to 10162
  156.1746  130.6459  151.0878 LP  0  0  0  0  0  0  0  0  0  0  0  0  # atno 17370 bound_to 10713
  157.6982  131.0786  150.6904 LP  0  0  0  0  0  0  0  0  0  0  0  0  # atno 17371 bound_to 10713
  140.2685  134.3487  155.7381 LP  0  0  0  0  0  0  0  0  0  0  0  0  # atno 17394 bound_to 11000
  141.2190  133.7410  156.9188 LP  0  0  0  0  0  0  0  0  0  0  0  0  # atno 17395 bound_to 11000

$$$$
