AV-unprocessed.smi:623|AV-procd|sdf|3098|dock6
  -GOLD-   22720 0 13D 1   1.00000     0.00000
 Structure written by MMmdl.
 44 46  0  0  0  0  0  0  0  0  2 V2000
  144.2700  134.2549  162.7599 C   0  0  0  0  0  0  0  0  0  0  0  0
  145.2472  135.3073  162.1642 C   0  0  0  0  0  0  0  0  0  0  0  0
  144.5956  136.6883  162.4540 C   0  0  0  0  0  0  0  0  0  0  0  0
  146.6991  135.1763  162.6671 C   0  0  1  0  0  0  0  0  0  0  0  0
  147.1428  133.7916  162.1464 C   0  0  0  0  0  0  0  0  0  0  0  0
  146.4170  133.6965  160.7902 C   0  0  0  0  0  0  0  0  0  0  0  0
  145.6868  135.0659  160.6941 C   0  0  1  0  0  0  0  0  0  0  0  0
  144.5624  135.0766  159.6448 C   0  0  0  0  0  0  0  0  0  0  0  0
  146.7567  136.1775  160.4664 C   0  0  2  0  0  0  0  0  0  0  0  0
  147.6757  135.8903  159.3658 N   0  0  0  0  0  0  0  0  0  0  0  0
  148.8493  136.5046  159.1579 C   0  0  0  0  0  0  0  0  0  0  0  0
  149.2894  137.3836  159.9003 O   0  0  0  0  0  0  0  0  0  0  0  0
  149.6490  136.0214  157.9399 C   0  0  0  0  0  0  0  0  0  0  0  0
  150.0434  137.1095  157.0307 N   0  0  0  0  0  0  0  0  0  0  0  0
  149.4504  138.3690  157.2263 C   0  0  0  0  0  0  0  0  0  0  0  0
  149.7455  139.4230  156.4419 C   0  0  0  0  0  0  0  0  0  0  0  0
  150.7095  139.2333  155.3652 C   0  0  0  0  0  0  0  0  0  0  0  0
  150.9948  140.1859  154.6422 O   0  0  0  0  0  0  0  0  0  0  0  0
  151.2542  137.9908  155.2126 N   0  5  0  0  0  0  0  0  0  0  0  0
  150.9414  136.9268  156.0159 C   0  0  0  0  0  0  0  0  0  0  0  0
  151.4414  135.8124  155.8579 O   0  0  0  0  0  0  0  0  0  0  0  0
  147.4677  136.2312  161.8412 C   0  0  0  0  0  0  0  0  0  0  0  0
  144.1300  134.4243  163.8279 H   0  0  0  0  0  0  0  0  0  0  0  0
  144.5842  133.2189  162.6547 H   0  0  0  0  0  0  0  0  0  0  0  0
  143.2875  134.3306  162.2935 H   0  0  0  0  0  0  0  0  0  0  0  0
  145.1601  137.5497  162.1049 H   0  0  0  0  0  0  0  0  0  0  0  0
  144.4572  136.8281  163.5267 H   0  0  0  0  0  0  0  0  0  0  0  0
  143.6098  136.7559  161.9930 H   0  0  0  0  0  0  0  0  0  0  0  0
  146.8271  135.2946  163.7435 H   0  0  0  0  0  0  0  0  0  0  0  0
  148.2257  133.7177  162.0389 H   0  0  0  0  0  0  0  0  0  0  0  0
  146.8332  132.9907  162.8180 H   0  0  0  0  0  0  0  0  0  0  0  0
  147.1053  133.5020  159.9683 H   0  0  0  0  0  0  0  0  0  0  0  0
  145.7106  132.8663  160.7862 H   0  0  0  0  0  0  0  0  0  0  0  0
  144.9586  134.8882  158.6468 H   0  0  0  0  0  0  0  0  0  0  0  0
  144.0516  136.0392  159.6198 H   0  0  0  0  0  0  0  0  0  0  0  0
  143.8166  134.3093  159.8528 H   0  0  0  0  0  0  0  0  0  0  0  0
  146.2708  137.1308  160.2530 H   0  0  0  0  0  0  0  0  0  0  0  0
  147.3899  135.1809  158.7068 H   0  0  0  0  0  0  0  0  0  0  0  0
  150.5321  135.4931  158.3017 H   0  0  0  0  0  0  0  0  0  0  0  0
  149.0690  135.2705  157.4000 H   0  0  0  0  0  0  0  0  0  0  0  0
  148.7426  138.4221  158.0406 H   0  0  0  0  0  0  0  0  0  0  0  0
  149.2783  140.3832  156.6038 H   0  0  0  0  0  0  0  0  0  0  0  0
  147.3860  137.2238  162.2844 H   0  0  0  0  0  0  0  0  0  0  0  0
  148.5330  136.0028  161.7834 H   0  0  0  0  0  0  0  0  0  0  0  0
  1  2  1  0  0  0  0
  1 23  1  0  0  0  0
  1 24  1  0  0  0  0
  1 25  1  0  0  0  0
  2  7  1  0  0  0  0
  2  3  1  0  0  0  0
  2  4  1  0  0  0  0
  3 26  1  0  0  0  0
  3 27  1  0  0  0  0
  3 28  1  0  0  0  0
  4 22  1  0  0  0  0
  4  5  1  0  0  0  0
  4 29  1  0  0  0  0
  5  6  1  0  0  0  0
  5 30  1  0  0  0  0
  5 31  1  0  0  0  0
  6  7  1  0  0  0  0
  6 32  1  0  0  0  0
  6 33  1  0  0  0  0
  7  8  1  0  0  0  0
  7  9  1  0  0  0  0
  8 34  1  0  0  0  0
  8 35  1  0  0  0  0
  8 36  1  0  0  0  0
  9 10  1  0  0  0  0
  9 22  1  0  0  0  0
  9 37  1  0  0  0  0
 10 11  1  0  0  0  0
 10 38  1  0  0  0  0
 11 12  2  0  0  0  0
 11 13  1  0  0  0  0
 13 14  1  0  0  0  0
 13 39  1  0  0  0  0
 13 40  1  0  0  0  0
 14 20  1  0  0  0  0
 14 15  1  0  0  0  0
 15 16  2  0  0  0  0
 15 41  1  0  0  0  0
 16 17  1  0  0  0  0
 16 42  1  0  0  0  0
 17 18  2  0  0  0  0
 17 19  1  0  0  0  0
 19 20  1  0  0  0  0
 20 21  2  0  0  0  0
 22 43  1  0  0  0  0
 22 44  1  0  0  0  0
M  CHG  1  19  -1
M  END
> <s_m_source_file>
AV-unprocessed.smi

> <i_m_source_file_index>
623

> <i_lp_mmshare_version>
43012

> <i_f3d_flags>
0

> <s_epik_input>
W0NIM11bQ0BdMTJDKFtDSDNdKShbQ0gzXSlbQ0BIXShbQ0gyXVtDSDJdMSlbQ0gyXVtDQEBIXTJbTkhdQyg9TylbQ0gyXW4zW2NIXVtjSF1jKD1PKVtuSF1jMz1P

> <s_epik_cmdline>
J2VwaWtfcHl0aG9uJywgJy1waCcsICc3LjAnLCAnLXRuJywgJzgnLCAnLW1hJywgJzIwMCcsICctbWV0YWxfYmluZGluZycsICctaW1hZScsICc8aW5maWxlLm1hZT4nLCAnLW9tYWUnLCAnPG91dGZpbGUubWFlPic=

> <r_lp_tautomer_probability>
0.999537

> <r_epik_Ionization_Penalty>
3.12624

> <r_epik_Ionization_Penalty_Charging>
3.01273e-08

> <r_epik_Ionization_Penalty_Neutral>
3.12624

> <r_epik_State_Penalty>
3.12534

> <r_epik_Charging_Adjusted_Penalty>
3.12534

> <i_epik_Tot_Q>
-1

> <i_epik_Tot_abs_Q>
1

> <r_epik_Metal_State_Penalty>
0.46406

> <b_epik_Metal_Only>
1

> <s_lp_Force_Field>
OPLS_2005

> <r_lp_Energy>
65.8638

> <b_lp_Chiralities_Consistent>
1

> <s_lp_Variant>
AV-unprocessed.smi:623-8

> <Gold.Version>
5.8.1

> <Gold.Id.Protein>
6NUR|6NUR_protein|mol2

> <Gold.PLP.Fitness>
37.1764

> <Gold.PLP.PLP>
-31.2756

> <Gold.PLP.part.hbond>
-3.2493

> <Gold.PLP.part.metal>
0.0000

> <Gold.PLP.part.buried>
-5.4429

> <Gold.PLP.part.nonpolar>
-23.7585

> <Gold.PLP.part.repulsive>
0.3387

> <Gold.PLP.ligand.clash>
0.0000

> <Gold.PLP.ligand.torsion>
0.3276

> <Gold.PLP.Chemscore.Hbond>
2.1812

> <Gold.PLP.Chemscore.CHOScore>
0.0000

> <Gold.PLP.Chemscore.Metal>
0.0000

> <Gold.Chemscore.Hbonds>
donor molecule, donor type, donor heavy atom, donor atom, acceptor molecule, acceptor atom, score
      P1  H  6931  6943       L1    12  0.20
      P1  H  7989  7998       L1    18  0.86
      P1  H 10752 10764       L1    21  1.00

> <Gold.PLP.Chemscore.Internal.Correction>
0.0123

> <Gold.Rescore>
     Score         DG    S(hbond)    S(metal)    S(lipo)     H(rot)  DE(clash)    DE(int)     intcor
     14.87     -18.31       2.40        0.00      76.72       1.63       0.37       3.07       ----

> <Gold.Chemscore.Fitness>
14.8723

> <Gold.Chemscore.DG>
-18.3092

> <Gold.Chemscore.ZeroCoef>
-5.4800

> <Gold.Chemscore.Hbond>
2.4045

> <Gold.Chemscore.Metal>
0.0000

> <Gold.Chemscore.Lipo>
76.7224

> <Gold.Chemscore.Internal_Hbond>
0.0000

> <Gold.Chemscore.DEClash>
0.3659

> <Gold.Chemscore.DEInternal>
3.0709

> <Gold.Chemscore.Rot>
1.6322

> <Gold.Chemscore.Internal.Correction>
   9.000000E+99

> <Gold.Chemscore.Hbonds>
donor molecule, donor type, donor heavy atom, donor atom, acceptor molecule, acceptor atom, score
      P1  H  6931  6943       L1    12  0.20
      P1  H  7989  7998       L1    18  0.84
      P1  H 10752 10764       L1    21  0.97

> <Gold.Chemscore.Hbond.Weighted>
-8.0309

> <Gold.Chemscore.Metal.Weighted>
-0.0000

> <Gold.Chemscore.Lipo.Weighted>
-8.9765

> <Gold.Chemscore.Internal_Hbond.Weighted>
0.0000

> <Gold.Chemscore.DEClash.Weighted>
0.3659

> <Gold.Chemscore.DEInternal.Weighted>
3.0709

> <Gold.Chemscore.Rot.Weighted>
4.1783

> <Gold.Chemscore.Internal.Correction.Weighted>
   9.000000E+99

> <Gold.Protein.RotatedTorsions>
[ 6907 6896 6895 6894 ] final  -45.77 input  -60.11 | X-H torsion
[ 7974 7965 7964 7962 ] final   79.29 input  175.53 | X-H torsion
[ 8008 7997 7996 7995 ] final  110.74 input   59.86 | X-H torsion
[ 10167 10162 10161 10158 ] final -124.20 input  -65.29 | X-H torsion
[ 10718 10713 10712 10709 ] final  131.90 input   66.30 | X-H torsion
[ 10763 10752 10751 10750 ] final  -23.13 input  -60.55 | X-H torsion
[ 11005 11000 10999 10996 ] final  -77.36 input  -57.11 | X-H torsion

> <Gold.Protein.ActiveResidues>
 VAL166  LYS551  ARG553  GLY616  TRP617  ASP618  TYR619  PRO620  LYS621  CYS622 
 ASP623  PHE694  ASN695  SER759  ASP760  ASP761  ALA762  ILE779  LEU786  VAL792 
 PHE793  MET794  SER795  GLU796  ALA797  LYS798  CYS799  TRP800  GLU811  SER814 

> <Gold.Protein.RotatedAtoms>
  150.9183  134.8601  159.7471 H   0  0  0  0  0  0  0  0  0  0  0  0  # atno 6907 bound_to 6896
  152.4980  134.4256  159.9505 H   0  0  0  0  0  0  0  0  0  0  0  0  # atno 6908 bound_to 6896
  151.4292  133.3636  159.2801 H   0  0  0  0  0  0  0  0  0  0  0  0  # atno 6909 bound_to 6896
  145.6661  139.2484  143.1895 H   0  0  0  0  0  0  0  0  0  0  0  0  # atno 7974 bound_to 7965
  156.2074  140.3033  155.9658 H   0  0  0  0  0  0  0  0  0  0  0  0  # atno 8008 bound_to 7997
  155.2807  140.0437  157.3032 H   0  0  0  0  0  0  0  0  0  0  0  0  # atno 8009 bound_to 7997
  154.5652  140.2332  155.8283 H   0  0  0  0  0  0  0  0  0  0  0  0  # atno 8010 bound_to 7997
  139.9953  143.5597  152.2325 H   0  0  0  0  0  0  0  0  0  0  0  0  # atno 10167 bound_to 10162
  157.4923  131.1091  150.9540 H   0  0  0  0  0  0  0  0  0  0  0  0  # atno 10718 bound_to 10713
  153.6629  135.6975  153.5171 H   0  0  0  0  0  0  0  0  0  0  0  0  # atno 10763 bound_to 10752
  153.2617  135.4242  155.0900 H   0  0  0  0  0  0  0  0  0  0  0  0  # atno 10764 bound_to 10752
  154.8447  135.3556  154.6174 H   0  0  0  0  0  0  0  0  0  0  0  0  # atno 10765 bound_to 10752
  141.1660  133.7019  156.7808 H   0  0  0  0  0  0  0  0  0  0  0  0  # atno 11005 bound_to 11000
  146.1084  140.7458  142.9515 LP  0  0  0  0  0  0  0  0  0  0  0  0  # atno 17320 bound_to 7965
  144.7072  140.3900  143.7108 LP  0  0  0  0  0  0  0  0  0  0  0  0  # atno 17321 bound_to 7965
  139.6310  144.7644  151.2536 LP  0  0  0  0  0  0  0  0  0  0  0  0  # atno 17342 bound_to 10162
  140.7439  143.6479  150.8275 LP  0  0  0  0  0  0  0  0  0  0  0  0  # atno 17343 bound_to 10162
  157.0238  130.5684  149.5334 LP  0  0  0  0  0  0  0  0  0  0  0  0  # atno 17370 bound_to 10713
  156.0180  130.5275  150.8193 LP  0  0  0  0  0  0  0  0  0  0  0  0  # atno 17371 bound_to 10713
  140.2396  134.8624  157.3559 LP  0  0  0  0  0  0  0  0  0  0  0  0  # atno 17394 bound_to 11000
  140.1810  134.4490  155.7772 LP  0  0  0  0  0  0  0  0  0  0  0  0  # atno 17395 bound_to 11000

$$$$
