AV-unprocessed.smi:662|AV-procd|sdf|3244|dock9
  -GOLD-   22720 0193D 1   1.00000     0.00000
 Structure written by MMmdl.
 34 35  0  0  0  0  0  0  0  0  2 V2000
  151.1522  141.0861  157.4888 O   0  0  0  0  0  0  0  0  0  0  0  0
  150.7421  141.8595  156.6224 C   0  0  0  0  0  0  0  0  0  0  0  0
  150.9317  143.1872  156.6723 N   0  0  0  0  0  0  0  0  0  0  0  0
  151.6353  143.8887  157.7401 C   0  0  0  0  0  0  0  0  0  0  0  0
  150.7952  143.9473  159.0260 C   0  0  0  0  0  0  0  0  0  0  0  0
  151.4655  143.2705  160.1738 C   0  0  0  0  0  0  0  0  0  0  0  0
  151.9232  142.0173  160.1211 N   0  0  0  0  0  0  0  0  0  0  0  0
  152.4824  141.5928  161.3314 C   0  0  0  0  0  0  0  0  0  0  0  0
  153.0575  140.2102  161.4425 C   0  0  0  0  0  0  0  0  0  0  0  0
  152.5190  139.5346  162.4579 F   0  0  0  0  0  0  0  0  0  0  0  0
  152.8376  139.5076  160.3317 F   0  0  0  0  0  0  0  0  0  0  0  0
  154.3744  140.2524  161.6428 F   0  0  0  0  0  0  0  0  0  0  0  0
  152.4248  142.5516  162.3140 C   0  0  0  0  0  0  0  0  0  0  0  0
  151.6680  144.0174  161.7534 S   0  0  0  0  0  0  0  0  0  0  0  0
  149.9874  141.3250  155.4000 C   0  0  1  0  0  0  0  0  0  0  0  0
  148.6791  140.6378  155.8132 C   0  0  0  0  0  0  0  0  0  0  0  0
  147.8010  140.7882  154.5801 C   0  0  0  0  0  0  0  0  0  0  0  0
  148.2183  142.1407  154.0001 C   0  0  0  0  0  0  0  0  0  0  0  0
  149.5886  142.4142  154.4817 N   0  3  0  0  0  0  0  0  0  0  0  0
  150.5680  143.7526  155.9184 H   0  0  0  0  0  0  0  0  0  0  0  0
  152.5726  143.3656  157.9323 H   0  0  0  0  0  0  0  0  0  0  0  0
  151.9043  144.8946  157.4125 H   0  0  0  0  0  0  0  0  0  0  0  0
  150.5963  144.9834  159.3040 H   0  0  0  0  0  0  0  0  0  0  0  0
  149.8249  143.4770  158.8636 H   0  0  0  0  0  0  0  0  0  0  0  0
  152.7790  142.4826  163.3318 H   0  0  0  0  0  0  0  0  0  0  0  0
  150.6158  140.6293  154.8414 H   0  0  0  0  0  0  0  0  0  0  0  0
  148.8227  139.5946  156.0971 H   0  0  0  0  0  0  0  0  0  0  0  0
  148.2117  141.1521  156.6554 H   0  0  0  0  0  0  0  0  0  0  0  0
  148.0342  139.9954  153.8678 H   0  0  0  0  0  0  0  0  0  0  0  0
  146.7355  140.7325  154.8053 H   0  0  0  0  0  0  0  0  0  0  0  0
  148.1747  142.1480  152.9106 H   0  0  0  0  0  0  0  0  0  0  0  0
  147.5627  142.9313  154.3669 H   0  0  0  0  0  0  0  0  0  0  0  0
  149.5849  143.2840  154.9965 H   0  0  0  0  0  0  0  0  0  0  0  0
  150.2398  142.4732  153.7122 H   0  0  0  0  0  0  0  0  0  0  0  0
  1  2  2  0  0  0  0
  2  3  1  0  0  0  0
  2 15  1  0  0  0  0
  3  4  1  0  0  0  0
  3 20  1  0  0  0  0
  4  5  1  0  0  0  0
  4 21  1  0  0  0  0
  4 22  1  0  0  0  0
  5  6  1  0  0  0  0
  5 23  1  0  0  0  0
  5 24  1  0  0  0  0
  6 14  1  0  0  0  0
  6  7  2  0  0  0  0
  7  8  1  0  0  0  0
  8  9  1  0  0  0  0
  8 13  2  0  0  0  0
  9 10  1  0  0  0  0
  9 11  1  0  0  0  0
  9 12  1  0  0  0  0
 13 14  1  0  0  0  0
 13 25  1  0  0  0  0
 15 19  1  0  0  0  0
 15 16  1  0  0  0  0
 15 26  1  0  0  0  0
 16 17  1  0  0  0  0
 16 27  1  0  0  0  0
 16 28  1  0  0  0  0
 17 18  1  0  0  0  0
 17 29  1  0  0  0  0
 17 30  1  0  0  0  0
 18 19  1  0  0  0  0
 18 31  1  0  0  0  0
 18 32  1  0  0  0  0
 19 33  1  0  0  0  0
 19 34  1  0  0  0  0
M  CHG  1  19   1
M  END
> <s_m_source_file>
AV-unprocessed.smi

> <i_m_source_file_index>
662

> <i_lp_mmshare_version>
43012

> <i_f3d_flags>
0

> <s_epik_input>
W05IXTFbQ0gyXVtDSDJdW0NIMl1bQ0BIXTFDKD1PKVtOSF1bQ0gyXVtDSDJdYzJuYyhDKEYpKEYpRilbY0hdczI=

> <s_epik_cmdline>
J2VwaWtfcHl0aG9uJywgJy1waCcsICc3LjAnLCAnLXRuJywgJzgnLCAnLW1hJywgJzIwMCcsICctbWV0YWxfYmluZGluZycsICctaW1hZScsICc8aW5maWxlLm1hZT4nLCAnLW9tYWUnLCAnPG91dGZpbGUubWFlPic=

> <r_epik_Ionization_Penalty>
0.0382401

> <r_epik_Ionization_Penalty_Charging>
0.0382382

> <r_epik_Ionization_Penalty_Neutral>
1.85239e-06

> <r_epik_State_Penalty>
0.0320549

> <r_epik_Charging_Adjusted_Penalty>
0.0702931

> <i_epik_Tot_Q>
1

> <i_epik_Tot_abs_Q>
1

> <r_epik_Metal_State_Penalty>
0.0320549

> <b_epik_Metal_Only>
0

> <s_lp_Force_Field>
OPLS_2005

> <r_lp_Energy>
5.09297

> <b_lp_Chiralities_Consistent>
1

> <s_lp_Variant>
AV-unprocessed.smi:662-2

> <Gold.Version>
5.8.1

> <Gold.Id.Protein>
6NUR|6NUR_protein|mol2

> <Gold.PLP.Fitness>
48.3016

> <Gold.PLP.PLP>
-40.5197

> <Gold.PLP.part.hbond>
-2.0000

> <Gold.PLP.part.metal>
0.0000

> <Gold.PLP.part.buried>
-4.4921

> <Gold.PLP.part.nonpolar>
-33.5966

> <Gold.PLP.part.repulsive>
1.5416

> <Gold.PLP.ligand.clash>
0.0000

> <Gold.PLP.ligand.torsion>
0.6223

> <Gold.PLP.Chemscore.Hbond>
3.0000

> <Gold.PLP.Chemscore.CHOScore>
0.0000

> <Gold.PLP.Chemscore.Metal>
0.0000

> <Gold.Chemscore.Hbonds>
donor molecule, donor type, donor heavy atom, donor atom, acceptor molecule, acceptor atom, score
      L1  H     3    20       P1  8028  0.67
      L1  H    19    33       P1  8028  2.00

> <Gold.PLP.Chemscore.Internal.Correction>
0.0266

> <Gold.Rescore>
     Score         DG    S(hbond)    S(metal)    S(lipo)     H(rot)  DE(clash)    DE(int)     intcor
     16.28     -17.64       1.97        0.00      90.86       1.97       0.08       1.28       ----

> <Gold.Chemscore.Fitness>
16.2796

> <Gold.Chemscore.DG>
-17.6382

> <Gold.Chemscore.ZeroCoef>
-5.4800

> <Gold.Chemscore.Hbond>
1.9672

> <Gold.Chemscore.Metal>
0.0000

> <Gold.Chemscore.Lipo>
90.8576

> <Gold.Chemscore.Internal_Hbond>
0.0000

> <Gold.Chemscore.DEClash>
0.0778

> <Gold.Chemscore.DEInternal>
1.2808

> <Gold.Chemscore.Rot>
1.9697

> <Gold.Chemscore.Internal.Correction>
   9.000000E+99

> <Gold.Chemscore.Hbonds>
donor molecule, donor type, donor heavy atom, donor atom, acceptor molecule, acceptor atom, score
      L1  H     3    20       P1  8028  0.67
      L1  H    19    33       P1  8028  0.98

> <Gold.Chemscore.Hbond.Weighted>
-6.5703

> <Gold.Chemscore.Metal.Weighted>
-0.0000

> <Gold.Chemscore.Lipo.Weighted>
-10.6303

> <Gold.Chemscore.Internal_Hbond.Weighted>
0.0000

> <Gold.Chemscore.DEClash.Weighted>
0.0778

> <Gold.Chemscore.DEInternal.Weighted>
1.2808

> <Gold.Chemscore.Rot.Weighted>
5.0424

> <Gold.Chemscore.Internal.Correction.Weighted>
   9.000000E+99

> <Gold.Protein.RotatedTorsions>
[ 6907 6896 6895 6894 ] final   43.04 input  -60.11 | X-H torsion
[ 7974 7965 7964 7962 ] final   23.93 input  175.53 | X-H torsion
[ 8008 7997 7996 7995 ] final   26.59 input   59.86 | X-H torsion
[ 10167 10162 10161 10158 ] final -133.46 input  -65.29 | X-H torsion
[ 10718 10713 10712 10709 ] final -175.47 input   66.30 | X-H torsion
[ 10763 10752 10751 10750 ] final  -86.45 input  -60.55 | X-H torsion
[ 11005 11000 10999 10996 ] final   87.82 input  -57.11 | X-H torsion

> <Gold.Protein.ActiveResidues>
 VAL166  LYS551  ARG553  GLY616  TRP617  ASP618  TYR619  PRO620  LYS621  CYS622 
 ASP623  PHE694  ASN695  SER759  ASP760  ASP761  ALA762  ILE779  LEU786  VAL792 
 PHE793  MET794  SER795  GLU796  ALA797  LYS798  CYS799  TRP800  GLU811  SER814 

> <Gold.Protein.RotatedAtoms>
  152.2154  134.8463  160.0492 H   0  0  0  0  0  0  0  0  0  0  0  0  # atno 6907 bound_to 6896
  151.9266  133.3594  159.3924 H   0  0  0  0  0  0  0  0  0  0  0  0  # atno 6908 bound_to 6896
  150.6986  134.4506  159.5378 H   0  0  0  0  0  0  0  0  0  0  0  0  # atno 6909 bound_to 6896
  146.1961  139.7676  142.8796 H   0  0  0  0  0  0  0  0  0  0  0  0  # atno 7974 bound_to 7965
  155.0296  140.3157  155.4763 H   0  0  0  0  0  0  0  0  0  0  0  0  # atno 8008 bound_to 7997
  156.2876  140.2182  156.5359 H   0  0  0  0  0  0  0  0  0  0  0  0  # atno 8009 bound_to 7997
  154.7382  140.0476  157.0775 H   0  0  0  0  0  0  0  0  0  0  0  0  # atno 8010 bound_to 7997
  139.8981  143.6641  152.2600 H   0  0  0  0  0  0  0  0  0  0  0  0  # atno 10167 bound_to 10162
  156.8004  130.9550  151.3119 H   0  0  0  0  0  0  0  0  0  0  0  0  # atno 10718 bound_to 10713
  154.6226  135.5449  153.7591 H   0  0  0  0  0  0  0  0  0  0  0  0  # atno 10763 bound_to 10752
  153.0245  135.6416  154.1419 H   0  0  0  0  0  0  0  0  0  0  0  0  # atno 10764 bound_to 10752
  154.1352  135.2911  155.3155 H   0  0  0  0  0  0  0  0  0  0  0  0  # atno 10765 bound_to 10752
  139.8910  134.8447  156.2914 H   0  0  0  0  0  0  0  0  0  0  0  0  # atno 11005 bound_to 11000
  145.3637  141.0330  143.3270 LP  0  0  0  0  0  0  0  0  0  0  0  0  # atno 17320 bound_to 7965
  144.8584  139.5214  143.6823 LP  0  0  0  0  0  0  0  0  0  0  0  0  # atno 17321 bound_to 7965
  139.7050  144.7629  151.1209 LP  0  0  0  0  0  0  0  0  0  0  0  0  # atno 17342 bound_to 10162
  140.7713  143.5407  150.9316 LP  0  0  0  0  0  0  0  0  0  0  0  0  # atno 17343 bound_to 10162
  157.6557  130.8922  149.9723 LP  0  0  0  0  0  0  0  0  0  0  0  0  # atno 17370 bound_to 10713
  156.1105  130.3650  150.0058 LP  0  0  0  0  0  0  0  0  0  0  0  0  # atno 17371 bound_to 10713
  140.9974  133.7172  156.0907 LP  0  0  0  0  0  0  0  0  0  0  0  0  # atno 17394 bound_to 11000
  140.7544  134.4009  157.5536 LP  0  0  0  0  0  0  0  0  0  0  0  0  # atno 17395 bound_to 11000

$$$$
