AV-unprocessed.smi:2752|AV-procd|sdf|10606|dock4
  -GOLD-   2272015 53D 1   1.00000     0.00000
 Structure written by MMmdl.
 34 35  0  0  0  0  0  0  0  0  1 V2000
  146.7270  139.5754  157.3666 C   0  0  0  0  0  0  0  0  0  0  0  0
  147.5448  140.5287  156.7075 O   0  0  0  0  0  0  0  0  0  0  0  0
  148.2538  140.0019  155.5889 C   0  0  1  0  0  0  0  0  0  0  0  0
  147.2470  139.5954  154.5073 C   0  0  0  0  0  0  0  0  0  0  0  0
  146.9103  140.9057  153.8009 C   0  0  0  0  0  0  0  0  0  0  0  0
  148.2251  141.6906  153.7849 C   0  0  0  0  0  0  0  0  0  0  0  0
  149.0928  141.1155  154.9218 C   0  0  1  0  0  0  0  0  0  0  0  0
  149.5044  142.1601  155.8574 N   0  0  0  0  0  0  0  0  0  0  0  0
  150.1702  141.9424  157.0004 C   0  0  0  0  0  0  0  0  0  0  0  0
  150.5234  140.8242  157.3763 O   0  0  0  0  0  0  0  0  0  0  0  0
  150.3858  143.0915  157.6643 N   0  0  0  0  0  0  0  0  0  0  0  0
  151.0531  143.2769  158.9043 C   0  0  0  0  0  0  0  0  0  0  0  0
  151.9772  142.2625  159.2439 C   0  0  0  0  0  0  0  0  0  0  0  0
  152.6911  142.3521  160.4549 C   0  0  0  0  0  0  0  0  0  0  0  0
  152.4605  143.4560  161.2949 C   0  0  0  0  0  0  0  0  0  0  0  0
  153.1230  143.5853  162.4687 F   0  0  0  0  0  0  0  0  0  0  0  0
  151.5238  144.4222  160.8837 C   0  0  0  0  0  0  0  0  0  0  0  0
  150.8392  144.3373  159.7235 N   0  0  0  0  0  0  0  0  0  0  0  0
  146.1996  140.0564  158.1902 H   0  0  0  0  0  0  0  0  0  0  0  0
  147.3291  138.7670  157.7828 H   0  0  0  0  0  0  0  0  0  0  0  0
  145.9821  139.1467  156.6961 H   0  0  0  0  0  0  0  0  0  0  0  0
  148.8939  139.1714  155.8929 H   0  0  0  0  0  0  0  0  0  0  0  0
  147.7267  138.9165  153.8012 H   0  0  0  0  0  0  0  0  0  0  0  0
  146.3634  139.0908  154.8978 H   0  0  0  0  0  0  0  0  0  0  0  0
  146.5035  140.7504  152.8013 H   0  0  0  0  0  0  0  0  0  0  0  0
  146.1648  141.4506  154.3816 H   0  0  0  0  0  0  0  0  0  0  0  0
  148.7325  141.5448  152.8307 H   0  0  0  0  0  0  0  0  0  0  0  0
  148.0413  142.7609  153.8880 H   0  0  0  0  0  0  0  0  0  0  0  0
  149.9807  140.6684  154.4704 H   0  0  0  0  0  0  0  0  0  0  0  0
  149.2449  143.1074  155.6256 H   0  0  0  0  0  0  0  0  0  0  0  0
  150.0295  143.9313  157.2328 H   0  0  0  0  0  0  0  0  0  0  0  0
  152.1412  141.4217  158.5856 H   0  0  0  0  0  0  0  0  0  0  0  0
  153.4017  141.5880  160.7326 H   0  0  0  0  0  0  0  0  0  0  0  0
  151.3183  145.2846  161.5005 H   0  0  0  0  0  0  0  0  0  0  0  0
  1  2  1  0  0  0  0
  1 19  1  0  0  0  0
  1 20  1  0  0  0  0
  1 21  1  0  0  0  0
  2  3  1  0  0  0  0
  3  7  1  0  0  0  0
  3  4  1  0  0  0  0
  3 22  1  0  0  0  0
  4  5  1  0  0  0  0
  4 23  1  0  0  0  0
  4 24  1  0  0  0  0
  5  6  1  0  0  0  0
  5 25  1  0  0  0  0
  5 26  1  0  0  0  0
  6  7  1  0  0  0  0
  6 27  1  0  0  0  0
  6 28  1  0  0  0  0
  7  8  1  0  0  0  0
  7 29  1  0  0  0  0
  8  9  1  0  0  0  0
  8 30  1  0  0  0  0
  9 10  2  0  0  0  0
  9 11  1  0  0  0  0
 11 12  1  0  0  0  0
 11 31  1  0  0  0  0
 12 18  1  0  0  0  0
 12 13  2  0  0  0  0
 13 14  1  0  0  0  0
 13 32  1  0  0  0  0
 14 15  2  0  0  0  0
 14 33  1  0  0  0  0
 15 16  1  0  0  0  0
 15 17  1  0  0  0  0
 17 18  2  0  0  0  0
 17 34  1  0  0  0  0
M  END
> <s_m_source_file>
AV-unprocessed.smi

> <i_m_source_file_index>
2752

> <i_lp_mmshare_version>
43012

> <i_f3d_flags>
0

> <s_epik_input>
W0NIM11PW0NAQEhdMVtDSDJdW0NIMl1bQ0gyXVtDQEhdMVtOSF1DKD1PKVtOSF1jMltjSF1bY0hdYyhGKVtjSF1uMg==

> <s_epik_cmdline>
J2VwaWtfcHl0aG9uJywgJy1waCcsICc3LjAnLCAnLXRuJywgJzgnLCAnLW1hJywgJzIwMCcsICctbWV0YWxfYmluZGluZycsICctaW1hZScsICc8aW5maWxlLm1hZT4nLCAnLW9tYWUnLCAnPG91dGZpbGUubWFlPic=

> <r_lp_tautomer_probability>
1

> <r_epik_Ionization_Penalty>
3.49853e-05

> <r_epik_Ionization_Penalty_Charging>
0

> <r_epik_Ionization_Penalty_Neutral>
3.49853e-05

> <r_epik_State_Penalty>
-0

> <r_epik_Charging_Adjusted_Penalty>
0

> <i_epik_Tot_Q>
0

> <i_epik_Tot_abs_Q>
0

> <r_epik_Metal_State_Penalty>
-0

> <b_epik_Metal_Only>
0

> <s_lp_Force_Field>
OPLS_2005

> <r_lp_Energy>
23.7986

> <b_lp_Chiralities_Consistent>
1

> <s_lp_Variant>
AV-unprocessed.smi:2752-2

> <Gold.Version>
5.8.1

> <Gold.Id.Protein>
6NUR|6NUR_protein|mol2

> <Gold.PLP.Fitness>
36.6749

> <Gold.PLP.PLP>
-31.5019

> <Gold.PLP.part.hbond>
-2.0000

> <Gold.PLP.part.metal>
0.0000

> <Gold.PLP.part.buried>
-4.6386

> <Gold.PLP.part.nonpolar>
-24.8576

> <Gold.PLP.part.repulsive>
0.3122

> <Gold.PLP.ligand.clash>
0.0000

> <Gold.PLP.ligand.torsion>
0.1621

> <Gold.PLP.Chemscore.Hbond>
1.8284

> <Gold.PLP.Chemscore.CHOScore>
0.0000

> <Gold.PLP.Chemscore.Metal>
0.0000

> <Gold.Chemscore.Hbonds>
donor molecule, donor type, donor heavy atom, donor atom, acceptor molecule, acceptor atom, score
      L1  H     8    30       P1  8028  1.00
      L1  H    11    31       P1  8028  0.83

> <Gold.PLP.Chemscore.Internal.Correction>
0.0120

> <Gold.Rescore>
     Score         DG    S(hbond)    S(metal)    S(lipo)     H(rot)  DE(clash)    DE(int)     intcor
     13.35     -16.63       1.90        0.00      69.02       1.28       1.72       1.56       ----

> <Gold.Chemscore.Fitness>
13.3493

> <Gold.Chemscore.DG>
-16.6253

> <Gold.Chemscore.ZeroCoef>
-5.4800

> <Gold.Chemscore.Hbond>
1.9019

> <Gold.Chemscore.Metal>
0.0000

> <Gold.Chemscore.Lipo>
69.0179

> <Gold.Chemscore.Internal_Hbond>
0.0000

> <Gold.Chemscore.DEClash>
1.7176

> <Gold.Chemscore.DEInternal>
1.5584

> <Gold.Chemscore.Rot>
1.2821

> <Gold.Chemscore.Internal.Correction>
   9.000000E+99

> <Gold.Chemscore.Hbonds>
donor molecule, donor type, donor heavy atom, donor atom, acceptor molecule, acceptor atom, score
      L1  H     8    30       P1  8028  1.00
      L1  H    11    31       P1  8028  0.66

> <Gold.Chemscore.Hbond.Weighted>
-6.3524

> <Gold.Chemscore.Metal.Weighted>
-0.0000

> <Gold.Chemscore.Lipo.Weighted>
-8.0751

> <Gold.Chemscore.Internal_Hbond.Weighted>
0.0000

> <Gold.Chemscore.DEClash.Weighted>
1.7176

> <Gold.Chemscore.DEInternal.Weighted>
1.5584

> <Gold.Chemscore.Rot.Weighted>
3.2822

> <Gold.Chemscore.Internal.Correction.Weighted>
   9.000000E+99

> <Gold.Protein.RotatedTorsions>
[ 6907 6896 6895 6894 ] final  -96.79 input  -60.11 | X-H torsion
[ 7974 7965 7964 7962 ] final   73.11 input  175.53 | X-H torsion
[ 8008 7997 7996 7995 ] final -119.34 input   59.86 | X-H torsion
[ 10167 10162 10161 10158 ] final   99.35 input  -65.29 | X-H torsion
[ 10718 10713 10712 10709 ] final -145.17 input   66.30 | X-H torsion
[ 10763 10752 10751 10750 ] final  -55.40 input  -60.55 | X-H torsion
[ 11005 11000 10999 10996 ] final -122.71 input  -57.11 | X-H torsion

> <Gold.Protein.ActiveResidues>
 VAL166  LYS551  ARG553  GLY616  TRP617  ASP618  TYR619  PRO620  LYS621  CYS622 
 ASP623  PHE694  ASN695  SER759  ASP760  ASP761  ALA762  ILE779  LEU786  VAL792 
 PHE793  MET794  SER795  GLU796  ALA797  LYS798  CYS799  TRP800  GLU811  SER814 

> <Gold.Protein.RotatedAtoms>
  150.6998  134.1449  159.4118 H   0  0  0  0  0  0  0  0  0  0  0  0  # atno 6907 bound_to 6896
  151.9432  135.0201  160.0546 H   0  0  0  0  0  0  0  0  0  0  0  0  # atno 6908 bound_to 6896
  152.2075  133.4851  159.5129 H   0  0  0  0  0  0  0  0  0  0  0  0  # atno 6909 bound_to 6896
  145.7450  139.2736  143.1464 H   0  0  0  0  0  0  0  0  0  0  0  0  # atno 7974 bound_to 7965
  155.1141  140.0397  157.2732 H   0  0  0  0  0  0  0  0  0  0  0  0  # atno 8008 bound_to 7997
  154.6663  140.2602  155.7029 H   0  0  0  0  0  0  0  0  0  0  0  0  # atno 8009 bound_to 7997
  156.2640  140.2806  156.1155 H   0  0  0  0  0  0  0  0  0  0  0  0  # atno 8010 bound_to 7997
  139.7626  144.6949  151.0271 H   0  0  0  0  0  0  0  0  0  0  0  0  # atno 10167 bound_to 10162
  156.3791  130.7828  151.2018 H   0  0  0  0  0  0  0  0  0  0  0  0  # atno 10718 bound_to 10713
  154.1902  135.6428  153.5058 H   0  0  0  0  0  0  0  0  0  0  0  0  # atno 10763 bound_to 10752
  153.0037  135.5427  154.6423 H   0  0  0  0  0  0  0  0  0  0  0  0  # atno 10764 bound_to 10752
  154.5809  135.2925  155.0706 H   0  0  0  0  0  0  0  0  0  0  0  0  # atno 10765 bound_to 10752
  140.9974  134.0452  157.3580 H   0  0  0  0  0  0  0  0  0  0  0  0  # atno 11005 bound_to 11000
  146.0411  140.8163  142.9828 LP  0  0  0  0  0  0  0  0  0  0  0  0  # atno 17320 bound_to 7965
  144.6862  140.2912  143.7277 LP  0  0  0  0  0  0  0  0  0  0  0  0  # atno 17321 bound_to 7965
  140.7808  143.4680  151.0185 LP  0  0  0  0  0  0  0  0  0  0  0  0  # atno 17342 bound_to 10162
  139.8366  143.7620  152.3180 LP  0  0  0  0  0  0  0  0  0  0  0  0  # atno 17343 bound_to 10162
  157.7491  131.0349  150.4340 LP  0  0  0  0  0  0  0  0  0  0  0  0  # atno 17370 bound_to 10713
  156.4580  130.4026  149.6594 LP  0  0  0  0  0  0  0  0  0  0  0  0  # atno 17371 bound_to 10713
  139.9021  135.0168  156.7320 LP  0  0  0  0  0  0  0  0  0  0  0  0  # atno 17394 bound_to 11000
  140.6944  133.9362  155.7985 LP  0  0  0  0  0  0  0  0  0  0  0  0  # atno 17395 bound_to 11000

$$$$
