AV-unprocessed.smi:1933|AV-procd|sdf|7822|dock3
  -GOLD-   22720 9563D 1   1.00000     0.00000
 Structure written by MMmdl.
 48 50  0  0  0  0  0  0  0  0  2 V2000
  144.7935  137.1752  151.9659 O   0  0  0  0  0  0  0  0  0  0  0  0
  146.0042  136.9572  151.9173 C   0  0  0  0  0  0  0  0  0  0  0  0
  146.9349  137.8936  152.1521 N   0  0  0  0  0  0  0  0  0  0  0  0
  146.6662  139.2889  152.4867 C   0  0  0  0  0  0  0  0  0  0  0  0
  146.5398  139.5247  154.0162 C   0  0  1  0  0  0  0  0  0  0  0  0
  147.8924  139.4351  154.7796 C   0  0  1  0  0  0  0  0  0  0  0  0
  148.5747  138.0789  154.6807 C   0  0  0  0  0  0  0  0  0  0  0  0
  150.0046  138.4091  155.0843 C   0  0  0  0  0  0  0  0  0  0  0  0
  150.2495  139.6879  154.5184 O   0  0  0  0  0  0  0  0  0  0  0  0
  149.0143  140.3519  154.2673 C   0  0  0  0  0  0  0  0  0  0  0  0
  145.8703  140.8251  154.3239 N   0  3  0  0  0  0  0  0  0  0  0  0
  145.5023  141.0537  155.7449 C   0  0  0  0  0  0  0  0  0  0  0  0
  144.6649  142.3372  155.8687 C   0  0  0  0  0  0  0  0  0  0  0  0
  145.3993  143.4360  155.3415 O   0  0  0  0  0  0  0  0  0  0  0  0
  145.6980  143.2684  153.9604 C   0  0  0  0  0  0  0  0  0  0  0  0
  146.5630  142.0115  153.7646 C   0  0  0  0  0  0  0  0  0  0  0  0
  146.5702  135.7732  151.6236 N   0  0  0  0  0  0  0  0  0  0  0  0
  145.9255  134.5508  151.2946 C   0  0  0  0  0  0  0  0  0  0  0  0
  146.7818  133.4312  151.1905 C   0  0  0  0  0  0  0  0  0  0  0  0
  146.2397  132.1719  150.8685 C   0  0  0  0  0  0  0  0  0  0  0  0
  144.8534  132.0640  150.6583 C   0  0  0  0  0  0  0  0  0  0  0  0
  144.0723  133.2281  150.7796 C   0  0  0  0  0  0  0  0  0  0  0  0
  144.5898  134.4358  151.0882 N   0  0  0  0  0  0  0  0  0  0  0  0
  147.9048  137.6197  152.0935 H   0  0  0  0  0  0  0  0  0  0  0  0
  147.4478  139.9319  152.0798 H   0  0  0  0  0  0  0  0  0  0  0  0
  145.7433  139.5638  151.9769 H   0  0  0  0  0  0  0  0  0  0  0  0
  145.8985  138.7408  154.4228 H   0  0  0  0  0  0  0  0  0  0  0  0
  147.7336  139.6575  155.8357 H   0  0  0  0  0  0  0  0  0  0  0  0
  148.1266  137.3227  155.3260 H   0  0  0  0  0  0  0  0  0  0  0  0
  148.5524  137.7109  153.6536 H   0  0  0  0  0  0  0  0  0  0  0  0
  150.0890  138.4806  156.1695 H   0  0  0  0  0  0  0  0  0  0  0  0
  150.7244  137.6696  154.7325 H   0  0  0  0  0  0  0  0  0  0  0  0
  148.9330  140.5135  153.1919 H   0  0  0  0  0  0  0  0  0  0  0  0
  149.0026  141.3256  154.7570 H   0  0  0  0  0  0  0  0  0  0  0  0
  144.9345  140.2094  156.1349 H   0  0  0  0  0  0  0  0  0  0  0  0
  146.3984  141.1528  156.3584 H   0  0  0  0  0  0  0  0  0  0  0  0
  143.7124  142.2344  155.3461 H   0  0  0  0  0  0  0  0  0  0  0  0
  144.4344  142.5359  156.9156 H   0  0  0  0  0  0  0  0  0  0  0  0
  144.7748  143.1999  153.3825 H   0  0  0  0  0  0  0  0  0  0  0  0
  146.2313  144.1501  153.6046 H   0  0  0  0  0  0  0  0  0  0  0  0
  147.5281  142.1488  154.2530 H   0  0  0  0  0  0  0  0  0  0  0  0
  146.7576  141.8664  152.7014 H   0  0  0  0  0  0  0  0  0  0  0  0
  147.5788  135.7419  151.6308 H   0  0  0  0  0  0  0  0  0  0  0  0
  147.8448  133.5309  151.3553 H   0  0  0  0  0  0  0  0  0  0  0  0
  146.8770  131.3042  150.7849 H   0  0  0  0  0  0  0  0  0  0  0  0
  144.4007  131.1154  150.4104 H   0  0  0  0  0  0  0  0  0  0  0  0
  143.0043  133.1891  150.6249 H   0  0  0  0  0  0  0  0  0  0  0  0
  144.9940  140.7815  153.8234 H   0  0  0  0  0  0  0  0  0  0  0  0
  1  2  2  0  0  0  0
  2  3  1  0  0  0  0
  2 17  1  0  0  0  0
  3  4  1  0  0  0  0
  3 24  1  0  0  0  0
  4  5  1  0  0  0  0
  4 25  1  0  0  0  0
  4 26  1  0  0  0  0
  5  6  1  0  0  0  0
  5 11  1  0  0  0  0
  5 27  1  0  0  0  0
  6 10  1  0  0  0  0
  6  7  1  0  0  0  0
  6 28  1  0  0  0  0
  7  8  1  0  0  0  0
  7 29  1  0  0  0  0
  7 30  1  0  0  0  0
  8  9  1  0  0  0  0
  8 31  1  0  0  0  0
  8 32  1  0  0  0  0
  9 10  1  0  0  0  0
 10 33  1  0  0  0  0
 10 34  1  0  0  0  0
 11 16  1  0  0  0  0
 11 12  1  0  0  0  0
 11 48  1  0  0  0  0
 12 13  1  0  0  0  0
 12 35  1  0  0  0  0
 12 36  1  0  0  0  0
 13 14  1  0  0  0  0
 13 37  1  0  0  0  0
 13 38  1  0  0  0  0
 14 15  1  0  0  0  0
 15 16  1  0  0  0  0
 15 39  1  0  0  0  0
 15 40  1  0  0  0  0
 16 41  1  0  0  0  0
 16 42  1  0  0  0  0
 17 18  1  0  0  0  0
 17 43  1  0  0  0  0
 18 23  1  0  0  0  0
 18 19  2  0  0  0  0
 19 20  1  0  0  0  0
 19 44  1  0  0  0  0
 20 21  2  0  0  0  0
 20 45  1  0  0  0  0
 21 22  1  0  0  0  0
 21 46  1  0  0  0  0
 22 23  2  0  0  0  0
 22 47  1  0  0  0  0
M  CHG  1  11   1
M  END
> <s_m_source_file>
AV-unprocessed.smi

> <i_m_source_file_index>
1933

> <i_lp_mmshare_version>
43012

> <i_f3d_flags>
0

> <s_epik_input>
bjFbY0hdW2NIXVtjSF1bY0hdYzFbTkhdQyg9TylbTkhdW0NIMl1bQ0BIXShbQ0BASF0yW0NIMl1bQ0gyXU9bQ0gyXTIpTjNbQ0gyXVtDSDJdT1tDSDJdW0NIMl0z

> <s_epik_cmdline>
J2VwaWtfcHl0aG9uJywgJy1waCcsICc3LjAnLCAnLXRuJywgJzgnLCAnLW1hJywgJzIwMCcsICctbWV0YWxfYmluZGluZycsICctaW1hZScsICc8aW5maWxlLm1hZT4nLCAnLW9tYWUnLCAnPG91dGZpbGUubWFlPic=

> <r_epik_Ionization_Penalty>
0.983294

> <r_epik_Ionization_Penalty_Charging>
0.98326

> <r_epik_Ionization_Penalty_Neutral>
3.39688e-05

> <r_epik_State_Penalty>
1.0303

> <r_epik_Charging_Adjusted_Penalty>
2.01356

> <i_epik_Tot_Q>
1

> <i_epik_Tot_abs_Q>
1

> <r_epik_Metal_State_Penalty>
1.0303

> <b_epik_Metal_Only>
0

> <s_lp_Force_Field>
OPLS_2005

> <r_lp_Energy>
40.1163

> <b_lp_Chiralities_Consistent>
1

> <s_lp_Variant>
AV-unprocessed.smi:1933-8

> <Gold.Version>
5.8.1

> <Gold.Id.Protein>
6NUR|6NUR_protein|mol2

> <Gold.PLP.Fitness>
52.9276

> <Gold.PLP.PLP>
-35.5275

> <Gold.PLP.part.hbond>
-4.0000

> <Gold.PLP.part.metal>
0.0000

> <Gold.PLP.part.buried>
-5.4633

> <Gold.PLP.part.nonpolar>
-29.8550

> <Gold.PLP.part.repulsive>
2.6810

> <Gold.PLP.ligand.clash>
0.0000

> <Gold.PLP.ligand.torsion>
0.4051

> <Gold.PLP.Chemscore.Hbond>
4.9760

> <Gold.PLP.Chemscore.CHOScore>
1.0000

> <Gold.PLP.Chemscore.Metal>
0.0000

> <Gold.Chemscore.Hbonds>
donor molecule, donor type, donor heavy atom, donor atom, acceptor molecule, acceptor atom, score
      L1  H     3    24       P1  7948  0.86
      L1  H    11    48       P1 10175  2.00
      L1  H    17    43       P1  7948  0.76
      P1  H  7989  7998       L1     9  0.88
      L1  C    22    47       P1 10186  0.88

> <Gold.PLP.Chemscore.Internal.Correction>
0.2822

> <Gold.Rescore>
     Score         DG    S(hbond)    S(metal)    S(lipo)     H(rot)  DE(clash)    DE(int)     intcor
     17.50     -23.04       3.67        0.00      84.11       1.77       3.74       1.80       ----

> <Gold.Chemscore.Fitness>
17.4986

> <Gold.Chemscore.DG>
-23.0428

> <Gold.Chemscore.ZeroCoef>
-5.4800

> <Gold.Chemscore.Hbond>
3.6664

> <Gold.Chemscore.Metal>
0.0000

> <Gold.Chemscore.Lipo>
84.1103

> <Gold.Chemscore.Internal_Hbond>
0.0000

> <Gold.Chemscore.DEClash>
3.7428

> <Gold.Chemscore.DEInternal>
1.8014

> <Gold.Chemscore.Rot>
1.7671

> <Gold.Chemscore.Internal.Correction>
   9.000000E+99

> <Gold.Chemscore.Hbonds>
donor molecule, donor type, donor heavy atom, donor atom, acceptor molecule, acceptor atom, score
      L1  H     3    24       P1  7948  0.85
      L1  H    11    48       P1 10175  0.96
      L1  H    17    43       P1  7948  0.74
      P1  H  7989  7998       L1     9  0.34

> <Gold.Chemscore.Hbond.Weighted>
-12.2457

> <Gold.Chemscore.Metal.Weighted>
-0.0000

> <Gold.Chemscore.Lipo.Weighted>
-9.8409

> <Gold.Chemscore.Internal_Hbond.Weighted>
0.0000

> <Gold.Chemscore.DEClash.Weighted>
3.7428

> <Gold.Chemscore.DEInternal.Weighted>
1.8014

> <Gold.Chemscore.Rot.Weighted>
4.5238

> <Gold.Chemscore.Internal.Correction.Weighted>
   9.000000E+99

> <Gold.Protein.RotatedTorsions>
[ 6907 6896 6895 6894 ] final  100.63 input  -60.11 | X-H torsion
[ 7974 7965 7964 7962 ] final   45.52 input  175.53 | X-H torsion
[ 8008 7997 7996 7995 ] final -158.49 input   59.86 | X-H torsion
[ 10167 10162 10161 10158 ] final -140.35 input  -65.29 | X-H torsion
[ 10718 10713 10712 10709 ] final  -85.94 input   66.30 | X-H torsion
[ 10763 10752 10751 10750 ] final  138.24 input  -60.55 | X-H torsion
[ 11005 11000 10999 10996 ] final  170.58 input  -57.11 | X-H torsion

> <Gold.Protein.ActiveResidues>
 VAL166  LYS551  ARG553  GLY616  TRP617  ASP618  TYR619  PRO620  LYS621  CYS622 
 ASP623  PHE694  ASN695  SER759  ASP760  ASP761  ALA762  ILE779  LEU786  VAL792 
 PHE793  MET794  SER795  GLU796  ALA797  LYS798  CYS799  TRP800  GLU811  SER814 

> <Gold.Protein.RotatedAtoms>
  152.5368  134.0248  159.7997 H   0  0  0  0  0  0  0  0  0  0  0  0  # atno 6907 bound_to 6896
  151.0428  133.5683  159.2656 H   0  0  0  0  0  0  0  0  0  0  0  0  # atno 6908 bound_to 6896
  151.2647  135.0673  159.9165 H   0  0  0  0  0  0  0  0  0  0  0  0  # atno 6909 bound_to 6896
  146.0472  139.4955  142.9741 H   0  0  0  0  0  0  0  0  0  0  0  0  # atno 7974 bound_to 7965
  155.7483  140.0823  157.2213 H   0  0  0  0  0  0  0  0  0  0  0  0  # atno 8008 bound_to 7997
  154.4014  140.1565  156.2750 H   0  0  0  0  0  0  0  0  0  0  0  0  # atno 8009 bound_to 7997
  155.8955  140.3413  155.5990 H   0  0  0  0  0  0  0  0  0  0  0  0  # atno 8010 bound_to 7997
  139.8290  143.7472  152.2666 H   0  0  0  0  0  0  0  0  0  0  0  0  # atno 10167 bound_to 10162
  155.9993  130.4748  150.4640 H   0  0  0  0  0  0  0  0  0  0  0  0  # atno 10718 bound_to 10713
  153.8862  135.3038  155.3446 H   0  0  0  0  0  0  0  0  0  0  0  0  # atno 10763 bound_to 10752
  154.7738  135.4872  153.9705 H   0  0  0  0  0  0  0  0  0  0  0  0  # atno 10764 bound_to 10752
  153.1323  135.6806  153.9256 H   0  0  0  0  0  0  0  0  0  0  0  0  # atno 10765 bound_to 10752
  140.3099  134.7525  157.3983 H   0  0  0  0  0  0  0  0  0  0  0  0  # atno 11005 bound_to 11000
  145.6785  141.0197  143.1619 LP  0  0  0  0  0  0  0  0  0  0  0  0  # atno 17320 bound_to 7965
  144.7104  139.8394  143.7416 LP  0  0  0  0  0  0  0  0  0  0  0  0  # atno 17321 bound_to 7965
  139.7674  144.7487  151.0275 LP  0  0  0  0  0  0  0  0  0  0  0  0  # atno 17342 bound_to 10162
  140.7808  143.4683  151.0181 LP  0  0  0  0  0  0  0  0  0  0  0  0  # atno 17343 bound_to 10162
  157.2661  131.0577  151.2289 LP  0  0  0  0  0  0  0  0  0  0  0  0  # atno 17370 bound_to 10713
  157.3387  130.7022  149.6368 LP  0  0  0  0  0  0  0  0  0  0  0  0  # atno 17371 bound_to 10713
  140.1034  134.5442  155.8332 LP  0  0  0  0  0  0  0  0  0  0  0  0  # atno 17394 bound_to 11000
  141.2110  133.6702  156.6553 LP  0  0  0  0  0  0  0  0  0  0  0  0  # atno 17395 bound_to 11000

$$$$
