AV-unprocessed.smi:1056|AV-procd|sdf|4646|dock3
  -GOLD-   22720 3153D 1   1.00000     0.00000
 Structure written by MMmdl.
 45 47  0  0  0  0  0  0  0  0  4 V2000
  152.7746  143.7572  161.2385 C   0  0  0  0  0  0  0  0  0  0  0  0
  152.4431  142.9620  159.9870 C   0  0  0  0  0  0  0  0  0  0  0  0
  151.4454  143.4578  159.1179 C   0  0  0  0  0  0  0  0  0  0  0  0
  151.1665  142.7099  157.9802 C   0  0  0  0  0  0  0  0  0  0  0  0
  150.2558  142.9296  156.9452 N   0  3  0  0  0  0  0  0  0  0  0  0
  150.3424  141.9154  156.0416 C   0  0  0  0  0  0  0  0  0  0  0  0
  151.2916  141.0467  156.4861 N   0  0  0  0  0  0  0  0  0  0  0  0
  151.7718  139.7949  155.8764 C   0  0  0  0  0  0  0  0  0  0  0  0
  150.6654  138.9701  155.1827 C   0  0  2  0  0  0  0  0  0  0  0  0
  150.3046  139.6158  153.9763 O   0  0  0  0  0  0  0  0  0  0  0  0
  149.4015  138.7869  156.0520 C   0  0  0  0  0  0  0  0  0  0  0  0
  149.5095  137.6564  157.0102 N   0  3  2  0  0  0  0  0  0  0  0  0
  150.4304  137.9522  158.1384 C   0  0  0  0  0  0  0  0  0  0  0  0
  150.2695  136.9009  159.2531 C   0  0  0  0  0  0  0  0  0  0  0  0
  150.2829  135.5483  158.6842 N   0  5  0  0  0  0  0  0  0  0  0  0
  149.9820  135.2059  157.3928 C   0  0  0  0  0  0  0  0  0  0  0  0
  149.8551  134.0590  156.9701 O   0  0  0  0  0  0  0  0  0  0  0  0
  149.8377  136.3549  156.3591 C   0  0  0  0  0  0  0  0  0  0  0  0
  151.8385  141.5055  157.6915 C   0  0  0  0  0  0  0  0  0  0  0  0
  152.8243  141.0035  158.5389 C   0  0  0  0  0  0  0  0  0  0  0  0
  153.1234  141.7501  159.7010 C   0  0  0  0  0  0  0  0  0  0  0  0
  154.1963  141.2276  160.6414 C   0  0  0  0  0  0  0  0  0  0  0  0
  152.2003  144.6828  161.2869 H   0  0  0  0  0  0  0  0  0  0  0  0
  153.8321  144.0217  161.2567 H   0  0  0  0  0  0  0  0  0  0  0  0
  152.5470  143.1758  162.1322 H   0  0  0  0  0  0  0  0  0  0  0  0
  150.9242  144.3805  159.3285 H   0  0  0  0  0  0  0  0  0  0  0  0
  149.7607  141.8150  155.1363 H   0  0  0  0  0  0  0  0  0  0  0  0
  152.5380  140.0677  155.1494 H   0  0  0  0  0  0  0  0  0  0  0  0
  152.2808  139.1973  156.6320 H   0  0  0  0  0  0  0  0  0  0  0  0
  151.0966  138.0037  154.9262 H   0  0  0  0  0  0  0  0  0  0  0  0
  149.4163  139.3792  153.7559 H   0  0  0  0  0  0  0  0  0  0  0  0
  149.1876  139.7000  156.6090 H   0  0  0  0  0  0  0  0  0  0  0  0
  148.5466  138.6240  155.3940 H   0  0  0  0  0  0  0  0  0  0  0  0
  151.4591  137.9711  157.7740 H   0  0  0  0  0  0  0  0  0  0  0  0
  150.2236  138.9390  158.5542 H   0  0  0  0  0  0  0  0  0  0  0  0
  151.0544  137.0394  159.9960 H   0  0  0  0  0  0  0  0  0  0  0  0
  149.3304  137.0899  159.7737 H   0  0  0  0  0  0  0  0  0  0  0  0
  149.0627  136.0782  155.6454 H   0  0  0  0  0  0  0  0  0  0  0  0
  150.7733  136.4409  155.8046 H   0  0  0  0  0  0  0  0  0  0  0  0
  153.3461  140.0827  158.3259 H   0  0  0  0  0  0  0  0  0  0  0  0
  154.5964  140.2727  160.2993 H   0  0  0  0  0  0  0  0  0  0  0  0
  153.7911  141.0788  161.6426 H   0  0  0  0  0  0  0  0  0  0  0  0
  155.0254  141.9329  160.7039 H   0  0  0  0  0  0  0  0  0  0  0  0
  148.6005  137.5445  157.4355 H   0  0  0  0  0  0  0  0  0  0  0  0
  149.6232  143.7149  156.8569 H   0  0  0  0  0  0  0  0  0  0  0  0
  1  2  1  0  0  0  0
  1 23  1  0  0  0  0
  1 24  1  0  0  0  0
  1 25  1  0  0  0  0
  2 21  1  0  0  0  0
  2  3  2  0  0  0  0
  3  4  1  0  0  0  0
  3 26  1  0  0  0  0
  4 19  2  0  0  0  0
  4  5  1  0  0  0  0
  5  6  2  0  0  0  0
  5 45  1  0  0  0  0
  6  7  1  0  0  0  0
  6 27  1  0  0  0  0
  7  8  1  0  0  0  0
  7 19  1  0  0  0  0
  8  9  1  0  0  0  0
  8 28  1  0  0  0  0
  8 29  1  0  0  0  0
  9 10  1  0  0  0  0
  9 11  1  0  0  0  0
  9 30  1  0  0  0  0
 10 31  1  0  0  0  0
 11 12  1  0  0  0  0
 11 32  1  0  0  0  0
 11 33  1  0  0  0  0
 12 18  1  0  0  0  0
 12 13  1  0  0  0  0
 12 44  1  0  0  0  0
 13 14  1  0  0  0  0
 13 34  1  0  0  0  0
 13 35  1  0  0  0  0
 14 15  1  0  0  0  0
 14 36  1  0  0  0  0
 14 37  1  0  0  0  0
 15 16  1  0  0  0  0
 16 17  2  0  0  0  0
 16 18  1  0  0  0  0
 18 38  1  0  0  0  0
 18 39  1  0  0  0  0
 19 20  1  0  0  0  0
 20 21  2  0  0  0  0
 20 40  1  0  0  0  0
 21 22  1  0  0  0  0
 22 41  1  0  0  0  0
 22 42  1  0  0  0  0
 22 43  1  0  0  0  0
M  CHG  1   5   1
M  CHG  1  12   1
M  CHG  1  15  -1
M  END
> <s_m_source_file>
AV-unprocessed.smi

> <i_m_source_file_index>
1056

> <i_lp_mmshare_version>
43012

> <i_f3d_flags>
0

> <s_epik_input>
W0NIM11jKFtjSF0xKWMoW0NIM10pW2NIXWMoYzEyKW4oW2NIXW4yKVtDSDJdW0NASF0oW09IXSlbQ0gyXU4zW0NIMl1bQ0gyXVtOSF1DKD1PKVtDSDJdMw==

> <s_epik_cmdline>
J2VwaWtfcHl0aG9uJywgJy1waCcsICc3LjAnLCAnLXRuJywgJzgnLCAnLW1hJywgJzIwMCcsICctbWV0YWxfYmluZGluZycsICctaW1hZScsICc8aW5maWxlLm1hZT4nLCAnLW9tYWUnLCAnPG91dGZpbGUubWFlPic=

> <r_epik_Ionization_Penalty>
6.22415

> <r_epik_Ionization_Penalty_Charging>
6.22415

> <r_epik_Ionization_Penalty_Neutral>
4.02797e-07

> <r_epik_State_Penalty>
6.37716

> <r_epik_Charging_Adjusted_Penalty>
12.6013

> <i_epik_Tot_Q>
1

> <i_epik_Tot_abs_Q>
3

> <r_epik_Metal_State_Penalty>
2.53509

> <b_epik_Metal_Only>
1

> <s_lp_Force_Field>
OPLS_2005

> <r_lp_Energy>
27.0798

> <b_lp_Chiralities_Consistent>
1

> <s_lp_Variant>
AV-unprocessed.smi:1056-17

> <Gold.Version>
5.8.1

> <Gold.Id.Protein>
6NUR|6NUR_protein|mol2

> <Gold.PLP.Fitness>
53.7153

> <Gold.PLP.PLP>
-40.0983

> <Gold.PLP.part.hbond>
-3.9135

> <Gold.PLP.part.metal>
0.0000

> <Gold.PLP.part.buried>
-4.6147

> <Gold.PLP.part.nonpolar>
-31.1022

> <Gold.PLP.part.repulsive>
0.0373

> <Gold.PLP.ligand.clash>
0.0000

> <Gold.PLP.ligand.torsion>
0.7228

> <Gold.PLP.Chemscore.Hbond>
5.0000

> <Gold.PLP.Chemscore.CHOScore>
0.0000

> <Gold.PLP.Chemscore.Metal>
0.0000

> <Gold.Chemscore.Hbonds>
donor molecule, donor type, donor heavy atom, donor atom, acceptor molecule, acceptor atom, score
      L1  H     5    45       P1  8028  1.70
      P1  H  6896  6909       L1    15  1.00
      P1  H  7989  7998       L1    10  1.00

> <Gold.PLP.Chemscore.Internal.Correction>
0.0626

> <Gold.Rescore>
     Score         DG    S(hbond)    S(metal)    S(lipo)     H(rot)  DE(clash)    DE(int)     intcor
     19.37     -20.46       2.66        0.00     103.93       2.37       0.34       0.75       ----

> <Gold.Chemscore.Fitness>
19.3732

> <Gold.Chemscore.DG>
-20.4614

> <Gold.Chemscore.ZeroCoef>
-5.4800

> <Gold.Chemscore.Hbond>
2.6630

> <Gold.Chemscore.Metal>
0.0000

> <Gold.Chemscore.Lipo>
103.9332

> <Gold.Chemscore.Internal_Hbond>
0.0000

> <Gold.Chemscore.DEClash>
0.3415

> <Gold.Chemscore.DEInternal>
0.7467

> <Gold.Chemscore.Rot>
2.3724

> <Gold.Chemscore.Internal.Correction>
   9.000000E+99

> <Gold.Chemscore.Hbonds>
donor molecule, donor type, donor heavy atom, donor atom, acceptor molecule, acceptor atom, score
      L1  H     5    45       P1  8028  0.81
      P1  H  6896  6909       L1    15  0.39
      P1  H  7989  7998       L1    10  0.76

> <Gold.Chemscore.Hbond.Weighted>
-8.8946

> <Gold.Chemscore.Metal.Weighted>
-0.0000

> <Gold.Chemscore.Lipo.Weighted>
-12.1602

> <Gold.Chemscore.Internal_Hbond.Weighted>
0.0000

> <Gold.Chemscore.DEClash.Weighted>
0.3415

> <Gold.Chemscore.DEInternal.Weighted>
0.7467

> <Gold.Chemscore.Rot.Weighted>
6.0734

> <Gold.Chemscore.Internal.Correction.Weighted>
   9.000000E+99

> <Gold.Protein.RotatedTorsions>
[ 6907 6896 6895 6894 ] final   37.06 input  -60.11 | X-H torsion
[ 7974 7965 7964 7962 ] final -176.49 input  175.53 | X-H torsion
[ 8008 7997 7996 7995 ] final -126.78 input   59.86 | X-H torsion
[ 10167 10162 10161 10158 ] final   71.46 input  -65.29 | X-H torsion
[ 10718 10713 10712 10709 ] final  178.52 input   66.30 | X-H torsion
[ 10763 10752 10751 10750 ] final  -13.89 input  -60.55 | X-H torsion
[ 11005 11000 10999 10996 ] final  169.97 input  -57.11 | X-H torsion

> <Gold.Protein.ActiveResidues>
 VAL166  LYS551  ARG553  GLY616  TRP617  ASP618  TYR619  PRO620  LYS621  CYS622 
 ASP623  PHE694  ASN695  SER759  ASP760  ASP761  ALA762  ILE779  LEU786  VAL792 
 PHE793  MET794  SER795  GLU796  ALA797  LYS798  CYS799  TRP800  GLU811  SER814 

> <Gold.Protein.RotatedAtoms>
  152.1381  134.9083  160.0555 H   0  0  0  0  0  0  0  0  0  0  0  0  # atno 6907 bound_to 6896
  152.0162  133.3875  159.4248 H   0  0  0  0  0  0  0  0  0  0  0  0  # atno 6908 bound_to 6896
  150.6862  134.3598  159.4989 H   0  0  0  0  0  0  0  0  0  0  0  0  # atno 6909 bound_to 6896
  144.7127  140.1162  143.6408 H   0  0  0  0  0  0  0  0  0  0  0  0  # atno 7974 bound_to 7965
  155.2353  140.0426  157.2967 H   0  0  0  0  0  0  0  0  0  0  0  0  # atno 8008 bound_to 7997
  154.5863  140.2414  155.7953 H   0  0  0  0  0  0  0  0  0  0  0  0  # atno 8009 bound_to 7997
  156.2228  140.2964  156.0002 H   0  0  0  0  0  0  0  0  0  0  0  0  # atno 8010 bound_to 7997
  140.0458  144.5352  150.7400 H   0  0  0  0  0  0  0  0  0  0  0  0  # atno 10167 bound_to 10162
  156.8894  130.9842  151.3051 H   0  0  0  0  0  0  0  0  0  0  0  0  # atno 10718 bound_to 10713
  153.5200  135.7016  153.5736 H   0  0  0  0  0  0  0  0  0  0  0  0  # atno 10763 bound_to 10752
  153.3789  135.3925  155.1843 H   0  0  0  0  0  0  0  0  0  0  0  0  # atno 10764 bound_to 10752
  154.8695  135.3830  154.4688 H   0  0  0  0  0  0  0  0  0  0  0  0  # atno 10765 bound_to 10752
  140.3034  134.7576  157.3934 H   0  0  0  0  0  0  0  0  0  0  0  0  # atno 11005 bound_to 11000
  145.9411  139.2669  143.1268 LP  0  0  0  0  0  0  0  0  0  0  0  0  # atno 17320 bound_to 7965
  145.9423  140.8971  143.0301 LP  0  0  0  0  0  0  0  0  0  0  0  0  # atno 17321 bound_to 7965
  140.7239  143.2616  151.4186 LP  0  0  0  0  0  0  0  0  0  0  0  0  # atno 17342 bound_to 10162
  139.5984  144.1347  152.2170 LP  0  0  0  0  0  0  0  0  0  0  0  0  # atno 17343 bound_to 10162
  157.6093  130.8571  149.8925 LP  0  0  0  0  0  0  0  0  0  0  0  0  # atno 17370 bound_to 10713
  156.0637  130.3695  150.0926 LP  0  0  0  0  0  0  0  0  0  0  0  0  # atno 17371 bound_to 10713
  140.1089  134.5373  155.8284 LP  0  0  0  0  0  0  0  0  0  0  0  0  # atno 17394 bound_to 11000
  141.2123  133.6718  156.6651 LP  0  0  0  0  0  0  0  0  0  0  0  0  # atno 17395 bound_to 11000

$$$$
