#       Name:                AV-unprocessed.smi:709
#       Creating user name   scv26
#       Creation time:       Fri Mar 27 00:44:49 2020


#       File generated by GOLD software.
#

@<TRIPOS>MOLECULE
AV-unprocessed.smi:709
    54    56     1
SMALL
NO_CHARGES


@<TRIPOS>ATOM
      1 ****        -5.1980   3.4124  -2.2644 C.3            1 S1                 0.0000
      2 ****        -3.6731   3.5220  -2.2010 C.3            1 S1                 0.0000
      3 ****        -3.1282   2.2212  -2.0609 O.3            1 S1                 0.0000
      4 ****        -1.7109   2.2187  -2.0053 C.3            1 S1                 0.0000
      5 ****        -1.1259   2.6223  -0.6474 C.3            1 S1                 0.0000
      6 ****        -0.0579   1.5628  -0.9226 C.3            1 S1                 0.0000
      7 ****         0.3643   0.8565   0.2819 N.am           1 S1                 0.0000
      8 ****         1.4245   0.0405   0.3469 C.2            1 S1                 0.0000
      9 ****         2.1747  -0.1663  -0.6067 O.2            1 S1                 0.0000
     10 ****         1.5435  -0.4965   1.5747 N.am           1 S1                 0.0000
     11 ****         2.4779  -1.4343   2.0472 C.2            1 S1                 0.0000
     12 ****         3.2369  -2.2309   1.2530 C.2            1 S1                 0.0000
     13 ****         4.1658  -3.1774   1.8222 C.2            1 S1                 0.0000
     14 ****         4.2527  -3.2606   3.1570 C.2            1 S1                 0.0000
     15 ****         3.4668  -2.4552   3.9989 N.am           1 S1                 0.0000
     16 ****         3.6326  -2.6222   5.4451 C.3            1 S1                 0.0000
     17 ****         2.5747  -1.5396   3.5162 C.2            1 S1                 0.0000
     18 ****         1.8961  -0.8468   4.2788 O.2            1 S1                 0.0000
     19 ****        -1.1024   0.8112  -1.7936 C.3            1 S1                 0.0000
     20 ****        -0.5822   0.0685  -3.0201 C.3            1 S1                 0.0000
     21 ****        -0.4487  -1.4112  -2.6435 C.3            1 S1                 0.0000
     22 ****        -1.3318  -1.6181  -1.4096 C.3            1 S1                 0.0000
     23 ****        -1.9824  -0.2608  -1.1324 C.3            1 S1                 0.0000
     24 ****        -5.6551   4.3952  -2.3798 H              1 S1                 0.0000
     25 ****        -5.5953   2.9626  -1.3543 H              1 S1                 0.0000
     26 ****        -5.5114   2.7961  -3.1074 H              1 S1                 0.0000
     27 ****        -3.2956   3.9916  -3.1105 H              1 S1                 0.0000
     28 ****        -3.3801   4.1499  -1.3584 H              1 S1                 0.0000
     29 ****        -1.2456   2.7447  -2.8427 H              1 S1                 0.0000
     30 ****        -0.7538   3.6458  -0.5962 H              1 S1                 0.0000
     31 ****        -1.7826   2.3839   0.1916 H              1 S1                 0.0000
     32 ****         0.7669   1.9742  -1.5103 H              1 S1                 0.0000
     33 ****        -0.1999   0.9806   1.1097 H              1 S1                 0.0000
     34 ****         0.8915  -0.1680   2.2723 H              1 S1                 0.0000
     35 ****         3.1624  -2.1993   0.1780 H              1 S1                 0.0000
     36 ****         4.7770  -3.8021   1.1876 H              1 S1                 0.0000
     37 ****         4.9240  -3.9423   3.6587 H              1 S1                 0.0000
     38 ****         2.6874  -2.9071   5.9101 H              1 S1                 0.0000
     39 ****         3.9692  -1.6901   5.9015 H              1 S1                 0.0000
     40 ****         4.3632  -3.3908   5.6997 H              1 S1                 0.0000
     41 ****        -1.2934   0.1696  -3.8409 H              1 S1                 0.0000
     42 ****         0.3667   0.4703  -3.3769 H              1 S1                 0.0000
     43 ****        -0.7472  -2.0573  -3.4696 H              1 S1                 0.0000
     44 ****         0.5876  -1.6498  -2.4017 H              1 S1                 0.0000
     45 ****        -2.0800  -2.3956  -1.5670 H              1 S1                 0.0000
     46 ****        -0.7184  -1.9238  -0.5615 H              1 S1                 0.0000
     47 ****        -2.1303  -0.0984  -0.0646 H              1 S1                 0.0000
     48 ****        -2.9758  -0.2583  -1.5822 H              1 S1                 0.0000
     49 ****        -3.4177   1.6683  -2.8422 LP             1 S1                 0.0000
     50 ****        -3.4812   1.8167  -1.2172 LP             1 S1                 0.0000
     51 ****         2.0056   0.2849  -1.4829 LP             1 S1                 0.0000
     52 ****         2.9533  -0.7855  -0.5052 LP             1 S1                 0.0000
     53 ****         1.2487  -0.1813   3.9071 LP             1 S1                 0.0000
     54 ****         1.9934  -0.9506   5.2686 LP             1 S1                 0.0000
@<TRIPOS>BOND
    1    1    2 1     
    2    1   24 1     
    3    1   25 1     
    4    1   26 1     
    5    2    3 1     
    6    2   27 1     
    7    2   28 1     
    8    3    4 1     
    9    4   19 1     
   10    4    5 1     
   11    4   29 1     
   12    5    6 1     
   13    5   30 1     
   14    5   31 1     
   15    6    7 1     
   16    6   19 1     
   17    6   32 1     
   18    7    8 am    
   19    7   33 1     
   20    8    9 2     
   21    8   10 am    
   22   10   11 1     
   23   10   34 1     
   24   11   17 1     
   25   11   12 2     
   26   12   13 1     
   27   12   35 1     
   28   13   14 2     
   29   13   36 1     
   30   14   15 1     
   31   14   37 1     
   32   15   16 1     
   33   15   17 am    
   34   16   38 1     
   35   16   39 1     
   36   16   40 1     
   37   17   18 2     
   38   19   23 1     
   39   19   20 1     
   40   20   21 1     
   41   20   41 1     
   42   20   42 1     
   43   21   22 1     
   44   21   43 1     
   45   21   44 1     
   46   22   23 1     
   47   22   45 1     
   48   22   46 1     
   49   23   47 1     
   50   23   48 1     
   51    3   49 1     
   52    3   50 1     
   53    9   51 1     
   54    9   52 1     
   55   18   53 1     
   56   18   54 1     
@<TRIPOS>SUBSTRUCTURE
      1 S1             1
@<TRIPOS>SET
LONE_PAIRS      STATIC     ATOMS    <user>   **** ""
6 49 50 51 52 53 54
DONOR_HYDROGENS      STATIC     ATOMS    <user>   **** ""
2 33 34
ATOM$BLUE        STATIC     ATOMS    COLORGROUP SYSTEM
6 49 50 51 52 53 54
ATOM$RED        STATIC     ATOMS    COLORGROUP SYSTEM
2 33 34
