AV-unprocessed.smi:284|AV-procd|sdf|2163|dock4
  -GOLD-   2262021523D 1   1.00000     0.00000
 Structure written by MMmdl.
 60 62  0  0  0  0  0  0  0  0  1 V2000
  149.4835  128.6713  154.2448 C   0  0  0  0  0  0  0  0  0  0  0  0
  149.0534  130.1096  154.0038 C   0  0  0  0  0  0  0  0  0  0  0  0
  148.0122  130.4241  153.1995 C   0  0  0  0  0  0  0  0  0  0  0  0
  147.5977  131.7196  152.9577 N   0  0  0  0  0  0  0  0  0  0  0  0
  146.4305  131.9935  152.0407 C   0  0  2  0  0  0  0  0  0  0  0  0
  146.7528  133.1052  151.0472 C   0  0  0  0  0  0  0  0  0  0  0  0
  145.3550  133.5917  150.7262 C   0  0  2  0  0  0  0  0  0  0  0  0
  145.3492  134.9043  150.2002 O   0  0  0  0  0  0  0  0  0  0  0  0
  144.6132  133.4096  152.0669 C   0  0  2  0  0  0  0  0  0  0  0  0
  144.4163  134.6514  152.9641 C   0  0  0  0  0  0  0  0  0  0  0  0
  143.4542  134.4477  153.9789 O   0  0  0  0  0  0  0  0  0  0  0  0
  145.3443  132.4268  152.8019 O   0  0  0  0  0  0  0  0  0  0  0  0
  148.2610  132.7945  153.5826 C   0  0  0  0  0  0  0  0  0  0  0  0
  147.9000  133.9589  153.3959 O   0  0  0  0  0  0  0  0  0  0  0  0
  149.3498  132.5002  154.4342 N   0  0  0  0  0  0  0  0  0  0  0  0
  150.0638  133.6249  155.0789 C   0  0  0  0  0  0  0  0  0  0  0  0
  149.7944  133.7403  156.5877 C   0  0  0  0  0  0  0  0  0  0  0  0
  150.3433  132.9725  157.3784 O   0  0  0  0  0  0  0  0  0  0  0  0
  148.9124  134.6954  156.9351 N   0  0  0  0  0  0  0  0  0  0  0  0
  148.4491  135.0668  158.2271 C   0  0  0  0  0  0  0  0  0  0  0  0
  148.1529  136.3951  158.6119 C   0  0  0  0  0  0  0  0  0  0  0  0
  147.6828  136.6738  159.9100 C   0  0  0  0  0  0  0  0  0  0  0  0
  147.4873  135.6355  160.8538 C   0  0  0  0  0  0  0  0  0  0  0  0
  146.9715  135.9022  162.2810 C   0  0  0  0  0  0  0  0  0  0  0  0
  145.5762  136.5553  162.2087 C   0  0  0  0  0  0  0  0  0  0  0  0
  147.8915  136.8456  163.0883 C   0  0  0  0  0  0  0  0  0  0  0  0
  146.8725  134.5727  163.0590 C   0  0  0  0  0  0  0  0  0  0  0  0
  147.7698  134.3095  160.4513 C   0  0  0  0  0  0  0  0  0  0  0  0
  148.2417  134.0288  159.1556 C   0  0  0  0  0  0  0  0  0  0  0  0
  149.7989  131.1778  154.6739 C   0  0  0  0  0  0  0  0  0  0  0  0
  150.7676  130.9662  155.4063 O   0  0  0  0  0  0  0  0  0  0  0  0
  148.8696  127.9651  153.6849 H   0  0  0  0  0  0  0  0  0  0  0  0
  149.3999  128.4208  155.3029 H   0  0  0  0  0  0  0  0  0  0  0  0
  150.5202  128.5265  153.9388 H   0  0  0  0  0  0  0  0  0  0  0  0
  147.4757  129.6179  152.7218 H   0  0  0  0  0  0  0  0  0  0  0  0
  146.1468  131.0577  151.5576 H   0  0  0  0  0  0  0  0  0  0  0  0
  147.3400  133.8823  151.5389 H   0  0  0  0  0  0  0  0  0  0  0  0
  147.3031  132.7246  150.1864 H   0  0  0  0  0  0  0  0  0  0  0  0
  144.9154  132.9237  149.9840 H   0  0  0  0  0  0  0  0  0  0  0  0
  145.4904  134.8560  149.2671 H   0  0  0  0  0  0  0  0  0  0  0  0
  143.6262  132.9933  151.8617 H   0  0  0  0  0  0  0  0  0  0  0  0
  145.3594  134.9090  153.4466 H   0  0  0  0  0  0  0  0  0  0  0  0
  144.1262  135.5125  152.3618 H   0  0  0  0  0  0  0  0  0  0  0  0
  143.4931  133.5445  154.2534 H   0  0  0  0  0  0  0  0  0  0  0  0
  151.1398  133.5388  154.9167 H   0  0  0  0  0  0  0  0  0  0  0  0
  149.8064  134.5779  154.6146 H   0  0  0  0  0  0  0  0  0  0  0  0
  148.4822  135.1903  156.1674 H   0  0  0  0  0  0  0  0  0  0  0  0
  148.2640  137.2209  157.9271 H   0  0  0  0  0  0  0  0  0  0  0  0
  147.4747  137.7041  160.1519 H   0  0  0  0  0  0  0  0  0  0  0  0
  145.1859  136.7682  163.2045 H   0  0  0  0  0  0  0  0  0  0  0  0
  144.8491  135.9142  161.7103 H   0  0  0  0  0  0  0  0  0  0  0  0
  145.6105  137.4986  161.6625 H   0  0  0  0  0  0  0  0  0  0  0  0
  147.9694  137.8296  162.6245 H   0  0  0  0  0  0  0  0  0  0  0  0
  148.8978  136.4371  163.1899 H   0  0  0  0  0  0  0  0  0  0  0  0
  147.5077  137.0019  164.0972 H   0  0  0  0  0  0  0  0  0  0  0  0
  146.5357  134.7369  164.0832 H   0  0  0  0  0  0  0  0  0  0  0  0
  147.8406  134.0729  163.1096 H   0  0  0  0  0  0  0  0  0  0  0  0
  146.1676  133.8781  162.6027 H   0  0  0  0  0  0  0  0  0  0  0  0
  147.6242  133.4880  161.1366 H   0  0  0  0  0  0  0  0  0  0  0  0
  148.4478  133.0053  158.8784 H   0  0  0  0  0  0  0  0  0  0  0  0
  1  2  1  0  0  0  0
  1 32  1  0  0  0  0
  1 33  1  0  0  0  0
  1 34  1  0  0  0  0
  2 30  1  0  0  0  0
  2  3  2  0  0  0  0
  3  4  1  0  0  0  0
  3 35  1  0  0  0  0
  4  5  1  0  0  0  0
  4 13  1  0  0  0  0
  5 12  1  0  0  0  0
  5  6  1  0  0  0  0
  5 36  1  0  0  0  0
  6  7  1  0  0  0  0
  6 37  1  0  0  0  0
  6 38  1  0  0  0  0
  7  8  1  0  0  0  0
  7  9  1  0  0  0  0
  7 39  1  0  0  0  0
  8 40  1  0  0  0  0
  9 10  1  0  0  0  0
  9 12  1  0  0  0  0
  9 41  1  0  0  0  0
 10 11  1  0  0  0  0
 10 42  1  0  0  0  0
 10 43  1  0  0  0  0
 11 44  1  0  0  0  0
 13 14  2  0  0  0  0
 13 15  1  0  0  0  0
 15 16  1  0  0  0  0
 15 30  1  0  0  0  0
 16 17  1  0  0  0  0
 16 45  1  0  0  0  0
 16 46  1  0  0  0  0
 17 18  2  0  0  0  0
 17 19  1  0  0  0  0
 19 20  1  0  0  0  0
 19 47  1  0  0  0  0
 20 29  1  0  0  0  0
 20 21  2  0  0  0  0
 21 22  1  0  0  0  0
 21 48  1  0  0  0  0
 22 23  2  0  0  0  0
 22 49  1  0  0  0  0
 23 24  1  0  0  0  0
 23 28  1  0  0  0  0
 24 25  1  0  0  0  0
 24 26  1  0  0  0  0
 24 27  1  0  0  0  0
 25 50  1  0  0  0  0
 25 51  1  0  0  0  0
 25 52  1  0  0  0  0
 26 53  1  0  0  0  0
 26 54  1  0  0  0  0
 26 55  1  0  0  0  0
 27 56  1  0  0  0  0
 27 57  1  0  0  0  0
 27 58  1  0  0  0  0
 28 29  2  0  0  0  0
 28 59  1  0  0  0  0
 29 60  1  0  0  0  0
 30 31  2  0  0  0  0
M  END
> <s_m_source_file>
AV-unprocessed.smi

> <i_m_source_file_index>
284

> <i_lp_mmshare_version>
43012

> <i_f3d_flags>
0

> <s_epik_input>
W09IXVtDSDJdW0NAQEhdKE8xKVtDQEhdKFtPSF0pW0NIMl1bQ0BIXTFuKFtjSF1jMltDSDNdKWMoPU8pbihjMj1PKVtDSDJdQyg9TylbTkhdYzNbY0hdW2NIXWMoQyhbQ0gzXSkoW0NIM10pW0NIM10pW2NIXVtjSF0z

> <s_epik_cmdline>
J2VwaWtfcHl0aG9uJywgJy1waCcsICc3LjAnLCAnLXRuJywgJzgnLCAnLW1hJywgJzIwMCcsICctbWV0YWxfYmluZGluZycsICctaW1hZScsICc8aW5maWxlLm1hZT4nLCAnLW9tYWUnLCAnPG91dGZpbGUubWFlPic=

> <r_lp_tautomer_probability>
1

> <r_epik_Ionization_Penalty>
4.92358e-06

> <r_epik_Ionization_Penalty_Charging>
1.29777e-07

> <r_epik_Ionization_Penalty_Neutral>
4.79381e-06

> <r_epik_State_Penalty>
-0

> <r_epik_Charging_Adjusted_Penalty>
1.29777e-07

> <i_epik_Tot_Q>
0

> <i_epik_Tot_abs_Q>
0

> <r_epik_Metal_State_Penalty>
-0

> <b_epik_Metal_Only>
0

> <s_epik_Chemistry_Notes>
This compound contains an acetal/aminal-like group ( X-CH(R)-Y where X, Y are N, S, or O) that may be acid/base labile, releasing an aldehyde.

> <s_lp_Force_Field>
OPLS_2005

> <r_lp_Energy>
44.8012

> <b_lp_Chiralities_Consistent>
1

> <s_lp_Variant>
AV-unprocessed.smi:284-7

> <Gold.Version>
5.8.1

> <Gold.Id.Protein>
6NUR|6NUR_protein|mol2

> <Gold.PLP.Fitness>
56.2686

> <Gold.PLP.PLP>
-49.2297

> <Gold.PLP.part.hbond>
-3.0000

> <Gold.PLP.part.metal>
0.0000

> <Gold.PLP.part.buried>
-2.4295

> <Gold.PLP.part.nonpolar>
-44.8677

> <Gold.PLP.part.repulsive>
1.8161

> <Gold.PLP.ligand.clash>
0.0095

> <Gold.PLP.ligand.torsion>
1.0044

> <Gold.PLP.Chemscore.Hbond>
3.0000

> <Gold.PLP.Chemscore.CHOScore>
0.0000

> <Gold.PLP.Chemscore.Metal>
0.0000

> <Gold.Chemscore.Hbonds>
donor molecule, donor type, donor heavy atom, donor atom, acceptor molecule, acceptor atom, score
      L1  H     8    40       P1  7921  1.00
      L1  H    11    44       P1 10957  0.99
      P1  H  6896  6909       L1    18  0.96

> <Gold.PLP.Chemscore.Internal.Correction>
0.0574

> <Gold.Rescore>
     Score         DG    S(hbond)    S(metal)    S(lipo)     H(rot)  DE(clash)    DE(int)     intcor
     11.83     -19.19       2.97        0.00     104.05       3.27       1.38       5.97       ----

> <Gold.Chemscore.Fitness>
11.8304

> <Gold.Chemscore.DG>
-19.1880

> <Gold.Chemscore.ZeroCoef>
-5.4800

> <Gold.Chemscore.Hbond>
2.9685

> <Gold.Chemscore.Metal>
0.0000

> <Gold.Chemscore.Lipo>
104.0460

> <Gold.Chemscore.Internal_Hbond>
0.0000

> <Gold.Chemscore.DEClash>
1.3835

> <Gold.Chemscore.DEInternal>
5.9741

> <Gold.Chemscore.Rot>
3.2735

> <Gold.Chemscore.Internal.Correction>
   9.000000E+99

> <Gold.Chemscore.Hbonds>
donor molecule, donor type, donor heavy atom, donor atom, acceptor molecule, acceptor atom, score
      L1  H     8    40       P1  7921  1.00
      L1  H    11    44       P1 10957  0.90
      P1  H  6896  6909       L1    18  0.90

> <Gold.Chemscore.Hbond.Weighted>
-9.9147

> <Gold.Chemscore.Metal.Weighted>
-0.0000

> <Gold.Chemscore.Lipo.Weighted>
-12.1734

> <Gold.Chemscore.Internal_Hbond.Weighted>
0.0000

> <Gold.Chemscore.DEClash.Weighted>
1.3835

> <Gold.Chemscore.DEInternal.Weighted>
5.9741

> <Gold.Chemscore.Rot.Weighted>
8.3801

> <Gold.Chemscore.Internal.Correction.Weighted>
   9.000000E+99

> <Gold.Protein.RotatedTorsions>
[ 6907 6896 6895 6894 ] final  -27.58 input  -60.11 | X-H torsion
[ 7974 7965 7964 7962 ] final   58.04 input  175.53 | X-H torsion
[ 8008 7997 7996 7995 ] final   83.93 input   59.86 | X-H torsion
[ 10167 10162 10161 10158 ] final   70.39 input  -65.29 | X-H torsion
[ 10718 10713 10712 10709 ] final  -70.49 input   66.30 | X-H torsion
[ 10763 10752 10751 10750 ] final  112.11 input  -60.55 | X-H torsion
[ 11005 11000 10999 10996 ] final   92.55 input  -57.11 | X-H torsion

> <Gold.Protein.ActiveResidues>
 VAL166  LYS551  ARG553  GLY616  TRP617  ASP618  TYR619  PRO620  LYS621  CYS622 
 ASP623  PHE694  ASN695  SER759  ASP760  ASP761  ALA762  ILE779  LEU786  VAL792 
 PHE793  MET794  SER795  GLU796  ALA797  LYS798  CYS799  TRP800  GLU811  SER814 

> <Gold.Protein.RotatedAtoms>
  151.1449  135.0198  159.8641 H   0  0  0  0  0  0  0  0  0  0  0  0  # atno 6907 bound_to 6896
  152.5453  134.1456  159.8507 H   0  0  0  0  0  0  0  0  0  0  0  0  # atno 6908 bound_to 6896
  151.1535  133.4846  159.2627 H   0  0  0  0  0  0  0  0  0  0  0  0  # atno 6909 bound_to 6896
  145.9225  139.3741  143.0469 H   0  0  0  0  0  0  0  0  0  0  0  0  # atno 7974 bound_to 7965
  155.9304  140.3415  155.6244 H   0  0  0  0  0  0  0  0  0  0  0  0  # atno 8008 bound_to 7997
  155.7165  140.0778  157.2368 H   0  0  0  0  0  0  0  0  0  0  0  0  # atno 8009 bound_to 7997
  154.4084  140.1613  156.2341 H   0  0  0  0  0  0  0  0  0  0  0  0  # atno 8010 bound_to 7997
  140.0575  144.5261  150.7318 H   0  0  0  0  0  0  0  0  0  0  0  0  # atno 10167 bound_to 10162
  156.0405  130.4332  150.2303 H   0  0  0  0  0  0  0  0  0  0  0  0  # atno 10718 bound_to 10713
  153.4731  135.3696  155.2402 H   0  0  0  0  0  0  0  0  0  0  0  0  # atno 10763 bound_to 10752
  154.8756  135.3936  154.3788 H   0  0  0  0  0  0  0  0  0  0  0  0  # atno 10764 bound_to 10752
  153.4379  135.7083  153.6252 H   0  0  0  0  0  0  0  0  0  0  0  0  # atno 10765 bound_to 10752
  139.8822  134.8739  156.3588 H   0  0  0  0  0  0  0  0  0  0  0  0  # atno 11005 bound_to 11000
  145.8531  140.9518  143.0739 LP  0  0  0  0  0  0  0  0  0  0  0  0  # atno 17320 bound_to 7965
  144.6754  140.0433  143.7480 LP  0  0  0  0  0  0  0  0  0  0  0  0  # atno 17321 bound_to 7965
  140.7188  143.2569  151.4348 LP  0  0  0  0  0  0  0  0  0  0  0  0  # atno 17342 bound_to 10162
  139.5914  144.1490  152.2093 LP  0  0  0  0  0  0  0  0  0  0  0  0  # atno 17343 bound_to 10162
  157.0398  131.0032  151.3287 LP  0  0  0  0  0  0  0  0  0  0  0  0  # atno 17370 bound_to 10713
  157.5217  130.8002  149.7817 LP  0  0  0  0  0  0  0  0  0  0  0  0  # atno 17371 bound_to 10713
  140.9543  133.7430  156.0314 LP  0  0  0  0  0  0  0  0  0  0  0  0  # atno 17394 bound_to 11000
  140.8067  134.3446  157.5424 LP  0  0  0  0  0  0  0  0  0  0  0  0  # atno 17395 bound_to 11000

$$$$
