AV-unprocessed.smi:3290|AV-procd|sdf|12616|dock2
  -GOLD-   2272018543D 1   1.00000     0.00000
 Structure written by MMmdl.
 43 44  0  0  0  0  0  0  0  0  2 V2000
  148.2489  141.7231  154.2302 C   0  0  0  0  0  0  0  0  0  0  0  0
  149.5207  141.2199  154.9328 C   0  0  1  0  0  0  0  0  0  0  0  0
  149.3835  141.2886  156.4685 C   0  0  0  0  0  0  0  0  0  0  0  0
  150.6909  140.8932  157.1723 C   0  0  0  0  0  0  0  0  0  0  0  0
  151.1869  139.5173  156.7060 C   0  0  0  0  0  0  0  0  0  0  0  0
  151.3275  139.4695  155.1752 C   0  0  0  0  0  0  0  0  0  0  0  0
  150.0085  139.8219  154.4522 C   0  0  1  0  0  0  0  0  0  0  0  0
  148.9752  138.6778  154.5995 C   0  0  0  0  0  0  0  0  0  0  0  0
  148.2979  138.3708  153.3240 N   0  3  0  0  0  0  0  0  0  0  0  0
  146.8378  138.5898  153.3460 C   0  0  0  0  0  0  0  0  0  0  0  0
  146.1929  138.2181  151.9996 C   0  0  1  0  0  0  0  0  0  0  0  0
  147.0546  138.6240  150.9540 O   0  0  0  0  0  0  0  0  0  0  0  0
  145.8842  136.7309  151.9289 C   0  0  0  0  0  0  0  0  0  0  0  0
  145.5415  136.1115  150.7071 C   0  0  0  0  0  0  0  0  0  0  0  0
  145.2726  134.7282  150.7050 C   0  0  0  0  0  0  0  0  0  0  0  0
  145.3286  133.9608  151.8143 N   0  0  0  0  0  0  0  0  0  0  0  0
  145.6588  134.5575  152.9794 C   0  0  0  0  0  0  0  0  0  0  0  0
  145.9459  135.9329  153.0903 C   0  0  0  0  0  0  0  0  0  0  0  0
  147.3679  141.1585  154.5347 H   0  0  0  0  0  0  0  0  0  0  0  0
  148.3414  141.6535  153.1462 H   0  0  0  0  0  0  0  0  0  0  0  0
  148.0605  142.7690  154.4748 H   0  0  0  0  0  0  0  0  0  0  0  0
  150.3062  141.9269  154.6601 H   0  0  0  0  0  0  0  0  0  0  0  0
  149.1074  142.2997  156.7706 H   0  0  0  0  0  0  0  0  0  0  0  0
  148.5736  140.6423  156.8068 H   0  0  0  0  0  0  0  0  0  0  0  0
  151.4553  141.6434  156.9657 H   0  0  0  0  0  0  0  0  0  0  0  0
  150.5462  140.8908  158.2531 H   0  0  0  0  0  0  0  0  0  0  0  0
  152.1470  139.2944  157.1724 H   0  0  0  0  0  0  0  0  0  0  0  0
  150.4968  138.7429  157.0421 H   0  0  0  0  0  0  0  0  0  0  0  0
  152.1033  140.1731  154.8695 H   0  0  0  0  0  0  0  0  0  0  0  0
  151.6816  138.4859  154.8648 H   0  0  0  0  0  0  0  0  0  0  0  0
  150.2536  139.8997  153.3917 H   0  0  0  0  0  0  0  0  0  0  0  0
  149.4772  137.7653  154.9235 H   0  0  0  0  0  0  0  0  0  0  0  0
  148.2359  138.9118  155.3651 H   0  0  0  0  0  0  0  0  0  0  0  0
  148.6969  138.9548  152.6030 H   0  0  0  0  0  0  0  0  0  0  0  0
  146.3914  138.0120  154.1569 H   0  0  0  0  0  0  0  0  0  0  0  0
  146.6517  139.6426  153.5631 H   0  0  0  0  0  0  0  0  0  0  0  0
  145.2585  138.7697  151.8833 H   0  0  0  0  0  0  0  0  0  0  0  0
  147.6681  139.2550  151.2999 H   0  0  0  0  0  0  0  0  0  0  0  0
  145.4855  136.6788  149.7893 H   0  0  0  0  0  0  0  0  0  0  0  0
  145.0078  134.2244  149.7872 H   0  0  0  0  0  0  0  0  0  0  0  0
  145.6978  133.9198  153.8501 H   0  0  0  0  0  0  0  0  0  0  0  0
  146.2071  136.3591  154.0477 H   0  0  0  0  0  0  0  0  0  0  0  0
  148.4723  137.4039  153.0886 H   0  0  0  0  0  0  0  0  0  0  0  0
  1  2  1  0  0  0  0
  1 19  1  0  0  0  0
  1 20  1  0  0  0  0
  1 21  1  0  0  0  0
  2  7  1  0  0  0  0
  2  3  1  0  0  0  0
  2 22  1  0  0  0  0
  3  4  1  0  0  0  0
  3 23  1  0  0  0  0
  3 24  1  0  0  0  0
  4  5  1  0  0  0  0
  4 25  1  0  0  0  0
  4 26  1  0  0  0  0
  5  6  1  0  0  0  0
  5 27  1  0  0  0  0
  5 28  1  0  0  0  0
  6  7  1  0  0  0  0
  6 29  1  0  0  0  0
  6 30  1  0  0  0  0
  7  8  1  0  0  0  0
  7 31  1  0  0  0  0
  8  9  1  0  0  0  0
  8 32  1  0  0  0  0
  8 33  1  0  0  0  0
  9 10  1  0  0  0  0
  9 34  1  0  0  0  0
  9 43  1  0  0  0  0
 10 11  1  0  0  0  0
 10 35  1  0  0  0  0
 10 36  1  0  0  0  0
 11 12  1  0  0  0  0
 11 13  1  0  0  0  0
 11 37  1  0  0  0  0
 12 38  1  0  0  0  0
 13 18  1  0  0  0  0
 13 14  2  0  0  0  0
 14 15  1  0  0  0  0
 14 39  1  0  0  0  0
 15 16  2  0  0  0  0
 15 40  1  0  0  0  0
 16 17  1  0  0  0  0
 17 18  2  0  0  0  0
 17 41  1  0  0  0  0
 18 42  1  0  0  0  0
M  CHG  1   9   1
M  END
> <s_m_source_file>
AV-unprocessed.smi

> <i_m_source_file_index>
3290

> <i_lp_mmshare_version>
43012

> <i_f3d_flags>
0

> <s_epik_input>
W0NIM11bQ0BASF0xW0NIMl1bQ0gyXVtDSDJdW0NIMl1bQ0BIXTFbQ0gyXVtOSF1bQ0gyXVtDQEhdKFtPSF0pYzJbY0hdW2NIXW5bY0hdW2NIXTI=

> <s_epik_cmdline>
J2VwaWtfcHl0aG9uJywgJy1waCcsICc3LjAnLCAnLXRuJywgJzgnLCAnLW1hJywgJzIwMCcsICctbWV0YWxfYmluZGluZycsICctaW1hZScsICc8aW5maWxlLm1hZT4nLCAnLW9tYWUnLCAnPG91dGZpbGUubWFlPic=

> <r_lp_tautomer_probability>
1

> <r_epik_Ionization_Penalty>
0.00420552

> <r_epik_Ionization_Penalty_Charging>
0.00207255

> <r_epik_Ionization_Penalty_Neutral>
0.00213297

> <r_epik_State_Penalty>
-0

> <r_epik_Charging_Adjusted_Penalty>
0.00207255

> <i_epik_Tot_Q>
1

> <i_epik_Tot_abs_Q>
1

> <r_epik_Metal_State_Penalty>
-0

> <b_epik_Metal_Only>
0

> <s_lp_Force_Field>
OPLS_2005

> <r_lp_Energy>
19.3007

> <b_lp_Chiralities_Consistent>
1

> <s_lp_Variant>
AV-unprocessed.smi:3290-6

> <Gold.Version>
5.8.1

> <Gold.Id.Protein>
6NUR|6NUR_protein|mol2

> <Gold.PLP.Fitness>
47.5294

> <Gold.PLP.PLP>
-34.7217

> <Gold.PLP.part.hbond>
-4.8369

> <Gold.PLP.part.metal>
0.0000

> <Gold.PLP.part.buried>
3.8730

> <Gold.PLP.part.nonpolar>
-31.5896

> <Gold.PLP.part.repulsive>
0.1304

> <Gold.PLP.ligand.clash>
0.0000

> <Gold.PLP.ligand.torsion>
1.5339

> <Gold.PLP.Chemscore.Hbond>
4.4439

> <Gold.PLP.Chemscore.CHOScore>
0.7992

> <Gold.PLP.Chemscore.Metal>
0.0000

> <Gold.Chemscore.Hbonds>
donor molecule, donor type, donor heavy atom, donor atom, acceptor molecule, acceptor atom, score
      L1  H     9    34       P1  7957  1.00
      L1  H     9    43       P1  7948  1.86
      L1  H    12    38       P1  7957  0.84
      P1  H  7954  7966       L1    12  0.72
      L1  C    15    40       P1  7921  0.82

> <Gold.PLP.Chemscore.Internal.Correction>
0.1462

> <Gold.Rescore>
     Score         DG    S(hbond)    S(metal)    S(lipo)     H(rot)  DE(clash)    DE(int)     intcor
     18.01     -20.32       2.84        0.00      90.70       2.05       0.74       1.56       ----

> <Gold.Chemscore.Fitness>
18.0133

> <Gold.Chemscore.DG>
-20.3169

> <Gold.Chemscore.ZeroCoef>
-5.4800

> <Gold.Chemscore.Hbond>
2.8360

> <Gold.Chemscore.Metal>
0.0000

> <Gold.Chemscore.Lipo>
90.7012

> <Gold.Chemscore.Internal_Hbond>
0.0000

> <Gold.Chemscore.DEClash>
0.7414

> <Gold.Chemscore.DEInternal>
1.5623

> <Gold.Chemscore.Rot>
2.0498

> <Gold.Chemscore.Internal.Correction>
   9.000000E+99

> <Gold.Chemscore.Hbonds>
donor molecule, donor type, donor heavy atom, donor atom, acceptor molecule, acceptor atom, score
      L1  H     9    34       P1  7957  0.95
      L1  H     9    43       P1  7948  0.91
      L1  H    12    38       P1  7957  0.67
      P1  H  7954  7966       L1    12  0.09

> <Gold.Chemscore.Hbond.Weighted>
-9.4724

> <Gold.Chemscore.Metal.Weighted>
-0.0000

> <Gold.Chemscore.Lipo.Weighted>
-10.6120

> <Gold.Chemscore.Internal_Hbond.Weighted>
0.0000

> <Gold.Chemscore.DEClash.Weighted>
0.7414

> <Gold.Chemscore.DEInternal.Weighted>
1.5623

> <Gold.Chemscore.Rot.Weighted>
5.2475

> <Gold.Chemscore.Internal.Correction.Weighted>
   9.000000E+99

> <Gold.Protein.RotatedTorsions>
[ 6907 6896 6895 6894 ] final -134.15 input  -60.11 | X-H torsion
[ 7974 7965 7964 7962 ] final  133.62 input  175.53 | X-H torsion
[ 8008 7997 7996 7995 ] final  114.16 input   59.86 | X-H torsion
[ 10167 10162 10161 10158 ] final  -68.83 input  -65.29 | X-H torsion
[ 10718 10713 10712 10709 ] final -154.03 input   66.30 | X-H torsion
[ 10763 10752 10751 10750 ] final -164.85 input  -60.55 | X-H torsion
[ 11005 11000 10999 10996 ] final  140.17 input  -57.11 | X-H torsion

> <Gold.Protein.ActiveResidues>
 VAL166  LYS551  ARG553  GLY616  TRP617  ASP618  TYR619  PRO620  LYS621  CYS622 
 ASP623  PHE694  ASN695  SER759  ASP760  ASP761  ALA762  ILE779  LEU786  VAL792 
 PHE793  MET794  SER795  GLU796  ALA797  LYS798  CYS799  TRP800  GLU811  SER814 

> <Gold.Protein.RotatedAtoms>
  150.9824  133.6231  159.2720 H   0  0  0  0  0  0  0  0  0  0  0  0  # atno 6907 bound_to 6896
  151.3481  135.0877  159.9403 H   0  0  0  0  0  0  0  0  0  0  0  0  # atno 6908 bound_to 6896
  152.5220  133.9422  159.7686 H   0  0  0  0  0  0  0  0  0  0  0  0  # atno 6909 bound_to 6896
  144.9847  139.4468  143.5369 H   0  0  0  0  0  0  0  0  0  0  0  0  # atno 7974 bound_to 7965
  156.2304  140.2965  156.0173 H   0  0  0  0  0  0  0  0  0  0  0  0  # atno 8008 bound_to 7997
  155.2241  140.0416  157.2970 H   0  0  0  0  0  0  0  0  0  0  0  0  # atno 8009 bound_to 7997
  154.5986  140.2421  155.7831 H   0  0  0  0  0  0  0  0  0  0  0  0  # atno 8010 bound_to 7997
  140.5478  143.2312  151.6970 H   0  0  0  0  0  0  0  0  0  0  0  0  # atno 10167 bound_to 10162
  156.4937  130.8359  151.2581 H   0  0  0  0  0  0  0  0  0  0  0  0  # atno 10718 bound_to 10713
  154.6988  135.2984  154.9371 H   0  0  0  0  0  0  0  0  0  0  0  0  # atno 10763 bound_to 10752
  154.0310  135.6670  153.4785 H   0  0  0  0  0  0  0  0  0  0  0  0  # atno 10764 bound_to 10752
  153.0666  135.5085  154.8121 H   0  0  0  0  0  0  0  0  0  0  0  0  # atno 10765 bound_to 10752
  140.0308  134.9353  157.0658 H   0  0  0  0  0  0  0  0  0  0  0  0  # atno 11005 bound_to 11000
  146.3417  139.9141  142.8776 LP  0  0  0  0  0  0  0  0  0  0  0  0  # atno 17320 bound_to 7965
  145.2371  140.9995  143.3957 LP  0  0  0  0  0  0  0  0  0  0  0  0  # atno 17321 bound_to 7965
  139.5014  144.3867  152.0321 LP  0  0  0  0  0  0  0  0  0  0  0  0  # atno 17342 bound_to 10162
  140.2982  144.3677  150.6068 LP  0  0  0  0  0  0  0  0  0  0  0  0  # atno 17343 bound_to 10162
  157.7471  131.0005  150.2927 LP  0  0  0  0  0  0  0  0  0  0  0  0  # atno 17370 bound_to 10713
  156.3401  130.3814  149.7417 LP  0  0  0  0  0  0  0  0  0  0  0  0  # atno 17371 bound_to 10713
  140.4229  134.1862  155.7165 LP  0  0  0  0  0  0  0  0  0  0  0  0  # atno 17394 bound_to 11000
  141.1830  133.8374  157.1191 LP  0  0  0  0  0  0  0  0  0  0  0  0  # atno 17395 bound_to 11000

$$$$
