AV-unprocessed.smi:1702|AV-procd|sdf|6851|dock1
  -GOLD-   22720 8 33D 1   1.00000     0.00000
 Structure written by MMmdl.
 45 47  0  0  0  0  0  0  0  0  3 V2000
  148.1565  133.6875  156.2417 C   0  0  0  0  0  0  0  0  0  0  0  0
  148.1960  134.2281  154.8016 C   0  0  2  0  0  0  0  0  0  0  0  0
  149.5505  133.9871  154.1112 C   0  0  0  0  0  0  0  0  0  0  0  0
  150.6497  134.9262  154.6399 C   0  0  0  0  0  0  0  0  0  0  0  0
  150.2496  136.3521  154.5165 N   0  3  2  0  0  0  0  0  0  0  0  0
  151.3516  137.2733  154.8995 C   0  0  0  0  0  0  0  0  0  0  0  0
  150.8768  138.7150  155.1783 C   0  0  2  0  0  0  0  0  0  0  0  0
  150.5394  139.3413  153.9545 O   0  0  0  0  0  0  0  0  0  0  0  0
  151.9767  139.5422  155.8742 C   0  0  0  0  0  0  0  0  0  0  0  0
  151.4646  140.7667  156.5046 N   0  0  0  0  0  0  0  0  0  0  0  0
  150.5985  141.7010  156.0254 C   0  0  0  0  0  0  0  0  0  0  0  0
  150.4418  142.6493  156.9907 N   0  3  0  0  0  0  0  0  0  0  0  0
  151.2195  142.3169  158.1022 C   0  0  0  0  0  0  0  0  0  0  0  0
  151.3926  142.9638  159.3215 C   0  0  0  0  0  0  0  0  0  0  0  0
  152.2643  142.3526  160.2470 C   0  0  0  0  0  0  0  0  0  0  0  0
  152.4680  142.9398  161.4498 F   0  0  0  0  0  0  0  0  0  0  0  0
  152.9258  141.1433  159.9440 C   0  0  0  0  0  0  0  0  0  0  0  0
  153.7530  140.5885  160.8611 F   0  0  0  0  0  0  0  0  0  0  0  0
  152.7432  140.4970  158.7035 C   0  0  0  0  0  0  0  0  0  0  0  0
  151.8797  141.1085  157.7959 C   0  0  0  0  0  0  0  0  0  0  0  0
  148.9746  136.6246  155.2336 C   0  0  0  0  0  0  0  0  0  0  0  0
  147.8391  135.7229  154.7161 C   0  0  0  0  0  0  0  0  0  0  0  0
  148.8858  134.1769  156.8867 H   0  0  0  0  0  0  0  0  0  0  0  0
  148.3648  132.6175  156.2625 H   0  0  0  0  0  0  0  0  0  0  0  0
  147.1722  133.8356  156.6870 H   0  0  0  0  0  0  0  0  0  0  0  0
  147.4387  133.6752  154.2441 H   0  0  0  0  0  0  0  0  0  0  0  0
  149.8567  132.9472  154.2317 H   0  0  0  0  0  0  0  0  0  0  0  0
  149.4374  134.1450  153.0376 H   0  0  0  0  0  0  0  0  0  0  0  0
  150.8809  134.6989  155.6815 H   0  0  0  0  0  0  0  0  0  0  0  0
  151.5642  134.7517  154.0715 H   0  0  0  0  0  0  0  0  0  0  0  0
  151.8648  136.8662  155.7726 H   0  0  0  0  0  0  0  0  0  0  0  0
  152.0961  137.3070  154.1020 H   0  0  0  0  0  0  0  0  0  0  0  0
  149.9925  138.7135  155.8138 H   0  0  0  0  0  0  0  0  0  0  0  0
  149.6441  139.1317  153.7369 H   0  0  0  0  0  0  0  0  0  0  0  0
  152.4879  138.9517  156.6356 H   0  0  0  0  0  0  0  0  0  0  0  0
  152.7389  139.8420  155.1534 H   0  0  0  0  0  0  0  0  0  0  0  0
  150.1207  141.6912  155.0560 H   0  0  0  0  0  0  0  0  0  0  0  0
  150.8885  143.8894  159.5575 H   0  0  0  0  0  0  0  0  0  0  0  0
  153.2557  139.5730  158.4819 H   0  0  0  0  0  0  0  0  0  0  0  0
  149.1173  136.4790  156.3053 H   0  0  0  0  0  0  0  0  0  0  0  0
  148.6768  137.6636  155.1005 H   0  0  0  0  0  0  0  0  0  0  0  0
  147.6284  135.9811  153.6774 H   0  0  0  0  0  0  0  0  0  0  0  0
  146.9202  135.9235  155.2683 H   0  0  0  0  0  0  0  0  0  0  0  0
  150.0765  136.5055  153.5335 H   0  0  0  0  0  0  0  0  0  0  0  0
  149.8475  143.4630  156.8939 H   0  0  0  0  0  0  0  0  0  0  0  0
  1  2  1  0  0  0  0
  1 23  1  0  0  0  0
  1 24  1  0  0  0  0
  1 25  1  0  0  0  0
  2 22  1  0  0  0  0
  2  3  1  0  0  0  0
  2 26  1  0  0  0  0
  3  4  1  0  0  0  0
  3 27  1  0  0  0  0
  3 28  1  0  0  0  0
  4  5  1  0  0  0  0
  4 29  1  0  0  0  0
  4 30  1  0  0  0  0
  5  6  1  0  0  0  0
  5 21  1  0  0  0  0
  5 44  1  0  0  0  0
  6  7  1  0  0  0  0
  6 31  1  0  0  0  0
  6 32  1  0  0  0  0
  7  8  1  0  0  0  0
  7  9  1  0  0  0  0
  7 33  1  0  0  0  0
  8 34  1  0  0  0  0
  9 10  1  0  0  0  0
  9 35  1  0  0  0  0
  9 36  1  0  0  0  0
 10 20  1  0  0  0  0
 10 11  1  0  0  0  0
 11 12  2  0  0  0  0
 11 37  1  0  0  0  0
 12 13  1  0  0  0  0
 12 45  1  0  0  0  0
 13 20  2  0  0  0  0
 13 14  1  0  0  0  0
 14 15  2  0  0  0  0
 14 38  1  0  0  0  0
 15 16  1  0  0  0  0
 15 17  1  0  0  0  0
 17 18  1  0  0  0  0
 17 19  2  0  0  0  0
 19 20  1  0  0  0  0
 19 39  1  0  0  0  0
 21 22  1  0  0  0  0
 21 40  1  0  0  0  0
 21 41  1  0  0  0  0
 22 42  1  0  0  0  0
 22 43  1  0  0  0  0
M  CHG  1   5   1
M  CHG  1  12   1
M  END
> <s_m_source_file>
AV-unprocessed.smi

> <i_m_source_file_index>
1702

> <i_lp_mmshare_version>
43012

> <i_f3d_flags>
0

> <s_epik_input>
W0NIM11bQ0hdMVtDSDJdW0NIMl1OKFtDSDJdW0NIMl0xKVtDSDJdW0NASF0oW09IXSlbQ0gyXW4oW2NIXW4yKWMoYzIzKVtjSF1jKEYpYyhGKVtjSF0z

> <s_epik_cmdline>
J2VwaWtfcHl0aG9uJywgJy1waCcsICc3LjAnLCAnLXRuJywgJzgnLCAnLW1hJywgJzIwMCcsICctbWV0YWxfYmluZGluZycsICctaW1hZScsICc8aW5maWxlLm1hZT4nLCAnLW9tYWUnLCAnPG91dGZpbGUubWFlPic=

> <r_epik_Ionization_Penalty>
2.33291

> <r_epik_Ionization_Penalty_Charging>
2.33291

> <r_epik_Ionization_Penalty_Neutral>
6.90208e-07

> <r_epik_State_Penalty>
2.4838

> <r_epik_Charging_Adjusted_Penalty>
4.81672

> <i_epik_Tot_Q>
2

> <i_epik_Tot_abs_Q>
2

> <r_epik_Metal_State_Penalty>
6.56754

> <b_epik_Metal_Only>
0

> <s_lp_Force_Field>
OPLS_2005

> <r_lp_Energy>
33.1183

> <b_lp_Chiralities_Consistent>
1

> <s_lp_Variant>
AV-unprocessed.smi:1702-7

> <Gold.Version>
5.8.1

> <Gold.Id.Protein>
6NUR|6NUR_protein|mol2

> <Gold.PLP.Fitness>
57.8183

> <Gold.PLP.PLP>
-43.9010

> <Gold.PLP.part.hbond>
-4.0000

> <Gold.PLP.part.metal>
0.0000

> <Gold.PLP.part.buried>
-5.6324

> <Gold.PLP.part.nonpolar>
-35.0113

> <Gold.PLP.part.repulsive>
0.0870

> <Gold.PLP.ligand.clash>
0.0000

> <Gold.PLP.ligand.torsion>
0.5908

> <Gold.PLP.Chemscore.Hbond>
5.0000

> <Gold.PLP.Chemscore.CHOScore>
0.0000

> <Gold.PLP.Chemscore.Metal>
0.0000

> <Gold.Chemscore.Hbonds>
donor molecule, donor type, donor heavy atom, donor atom, acceptor molecule, acceptor atom, score
      L1  H     5    44       P1  7948  1.50
      L1  H    12    45       P1  8028  1.92
      P1  H  7989  7998       L1     8  1.00

> <Gold.PLP.Chemscore.Internal.Correction>
0.0989

> <Gold.Rescore>
     Score         DG    S(hbond)    S(metal)    S(lipo)     H(rot)  DE(clash)    DE(int)     intcor
     17.34     -18.48       2.47        0.00      91.21       2.32       0.69       0.45       ----

> <Gold.Chemscore.Fitness>
17.3399

> <Gold.Chemscore.DG>
-18.4754

> <Gold.Chemscore.ZeroCoef>
-5.4800

> <Gold.Chemscore.Hbond>
2.4746

> <Gold.Chemscore.Metal>
0.0000

> <Gold.Chemscore.Lipo>
91.2130

> <Gold.Chemscore.Internal_Hbond>
0.0000

> <Gold.Chemscore.DEClash>
0.6888

> <Gold.Chemscore.DEInternal>
0.4468

> <Gold.Chemscore.Rot>
2.3210

> <Gold.Chemscore.Internal.Correction>
   9.000000E+99

> <Gold.Chemscore.Hbonds>
donor molecule, donor type, donor heavy atom, donor atom, acceptor molecule, acceptor atom, score
      L1  H     5    44       P1  7948  0.09
      L1  H    12    45       P1  8028  0.88
      P1  H  7989  7998       L1     8  0.90

> <Gold.Chemscore.Hbond.Weighted>
-8.2651

> <Gold.Chemscore.Metal.Weighted>
-0.0000

> <Gold.Chemscore.Lipo.Weighted>
-10.6719

> <Gold.Chemscore.Internal_Hbond.Weighted>
0.0000

> <Gold.Chemscore.DEClash.Weighted>
0.6888

> <Gold.Chemscore.DEInternal.Weighted>
0.4468

> <Gold.Chemscore.Rot.Weighted>
5.9416

> <Gold.Chemscore.Internal.Correction.Weighted>
   9.000000E+99

> <Gold.Protein.RotatedTorsions>
[ 6907 6896 6895 6894 ] final  -97.79 input  -60.11 | X-H torsion
[ 7974 7965 7964 7962 ] final  -30.88 input  175.53 | X-H torsion
[ 8008 7997 7996 7995 ] final   58.21 input   59.86 | X-H torsion
[ 10167 10162 10161 10158 ] final  -96.76 input  -65.29 | X-H torsion
[ 10718 10713 10712 10709 ] final -160.55 input   66.30 | X-H torsion
[ 10763 10752 10751 10750 ] final -158.59 input  -60.55 | X-H torsion
[ 11005 11000 10999 10996 ] final  159.54 input  -57.11 | X-H torsion

> <Gold.Protein.ActiveResidues>
 VAL166  LYS551  ARG553  GLY616  TRP617  ASP618  TYR619  PRO620  LYS621  CYS622 
 ASP623  PHE694  ASN695  SER759  ASP760  ASP761  ALA762  ILE779  LEU786  VAL792 
 PHE793  MET794  SER795  GLU796  ALA797  LYS798  CYS799  TRP800  GLU811  SER814 

> <Gold.Protein.RotatedAtoms>
  150.7027  134.1295  159.4064 H   0  0  0  0  0  0  0  0  0  0  0  0  # atno 6907 bound_to 6896
  151.9281  135.0266  160.0536 H   0  0  0  0  0  0  0  0  0  0  0  0  # atno 6908 bound_to 6896
  152.2199  133.4940  159.5193 H   0  0  0  0  0  0  0  0  0  0  0  0  # atno 6909 bound_to 6896
  146.1110  140.5596  142.8778 H   0  0  0  0  0  0  0  0  0  0  0  0  # atno 7974 bound_to 7965
  155.5463  140.3485  155.4458 H   0  0  0  0  0  0  0  0  0  0  0  0  # atno 8008 bound_to 7997
  156.0615  140.1341  156.9961 H   0  0  0  0  0  0  0  0  0  0  0  0  # atno 8009 bound_to 7997
  154.4482  140.0984  156.6509 H   0  0  0  0  0  0  0  0  0  0  0  0  # atno 8010 bound_to 7997
  140.2905  143.3224  152.0351 H   0  0  0  0  0  0  0  0  0  0  0  0  # atno 10167 bound_to 10162
  156.5837  130.8740  151.2871 H   0  0  0  0  0  0  0  0  0  0  0  0  # atno 10718 bound_to 10713
  154.7544  135.3101  154.8497 H   0  0  0  0  0  0  0  0  0  0  0  0  # atno 10763 bound_to 10752
  153.9275  135.6789  153.4750 H   0  0  0  0  0  0  0  0  0  0  0  0  # atno 10764 bound_to 10752
  153.1141  135.4853  154.9014 H   0  0  0  0  0  0  0  0  0  0  0  0  # atno 10765 bound_to 10752
  140.1971  134.8365  157.2977 H   0  0  0  0  0  0  0  0  0  0  0  0  # atno 11005 bound_to 11000
  144.7511  140.5193  143.6801 LP  0  0  0  0  0  0  0  0  0  0  0  0  # atno 17320 bound_to 7965
  145.5664  139.1481  143.3312 LP  0  0  0  0  0  0  0  0  0  0  0  0  # atno 17321 bound_to 7965
  139.4939  144.6528  151.6638 LP  0  0  0  0  0  0  0  0  0  0  0  0  # atno 17342 bound_to 10162
  140.5736  144.0066  150.6230 LP  0  0  0  0  0  0  0  0  0  0  0  0  # atno 17343 bound_to 10162
  157.7320  130.9709  150.1908 LP  0  0  0  0  0  0  0  0  0  0  0  0  # atno 17370 bound_to 10713
  156.2609  130.3711  149.8131 LP  0  0  0  0  0  0  0  0  0  0  0  0  # atno 17371 bound_to 10713
  140.2095  134.4156  155.7620 LP  0  0  0  0  0  0  0  0  0  0  0  0  # atno 17394 bound_to 11000
  141.2227  133.7111  156.8314 LP  0  0  0  0  0  0  0  0  0  0  0  0  # atno 17395 bound_to 11000

$$$$
