AV-unprocessed.smi:99|AV-procd|sdf|886|dock8
  -GOLD-   2262017363D 1   1.00000     0.00000
 Structure written by MMmdl.
 52 55  0  0  0  0  0  0  0  0  2 V2000
  147.4007  137.5459  160.4469 O   0  0  0  0  0  0  0  0  0  0  0  0
  147.8061  136.5205  159.8960 C   0  0  0  0  0  0  0  0  0  0  0  0
  148.5996  136.5220  158.8077 O   0  0  0  0  0  0  0  0  0  0  0  0
  149.1448  137.7397  158.3299 C   0  0  0  0  0  0  0  0  0  0  0  0
  150.4210  137.4425  157.5178 C   0  0  1  0  0  0  0  0  0  0  0  0
  150.1083  136.7323  156.3223 O   0  0  0  0  0  0  0  0  0  0  0  0
  149.7910  137.6096  155.2769 C   0  0  1  0  0  0  0  0  0  0  0  0
  148.2815  137.6284  155.0759 N   0  0  0  0  0  0  0  0  0  0  0  0
  147.5431  138.7808  155.3027 C   0  0  0  0  0  0  0  0  0  0  0  0
  146.2025  138.8036  155.1600 C   0  0  0  0  0  0  0  0  0  0  0  0
  145.5028  137.5805  154.7831 C   0  0  0  0  0  0  0  0  0  0  0  0
  144.2864  137.6186  154.6090 O   0  0  0  0  0  0  0  0  0  0  0  0
  146.2366  136.4391  154.6492 N   0  5  0  0  0  0  0  0  0  0  0  0
  147.5910  136.4104  154.8152 C   0  0  0  0  0  0  0  0  0  0  0  0
  148.2472  135.3704  154.7606 O   0  0  0  0  0  0  0  0  0  0  0  0
  150.3586  138.9903  155.6896 C   0  0  2  0  0  0  0  0  0  0  0  0
  151.2559  139.5011  154.7258 O   0  0  0  0  0  0  0  0  0  0  0  0
  151.1203  138.6904  156.9730 C   0  0  1  0  0  0  0  0  0  0  0  0
  151.0463  139.7997  157.8613 O   0  0  0  0  0  0  0  0  0  0  0  0
  152.1652  140.3322  158.3957 C   0  0  0  0  0  0  0  0  0  0  0  0
  153.1983  139.6912  158.5981 O   0  0  0  0  0  0  0  0  0  0  0  0
  152.0151  141.7786  158.7257 C   0  0  0  0  0  0  0  0  0  0  0  0
  150.9938  142.5307  158.0996 C   0  0  0  0  0  0  0  0  0  0  0  0
  150.8282  143.8983  158.3926 C   0  0  0  0  0  0  0  0  0  0  0  0
  151.6828  144.5310  159.3141 C   0  0  0  0  0  0  0  0  0  0  0  0
  152.7037  143.7942  159.9422 C   0  0  0  0  0  0  0  0  0  0  0  0
  152.8706  142.4263  159.6511 C   0  0  0  0  0  0  0  0  0  0  0  0
  147.4634  135.1457  160.3599 C   0  0  0  0  0  0  0  0  0  0  0  0
  146.8905  134.9695  161.6408 C   0  0  0  0  0  0  0  0  0  0  0  0
  146.5514  133.6834  162.1039 C   0  0  0  0  0  0  0  0  0  0  0  0
  146.7799  132.5579  161.2912 C   0  0  0  0  0  0  0  0  0  0  0  0
  147.3481  132.7201  160.0145 C   0  0  0  0  0  0  0  0  0  0  0  0
  147.6883  134.0054  159.5497 C   0  0  0  0  0  0  0  0  0  0  0  0
  148.4170  138.2839  157.7272 H   0  0  0  0  0  0  0  0  0  0  0  0
  149.3817  138.3671  159.1898 H   0  0  0  0  0  0  0  0  0  0  0  0
  151.1087  136.8571  158.1288 H   0  0  0  0  0  0  0  0  0  0  0  0
  150.1846  137.2243  154.3349 H   0  0  0  0  0  0  0  0  0  0  0  0
  148.0301  139.6930  155.6097 H   0  0  0  0  0  0  0  0  0  0  0  0
  145.6496  139.7141  155.3395 H   0  0  0  0  0  0  0  0  0  0  0  0
  149.5480  139.6948  155.8823 H   0  0  0  0  0  0  0  0  0  0  0  0
  152.0975  139.0920  154.8652 H   0  0  0  0  0  0  0  0  0  0  0  0
  152.1553  138.4439  156.7286 H   0  0  0  0  0  0  0  0  0  0  0  0
  150.3258  142.0668  157.3879 H   0  0  0  0  0  0  0  0  0  0  0  0
  150.0443  144.4625  157.9091 H   0  0  0  0  0  0  0  0  0  0  0  0
  151.5551  145.5796  159.5386 H   0  0  0  0  0  0  0  0  0  0  0  0
  153.3608  144.2783  160.6496 H   0  0  0  0  0  0  0  0  0  0  0  0
  153.6646  141.8911  160.1513 H   0  0  0  0  0  0  0  0  0  0  0  0
  146.7047  135.8190  162.2823 H   0  0  0  0  0  0  0  0  0  0  0  0
  146.1153  133.5610  163.0842 H   0  0  0  0  0  0  0  0  0  0  0  0
  146.5193  131.5718  161.6465 H   0  0  0  0  0  0  0  0  0  0  0  0
  147.5236  131.8571  159.3893 H   0  0  0  0  0  0  0  0  0  0  0  0
  148.1205  134.0944  158.5638 H   0  0  0  0  0  0  0  0  0  0  0  0
  1  2  2  0  0  0  0
  2  3  1  0  0  0  0
  2 28  1  0  0  0  0
  3  4  1  0  0  0  0
  4  5  1  0  0  0  0
  4 34  1  0  0  0  0
  4 35  1  0  0  0  0
  5 18  1  0  0  0  0
  5  6  1  0  0  0  0
  5 36  1  0  0  0  0
  6  7  1  0  0  0  0
  7  8  1  0  0  0  0
  7 16  1  0  0  0  0
  7 37  1  0  0  0  0
  8 14  1  0  0  0  0
  8  9  1  0  0  0  0
  9 10  2  0  0  0  0
  9 38  1  0  0  0  0
 10 11  1  0  0  0  0
 10 39  1  0  0  0  0
 11 12  2  0  0  0  0
 11 13  1  0  0  0  0
 13 14  1  0  0  0  0
 14 15  2  0  0  0  0
 16 17  1  0  0  0  0
 16 18  1  0  0  0  0
 16 40  1  0  0  0  0
 17 41  1  0  0  0  0
 18 19  1  0  0  0  0
 18 42  1  0  0  0  0
 19 20  1  0  0  0  0
 20 21  2  0  0  0  0
 20 22  1  0  0  0  0
 22 27  1  0  0  0  0
 22 23  2  0  0  0  0
 23 24  1  0  0  0  0
 23 43  1  0  0  0  0
 24 25  2  0  0  0  0
 24 44  1  0  0  0  0
 25 26  1  0  0  0  0
 25 45  1  0  0  0  0
 26 27  2  0  0  0  0
 26 46  1  0  0  0  0
 27 47  1  0  0  0  0
 28 33  1  0  0  0  0
 28 29  2  0  0  0  0
 29 30  1  0  0  0  0
 29 48  1  0  0  0  0
 30 31  2  0  0  0  0
 30 49  1  0  0  0  0
 31 32  1  0  0  0  0
 31 50  1  0  0  0  0
 32 33  2  0  0  0  0
 32 51  1  0  0  0  0
 33 52  1  0  0  0  0
M  CHG  1  13  -1
M  END
> <s_m_source_file>
AV-unprocessed.smi

> <i_m_source_file_index>
99

> <i_lp_mmshare_version>
43012

> <i_f3d_flags>
0

> <s_epik_input>
W2NIXTFbY0hdW2NIXVtjSF1bY0hdYzFDKD1PKU9bQ0gyXVtDQEBIXTJPW0NAQEhdKG4zW2NIXVtjSF1jKD1PKVtuSF1jMz1PKVtDQEBIXShbT0hdKVtDQEhdMk9DKD1PKWM0W2NIXVtjSF1bY0hdW2NIXVtjSF00

> <s_epik_cmdline>
J2VwaWtfcHl0aG9uJywgJy1waCcsICc3LjAnLCAnLXRuJywgJzgnLCAnLW1hJywgJzIwMCcsICctbWV0YWxfYmluZGluZycsICctaW1hZScsICc8aW5maWxlLm1hZT4nLCAnLW9tYWUnLCAnPG91dGZpbGUubWFlPic=

> <r_lp_tautomer_probability>
1

> <r_epik_Ionization_Penalty>
2.89159

> <r_epik_Ionization_Penalty_Charging>
2.1077e-08

> <r_epik_Ionization_Penalty_Neutral>
2.89159

> <r_epik_State_Penalty>
2.88671

> <r_epik_Charging_Adjusted_Penalty>
2.88671

> <i_epik_Tot_Q>
-1

> <i_epik_Tot_abs_Q>
1

> <r_epik_Metal_State_Penalty>
0.0727308

> <b_epik_Metal_Only>
1

> <s_epik_Chemistry_Notes>
This compound has an ester and may undergo hydrolysis at high or low pH. This compound contains an acetal/aminal-like group ( X-CH(R)-Y where X, Y are N, S, or O) that may be acid/base labile, releasing an aldehyde.

> <s_lp_Force_Field>
OPLS_2005

> <r_lp_Energy>
40.5539

> <b_lp_Chiralities_Consistent>
1

> <s_lp_Variant>
AV-unprocessed.smi:99-22

> <Gold.Version>
5.8.1

> <Gold.Id.Protein>
6NUR|6NUR_protein|mol2

> <Gold.PLP.Fitness>
52.7555

> <Gold.PLP.PLP>
-45.0110

> <Gold.PLP.part.hbond>
-3.9274

> <Gold.PLP.part.metal>
0.0000

> <Gold.PLP.part.buried>
-6.8026

> <Gold.PLP.part.nonpolar>
-35.7190

> <Gold.PLP.part.repulsive>
0.2336

> <Gold.PLP.ligand.clash>
0.0000

> <Gold.PLP.ligand.torsion>
1.5966

> <Gold.PLP.Chemscore.Hbond>
3.5360

> <Gold.PLP.Chemscore.CHOScore>
0.0000

> <Gold.PLP.Chemscore.Metal>
0.0000

> <Gold.Chemscore.Hbonds>
donor molecule, donor type, donor heavy atom, donor atom, acceptor molecule, acceptor atom, score
      P1  H  6931  6943       L1     1  0.21
      P1  H  6934  6947       L1     1  1.00
      P1  H  7989  7998       L1    17  1.00
      P1  H  7997  8010       L1    21  0.76

> <Gold.PLP.Chemscore.Internal.Correction>
0.3298

> <Gold.Rescore>
     Score         DG    S(hbond)    S(metal)    S(lipo)     H(rot)  DE(clash)    DE(int)     intcor
     18.09     -21.03       3.04        0.00     114.54       3.13       0.02       2.92       ----

> <Gold.Chemscore.Fitness>
18.0887

> <Gold.Chemscore.DG>
-21.0257

> <Gold.Chemscore.ZeroCoef>
-5.4800

> <Gold.Chemscore.Hbond>
3.0445

> <Gold.Chemscore.Metal>
0.0000

> <Gold.Chemscore.Lipo>
114.5440

> <Gold.Chemscore.Internal_Hbond>
0.0000

> <Gold.Chemscore.DEClash>
0.0174

> <Gold.Chemscore.DEInternal>
2.9196

> <Gold.Chemscore.Rot>
3.1346

> <Gold.Chemscore.Internal.Correction>
   9.000000E+99

> <Gold.Chemscore.Hbonds>
donor molecule, donor type, donor heavy atom, donor atom, acceptor molecule, acceptor atom, score
      P1  H  6931  6943       L1     1  0.13
      P1  H  6934  6947       L1     1  0.93
      P1  H  7989  7998       L1    17  0.40
      P1  H  7997  8010       L1    21  0.55

> <Gold.Chemscore.Hbond.Weighted>
-10.1686

> <Gold.Chemscore.Metal.Weighted>
-0.0000

> <Gold.Chemscore.Lipo.Weighted>
-13.4017

> <Gold.Chemscore.Internal_Hbond.Weighted>
0.0000

> <Gold.Chemscore.DEClash.Weighted>
0.0174

> <Gold.Chemscore.DEInternal.Weighted>
2.9196

> <Gold.Chemscore.Rot.Weighted>
8.0246

> <Gold.Chemscore.Internal.Correction.Weighted>
   9.000000E+99

> <Gold.Protein.RotatedTorsions>
[ 6907 6896 6895 6894 ] final -158.04 input  -60.11 | X-H torsion
[ 7974 7965 7964 7962 ] final  -52.48 input  175.53 | X-H torsion
[ 8008 7997 7996 7995 ] final   35.46 input   59.86 | X-H torsion
[ 10167 10162 10161 10158 ] final   53.78 input  -65.29 | X-H torsion
[ 10718 10713 10712 10709 ] final -160.47 input   66.30 | X-H torsion
[ 10763 10752 10751 10750 ] final   96.20 input  -60.55 | X-H torsion
[ 11005 11000 10999 10996 ] final   96.06 input  -57.11 | X-H torsion

> <Gold.Protein.ActiveResidues>
 VAL166  LYS551  ARG553  GLY616  TRP617  ASP618  TYR619  PRO620  LYS621  CYS622 
 ASP623  PHE694  ASN695  SER759  ASP760  ASP761  ALA762  ILE779  LEU786  VAL792 
 PHE793  MET794  SER795  GLU796  ALA797  LYS798  CYS799  TRP800  GLU811  SER814 

> <Gold.Protein.RotatedAtoms>
  151.3121  133.4076  159.2647 H   0  0  0  0  0  0  0  0  0  0  0  0  # atno 6907 bound_to 6896
  151.0105  134.9394  159.8015 H   0  0  0  0  0  0  0  0  0  0  0  0  # atno 6908 bound_to 6896
  152.5299  134.3085  159.9157 H   0  0  0  0  0  0  0  0  0  0  0  0  # atno 6909 bound_to 6896
  145.9075  140.7943  142.9712 H   0  0  0  0  0  0  0  0  0  0  0  0  # atno 7974 bound_to 7965
  155.1715  140.3292  155.4392 H   0  0  0  0  0  0  0  0  0  0  0  0  # atno 8008 bound_to 7997
  156.2508  140.1943  156.6768 H   0  0  0  0  0  0  0  0  0  0  0  0  # atno 8009 bound_to 7997
  154.6334  140.0579  156.9746 H   0  0  0  0  0  0  0  0  0  0  0  0  # atno 8010 bound_to 7997
  140.2371  144.3624  150.6393 H   0  0  0  0  0  0  0  0  0  0  0  0  # atno 10167 bound_to 10162
  156.5825  130.8736  151.2868 H   0  0  0  0  0  0  0  0  0  0  0  0  # atno 10718 bound_to 10713
  153.2621  135.4227  155.0904 H   0  0  0  0  0  0  0  0  0  0  0  0  # atno 10763 bound_to 10752
  154.8424  135.3451  154.6363 H   0  0  0  0  0  0  0  0  0  0  0  0  # atno 10764 bound_to 10752
  153.6783  135.7040  153.5183 H   0  0  0  0  0  0  0  0  0  0  0  0  # atno 10765 bound_to 10752
  139.8784  134.8931  156.4102 H   0  0  0  0  0  0  0  0  0  0  0  0  # atno 11005 bound_to 11000
  144.6740  140.1774  143.7409 LP  0  0  0  0  0  0  0  0  0  0  0  0  # atno 17320 bound_to 7965
  145.8713  139.2273  143.1659 LP  0  0  0  0  0  0  0  0  0  0  0  0  # atno 17321 bound_to 7965
  140.6142  143.2171  151.6826 LP  0  0  0  0  0  0  0  0  0  0  0  0  # atno 17342 bound_to 10162
  139.5090  144.3592  152.0578 LP  0  0  0  0  0  0  0  0  0  0  0  0  # atno 17343 bound_to 10162
  157.7323  130.9713  150.1921 LP  0  0  0  0  0  0  0  0  0  0  0  0  # atno 17370 bound_to 10713
  156.2619  130.3712  149.8122 LP  0  0  0  0  0  0  0  0  0  0  0  0  # atno 17371 bound_to 10713
  140.9205  133.7648  155.9901 LP  0  0  0  0  0  0  0  0  0  0  0  0  # atno 17394 bound_to 11000
  140.8444  134.3028  157.5300 LP  0  0  0  0  0  0  0  0  0  0  0  0  # atno 17395 bound_to 11000

$$$$
