AV-unprocessed.smi:3231|AV-procd|sdf|12331|dock2
  -GOLD-   2272018183D 1   1.00000     0.00000
 Structure written by MMmdl.
 41 42  0  0  0  0  0  0  0  0  2 V2000
  146.3214  139.4814  151.2521 O   0  0  0  0  0  0  0  0  0  0  0  0
  146.9128  138.9617  152.4279 C   0  0  2  0  0  0  0  0  0  0  0  0
  146.0206  137.8117  152.9272 C   0  0  0  0  0  0  0  0  0  0  0  0
  146.0401  136.6749  151.9853 N   0  3  0  0  0  0  0  0  0  0  0  0
  145.3049  135.4845  152.4572 C   0  0  0  0  0  0  0  0  0  0  0  0
  144.3629  134.9379  151.3716 C   0  0  0  0  0  0  0  0  0  0  0  0
  144.9719  133.8769  150.5890 N   0  0  0  0  0  0  0  0  0  0  0  0
  144.4057  133.1156  149.5877 C   0  0  0  0  0  0  0  0  0  0  0  0
  145.3604  132.2415  149.1531 C   0  0  0  0  0  0  0  0  0  0  0  0
  146.4891  132.5413  149.9660 C   0  0  0  0  0  0  0  0  0  0  0  0
  146.2529  133.5206  150.8243 N   0  0  0  0  0  0  0  0  0  0  0  0
  147.0351  140.0962  153.4685 C   0  0  0  0  0  0  0  0  0  0  0  0
  148.2415  140.0564  154.2952 N   0  0  0  0  0  0  0  0  0  0  0  0
  148.6804  141.4036  154.6459 C   0  0  0  0  0  0  0  0  0  0  0  0
  149.9485  141.3894  155.5169 C   0  0  0  0  0  0  0  0  0  0  0  0
  150.9826  140.6857  154.8372 O   0  0  0  0  0  0  0  0  0  0  0  0
  150.6161  139.3476  154.5177 C   0  0  0  0  0  0  0  0  0  0  0  0
  149.3465  139.3516  153.6480 C   0  0  0  0  0  0  0  0  0  0  0  0
  145.6636  138.8737  150.9493 H   0  0  0  0  0  0  0  0  0  0  0  0
  147.9027  138.5672  152.1925 H   0  0  0  0  0  0  0  0  0  0  0  0
  146.3827  137.4542  153.8922 H   0  0  0  0  0  0  0  0  0  0  0  0
  144.9961  138.1557  153.0774 H   0  0  0  0  0  0  0  0  0  0  0  0
  145.6362  136.9794  151.1110 H   0  0  0  0  0  0  0  0  0  0  0  0
  146.0135  134.7151  152.7669 H   0  0  0  0  0  0  0  0  0  0  0  0
  144.7253  135.7546  153.3406 H   0  0  0  0  0  0  0  0  0  0  0  0
  143.4544  134.5441  151.8294 H   0  0  0  0  0  0  0  0  0  0  0  0
  144.0523  135.7383  150.6988 H   0  0  0  0  0  0  0  0  0  0  0  0
  143.3833  133.2577  149.2692 H   0  0  0  0  0  0  0  0  0  0  0  0
  145.2660  131.4973  148.3761 H   0  0  0  0  0  0  0  0  0  0  0  0
  147.4657  132.0799  149.9579 H   0  0  0  0  0  0  0  0  0  0  0  0
  146.9309  141.0712  152.9893 H   0  0  0  0  0  0  0  0  0  0  0  0
  146.1799  140.0150  154.1407 H   0  0  0  0  0  0  0  0  0  0  0  0
  148.8752  141.9775  153.7386 H   0  0  0  0  0  0  0  0  0  0  0  0
  147.8853  141.9253  155.1798 H   0  0  0  0  0  0  0  0  0  0  0  0
  150.2823  142.4075  155.7179 H   0  0  0  0  0  0  0  0  0  0  0  0
  149.7509  140.9193  156.4816 H   0  0  0  0  0  0  0  0  0  0  0  0
  151.4389  138.8693  153.9857 H   0  0  0  0  0  0  0  0  0  0  0  0
  150.4540  138.7792  155.4348 H   0  0  0  0  0  0  0  0  0  0  0  0
  149.0657  138.3196  153.4394 H   0  0  0  0  0  0  0  0  0  0  0  0
  149.5697  139.8170  152.6866 H   0  0  0  0  0  0  0  0  0  0  0  0
  147.0019  136.4131  151.8218 H   0  0  0  0  0  0  0  0  0  0  0  0
  1  2  1  0  0  0  0
  1 19  1  0  0  0  0
  2  3  1  0  0  0  0
  2 12  1  0  0  0  0
  2 20  1  0  0  0  0
  3  4  1  0  0  0  0
  3 21  1  0  0  0  0
  3 22  1  0  0  0  0
  4  5  1  0  0  0  0
  4 23  1  0  0  0  0
  4 41  1  0  0  0  0
  5  6  1  0  0  0  0
  5 24  1  0  0  0  0
  5 25  1  0  0  0  0
  6  7  1  0  0  0  0
  6 26  1  0  0  0  0
  6 27  1  0  0  0  0
  7 11  1  0  0  0  0
  7  8  1  0  0  0  0
  8  9  2  0  0  0  0
  8 28  1  0  0  0  0
  9 10  1  0  0  0  0
  9 29  1  0  0  0  0
 10 11  2  0  0  0  0
 10 30  1  0  0  0  0
 12 13  1  0  0  0  0
 12 31  1  0  0  0  0
 12 32  1  0  0  0  0
 13 18  1  0  0  0  0
 13 14  1  0  0  0  0
 14 15  1  0  0  0  0
 14 33  1  0  0  0  0
 14 34  1  0  0  0  0
 15 16  1  0  0  0  0
 15 35  1  0  0  0  0
 15 36  1  0  0  0  0
 16 17  1  0  0  0  0
 17 18  1  0  0  0  0
 17 37  1  0  0  0  0
 17 38  1  0  0  0  0
 18 39  1  0  0  0  0
 18 40  1  0  0  0  0
M  CHG  1   4   1
M  END
> <s_m_source_file>
AV-unprocessed.smi

> <i_m_source_file_index>
3231

> <i_lp_mmshare_version>
43012

> <i_f3d_flags>
0

> <s_epik_input>
W0NIMl0xW0NIMl1PW0NIMl1bQ0gyXU4xW0NIMl1bQ0BIXShbT0hdKVtDSDJdW05IXVtDSDJdW0NIMl1uMltjSF1bY0hdW2NIXW4y

> <s_epik_cmdline>
J2VwaWtfcHl0aG9uJywgJy1waCcsICc3LjAnLCAnLXRuJywgJzgnLCAnLW1hJywgJzIwMCcsICctbWV0YWxfYmluZGluZycsICctaW1hZScsICc8aW5maWxlLm1hZT4nLCAnLW9tYWUnLCAnPG91dGZpbGUubWFlPic=

> <r_lp_tautomer_probability>
1

> <r_epik_Ionization_Penalty>
0.1292

> <r_epik_Ionization_Penalty_Charging>
0.0387518

> <r_epik_Ionization_Penalty_Neutral>
0.0904484

> <r_epik_State_Penalty>
0.234133

> <r_epik_Charging_Adjusted_Penalty>
0.272885

> <i_epik_Tot_Q>
1

> <i_epik_Tot_abs_Q>
1

> <r_epik_Metal_State_Penalty>
0.234414

> <b_epik_Metal_Only>
0

> <s_lp_Force_Field>
OPLS_2005

> <r_lp_Energy>
29.315

> <b_lp_Chiralities_Consistent>
1

> <s_lp_Variant>
AV-unprocessed.smi:3231-1

> <Gold.Version>
5.8.1

> <Gold.Id.Protein>
6NUR|6NUR_protein|mol2

> <Gold.PLP.Fitness>
49.7829

> <Gold.PLP.PLP>
-35.5787

> <Gold.PLP.part.hbond>
-3.8539

> <Gold.PLP.part.metal>
0.0000

> <Gold.PLP.part.buried>
0.1105

> <Gold.PLP.part.nonpolar>
-31.9968

> <Gold.PLP.part.repulsive>
0.3935

> <Gold.PLP.ligand.clash>
0.0000

> <Gold.PLP.ligand.torsion>
1.5761

> <Gold.PLP.Chemscore.Hbond>
3.6552

> <Gold.PLP.Chemscore.CHOScore>
2.0000

> <Gold.PLP.Chemscore.Metal>
0.0000

> <Gold.Chemscore.Hbonds>
donor molecule, donor type, donor heavy atom, donor atom, acceptor molecule, acceptor atom, score
      L1  H     1    19       P1 10171  0.70
      L1  H     4    41       P1  7948  2.00
      P1  H  7989  7998       L1    16  0.55
      L1  C     8    28       P1 10186  0.68
      L1  C    10    30       P1 10747  0.81

> <Gold.PLP.Chemscore.Internal.Correction>
0.3909

> <Gold.Rescore>
     Score         DG    S(hbond)    S(metal)    S(lipo)     H(rot)  DE(clash)    DE(int)     intcor
     13.75     -16.73       2.19        0.00      95.43       2.83       1.47       1.51       ----

> <Gold.Chemscore.Fitness>
13.7475

> <Gold.Chemscore.DG>
-16.7273

> <Gold.Chemscore.ZeroCoef>
-5.4800

> <Gold.Chemscore.Hbond>
2.1900

> <Gold.Chemscore.Metal>
0.0000

> <Gold.Chemscore.Lipo>
95.4254

> <Gold.Chemscore.Internal_Hbond>
0.0000

> <Gold.Chemscore.DEClash>
1.4686

> <Gold.Chemscore.DEInternal>
1.5112

> <Gold.Chemscore.Rot>
2.8251

> <Gold.Chemscore.Internal.Correction>
   9.000000E+99

> <Gold.Chemscore.Hbonds>
donor molecule, donor type, donor heavy atom, donor atom, acceptor molecule, acceptor atom, score
      L1  H     1    19       P1 10171  0.69
      L1  H     4    41       P1  7948  0.99
      P1  H  7989  7998       L1    16  0.04

> <Gold.Chemscore.Hbond.Weighted>
-7.3147

> <Gold.Chemscore.Metal.Weighted>
-0.0000

> <Gold.Chemscore.Lipo.Weighted>
-11.1648

> <Gold.Chemscore.Internal_Hbond.Weighted>
0.0000

> <Gold.Chemscore.DEClash.Weighted>
1.4686

> <Gold.Chemscore.DEInternal.Weighted>
1.5112

> <Gold.Chemscore.Rot.Weighted>
7.2322

> <Gold.Chemscore.Internal.Correction.Weighted>
   9.000000E+99

> <Gold.Protein.RotatedTorsions>
[ 6907 6896 6895 6894 ] final -141.60 input  -60.11 | X-H torsion
[ 7974 7965 7964 7962 ] final -128.08 input  175.53 | X-H torsion
[ 8008 7997 7996 7995 ] final  -92.11 input   59.86 | X-H torsion
[ 10167 10162 10161 10158 ] final   83.90 input  -65.29 | X-H torsion
[ 10718 10713 10712 10709 ] final  154.62 input   66.30 | X-H torsion
[ 10763 10752 10751 10750 ] final   13.39 input  -60.55 | X-H torsion
[ 11005 11000 10999 10996 ] final  123.50 input  -57.11 | X-H torsion

> <Gold.Protein.ActiveResidues>
 VAL166  LYS551  ARG553  GLY616  TRP617  ASP618  TYR619  PRO620  LYS621  CYS622 
 ASP623  PHE694  ASN695  SER759  ASP760  ASP761  ALA762  ILE779  LEU786  VAL792 
 PHE793  MET794  SER795  GLU796  ALA797  LYS798  CYS799  TRP800  GLU811  SER814 

> <Gold.Protein.RotatedAtoms>
  151.0760  133.5428  159.2623 H   0  0  0  0  0  0  0  0  0  0  0  0  # atno 6907 bound_to 6896
  151.2349  135.0567  159.9012 H   0  0  0  0  0  0  0  0  0  0  0  0  # atno 6908 bound_to 6896
  152.5418  134.0543  159.8178 H   0  0  0  0  0  0  0  0  0  0  0  0  # atno 6909 bound_to 6896
  144.9706  140.7542  143.4673 H   0  0  0  0  0  0  0  0  0  0  0  0  # atno 7974 bound_to 7965
  154.7190  140.0512  157.0622 H   0  0  0  0  0  0  0  0  0  0  0  0  # atno 8008 bound_to 7997
  155.0452  140.3173  155.4691 H   0  0  0  0  0  0  0  0  0  0  0  0  # atno 8009 bound_to 7997
  156.2811  140.2125  156.5577 H   0  0  0  0  0  0  0  0  0  0  0  0  # atno 8010 bound_to 7997
  139.9136  144.6256  150.8512 H   0  0  0  0  0  0  0  0  0  0  0  0  # atno 10167 bound_to 10162
  157.2292  131.0735  151.1864 H   0  0  0  0  0  0  0  0  0  0  0  0  # atno 10718 bound_to 10713
  153.1726  135.6815  153.8587 H   0  0  0  0  0  0  0  0  0  0  0  0  # atno 10763 bound_to 10752
  153.7945  135.3164  155.3384 H   0  0  0  0  0  0  0  0  0  0  0  0  # atno 10764 bound_to 10752
  154.8008  135.4779  154.0364 H   0  0  0  0  0  0  0  0  0  0  0  0  # atno 10765 bound_to 10752
  139.9315  134.9641  156.8269 H   0  0  0  0  0  0  0  0  0  0  0  0  # atno 11005 bound_to 11000
  145.2564  139.2010  143.4915 LP  0  0  0  0  0  0  0  0  0  0  0  0  # atno 17320 bound_to 7965
  146.3381  140.2486  142.8598 LP  0  0  0  0  0  0  0  0  0  0  0  0  # atno 17321 bound_to 7965
  140.7679  143.3348  151.2333 LP  0  0  0  0  0  0  0  0  0  0  0  0  # atno 17342 bound_to 10162
  139.6921  143.9674  152.2864 LP  0  0  0  0  0  0  0  0  0  0  0  0  # atno 17343 bound_to 10162
  157.3496  130.7075  149.6432 LP  0  0  0  0  0  0  0  0  0  0  0  0  # atno 17370 bound_to 10713
  155.9676  130.4256  150.4662 LP  0  0  0  0  0  0  0  0  0  0  0  0  # atno 17371 bound_to 10713
  140.6188  134.0013  155.7609 LP  0  0  0  0  0  0  0  0  0  0  0  0  # atno 17394 bound_to 11000
  141.0907  133.9921  157.3242 LP  0  0  0  0  0  0  0  0  0  0  0  0  # atno 17395 bound_to 11000

$$$$
