AV-unprocessed.smi:2701|AV-procd|sdf|10428|dock7
  -GOLD-   2272014463D 1   1.00000     0.00000
 Structure written by MMmdl.
 31 32  0  0  0  0  0  0  0  0  2 V2000
  151.7319  141.2164  157.4005 C   0  0  0  0  0  0  0  0  0  0  0  0
  151.9541  139.7126  157.1405 C   0  0  1  0  0  0  0  0  0  0  0  0
  152.5398  139.0004  158.3848 C   0  0  0  0  0  0  0  0  0  0  0  0
  151.8715  138.1400  158.9598 O   0  0  0  0  0  0  0  0  0  0  0  0
  153.7867  139.4352  158.6910 N   0  5  0  0  0  0  0  0  0  0  0  0
  154.2192  139.9379  160.1711 S   0  0  0  0  0  0  0  0  0  0  0  0
  153.9705  138.9168  161.2010 O   0  0  0  0  0  0  0  0  0  0  0  0
  155.5564  140.5509  160.1534 O   0  0  0  0  0  0  0  0  0  0  0  0
  153.0228  141.3129  160.5107 C   0  0  0  0  0  0  0  0  0  0  0  0
  153.2349  141.8852  161.8851 C   0  0  0  0  0  0  0  0  0  0  0  0
  152.5475  142.9651  162.5054 C   0  0  0  0  0  0  0  0  0  0  0  0
  153.1319  143.0515  163.7359 C   0  0  0  0  0  0  0  0  0  0  0  0
  154.0886  142.0996  163.8754 O   0  0  0  0  0  0  0  0  0  0  0  0
  154.1424  141.3555  162.6915 N   0  0  0  0  0  0  0  0  0  0  0  0
  150.6916  139.0140  156.5936 C   0  0  0  0  0  0  0  0  0  0  0  0
  151.2542  138.0099  155.6121 C   0  0  0  0  0  0  0  0  0  0  0  0
  152.4044  138.8036  155.0101 C   0  0  0  0  0  0  0  0  0  0  0  0
  152.9079  139.6030  156.0764 O   0  0  0  0  0  0  0  0  0  0  0  0
  150.9082  141.3883  158.0944 H   0  0  0  0  0  0  0  0  0  0  0  0
  151.4925  141.7412  156.4753 H   0  0  0  0  0  0  0  0  0  0  0  0
  152.6242  141.6841  157.8185 H   0  0  0  0  0  0  0  0  0  0  0  0
  153.1187  142.0766  159.7405 H   0  0  0  0  0  0  0  0  0  0  0  0
  152.0189  140.8982  160.4221 H   0  0  0  0  0  0  0  0  0  0  0  0
  151.7556  143.5802  162.1067 H   0  0  0  0  0  0  0  0  0  0  0  0
  152.9820  143.7017  164.5849 H   0  0  0  0  0  0  0  0  0  0  0  0
  150.0696  138.5435  157.3555 H   0  0  0  0  0  0  0  0  0  0  0  0
  150.0619  139.7295  156.0629 H   0  0  0  0  0  0  0  0  0  0  0  0
  151.6328  137.1325  156.1380 H   0  0  0  0  0  0  0  0  0  0  0  0
  150.5271  137.6806  154.8698 H   0  0  0  0  0  0  0  0  0  0  0  0
  153.1805  138.1649  154.5880 H   0  0  0  0  0  0  0  0  0  0  0  0
  152.0396  139.4631  154.2217 H   0  0  0  0  0  0  0  0  0  0  0  0
  1  2  1  0  0  0  0
  1 19  1  0  0  0  0
  1 20  1  0  0  0  0
  1 21  1  0  0  0  0
  2 18  1  0  0  0  0
  2  3  1  0  0  0  0
  2 15  1  0  0  0  0
  3  4  2  0  0  0  0
  3  5  1  0  0  0  0
  5  6  1  0  0  0  0
  6  7  2  0  0  0  0
  6  8  2  0  0  0  0
  6  9  1  0  0  0  0
  9 10  1  0  0  0  0
  9 22  1  0  0  0  0
  9 23  1  0  0  0  0
 10 14  2  0  0  0  0
 10 11  1  0  0  0  0
 11 12  2  0  0  0  0
 11 24  1  0  0  0  0
 12 13  1  0  0  0  0
 12 25  1  0  0  0  0
 13 14  1  0  0  0  0
 15 16  1  0  0  0  0
 15 26  1  0  0  0  0
 15 27  1  0  0  0  0
 16 17  1  0  0  0  0
 16 28  1  0  0  0  0
 16 29  1  0  0  0  0
 17 18  1  0  0  0  0
 17 30  1  0  0  0  0
 17 31  1  0  0  0  0
M  CHG  1   5  -1
M  END
> <s_m_source_file>
AV-unprocessed.smi

> <i_m_source_file_index>
2701

> <i_lp_mmshare_version>
43012

> <i_f3d_flags>
0

> <s_epik_input>
TzFbQ0gyXVtDSDJdW0NIMl1bQ0BAXTEoW0NIM10pQyg9TylbTkhdUyg9TykoPU8pW0NIMl1jMltjSF1bY0hdb24y

> <s_epik_cmdline>
J2VwaWtfcHl0aG9uJywgJy1waCcsICc3LjAnLCAnLXRuJywgJzgnLCAnLW1hJywgJzIwMCcsICctbWV0YWxfYmluZGluZycsICctaW1hZScsICc8aW5maWxlLm1hZT4nLCAnLW9tYWUnLCAnPG91dGZpbGUubWFlPic=

> <r_lp_tautomer_probability>
1

> <r_epik_Ionization_Penalty>
0.000279175

> <r_epik_Ionization_Penalty_Charging>
0.000279174

> <r_epik_Ionization_Penalty_Neutral>
1.67252e-10

> <r_epik_State_Penalty>
-0

> <r_epik_Charging_Adjusted_Penalty>
0.000279174

> <i_epik_Tot_Q>
-1

> <i_epik_Tot_abs_Q>
1

> <r_epik_Metal_State_Penalty>
-0

> <b_epik_Metal_Only>
0

> <s_lp_Force_Field>
OPLS_2005

> <r_lp_Energy>
15.6344

> <b_lp_Chiralities_Consistent>
1

> <s_lp_Variant>
AV-unprocessed.smi:2701-1

> <Gold.Version>
5.8.1

> <Gold.Id.Protein>
6NUR|6NUR_protein|mol2

> <Gold.PLP.Fitness>
39.6097

> <Gold.PLP.PLP>
-34.1649

> <Gold.PLP.part.hbond>
-4.0170

> <Gold.PLP.part.metal>
0.0000

> <Gold.PLP.part.buried>
-4.6883

> <Gold.PLP.part.nonpolar>
-23.5421

> <Gold.PLP.part.repulsive>
0.0147

> <Gold.PLP.ligand.clash>
0.0000

> <Gold.PLP.ligand.torsion>
1.2451

> <Gold.PLP.Chemscore.Hbond>
2.2880

> <Gold.PLP.Chemscore.CHOScore>
0.0000

> <Gold.PLP.Chemscore.Metal>
0.0000

> <Gold.Chemscore.Hbonds>
donor molecule, donor type, donor heavy atom, donor atom, acceptor molecule, acceptor atom, score
      P1  H  7997  8008       L1     5  0.93
      P1  H  7997  8009       L1    18  0.90

> <Gold.PLP.Chemscore.Internal.Correction>
1.0709

> <Gold.Rescore>
     Score         DG    S(hbond)    S(metal)    S(lipo)     H(rot)  DE(clash)    DE(int)     intcor
     11.47     -14.23       1.34        0.00      70.60       1.56       0.09       2.67       ----

> <Gold.Chemscore.Fitness>
11.4684

> <Gold.Chemscore.DG>
-14.2290

> <Gold.Chemscore.ZeroCoef>
-5.4800

> <Gold.Chemscore.Hbond>
1.3413

> <Gold.Chemscore.Metal>
0.0000

> <Gold.Chemscore.Lipo>
70.6009

> <Gold.Chemscore.Internal_Hbond>
0.0000

> <Gold.Chemscore.DEClash>
0.0940

> <Gold.Chemscore.DEInternal>
2.6666

> <Gold.Chemscore.Rot>
1.5591

> <Gold.Chemscore.Internal.Correction>
   9.000000E+99

> <Gold.Chemscore.Hbonds>
donor molecule, donor type, donor heavy atom, donor atom, acceptor molecule, acceptor atom, score
      P1  H  7997  8008       L1     5  0.28
      P1  H  7997  8009       L1    18  0.83

> <Gold.Chemscore.Hbond.Weighted>
-4.4801

> <Gold.Chemscore.Metal.Weighted>
-0.0000

> <Gold.Chemscore.Lipo.Weighted>
-8.2603

> <Gold.Chemscore.Internal_Hbond.Weighted>
0.0000

> <Gold.Chemscore.DEClash.Weighted>
0.0940

> <Gold.Chemscore.DEInternal.Weighted>
2.6666

> <Gold.Chemscore.Rot.Weighted>
3.9914

> <Gold.Chemscore.Internal.Correction.Weighted>
   9.000000E+99

> <Gold.Protein.RotatedTorsions>
[ 6907 6896 6895 6894 ] final    8.39 input  -60.11 | X-H torsion
[ 7974 7965 7964 7962 ] final  137.15 input  175.53 | X-H torsion
[ 8008 7997 7996 7995 ] final -135.38 input   59.86 | X-H torsion
[ 10167 10162 10161 10158 ] final   14.42 input  -65.29 | X-H torsion
[ 10718 10713 10712 10709 ] final  128.59 input   66.30 | X-H torsion
[ 10763 10752 10751 10750 ] final   97.98 input  -60.55 | X-H torsion
[ 11005 11000 10999 10996 ] final  -24.47 input  -57.11 | X-H torsion

> <Gold.Protein.ActiveResidues>
 VAL166  LYS551  ARG553  GLY616  TRP617  ASP618  TYR619  PRO620  LYS621  CYS622 
 ASP623  PHE694  ASN695  SER759  ASP760  ASP761  ALA762  ILE779  LEU786  VAL792 
 PHE793  MET794  SER795  GLU796  ALA797  LYS798  CYS799  TRP800  GLU811  SER814 

> <Gold.Protein.RotatedAtoms>
  151.7052  135.0923  160.0257 H   0  0  0  0  0  0  0  0  0  0  0  0  # atno 6907 bound_to 6896
  152.3696  133.6397  159.6085 H   0  0  0  0  0  0  0  0  0  0  0  0  # atno 6908 bound_to 6896
  150.7663  133.9208  159.3439 H   0  0  0  0  0  0  0  0  0  0  0  0  # atno 6909 bound_to 6896
  144.9495  139.4835  143.5532 H   0  0  0  0  0  0  0  0  0  0  0  0  # atno 7974 bound_to 7965
  155.3778  140.0492  157.3044 H   0  0  0  0  0  0  0  0  0  0  0  0  # atno 8008 bound_to 7997
  154.5098  140.2187  155.9141 H   0  0  0  0  0  0  0  0  0  0  0  0  # atno 8009 bound_to 7997
  156.1569  140.3124  155.8746 H   0  0  0  0  0  0  0  0  0  0  0  0  # atno 8010 bound_to 7997
  140.5936  143.8746  150.6897 H   0  0  0  0  0  0  0  0  0  0  0  0  # atno 10167 bound_to 10162
  157.5230  131.1098  150.9124 H   0  0  0  0  0  0  0  0  0  0  0  0  # atno 10718 bound_to 10713
  153.2835  135.4164  155.1100 H   0  0  0  0  0  0  0  0  0  0  0  0  # atno 10763 bound_to 10752
  154.8497  135.3501  154.6080 H   0  0  0  0  0  0  0  0  0  0  0  0  # atno 10764 bound_to 10752
  153.6501  135.7053  153.5269 H   0  0  0  0  0  0  0  0  0  0  0  0  # atno 10765 bound_to 10752
  140.8848  133.7629  156.0347 H   0  0  0  0  0  0  0  0  0  0  0  0  # atno 11005 bound_to 11000
  146.3316  139.8571  142.8863 LP  0  0  0  0  0  0  0  0  0  0  0  0  # atno 17320 bound_to 7965
  145.2866  141.0154  143.3687 LP  0  0  0  0  0  0  0  0  0  0  0  0  # atno 17321 bound_to 7965
  140.2274  143.3761  152.1593 LP  0  0  0  0  0  0  0  0  0  0  0  0  # atno 17342 bound_to 10162
  139.5244  144.7083  151.5287 LP  0  0  0  0  0  0  0  0  0  0  0  0  # atno 17343 bound_to 10162
  156.9729  130.5498  149.5291 LP  0  0  0  0  0  0  0  0  0  0  0  0  # atno 17370 bound_to 10713
  156.0367  130.5454  150.8671 LP  0  0  0  0  0  0  0  0  0  0  0  0  # atno 17371 bound_to 10713
  140.8418  134.3058  157.5310 LP  0  0  0  0  0  0  0  0  0  0  0  0  # atno 17394 bound_to 11000
  139.8723  134.9420  156.3813 LP  0  0  0  0  0  0  0  0  0  0  0  0  # atno 17395 bound_to 11000

$$$$
