AV-unprocessed.smi:227|AV-procd|sdf|1739|dock6
  -GOLD-   2262020243D 1   1.00000     0.00000
 Structure written by MMmdl.
 54 58  0  0  0  0  0  0  0  0  1 V2000
  143.6543  135.0506  158.9136 O   0  0  0  0  0  0  0  0  0  0  0  0
  144.3319  134.0566  159.6549 C   0  0  0  0  0  0  0  0  0  0  0  0
  145.7902  134.4758  159.9724 C   0  0  2  0  0  0  0  0  0  0  0  0
  146.6175  134.6663  158.6666 C   0  0  0  0  0  0  0  0  0  0  0  0
  147.5408  135.7914  158.7037 N   0  0  0  0  0  0  0  0  0  0  0  0
  147.9421  136.4887  159.8201 C   0  0  0  0  0  0  0  0  0  0  0  0
  148.7720  137.4694  159.5952 N   0  0  0  0  0  0  0  0  0  0  0  0
  148.9740  137.4409  158.2202 C   0  0  0  0  0  0  0  0  0  0  0  0
  149.7418  138.2224  157.3080 C   0  0  0  0  0  0  0  0  0  0  0  0
  150.4945  139.2933  157.6786 N   0  0  0  0  0  0  0  0  0  0  0  0
  151.8592  139.4588  157.2025 C   0  0  2  0  0  0  0  0  0  0  0  0
  152.3563  140.6427  158.0498 C   0  0  0  0  0  0  0  0  0  0  0  0
  151.0744  141.4836  158.1728 C   0  0  0  0  0  0  0  0  0  0  0  0
  150.0832  140.6489  157.3412 C   0  0  1  0  0  0  0  0  0  0  0  0
  150.4382  140.8193  155.8421 C   0  0  2  0  0  0  0  0  0  0  0  0
  149.3003  140.4352  154.8757 C   0  0  0  0  0  0  0  0  0  0  0  0
  149.6154  140.8505  153.5639 O   0  0  0  0  0  0  0  0  0  0  0  0
  151.6866  139.9192  155.7398 C   0  0  0  0  0  0  0  0  0  0  0  0
  149.7171  137.8536  155.9997 N   0  0  0  0  0  0  0  0  0  0  0  0
  148.9730  136.8194  155.6004 C   0  0  0  0  0  0  0  0  0  0  0  0
  148.1923  136.0241  156.3317 N   0  0  0  0  0  0  0  0  0  0  0  0
  148.2231  136.3737  157.6489 C   0  0  0  0  0  0  0  0  0  0  0  0
  146.4703  133.4912  160.9762 C   0  0  1  0  0  0  0  0  0  0  0  0
  147.7963  133.9960  161.5385 C   0  0  0  0  0  0  0  0  0  0  0  0
  147.3841  134.8597  162.7310 C   0  0  0  0  0  0  0  0  0  0  0  0
  146.0802  134.4230  163.0975 O   0  0  0  0  0  0  0  0  0  0  0  0
  145.7290  133.2970  162.3072 C   0  0  0  0  0  0  0  0  0  0  0  0
  143.4434  135.7666  159.4936 H   0  0  0  0  0  0  0  0  0  0  0  0
  143.7504  133.9176  160.5632 H   0  0  0  0  0  0  0  0  0  0  0  0
  144.2998  133.1119  159.1122 H   0  0  0  0  0  0  0  0  0  0  0  0
  145.7374  135.4526  160.4554 H   0  0  0  0  0  0  0  0  0  0  0  0
  147.1954  133.7678  158.4496 H   0  0  0  0  0  0  0  0  0  0  0  0
  145.9673  134.7845  157.8014 H   0  0  0  0  0  0  0  0  0  0  0  0
  147.5896  136.2513  160.8133 H   0  0  0  0  0  0  0  0  0  0  0  0
  152.4922  138.5769  157.3079 H   0  0  0  0  0  0  0  0  0  0  0  0
  152.6901  140.3080  159.0328 H   0  0  0  0  0  0  0  0  0  0  0  0
  153.1767  141.1834  157.5766 H   0  0  0  0  0  0  0  0  0  0  0  0
  150.7539  141.5396  159.2139 H   0  0  0  0  0  0  0  0  0  0  0  0
  151.1948  142.5022  157.8023 H   0  0  0  0  0  0  0  0  0  0  0  0
  149.0506  140.9042  157.5729 H   0  0  0  0  0  0  0  0  0  0  0  0
  150.7038  141.8598  155.6486 H   0  0  0  0  0  0  0  0  0  0  0  0
  149.1178  139.3611  154.8675 H   0  0  0  0  0  0  0  0  0  0  0  0
  148.3699  140.9174  155.1763 H   0  0  0  0  0  0  0  0  0  0  0  0
  149.3266  140.1837  152.9596 H   0  0  0  0  0  0  0  0  0  0  0  0
  152.5596  140.4515  155.3610 H   0  0  0  0  0  0  0  0  0  0  0  0
  151.5096  139.0656  155.0841 H   0  0  0  0  0  0  0  0  0  0  0  0
  149.0049  136.6005  154.5433 H   0  0  0  0  0  0  0  0  0  0  0  0
  146.6023  132.5239  160.4903 H   0  0  0  0  0  0  0  0  0  0  0  0
  148.3792  133.1452  161.8950 H   0  0  0  0  0  0  0  0  0  0  0  0
  148.4277  134.5354  160.8360 H   0  0  0  0  0  0  0  0  0  0  0  0
  148.0815  134.7603  163.5630 H   0  0  0  0  0  0  0  0  0  0  0  0
  147.3347  135.9128  162.4527 H   0  0  0  0  0  0  0  0  0  0  0  0
  144.6507  133.1782  162.2326 H   0  0  0  0  0  0  0  0  0  0  0  0
  146.1045  132.4033  162.8085 H   0  0  0  0  0  0  0  0  0  0  0  0
  1  2  1  0  0  0  0
  1 28  1  0  0  0  0
  2  3  1  0  0  0  0
  2 29  1  0  0  0  0
  2 30  1  0  0  0  0
  3  4  1  0  0  0  0
  3 23  1  0  0  0  0
  3 31  1  0  0  0  0
  4  5  1  0  0  0  0
  4 32  1  0  0  0  0
  4 33  1  0  0  0  0
  5 22  1  0  0  0  0
  5  6  1  0  0  0  0
  6  7  2  0  0  0  0
  6 34  1  0  0  0  0
  7  8  1  0  0  0  0
  8 22  2  0  0  0  0
  8  9  1  0  0  0  0
  9 10  1  0  0  0  0
  9 19  2  0  0  0  0
 10 14  1  0  0  0  0
 10 11  1  0  0  0  0
 11 18  1  0  0  0  0
 11 12  1  0  0  0  0
 11 35  1  0  0  0  0
 12 13  1  0  0  0  0
 12 36  1  0  0  0  0
 12 37  1  0  0  0  0
 13 14  1  0  0  0  0
 13 38  1  0  0  0  0
 13 39  1  0  0  0  0
 14 15  1  0  0  0  0
 14 40  1  0  0  0  0
 15 16  1  0  0  0  0
 15 18  1  0  0  0  0
 15 41  1  0  0  0  0
 16 17  1  0  0  0  0
 16 42  1  0  0  0  0
 16 43  1  0  0  0  0
 17 44  1  0  0  0  0
 18 45  1  0  0  0  0
 18 46  1  0  0  0  0
 19 20  1  0  0  0  0
 20 21  2  0  0  0  0
 20 47  1  0  0  0  0
 21 22  1  0  0  0  0
 23 27  1  0  0  0  0
 23 24  1  0  0  0  0
 23 48  1  0  0  0  0
 24 25  1  0  0  0  0
 24 49  1  0  0  0  0
 24 50  1  0  0  0  0
 25 26  1  0  0  0  0
 25 51  1  0  0  0  0
 25 52  1  0  0  0  0
 26 27  1  0  0  0  0
 27 53  1  0  0  0  0
 27 54  1  0  0  0  0
M  END
> <s_m_source_file>
AV-unprocessed.smi

> <i_m_source_file_index>
227

> <i_lp_mmshare_version>
43012

> <i_f3d_flags>
0

> <s_epik_input>
W0NIMl0xT1tDSDJdW0NIMl1bQ0BIXTFbQ0BIXShbQ0gyXVtPSF0pW0NIMl1uKFtjSF1uMiljKGMyMyluW2NIXW5jM04oW0NASF00NSlbQ0BASF0oW0NIMl1bQ0gyXTQpW0NASF0oW0NIMl01KVtDSDJdW09IXQ==

> <s_epik_cmdline>
J2VwaWtfcHl0aG9uJywgJy1waCcsICc3LjAnLCAnLXRuJywgJzgnLCAnLW1hJywgJzIwMCcsICctbWV0YWxfYmluZGluZycsICctaW1hZScsICc8aW5maWxlLm1hZT4nLCAnLW9tYWUnLCAnPG91dGZpbGUubWFlPic=

> <r_lp_tautomer_probability>
1

> <r_epik_Ionization_Penalty>
0.0055791

> <r_epik_Ionization_Penalty_Charging>
0

> <r_epik_Ionization_Penalty_Neutral>
0.0055791

> <r_epik_State_Penalty>
0.00401299

> <r_epik_Charging_Adjusted_Penalty>
0.00401299

> <i_epik_Tot_Q>
0

> <i_epik_Tot_abs_Q>
0

> <r_epik_Metal_State_Penalty>
-0

> <b_epik_Metal_Only>
0

> <s_lp_Force_Field>
OPLS_2005

> <r_lp_Energy>
89.9209

> <b_lp_Chiralities_Consistent>
1

> <s_lp_Variant>
AV-unprocessed.smi:227-13

> <Gold.Version>
5.8.1

> <Gold.Id.Protein>
6NUR|6NUR_protein|mol2

> <Gold.PLP.Fitness>
42.1248

> <Gold.PLP.PLP>
-36.2726

> <Gold.PLP.part.hbond>
-5.0253

> <Gold.PLP.part.metal>
0.0000

> <Gold.PLP.part.buried>
-4.9720

> <Gold.PLP.part.nonpolar>
-25.4103

> <Gold.PLP.part.repulsive>
0.0624

> <Gold.PLP.ligand.clash>
0.0000

> <Gold.PLP.ligand.torsion>
1.1009

> <Gold.PLP.Chemscore.Hbond>
1.9600

> <Gold.PLP.Chemscore.CHOScore>
0.6550

> <Gold.PLP.Chemscore.Metal>
0.0000

> <Gold.Chemscore.Hbonds>
donor molecule, donor type, donor heavy atom, donor atom, acceptor molecule, acceptor atom, score
      L1  H    17    44       P1  7957  0.59
      P1  H  6931  6943       L1     7  0.01
      P1  H  7989  7998       L1    17  0.35
      P1  H  8011  8017       L1    17  1.00
      L1  C    20    47       P1  7948  0.60

> <Gold.PLP.Chemscore.Internal.Correction>
0.2090

> <Gold.Rescore>
     Score         DG    S(hbond)    S(metal)    S(lipo)     H(rot)  DE(clash)    DE(int)     intcor
      6.31     -10.11       1.36        0.00      79.60       3.61       0.00       3.79       ----

> <Gold.Chemscore.Fitness>
6.3082

> <Gold.Chemscore.DG>
-10.1056

> <Gold.Chemscore.ZeroCoef>
-5.4800

> <Gold.Chemscore.Hbond>
1.3613

> <Gold.Chemscore.Metal>
0.0000

> <Gold.Chemscore.Lipo>
79.5974

> <Gold.Chemscore.Internal_Hbond>
0.0000

> <Gold.Chemscore.DEClash>
0.0038

> <Gold.Chemscore.DEInternal>
3.7936

> <Gold.Chemscore.Rot>
3.6071

> <Gold.Chemscore.Internal.Correction>
   9.000000E+99

> <Gold.Chemscore.Hbonds>
donor molecule, donor type, donor heavy atom, donor atom, acceptor molecule, acceptor atom, score
      L1  H    17    44       P1  7957  0.58
      P1  H  6931  6943       L1     7  0.01
      P1  H  7989  7998       L1    17  0.11
      P1  H  8011  8017       L1    17  0.28

> <Gold.Chemscore.Hbond.Weighted>
-4.5469

> <Gold.Chemscore.Metal.Weighted>
-0.0000

> <Gold.Chemscore.Lipo.Weighted>
-9.3129

> <Gold.Chemscore.Internal_Hbond.Weighted>
0.0000

> <Gold.Chemscore.DEClash.Weighted>
0.0038

> <Gold.Chemscore.DEInternal.Weighted>
3.7936

> <Gold.Chemscore.Rot.Weighted>
9.2342

> <Gold.Chemscore.Internal.Correction.Weighted>
   9.000000E+99

> <Gold.Protein.RotatedTorsions>
[ 6907 6896 6895 6894 ] final   61.36 input  -60.11 | X-H torsion
[ 7974 7965 7964 7962 ] final   72.29 input  175.53 | X-H torsion
[ 8008 7997 7996 7995 ] final -131.91 input   59.86 | X-H torsion
[ 10167 10162 10161 10158 ] final  108.60 input  -65.29 | X-H torsion
[ 10718 10713 10712 10709 ] final  117.22 input   66.30 | X-H torsion
[ 10763 10752 10751 10750 ] final  141.12 input  -60.55 | X-H torsion
[ 11005 11000 10999 10996 ] final -119.52 input  -57.11 | X-H torsion

> <Gold.Protein.ActiveResidues>
 VAL166  LYS551  ARG553  GLY616  TRP617  ASP618  TYR619  PRO620  LYS621  CYS622 
 ASP623  PHE694  ASN695  SER759  ASP760  ASP761  ALA762  ILE779  LEU786  VAL792 
 PHE793  MET794  SER795  GLU796  ALA797  LYS798  CYS799  TRP800  GLU811  SER814 

> <Gold.Protein.RotatedAtoms>
  152.4082  134.6170  160.0040 H   0  0  0  0  0  0  0  0  0  0  0  0  # atno 6907 bound_to 6896
  151.6355  133.3323  159.3126 H   0  0  0  0  0  0  0  0  0  0  0  0  # atno 6908 bound_to 6896
  150.7975  134.7086  159.6635 H   0  0  0  0  0  0  0  0  0  0  0  0  # atno 6909 bound_to 6896
  145.7552  139.2777  143.1408 H   0  0  0  0  0  0  0  0  0  0  0  0  # atno 7974 bound_to 7965
  155.3201  140.0461  157.3039 H   0  0  0  0  0  0  0  0  0  0  0  0  # atno 8008 bound_to 7997
  154.5385  140.2280  155.8648 H   0  0  0  0  0  0  0  0  0  0  0  0  # atno 8009 bound_to 7997
  156.1858  140.3063  155.9241 H   0  0  0  0  0  0  0  0  0  0  0  0  # atno 8010 bound_to 7997
  139.6833  144.7116  151.1476 H   0  0  0  0  0  0  0  0  0  0  0  0  # atno 10167 bound_to 10162
  157.6110  131.1034  150.7584 H   0  0  0  0  0  0  0  0  0  0  0  0  # atno 10718 bound_to 10713
  153.9340  135.2987  155.3445 H   0  0  0  0  0  0  0  0  0  0  0  0  # atno 10763 bound_to 10752
  154.7512  135.4979  153.9295 H   0  0  0  0  0  0  0  0  0  0  0  0  # atno 10764 bound_to 10752
  153.1076  135.6751  153.9663 H   0  0  0  0  0  0  0  0  0  0  0  0  # atno 10765 bound_to 10752
  141.0209  134.0125  157.3283 H   0  0  0  0  0  0  0  0  0  0  0  0  # atno 11005 bound_to 11000
  146.0318  140.8251  142.9872 LP  0  0  0  0  0  0  0  0  0  0  0  0  # atno 17320 bound_to 7965
  144.6841  140.2779  143.7296 LP  0  0  0  0  0  0  0  0  0  0  0  0  # atno 17321 bound_to 7965
  140.7659  143.5666  150.9041 LP  0  0  0  0  0  0  0  0  0  0  0  0  # atno 17342 bound_to 10162
  139.9339  143.6460  152.3070 LP  0  0  0  0  0  0  0  0  0  0  0  0  # atno 17343 bound_to 10162
  156.7962  130.4906  149.5377 LP  0  0  0  0  0  0  0  0  0  0  0  0  # atno 17370 bound_to 10713
  156.1213  130.6112  151.0198 LP  0  0  0  0  0  0  0  0  0  0  0  0  # atno 17371 bound_to 10713
  139.9146  135.0195  156.7828 LP  0  0  0  0  0  0  0  0  0  0  0  0  # atno 17394 bound_to 11000
  140.6574  133.9676  155.7787 LP  0  0  0  0  0  0  0  0  0  0  0  0  # atno 17395 bound_to 11000

$$$$
