AV-unprocessed.smi:2008|AV-procd|sdf|8142|dock1
  -GOLD-   2272010383D 1   1.00000     0.00000
 Structure written by MMmdl.
 46 47  0  0  0  0  0  0  0  0  2 V2000
  154.3973  140.6642  161.2816 C   0  0  0  0  0  0  0  0  0  0  0  0
  154.2719  141.9322  160.6468 O   0  0  0  0  0  0  0  0  0  0  0  0
  153.3247  142.0759  159.6536 C   0  0  0  0  0  0  0  0  0  0  0  0
  152.7585  140.9162  159.0884 C   0  0  0  0  0  0  0  0  0  0  0  0
  151.7926  141.0585  158.0744 C   0  0  0  0  0  0  0  0  0  0  0  0
  151.4273  142.3511  157.6471 C   0  0  0  0  0  0  0  0  0  0  0  0
  150.4407  142.4626  156.6298 N   0  0  0  0  0  0  0  0  0  0  0  0
  150.1679  141.6061  155.6303 C   0  0  0  0  0  0  0  0  0  0  0  0
  150.7560  140.5462  155.4160 O   0  0  0  0  0  0  0  0  0  0  0  0
  149.1438  142.0414  154.8821 N   0  0  0  0  0  0  0  0  0  0  0  0
  148.5844  141.3254  153.7412 C   0  0  0  0  0  0  0  0  0  0  0  0
  147.0451  141.4070  153.7247 C   0  0  0  0  0  0  0  0  0  0  0  0
  146.3849  140.0917  153.5013 N   0  3  1  0  0  0  0  0  0  0  0  0
  147.0007  139.3469  152.3696 C   0  0  0  0  0  0  0  0  0  0  0  0
  146.1847  138.0958  152.0083 C   0  0  0  0  0  0  0  0  0  0  0  0
  146.0108  137.1829  153.2262 C   0  0  0  0  0  0  0  0  0  0  0  0
  145.3881  137.9757  154.3831 C   0  0  0  0  0  0  0  0  0  0  0  0
  146.1963  139.2464  154.7235 C   0  0  1  0  0  0  0  0  0  0  0  0
  147.5125  138.9185  155.4614 C   0  0  0  0  0  0  0  0  0  0  0  0
  152.0444  143.4540  158.2867 C   0  0  0  0  0  0  0  0  0  0  0  0
  152.9698  143.3242  159.2611 N   0  0  0  0  0  0  0  0  0  0  0  0
  155.1913  140.7100  162.0269 H   0  0  0  0  0  0  0  0  0  0  0  0
  154.6611  139.8835  160.5665 H   0  0  0  0  0  0  0  0  0  0  0  0
  153.4767  140.3834  161.7952 H   0  0  0  0  0  0  0  0  0  0  0  0
  153.0590  139.9358  159.4271 H   0  0  0  0  0  0  0  0  0  0  0  0
  151.3433  140.1831  157.6286 H   0  0  0  0  0  0  0  0  0  0  0  0
  149.8237  143.2572  156.7140 H   0  0  0  0  0  0  0  0  0  0  0  0
  148.7127  142.9209  155.1280 H   0  0  0  0  0  0  0  0  0  0  0  0
  149.0189  141.7336  152.8286 H   0  0  0  0  0  0  0  0  0  0  0  0
  148.9026  140.2843  153.8016 H   0  0  0  0  0  0  0  0  0  0  0  0
  146.7228  141.7935  154.6928 H   0  0  0  0  0  0  0  0  0  0  0  0
  146.6972  142.1314  152.9881 H   0  0  0  0  0  0  0  0  0  0  0  0
  147.0549  139.9930  151.4926 H   0  0  0  0  0  0  0  0  0  0  0  0
  148.0273  139.0739  152.6159 H   0  0  0  0  0  0  0  0  0  0  0  0
  145.2054  138.3936  151.6312 H   0  0  0  0  0  0  0  0  0  0  0  0
  146.6745  137.5510  151.2007 H   0  0  0  0  0  0  0  0  0  0  0  0
  145.3786  136.3322  152.9703 H   0  0  0  0  0  0  0  0  0  0  0  0
  146.9758  136.7729  153.5257 H   0  0  0  0  0  0  0  0  0  0  0  0
  144.3718  138.2619  154.1082 H   0  0  0  0  0  0  0  0  0  0  0  0
  145.2933  137.3393  155.2636 H   0  0  0  0  0  0  0  0  0  0  0  0
  145.5755  139.8058  155.4221 H   0  0  0  0  0  0  0  0  0  0  0  0
  147.3197  138.2803  156.3239 H   0  0  0  0  0  0  0  0  0  0  0  0
  147.9986  139.8163  155.8427 H   0  0  0  0  0  0  0  0  0  0  0  0
  148.2266  138.3956  154.8258 H   0  0  0  0  0  0  0  0  0  0  0  0
  151.7919  144.4736  158.0418 H   0  0  0  0  0  0  0  0  0  0  0  0
  145.4511  140.3139  153.1867 H   0  0  0  0  0  0  0  0  0  0  0  0
  1  2  1  0  0  0  0
  1 22  1  0  0  0  0
  1 23  1  0  0  0  0
  1 24  1  0  0  0  0
  2  3  1  0  0  0  0
  3 21  1  0  0  0  0
  3  4  2  0  0  0  0
  4  5  1  0  0  0  0
  4 25  1  0  0  0  0
  5  6  2  0  0  0  0
  5 26  1  0  0  0  0
  6  7  1  0  0  0  0
  6 20  1  0  0  0  0
  7  8  1  0  0  0  0
  7 27  1  0  0  0  0
  8  9  2  0  0  0  0
  8 10  1  0  0  0  0
 10 11  1  0  0  0  0
 10 28  1  0  0  0  0
 11 12  1  0  0  0  0
 11 29  1  0  0  0  0
 11 30  1  0  0  0  0
 12 13  1  0  0  0  0
 12 31  1  0  0  0  0
 12 32  1  0  0  0  0
 13 18  1  0  0  0  0
 13 14  1  0  0  0  0
 13 46  1  0  0  0  0
 14 15  1  0  0  0  0
 14 33  1  0  0  0  0
 14 34  1  0  0  0  0
 15 16  1  0  0  0  0
 15 35  1  0  0  0  0
 15 36  1  0  0  0  0
 16 17  1  0  0  0  0
 16 37  1  0  0  0  0
 16 38  1  0  0  0  0
 17 18  1  0  0  0  0
 17 39  1  0  0  0  0
 17 40  1  0  0  0  0
 18 19  1  0  0  0  0
 18 41  1  0  0  0  0
 19 42  1  0  0  0  0
 19 43  1  0  0  0  0
 19 44  1  0  0  0  0
 20 21  2  0  0  0  0
 20 45  1  0  0  0  0
M  CHG  1  13   1
M  END
> <s_m_source_file>
AV-unprocessed.smi

> <i_m_source_file_index>
2008

> <i_lp_mmshare_version>
43012

> <i_f3d_flags>
0

> <s_epik_input>
W0NIM11PYzFbY0hdW2NIXWMoW2NIXW4xKVtOSF1DKD1PKVtOSF1bQ0gyXVtDSDJdTjJbQ0gyXVtDSDJdW0NIMl1bQ0gyXVtDQEhdMltDSDNd

> <s_epik_cmdline>
J2VwaWtfcHl0aG9uJywgJy1waCcsICc3LjAnLCAnLXRuJywgJzgnLCAnLW1hJywgJzIwMCcsICctbWV0YWxfYmluZGluZycsICctaW1hZScsICc8aW5maWxlLm1hZT4nLCAnLW9tYWUnLCAnPG91dGZpbGUubWFlPic=

> <r_lp_tautomer_probability>
1

> <r_epik_Ionization_Penalty>
0.00219526

> <r_epik_Ionization_Penalty_Charging>
0.00211816

> <r_epik_Ionization_Penalty_Neutral>
7.71003e-05

> <r_epik_State_Penalty>
0.00145254

> <r_epik_Charging_Adjusted_Penalty>
0.0035707

> <i_epik_Tot_Q>
1

> <i_epik_Tot_abs_Q>
1

> <r_epik_Metal_State_Penalty>
-0

> <b_epik_Metal_Only>
0

> <s_lp_Force_Field>
OPLS_2005

> <r_lp_Energy>
23.0137

> <b_lp_Chiralities_Consistent>
1

> <s_lp_Variant>
AV-unprocessed.smi:2008-2

> <Gold.Version>
5.8.1

> <Gold.Id.Protein>
6NUR|6NUR_protein|mol2

> <Gold.PLP.Fitness>
48.2257

> <Gold.PLP.PLP>
-36.4072

> <Gold.PLP.part.hbond>
-4.6633

> <Gold.PLP.part.metal>
0.0000

> <Gold.PLP.part.buried>
-0.2608

> <Gold.PLP.part.nonpolar>
-31.0736

> <Gold.PLP.part.repulsive>
0.3271

> <Gold.PLP.ligand.clash>
0.0185

> <Gold.PLP.ligand.torsion>
1.0105

> <Gold.PLP.Chemscore.Hbond>
4.6010

> <Gold.PLP.Chemscore.CHOScore>
0.0000

> <Gold.PLP.Chemscore.Metal>
0.0000

> <Gold.Chemscore.Hbonds>
donor molecule, donor type, donor heavy atom, donor atom, acceptor molecule, acceptor atom, score
      L1  H     7    27       P1  8028  0.88
      L1  H    10    28       P1  8028  1.00
      L1  H    13    46       P1 10175  2.00
      P1  H  7989  7998       L1     9  0.72

> <Gold.PLP.Chemscore.Internal.Correction>
0.0551

> <Gold.Rescore>
     Score         DG    S(hbond)    S(metal)    S(lipo)     H(rot)  DE(clash)    DE(int)     intcor
     19.09     -21.96       3.30        0.00      84.17       1.71       0.76       2.11       ----

> <Gold.Chemscore.Fitness>
19.0940

> <Gold.Chemscore.DG>
-21.9608

> <Gold.Chemscore.ZeroCoef>
-5.4800

> <Gold.Chemscore.Hbond>
3.2971

> <Gold.Chemscore.Metal>
0.0000

> <Gold.Chemscore.Lipo>
84.1690

> <Gold.Chemscore.Internal_Hbond>
0.0000

> <Gold.Chemscore.DEClash>
0.7586

> <Gold.Chemscore.DEInternal>
2.1082

> <Gold.Chemscore.Rot>
1.7107

> <Gold.Chemscore.Internal.Correction>
   9.000000E+99

> <Gold.Chemscore.Hbonds>
donor molecule, donor type, donor heavy atom, donor atom, acceptor molecule, acceptor atom, score
      L1  H     7    27       P1  8028  0.81
      L1  H    10    28       P1  8028  0.94
      L1  H    13    46       P1 10175  0.98
      P1  H  7989  7998       L1     9  0.24

> <Gold.Chemscore.Hbond.Weighted>
-11.0125

> <Gold.Chemscore.Metal.Weighted>
-0.0000

> <Gold.Chemscore.Lipo.Weighted>
-9.8478

> <Gold.Chemscore.Internal_Hbond.Weighted>
0.0000

> <Gold.Chemscore.DEClash.Weighted>
0.7586

> <Gold.Chemscore.DEInternal.Weighted>
2.1082

> <Gold.Chemscore.Rot.Weighted>
4.3794

> <Gold.Chemscore.Internal.Correction.Weighted>
   9.000000E+99

> <Gold.Protein.RotatedTorsions>
[ 6907 6896 6895 6894 ] final  172.51 input  -60.11 | X-H torsion
[ 7974 7965 7964 7962 ] final -101.48 input  175.53 | X-H torsion
[ 8008 7997 7996 7995 ] final   42.16 input   59.86 | X-H torsion
[ 10167 10162 10161 10158 ] final  160.13 input  -65.29 | X-H torsion
[ 10718 10713 10712 10709 ] final  -24.99 input   66.30 | X-H torsion
[ 10763 10752 10751 10750 ] final   55.02 input  -60.55 | X-H torsion
[ 11005 11000 10999 10996 ] final -104.15 input  -57.11 | X-H torsion

> <Gold.Protein.ActiveResidues>
 VAL166  LYS551  ARG553  GLY616  TRP617  ASP618  TYR619  PRO620  LYS621  CYS622 
 ASP623  PHE694  ASN695  SER759  ASP760  ASP761  ALA762  ILE779  LEU786  VAL792 
 PHE793  MET794  SER795  GLU796  ALA797  LYS798  CYS799  TRP800  GLU811  SER814 

> <Gold.Protein.RotatedAtoms>
  151.7832  133.3352  159.3477 H   0  0  0  0  0  0  0  0  0  0  0  0  # atno 6907 bound_to 6896
  150.7418  134.5911  159.5997 H   0  0  0  0  0  0  0  0  0  0  0  0  # atno 6908 bound_to 6896
  152.3261  134.7320  160.0353 H   0  0  0  0  0  0  0  0  0  0  0  0  # atno 6909 bound_to 6896
  145.2810  140.9326  143.2932 H   0  0  0  0  0  0  0  0  0  0  0  0  # atno 7974 bound_to 7965
  155.2815  140.3373  155.4258 H   0  0  0  0  0  0  0  0  0  0  0  0  # atno 8008 bound_to 7997
  156.2087  140.1761  156.7783 H   0  0  0  0  0  0  0  0  0  0  0  0  # atno 8009 bound_to 7997
  154.5657  140.0679  156.8872 H   0  0  0  0  0  0  0  0  0  0  0  0  # atno 8010 bound_to 7997
  139.4837  144.4664  151.8636 H   0  0  0  0  0  0  0  0  0  0  0  0  # atno 10167 bound_to 10162
  156.4703  130.4523  149.6874 H   0  0  0  0  0  0  0  0  0  0  0  0  # atno 10718 bound_to 10713
  152.9811  135.5725  154.4998 H   0  0  0  0  0  0  0  0  0  0  0  0  # atno 10763 bound_to 10752
  154.4519  135.2779  155.1777 H   0  0  0  0  0  0  0  0  0  0  0  0  # atno 10764 bound_to 10752
  154.3401  135.6231  153.5645 H   0  0  0  0  0  0  0  0  0  0  0  0  # atno 10765 bound_to 10752
  141.1114  133.8699  157.1575 H   0  0  0  0  0  0  0  0  0  0  0  0  # atno 11005 bound_to 11000
  144.9253  139.4363  143.6521 LP  0  0  0  0  0  0  0  0  0  0  0  0  # atno 17320 bound_to 7965
  146.3216  139.8135  142.8941 LP  0  0  0  0  0  0  0  0  0  0  0  0  # atno 17321 bound_to 7965
  140.4130  144.2344  150.5888 LP  0  0  0  0  0  0  0  0  0  0  0  0  # atno 17342 bound_to 10162
  140.4948  143.2336  151.8765 LP  0  0  0  0  0  0  0  0  0  0  0  0  # atno 17343 bound_to 10162
  156.3626  130.7489  151.2463 LP  0  0  0  0  0  0  0  0  0  0  0  0  # atno 17370 bound_to 10713
  157.7492  131.0346  150.4324 LP  0  0  0  0  0  0  0  0  0  0  0  0  # atno 17371 bound_to 10713
  140.0010  135.0028  157.0189 LP  0  0  0  0  0  0  0  0  0  0  0  0  # atno 17394 bound_to 11000
  140.4766  134.1332  155.7210 LP  0  0  0  0  0  0  0  0  0  0  0  0  # atno 17395 bound_to 11000

$$$$
