AV-unprocessed.smi:3323|AV-procd|sdf|12780|dock3
  -GOLD-   2272019123D 1   1.00000     0.00000
 Structure written by MMmdl.
 37 38  0  0  0  0  0  0  0  0  1 V2000
  152.7876  143.6955  163.2483 C   0  0  0  0  0  0  0  0  0  0  0  0
  152.3584  143.4865  161.7920 C   0  0  1  0  0  0  0  0  0  0  0  0
  152.2337  144.8197  161.0283 C   0  0  0  0  0  0  0  0  0  0  0  0
  151.8709  144.5936  159.5468 C   0  0  2  0  0  0  0  0  0  0  0  0
  150.4066  144.1556  159.3074 C   0  0  0  0  0  0  0  0  0  0  0  0
  150.2054  143.5934  157.9747 N   0  0  0  0  0  0  0  0  0  0  0  0
  150.4151  142.3152  157.6274 C   0  0  0  0  0  0  0  0  0  0  0  0
  150.7955  141.4493  158.4150 O   0  0  0  0  0  0  0  0  0  0  0  0
  150.1313  142.1139  156.3292 N   0  0  0  0  0  0  0  0  0  0  0  0
  150.2266  140.9115  155.5773 C   0  0  0  0  0  0  0  0  0  0  0  0
  151.2943  139.9870  155.6815 C   0  0  0  0  0  0  0  0  0  0  0  0
  151.2812  138.8392  154.8656 C   0  0  0  0  0  0  0  0  0  0  0  0
  150.2078  138.6611  153.9715 C   0  0  0  0  0  0  0  0  0  0  0  0
  149.1910  139.5404  153.8520 N   0  0  0  0  0  0  0  0  0  0  0  0
  149.2105  140.6387  154.6367 C   0  0  0  0  0  0  0  0  0  0  0  0
  152.8769  143.5928  158.9515 C   0  0  0  0  0  0  0  0  0  0  0  0
  152.9948  142.3239  159.8152 C   0  0  0  0  0  0  0  0  0  0  0  0
  153.3364  142.6712  161.1529 O   0  0  0  0  0  0  0  0  0  0  0  0
  152.0613  144.3054  163.7862 H   0  0  0  0  0  0  0  0  0  0  0  0
  153.7550  144.1947  163.3086 H   0  0  0  0  0  0  0  0  0  0  0  0
  152.8715  142.7418  163.7697 H   0  0  0  0  0  0  0  0  0  0  0  0
  151.4012  142.9636  161.7919 H   0  0  0  0  0  0  0  0  0  0  0  0
  151.5115  145.4739  161.5158 H   0  0  0  0  0  0  0  0  0  0  0  0
  153.1885  145.3445  161.0796 H   0  0  0  0  0  0  0  0  0  0  0  0
  152.0041  145.5421  159.0244 H   0  0  0  0  0  0  0  0  0  0  0  0
  150.1410  143.3792  160.0251 H   0  0  0  0  0  0  0  0  0  0  0  0
  149.7127  144.9762  159.4917 H   0  0  0  0  0  0  0  0  0  0  0  0
  149.8835  144.2306  157.2608 H   0  0  0  0  0  0  0  0  0  0  0  0
  149.7486  142.9044  155.8315 H   0  0  0  0  0  0  0  0  0  0  0  0
  152.1238  140.1393  156.3541 H   0  0  0  0  0  0  0  0  0  0  0  0
  152.0795  138.1138  154.9209 H   0  0  0  0  0  0  0  0  0  0  0  0
  150.1682  137.7923  153.3310 H   0  0  0  0  0  0  0  0  0  0  0  0
  148.3821  141.3209  154.5118 H   0  0  0  0  0  0  0  0  0  0  0  0
  152.6007  143.3309  157.9295 H   0  0  0  0  0  0  0  0  0  0  0  0
  153.8576  144.0658  158.8896 H   0  0  0  0  0  0  0  0  0  0  0  0
  152.0687  141.7482  159.8028 H   0  0  0  0  0  0  0  0  0  0  0  0
  153.7726  141.6735  159.4147 H   0  0  0  0  0  0  0  0  0  0  0  0
  1  2  1  0  0  0  0
  1 19  1  0  0  0  0
  1 20  1  0  0  0  0
  1 21  1  0  0  0  0
  2 18  1  0  0  0  0
  2  3  1  0  0  0  0
  2 22  1  0  0  0  0
  3  4  1  0  0  0  0
  3 23  1  0  0  0  0
  3 24  1  0  0  0  0
  4  5  1  0  0  0  0
  4 16  1  0  0  0  0
  4 25  1  0  0  0  0
  5  6  1  0  0  0  0
  5 26  1  0  0  0  0
  5 27  1  0  0  0  0
  6  7  1  0  0  0  0
  6 28  1  0  0  0  0
  7  8  2  0  0  0  0
  7  9  1  0  0  0  0
  9 10  1  0  0  0  0
  9 29  1  0  0  0  0
 10 15  1  0  0  0  0
 10 11  2  0  0  0  0
 11 12  1  0  0  0  0
 11 30  1  0  0  0  0
 12 13  2  0  0  0  0
 12 31  1  0  0  0  0
 13 14  1  0  0  0  0
 13 32  1  0  0  0  0
 14 15  2  0  0  0  0
 15 33  1  0  0  0  0
 16 17  1  0  0  0  0
 16 34  1  0  0  0  0
 16 35  1  0  0  0  0
 17 18  1  0  0  0  0
 17 36  1  0  0  0  0
 17 37  1  0  0  0  0
M  END
> <s_m_source_file>
AV-unprocessed.smi

> <i_m_source_file_index>
3323

> <i_lp_mmshare_version>
43012

> <i_f3d_flags>
0

> <s_epik_input>
W0NIM11bQ0BASF0xW0NIMl1bQ0BIXShbQ0gyXVtDSDJdTzEpW0NIMl1bTkhdQyg9TylbTkhdYzJbY0hdW2NIXVtjSF1uW2NIXTI=

> <s_epik_cmdline>
J2VwaWtfcHl0aG9uJywgJy1waCcsICc3LjAnLCAnLXRuJywgJzgnLCAnLW1hJywgJzIwMCcsICctbWV0YWxfYmluZGluZycsICctaW1hZScsICc8aW5maWxlLm1hZT4nLCAnLW9tYWUnLCAnPG91dGZpbGUubWFlPic=

> <r_epik_Ionization_Penalty>
0.00485293

> <r_epik_Ionization_Penalty_Charging>
0

> <r_epik_Ionization_Penalty_Neutral>
0.00485293

> <r_epik_State_Penalty>
0.00349083

> <r_epik_Charging_Adjusted_Penalty>
0.00349083

> <i_epik_Tot_Q>
0

> <i_epik_Tot_abs_Q>
0

> <r_epik_Metal_State_Penalty>
-0

> <b_epik_Metal_Only>
0

> <s_lp_Force_Field>
OPLS_2005

> <r_lp_Energy>
13.6237

> <b_lp_Chiralities_Consistent>
1

> <s_lp_Variant>
AV-unprocessed.smi:3323-4

> <Gold.Version>
5.8.1

> <Gold.Id.Protein>
6NUR|6NUR_protein|mol2

> <Gold.PLP.Fitness>
49.4859

> <Gold.PLP.PLP>
-41.4774

> <Gold.PLP.part.hbond>
-2.0000

> <Gold.PLP.part.metal>
0.0000

> <Gold.PLP.part.buried>
-3.6507

> <Gold.PLP.part.nonpolar>
-38.2996

> <Gold.PLP.part.repulsive>
2.7563

> <Gold.PLP.ligand.clash>
0.0000

> <Gold.PLP.ligand.torsion>
0.6511

> <Gold.PLP.Chemscore.Hbond>
2.0000

> <Gold.PLP.Chemscore.CHOScore>
1.1020

> <Gold.PLP.Chemscore.Metal>
0.0000

> <Gold.Chemscore.Hbonds>
donor molecule, donor type, donor heavy atom, donor atom, acceptor molecule, acceptor atom, score
      L1  H     6    28       P1  8028  1.00
      L1  H     9    29       P1  8028  1.00
      L1  C    13    32       P1  7948  1.00
      L1  C    13    32       P1  7949  0.10

> <Gold.PLP.Chemscore.Internal.Correction>
0.0048

> <Gold.Rescore>
     Score         DG    S(hbond)    S(metal)    S(lipo)     H(rot)  DE(clash)    DE(int)     intcor
     18.08     -20.62       1.58        0.00     111.14       1.23       2.04       0.50       ----

> <Gold.Chemscore.Fitness>
18.0849

> <Gold.Chemscore.DG>
-20.6170

> <Gold.Chemscore.ZeroCoef>
-5.4800

> <Gold.Chemscore.Hbond>
1.5795

> <Gold.Chemscore.Metal>
0.0000

> <Gold.Chemscore.Lipo>
111.1402

> <Gold.Chemscore.Internal_Hbond>
0.0000

> <Gold.Chemscore.DEClash>
2.0366

> <Gold.Chemscore.DEInternal>
0.4955

> <Gold.Chemscore.Rot>
1.2273

> <Gold.Chemscore.Internal.Correction>
   9.000000E+99

> <Gold.Chemscore.Hbonds>
donor molecule, donor type, donor heavy atom, donor atom, acceptor molecule, acceptor atom, score
      L1  H     6    28       P1  8028  0.54
      L1  H     9    29       P1  8028  0.93

> <Gold.Chemscore.Hbond.Weighted>
-5.2754

> <Gold.Chemscore.Metal.Weighted>
-0.0000

> <Gold.Chemscore.Lipo.Weighted>
-13.0034

> <Gold.Chemscore.Internal_Hbond.Weighted>
0.0000

> <Gold.Chemscore.DEClash.Weighted>
2.0366

> <Gold.Chemscore.DEInternal.Weighted>
0.4955

> <Gold.Chemscore.Rot.Weighted>
3.1418

> <Gold.Chemscore.Internal.Correction.Weighted>
   9.000000E+99

> <Gold.Protein.RotatedTorsions>
[ 6907 6896 6895 6894 ] final   19.04 input  -60.11 | X-H torsion
[ 7974 7965 7964 7962 ] final -173.01 input  175.53 | X-H torsion
[ 8008 7997 7996 7995 ] final   11.36 input   59.86 | X-H torsion
[ 10167 10162 10161 10158 ] final  -17.97 input  -65.29 | X-H torsion
[ 10718 10713 10712 10709 ] final   21.45 input   66.30 | X-H torsion
[ 10763 10752 10751 10750 ] final  -78.15 input  -60.55 | X-H torsion
[ 11005 11000 10999 10996 ] final  108.29 input  -57.11 | X-H torsion

> <Gold.Protein.ActiveResidues>
 VAL166  LYS551  ARG553  GLY616  TRP617  ASP618  TYR619  PRO620  LYS621  CYS622 
 ASP623  PHE694  ASN695  SER759  ASP760  ASP761  ALA762  ILE779  LEU786  VAL792 
 PHE793  MET794  SER795  GLU796  ALA797  LYS798  CYS799  TRP800  GLU811  SER814 

> <Gold.Protein.RotatedAtoms>
  151.8747  135.0476  160.0482 H   0  0  0  0  0  0  0  0  0  0  0  0  # atno 6907 bound_to 6896
  152.2561  133.5252  159.5362 H   0  0  0  0  0  0  0  0  0  0  0  0  # atno 6908 bound_to 6896
  150.7100  134.0810  159.3940 H   0  0  0  0  0  0  0  0  0  0  0  0  # atno 6909 bound_to 6896
  144.7141  140.1686  143.6369 H   0  0  0  0  0  0  0  0  0  0  0  0  # atno 7974 bound_to 7965
  154.8059  140.2860  155.5888 H   0  0  0  0  0  0  0  0  0  0  0  0  # atno 8008 bound_to 7997
  156.2982  140.2577  156.2866 H   0  0  0  0  0  0  0  0  0  0  0  0  # atno 8009 bound_to 7997
  154.9504  140.0379  157.2131 H   0  0  0  0  0  0  0  0  0  0  0  0  # atno 8010 bound_to 7997
  140.7253  143.4962  150.9928 H   0  0  0  0  0  0  0  0  0  0  0  0  # atno 10167 bound_to 10162
  157.1387  130.6623  149.5974 H   0  0  0  0  0  0  0  0  0  0  0  0  # atno 10718 bound_to 10713
  154.5222  135.5739  153.6690 H   0  0  0  0  0  0  0  0  0  0  0  0  # atno 10763 bound_to 10752
  152.9920  135.6184  154.2739 H   0  0  0  0  0  0  0  0  0  0  0  0  # atno 10764 bound_to 10752
  154.2661  135.2854  155.2737 H   0  0  0  0  0  0  0  0  0  0  0  0  # atno 10765 bound_to 10752
  139.8841  134.9426  156.5949 H   0  0  0  0  0  0  0  0  0  0  0  0  # atno 11005 bound_to 11000
  145.8964  139.2405  143.1519 LP  0  0  0  0  0  0  0  0  0  0  0  0  # atno 17320 bound_to 7965
  145.9853  140.8648  143.0094 LP  0  0  0  0  0  0  0  0  0  0  0  0  # atno 17321 bound_to 7965
  139.8669  143.7242  152.3169 LP  0  0  0  0  0  0  0  0  0  0  0  0  # atno 17342 bound_to 10162
  139.7477  144.7542  151.0554 LP  0  0  0  0  0  0  0  0  0  0  0  0  # atno 17343 bound_to 10162
  155.9793  130.4785  150.6707 LP  0  0  0  0  0  0  0  0  0  0  0  0  # atno 17370 bound_to 10713
  157.4327  131.0851  151.1022 LP  0  0  0  0  0  0  0  0  0  0  0  0  # atno 17371 bound_to 10713
  140.7927  133.8569  155.8659 LP  0  0  0  0  0  0  0  0  0  0  0  0  # atno 17394 bound_to 11000
  140.9663  134.1590  157.4613 LP  0  0  0  0  0  0  0  0  0  0  0  0  # atno 17395 bound_to 11000

$$$$
