AV-unprocessed.smi:2488|AV-procd|sdf|9794|dock8
  -GOLD-   2272013433D 1   1.00000     0.00000
 Structure written by MMmdl.
 33 34  0  0  0  0  0  0  0  0  1 V2000
  152.0546  145.0871  159.4816 C   0  0  0  0  0  0  0  0  0  0  0  0
  152.6857  144.2323  158.3767 C   0  0  0  0  0  0  0  0  0  0  0  0
  152.3746  142.7562  158.5421 C   0  0  0  0  0  0  0  0  0  0  0  0
  152.9259  142.1348  159.6083 N   0  0  0  0  0  0  0  0  0  0  0  0
  152.6610  140.8342  159.7497 C   0  0  0  0  0  0  0  0  0  0  0  0
  151.9082  140.0806  158.9447 N   0  0  0  0  0  0  0  0  0  0  0  0
  151.3442  140.6867  157.8712 C   0  0  0  0  0  0  0  0  0  0  0  0
  150.5533  139.9256  156.9856 N   0  0  0  0  0  0  0  0  0  0  0  0
  149.1615  140.3668  157.0477 C   0  0  0  0  0  0  0  0  0  0  0  0
  148.2598  139.4494  156.2111 C   0  0  0  0  0  0  0  0  0  0  0  0
  148.7452  139.4175  154.8766 O   0  0  0  0  0  0  0  0  0  0  0  0
  150.0537  138.8644  154.8112 C   0  0  0  0  0  0  0  0  0  0  0  0
  151.0573  139.7267  155.6144 C   0  0  2  0  0  0  0  0  0  0  0  0
  152.4476  139.0685  155.4861 C   0  0  0  0  0  0  0  0  0  0  0  0
  152.7064  137.9728  156.2080 N   0  0  0  0  0  0  0  0  0  0  0  0
  153.2904  139.5604  154.7390 O   0  0  0  0  0  0  0  0  0  0  0  0
  151.5611  142.0613  157.6210 C   0  0  0  0  0  0  0  0  0  0  0  0
  151.0104  142.6836  156.5501 F   0  0  0  0  0  0  0  0  0  0  0  0
  152.2954  146.1411  159.3428 H   0  0  0  0  0  0  0  0  0  0  0  0
  152.4191  144.7884  160.4650 H   0  0  0  0  0  0  0  0  0  0  0  0
  150.9685  144.9910  159.4827 H   0  0  0  0  0  0  0  0  0  0  0  0
  152.3255  144.5648  157.4024 H   0  0  0  0  0  0  0  0  0  0  0  0
  153.7660  144.3797  158.3675 H   0  0  0  0  0  0  0  0  0  0  0  0
  153.1029  140.3396  160.6019 H   0  0  0  0  0  0  0  0  0  0  0  0
  148.8044  140.3757  158.0785 H   0  0  0  0  0  0  0  0  0  0  0  0
  149.0897  141.3913  156.6779 H   0  0  0  0  0  0  0  0  0  0  0  0
  148.2267  138.4420  156.6295 H   0  0  0  0  0  0  0  0  0  0  0  0
  147.2377  139.8278  156.2080 H   0  0  0  0  0  0  0  0  0  0  0  0
  150.0329  137.8369  155.1804 H   0  0  0  0  0  0  0  0  0  0  0  0
  150.3471  138.8138  153.7617 H   0  0  0  0  0  0  0  0  0  0  0  0
  151.1110  140.7037  155.1301 H   0  0  0  0  0  0  0  0  0  0  0  0
  153.6110  137.5291  156.1417 H   0  0  0  0  0  0  0  0  0  0  0  0
  151.9967  137.5964  156.8193 H   0  0  0  0  0  0  0  0  0  0  0  0
  1  2  1  0  0  0  0
  1 19  1  0  0  0  0
  1 20  1  0  0  0  0
  1 21  1  0  0  0  0
  2  3  1  0  0  0  0
  2 22  1  0  0  0  0
  2 23  1  0  0  0  0
  3 17  1  0  0  0  0
  3  4  2  0  0  0  0
  4  5  1  0  0  0  0
  5  6  2  0  0  0  0
  5 24  1  0  0  0  0
  6  7  1  0  0  0  0
  7  8  1  0  0  0  0
  7 17  2  0  0  0  0
  8 13  1  0  0  0  0
  8  9  1  0  0  0  0
  9 10  1  0  0  0  0
  9 25  1  0  0  0  0
  9 26  1  0  0  0  0
 10 11  1  0  0  0  0
 10 27  1  0  0  0  0
 10 28  1  0  0  0  0
 11 12  1  0  0  0  0
 12 13  1  0  0  0  0
 12 29  1  0  0  0  0
 12 30  1  0  0  0  0
 13 14  1  0  0  0  0
 13 31  1  0  0  0  0
 14 15  1  0  0  0  0
 14 16  2  0  0  0  0
 15 32  1  0  0  0  0
 15 33  1  0  0  0  0
 17 18  1  0  0  0  0
M  END
> <s_m_source_file>
AV-unprocessed.smi

> <i_m_source_file_index>
2488

> <i_lp_mmshare_version>
43012

> <i_f3d_flags>
0

> <s_epik_input>
W0NIM11bQ0gyXWMxbltjSF1uYyhjMUYpTjJbQ0gyXVtDSDJdT1tDSDJdW0NASF0yQyg9TylbTkgyXQ==

> <s_epik_cmdline>
J2VwaWtfcHl0aG9uJywgJy1waCcsICc3LjAnLCAnLXRuJywgJzgnLCAnLW1hJywgJzIwMCcsICctbWV0YWxfYmluZGluZycsICctaW1hZScsICc8aW5maWxlLm1hZT4nLCAnLW9tYWUnLCAnPG91dGZpbGUubWFlPic=

> <r_lp_tautomer_probability>
1

> <r_epik_Ionization_Penalty>
2.73136e-05

> <r_epik_Ionization_Penalty_Charging>
0

> <r_epik_Ionization_Penalty_Neutral>
2.73136e-05

> <r_epik_State_Penalty>
-0

> <r_epik_Charging_Adjusted_Penalty>
0

> <i_epik_Tot_Q>
0

> <i_epik_Tot_abs_Q>
0

> <r_epik_Metal_State_Penalty>
-0

> <b_epik_Metal_Only>
0

> <s_lp_Force_Field>
OPLS_2005

> <r_lp_Energy>
13.0675

> <b_lp_Chiralities_Consistent>
1

> <s_lp_Variant>
AV-unprocessed.smi:2488-2

> <Gold.Version>
5.8.1

> <Gold.Id.Protein>
6NUR|6NUR_protein|mol2

> <Gold.PLP.Fitness>
34.4248

> <Gold.PLP.PLP>
-32.1281

> <Gold.PLP.part.hbond>
-2.0000

> <Gold.PLP.part.metal>
0.0000

> <Gold.PLP.part.buried>
-3.3968

> <Gold.PLP.part.nonpolar>
-26.2042

> <Gold.PLP.part.repulsive>
0.2810

> <Gold.PLP.ligand.clash>
0.0000

> <Gold.PLP.ligand.torsion>
0.4916

> <Gold.PLP.Chemscore.Hbond>
1.0332

> <Gold.PLP.Chemscore.CHOScore>
0.0000

> <Gold.PLP.Chemscore.Metal>
0.0000

> <Gold.Chemscore.Hbonds>
donor molecule, donor type, donor heavy atom, donor atom, acceptor molecule, acceptor atom, score
      P1  H  7989  7998       L1    16  0.01
      P1  H  7997  8008       L1    16  1.00

> <Gold.PLP.Chemscore.Internal.Correction>
0.1805

> <Gold.Rescore>
     Score         DG    S(hbond)    S(metal)    S(lipo)     H(rot)  DE(clash)    DE(int)     intcor
     10.08     -11.44       0.95        0.00      64.48       1.86       0.13       1.24       ----

> <Gold.Chemscore.Fitness>
10.0760

> <Gold.Chemscore.DG>
-11.4390

> <Gold.Chemscore.ZeroCoef>
-5.4800

> <Gold.Chemscore.Hbond>
0.9498

> <Gold.Chemscore.Metal>
0.0000

> <Gold.Chemscore.Lipo>
64.4761

> <Gold.Chemscore.Internal_Hbond>
0.0000

> <Gold.Chemscore.DEClash>
0.1275

> <Gold.Chemscore.DEInternal>
1.2355

> <Gold.Chemscore.Rot>
1.8582

> <Gold.Chemscore.Internal.Correction>
   9.000000E+99

> <Gold.Chemscore.Hbonds>
donor molecule, donor type, donor heavy atom, donor atom, acceptor molecule, acceptor atom, score
      P1  H  7997  8008       L1    16  0.35

> <Gold.Chemscore.Hbond.Weighted>
-3.1723

> <Gold.Chemscore.Metal.Weighted>
-0.0000

> <Gold.Chemscore.Lipo.Weighted>
-7.5437

> <Gold.Chemscore.Internal_Hbond.Weighted>
0.0000

> <Gold.Chemscore.DEClash.Weighted>
0.1275

> <Gold.Chemscore.DEInternal.Weighted>
1.2355

> <Gold.Chemscore.Rot.Weighted>
4.7570

> <Gold.Chemscore.Internal.Correction.Weighted>
   9.000000E+99

> <Gold.Protein.RotatedTorsions>
[ 6907 6896 6895 6894 ] final  -16.91 input  -60.11 | X-H torsion
[ 7974 7965 7964 7962 ] final  -71.18 input  175.53 | X-H torsion
[ 8008 7997 7996 7995 ] final  -16.21 input   59.86 | X-H torsion
[ 10167 10162 10161 10158 ] final -130.81 input  -65.29 | X-H torsion
[ 10718 10713 10712 10709 ] final  -43.71 input   66.30 | X-H torsion
[ 10763 10752 10751 10750 ] final  -20.92 input  -60.55 | X-H torsion
[ 11005 11000 10999 10996 ] final -167.56 input  -57.11 | X-H torsion

> <Gold.Protein.ActiveResidues>
 VAL166  LYS551  ARG553  GLY616  TRP617  ASP618  TYR619  PRO620  LYS621  CYS622 
 ASP623  PHE694  ASN695  SER759  ASP760  ASP761  ALA762  ILE779  LEU786  VAL792 
 PHE793  MET794  SER795  GLU796  ALA797  LYS798  CYS799  TRP800  GLU811  SER814 

> <Gold.Protein.RotatedAtoms>
  151.3013  135.0769  159.9239 H   0  0  0  0  0  0  0  0  0  0  0  0  # atno 6907 bound_to 6896
  152.5297  133.9830  159.7826 H   0  0  0  0  0  0  0  0  0  0  0  0  # atno 6908 bound_to 6896
  151.0117  133.5907  159.2712 H   0  0  0  0  0  0  0  0  0  0  0  0  # atno 6909 bound_to 6896
  145.6815  140.9186  143.0830 H   0  0  0  0  0  0  0  0  0  0  0  0  # atno 7974 bound_to 7965
  154.5070  140.2175  155.9231 H   0  0  0  0  0  0  0  0  0  0  0  0  # atno 8008 bound_to 7997
  156.1506  140.3162  155.8609 H   0  0  0  0  0  0  0  0  0  0  0  0  # atno 8009 bound_to 7997
  155.3945  140.0480  157.3030 H   0  0  0  0  0  0  0  0  0  0  0  0  # atno 8010 bound_to 7997
  139.9254  143.6333  152.2543 H   0  0  0  0  0  0  0  0  0  0  0  0  # atno 10167 bound_to 10162
  156.2462  130.4184  149.8703 H   0  0  0  0  0  0  0  0  0  0  0  0  # atno 10718 bound_to 10713
  153.6281  135.6990  153.5286 H   0  0  0  0  0  0  0  0  0  0  0  0  # atno 10763 bound_to 10752
  153.2882  135.4165  155.1142 H   0  0  0  0  0  0  0  0  0  0  0  0  # atno 10764 bound_to 10752
  154.8528  135.3619  154.5823 H   0  0  0  0  0  0  0  0  0  0  0  0  # atno 10765 bound_to 10752
  140.5518  134.5420  157.5124 H   0  0  0  0  0  0  0  0  0  0  0  0  # atno 11005 bound_to 11000
  144.7025  139.8702  143.7440 LP  0  0  0  0  0  0  0  0  0  0  0  0  # atno 17320 bound_to 7965
  146.0960  139.3953  143.0376 LP  0  0  0  0  0  0  0  0  0  0  0  0  # atno 17321 bound_to 7965
  139.6826  144.7654  151.1581 LP  0  0  0  0  0  0  0  0  0  0  0  0  # atno 17342 bound_to 10162
  140.7651  143.5703  150.9003 LP  0  0  0  0  0  0  0  0  0  0  0  0  # atno 17343 bound_to 10162
  156.6267  130.8649  151.3487 LP  0  0  0  0  0  0  0  0  0  0  0  0  # atno 17370 bound_to 10713
  157.7196  130.9541  150.1386 LP  0  0  0  0  0  0  0  0  0  0  0  0  # atno 17371 bound_to 10713
  139.9451  134.7716  156.0582 LP  0  0  0  0  0  0  0  0  0  0  0  0  # atno 17394 bound_to 11000
  141.1167  133.6625  156.3111 LP  0  0  0  0  0  0  0  0  0  0  0  0  # atno 17395 bound_to 11000

$$$$
