#       Name:                AV-unprocessed.smi:76
#       Creating user name   scv26
#       Creation time:       Thu Mar 26 17:11:03 2020


#       File generated by GOLD software.
#

@<TRIPOS>MOLECULE
AV-unprocessed.smi:76
    63    66     1
SMALL
NO_CHARGES


@<TRIPOS>ATOM
      1 ****        -3.0590   1.3986  -1.6307 C.3            1 S1                 0.0000
      2 ****        -3.0961   0.3203  -0.5292 C.3            1 S1                 0.0000
      3 ****        -4.4812  -0.3495  -0.4066 C.3            1 S1                 0.0000
      4 ****        -5.5288   0.5664   0.2636 C.3            1 S1                 0.0000
      5 ****        -6.9012  -0.1226   0.4033 C.3            1 S1                 0.0000
      6 ****        -6.8140  -1.2068   1.1743 F              1 S1                 0.0000
      7 ****        -7.7809   0.7204   0.9438 F              1 S1                 0.0000
      8 ****        -7.3537  -0.4830  -0.7977 F              1 S1                 0.0000
      9 ****        -4.9819   1.0517   1.6207 C.3            1 S1                 0.0000
     10 ****        -3.6092   1.7243   1.4662 C.3            1 S1                 0.0000
     11 ****        -2.6686   0.8389   0.7756 N.3            1 S1                 0.0000
     12 ****        -1.3435   1.1113   0.9015 C.ar           1 S1                 0.0000
     13 ****        -0.9410   2.3808   1.1781 N.ar           1 S1                 0.0000
     14 ****         0.3581   2.6677   1.2968 C.ar           1 S1                 0.0000
     15 ****         1.4056   1.8505   1.1807 N.ar           1 S1                 0.0000
     16 ****         1.0114   0.5749   0.9045 C.ar           1 S1                 0.0000
     17 ****        -0.3300   0.1219   0.7539 C.ar           1 S1                 0.0000
     18 ****        -0.3391  -1.2454   0.5048 N.2            1 S1                 0.0000
     19 ****         0.9223  -1.5787   0.5025 C.2            1 S1                 0.0000
     20 ****         1.8053  -0.5439   0.7162 N.pl3          1 S1                 0.0000
     21 ****         3.2577  -0.6322   0.7753 C.3            1 S1                 0.0000
     22 ****         3.9850  -0.5339  -0.6036 C.3            1 S1                 0.0000
     23 ****         3.6243   0.7899  -1.3285 C.3            1 S1                 0.0000
     24 ****         4.0026   1.9303  -0.5842 O.3            1 S1                 0.0000
     25 ****         5.5192  -0.6077  -0.4011 C.3            1 S1                 0.0000
     26 ****         6.0009  -2.0115   0.0110 C.3            1 S1                 0.0000
     27 ****         5.5803  -2.9745  -0.9472 O.3            1 S1                 0.0000
     28 ****         4.1659  -3.0559  -1.0692 C.3            1 S1                 0.0000
     29 ****         3.6063  -1.7041  -1.5466 C.3            1 S1                 0.0000
     30 ****        -3.3704   0.9845  -2.5898 H              1 S1                 0.0000
     31 ****        -2.0512   1.7937  -1.7616 H              1 S1                 0.0000
     32 ****        -3.7148   2.2399  -1.4078 H              1 S1                 0.0000
     33 ****        -2.4066  -0.4636  -0.8387 H              1 S1                 0.0000
     34 ****        -4.8275  -0.6664  -1.3907 H              1 S1                 0.0000
     35 ****        -4.3764  -1.2614   0.1826 H              1 S1                 0.0000
     36 ****        -5.6717   1.4415  -0.3714 H              1 S1                 0.0000
     37 ****        -5.6792   1.7514   2.0818 H              1 S1                 0.0000
     38 ****        -4.8938   0.2078   2.3059 H              1 S1                 0.0000
     39 ****        -3.7083   2.6590   0.9131 H              1 S1                 0.0000
     40 ****        -3.2255   1.9781   2.4556 H              1 S1                 0.0000
     41 ****         0.5911   3.6993   1.5161 H              1 S1                 0.0000
     42 ****         1.2449  -2.5971   0.3422 H              1 S1                 0.0000
     43 ****         3.6138   0.1556   1.4400 H              1 S1                 0.0000
     44 ****         3.5030  -1.5627   1.2848 H              1 S1                 0.0000
     45 ****         4.1270   0.8456  -2.2946 H              1 S1                 0.0000
     46 ****         2.5559   0.8466  -1.5379 H              1 S1                 0.0000
     47 ****         3.4875   1.9541   0.2086 H              1 S1                 0.0000
     48 ****         6.0230  -0.3352  -1.3297 H              1 S1                 0.0000
     49 ****         5.8438   0.1222   0.3414 H              1 S1                 0.0000
     50 ****         7.0896  -2.0270   0.0627 H              1 S1                 0.0000
     51 ****         5.6417  -2.2854   1.0032 H              1 S1                 0.0000
     52 ****         3.9261  -3.8327  -1.7955 H              1 S1                 0.0000
     53 ****         3.7205  -3.3661  -0.1237 H              1 S1                 0.0000
     54 ****         2.5279  -1.7689  -1.6850 H              1 S1                 0.0000
     55 ****         4.0127  -1.5121  -2.5407 H              1 S1                 0.0000
     56 ****        -2.7437   0.0294   1.3579 LP             1 S1                 0.0000
     57 ****        -1.6220   3.1040   1.2933 LP             1 S1                 0.0000
     58 ****         2.3583   2.1367   1.2831 LP             1 S1                 0.0000
     59 ****        -1.1314  -1.8382   0.3604 LP             1 S1                 0.0000
     60 ****         3.8329   2.7561  -1.1220 LP             1 S1                 0.0000
     61 ****         4.9743   1.8763  -0.3540 LP             1 S1                 0.0000
     62 ****         5.9285  -3.8707  -0.6723 LP             1 S1                 0.0000
     63 ****         5.9632  -2.7268  -1.8371 LP             1 S1                 0.0000
@<TRIPOS>BOND
    1    1    2 1     
    2    1   30 1     
    3    1   31 1     
    4    1   32 1     
    5    2   11 1     
    6    2    3 1     
    7    2   33 1     
    8    3    4 1     
    9    3   34 1     
   10    3   35 1     
   11    4    5 1     
   12    4    9 1     
   13    4   36 1     
   14    5    6 1     
   15    5    7 1     
   16    5    8 1     
   17    9   10 1     
   18    9   37 1     
   19    9   38 1     
   20   10   11 1     
   21   10   39 1     
   22   10   40 1     
   23   11   12 1     
   24   12   17 ar    
   25   12   13 ar    
   26   13   14 ar    
   27   14   15 ar    
   28   14   41 1     
   29   15   16 ar    
   30   16   20 1     
   31   16   17 ar    
   32   17   18 1     
   33   18   19 2     
   34   19   20 1     
   35   19   42 1     
   36   20   21 1     
   37   21   22 1     
   38   21   43 1     
   39   21   44 1     
   40   22   29 1     
   41   22   23 1     
   42   22   25 1     
   43   23   24 1     
   44   23   45 1     
   45   23   46 1     
   46   24   47 1     
   47   25   26 1     
   48   25   48 1     
   49   25   49 1     
   50   26   27 1     
   51   26   50 1     
   52   26   51 1     
   53   27   28 1     
   54   28   29 1     
   55   28   52 1     
   56   28   53 1     
   57   29   54 1     
   58   29   55 1     
   59   11   56 1     
   60   13   57 1     
   61   15   58 1     
   62   18   59 1     
   63   24   60 1     
   64   24   61 1     
   65   27   62 1     
   66   27   63 1     
@<TRIPOS>SUBSTRUCTURE
      1 S1             1
@<TRIPOS>SET
LONE_PAIRS      STATIC     ATOMS    <user>   **** ""
8 56 57 58 59 60 61 62 63
DONOR_HYDROGENS      STATIC     ATOMS    <user>   **** ""
1 47
ATOM$BLUE        STATIC     ATOMS    COLORGROUP SYSTEM
8 56 57 58 59 60 61 62 63
ATOM$RED        STATIC     ATOMS    COLORGROUP SYSTEM
1 47
