AV-unprocessed.smi:153|AV-procd|sdf|1260|dock7
  -GOLD-   2262018503D 1   1.00000     0.00000
 Structure written by MMmdl.
 59 62  0  0  0  0  0  0  0  0  1 V2000
  145.1405  136.6294  163.2085 C   0  0  0  0  0  0  0  0  0  0  0  0
  145.5468  135.7710  161.9946 C   0  0  2  0  0  0  0  0  0  0  0  0
  146.0727  134.5457  162.4933 O   0  0  0  0  0  0  0  0  0  0  0  0
  147.4896  134.6279  162.6219 C   0  0  0  0  0  0  0  0  0  0  0  0
  147.9200  135.9102  161.9047 C   0  0  0  0  0  0  0  0  0  0  0  0
  146.6837  136.3441  161.1223 C   0  0  2  0  0  0  0  0  0  0  0  0
  146.6365  137.7576  161.0597 O   0  0  0  0  0  0  0  0  0  0  0  0
  146.6575  135.8452  159.6509 C   0  0  0  0  0  0  0  0  0  0  0  0
  147.4667  136.6226  158.7246 N   0  0  0  0  0  0  0  0  0  0  0  0
  148.8391  136.6833  158.6823 C   0  0  0  0  0  0  0  0  0  0  0  0
  149.3283  137.4674  157.7639 N   0  0  0  0  0  0  0  0  0  0  0  0
  148.2162  137.9825  157.1044 C   0  0  0  0  0  0  0  0  0  0  0  0
  148.0168  138.8932  156.0176 C   0  0  0  0  0  0  0  0  0  0  0  0
  149.0086  139.5463  155.3387 N   0  0  0  0  0  0  0  0  0  0  0  0
  148.8591  140.9787  155.0866 C   0  0  0  0  0  0  0  0  0  0  0  0
  150.3706  139.0141  155.3247 C   0  0  0  0  0  0  0  0  0  0  0  0
  151.4034  139.9833  155.9459 C   0  0  2  0  0  0  0  0  0  0  0  0
  152.7098  139.6374  155.5333 O   0  0  0  0  0  0  0  0  0  0  0  0
  151.3559  140.0492  157.4890 C   0  0  0  0  0  0  0  0  0  0  0  0
  152.1735  141.0800  158.1342 N   0  0  0  0  0  0  0  0  0  0  0  0
  152.3618  140.7812  159.5499 C   0  0  0  0  0  0  0  0  0  0  0  0
  153.2250  141.8419  160.2541 C   0  0  0  0  0  0  0  0  0  0  0  0
  152.6327  143.1254  160.0850 O   0  0  0  0  0  0  0  0  0  0  0  0
  152.4721  143.4785  158.7153 C   0  0  0  0  0  0  0  0  0  0  0  0
  151.6085  142.4214  158.0052 C   0  0  0  0  0  0  0  0  0  0  0  0
  146.7263  139.1205  155.6473 N   0  0  0  0  0  0  0  0  0  0  0  0
  145.7108  138.5331  156.2833 C   0  0  0  0  0  0  0  0  0  0  0  0
  145.7513  137.6872  157.3111 N   0  0  0  0  0  0  0  0  0  0  0  0
  147.0354  137.4378  157.6920 C   0  0  0  0  0  0  0  0  0  0  0  0
  144.6894  137.5713  162.8961 H   0  0  0  0  0  0  0  0  0  0  0  0
  145.9931  136.8622  163.8466 H   0  0  0  0  0  0  0  0  0  0  0  0
  144.4056  136.1056  163.8199 H   0  0  0  0  0  0  0  0  0  0  0  0
  144.6536  135.5762  161.4010 H   0  0  0  0  0  0  0  0  0  0  0  0
  147.7741  134.6511  163.6740 H   0  0  0  0  0  0  0  0  0  0  0  0
  147.9423  133.7440  162.1723 H   0  0  0  0  0  0  0  0  0  0  0  0
  148.1755  136.6586  162.6566 H   0  0  0  0  0  0  0  0  0  0  0  0
  148.8026  135.7746  161.2802 H   0  0  0  0  0  0  0  0  0  0  0  0
  145.7341  138.0239  160.9693 H   0  0  0  0  0  0  0  0  0  0  0  0
  147.0001  134.8104  159.6044 H   0  0  0  0  0  0  0  0  0  0  0  0
  145.6324  135.8379  159.2779 H   0  0  0  0  0  0  0  0  0  0  0  0
  149.4715  136.1341  159.3642 H   0  0  0  0  0  0  0  0  0  0  0  0
  147.9509  141.1804  154.5175 H   0  0  0  0  0  0  0  0  0  0  0  0
  149.6987  141.3671  154.5103 H   0  0  0  0  0  0  0  0  0  0  0  0
  148.8149  141.5325  156.0251 H   0  0  0  0  0  0  0  0  0  0  0  0
  150.3830  138.0495  155.8263 H   0  0  0  0  0  0  0  0  0  0  0  0
  150.6584  138.7773  154.2997 H   0  0  0  0  0  0  0  0  0  0  0  0
  151.2265  140.9971  155.5848 H   0  0  0  0  0  0  0  0  0  0  0  0
  152.7712  139.7666  154.5995 H   0  0  0  0  0  0  0  0  0  0  0  0
  150.3216  140.1183  157.8299 H   0  0  0  0  0  0  0  0  0  0  0  0
  151.7084  139.0795  157.8438 H   0  0  0  0  0  0  0  0  0  0  0  0
  151.3922  140.7190  160.0469 H   0  0  0  0  0  0  0  0  0  0  0  0
  152.8326  139.8039  159.6626 H   0  0  0  0  0  0  0  0  0  0  0  0
  153.3021  141.6223  161.3190 H   0  0  0  0  0  0  0  0  0  0  0  0
  154.2393  141.8444  159.8522 H   0  0  0  0  0  0  0  0  0  0  0  0
  151.9997  144.4588  158.6522 H   0  0  0  0  0  0  0  0  0  0  0  0
  153.4497  143.5620  158.2377 H   0  0  0  0  0  0  0  0  0  0  0  0
  151.5232  142.6969  156.9549 H   0  0  0  0  0  0  0  0  0  0  0  0
  150.5990  142.4402  158.4188 H   0  0  0  0  0  0  0  0  0  0  0  0
  144.7249  138.7802  155.9182 H   0  0  0  0  0  0  0  0  0  0  0  0
  1  2  1  0  0  0  0
  1 30  1  0  0  0  0
  1 31  1  0  0  0  0
  1 32  1  0  0  0  0
  2  6  1  0  0  0  0
  2  3  1  0  0  0  0
  2 33  1  0  0  0  0
  3  4  1  0  0  0  0
  4  5  1  0  0  0  0
  4 34  1  0  0  0  0
  4 35  1  0  0  0  0
  5  6  1  0  0  0  0
  5 36  1  0  0  0  0
  5 37  1  0  0  0  0
  6  7  1  0  0  0  0
  6  8  1  0  0  0  0
  7 38  1  0  0  0  0
  8  9  1  0  0  0  0
  8 39  1  0  0  0  0
  8 40  1  0  0  0  0
  9 29  1  0  0  0  0
  9 10  1  0  0  0  0
 10 11  2  0  0  0  0
 10 41  1  0  0  0  0
 11 12  1  0  0  0  0
 12 29  2  0  0  0  0
 12 13  1  0  0  0  0
 13 14  1  0  0  0  0
 13 26  2  0  0  0  0
 14 15  1  0  0  0  0
 14 16  1  0  0  0  0
 15 42  1  0  0  0  0
 15 43  1  0  0  0  0
 15 44  1  0  0  0  0
 16 17  1  0  0  0  0
 16 45  1  0  0  0  0
 16 46  1  0  0  0  0
 17 18  1  0  0  0  0
 17 19  1  0  0  0  0
 17 47  1  0  0  0  0
 18 48  1  0  0  0  0
 19 20  1  0  0  0  0
 19 49  1  0  0  0  0
 19 50  1  0  0  0  0
 20 25  1  0  0  0  0
 20 21  1  0  0  0  0
 21 22  1  0  0  0  0
 21 51  1  0  0  0  0
 21 52  1  0  0  0  0
 22 23  1  0  0  0  0
 22 53  1  0  0  0  0
 22 54  1  0  0  0  0
 23 24  1  0  0  0  0
 24 25  1  0  0  0  0
 24 55  1  0  0  0  0
 24 56  1  0  0  0  0
 25 57  1  0  0  0  0
 25 58  1  0  0  0  0
 26 27  1  0  0  0  0
 27 28  2  0  0  0  0
 27 59  1  0  0  0  0
 28 29  1  0  0  0  0
M  END
> <s_m_source_file>
AV-unprocessed.smi

> <i_m_source_file_index>
153

> <i_lp_mmshare_version>
43012

> <i_f3d_flags>
0

> <s_epik_input>
W0NIMl0xW0NIMl1PW0NAQEhdKFtDSDNdKVtDQEBdMShbT0hdKVtDSDJdbihbY0hdbjIpYyhjMjMpbltjSF1uYzNOKFtDSDNdKVtDSDJdW0NASF0oW09IXSlbQ0gyXU40W0NIMl1bQ0gyXU9bQ0gyXVtDSDJdNA==

> <s_epik_cmdline>
J2VwaWtfcHl0aG9uJywgJy1waCcsICc3LjAnLCAnLXRuJywgJzgnLCAnLW1hJywgJzIwMCcsICctbWV0YWxfYmluZGluZycsICctaW1hZScsICc8aW5maWxlLm1hZT4nLCAnLW9tYWUnLCAnPG91dGZpbGUubWFlPic=

> <r_lp_tautomer_probability>
1

> <r_epik_Ionization_Penalty>
0.424123

> <r_epik_Ionization_Penalty_Charging>
0

> <r_epik_Ionization_Penalty_Neutral>
0.424123

> <r_epik_State_Penalty>
0.421495

> <r_epik_Charging_Adjusted_Penalty>
0.421495

> <i_epik_Tot_Q>
0

> <i_epik_Tot_abs_Q>
0

> <r_epik_Metal_State_Penalty>
0.421223

> <b_epik_Metal_Only>
0

> <s_lp_Force_Field>
OPLS_2005

> <r_lp_Energy>
59.2369

> <b_lp_Chiralities_Consistent>
1

> <s_lp_Variant>
AV-unprocessed.smi:153-11

> <Gold.Version>
5.8.1

> <Gold.Id.Protein>
6NUR|6NUR_protein|mol2

> <Gold.PLP.Fitness>
45.8329

> <Gold.PLP.PLP>
-41.8928

> <Gold.PLP.part.hbond>
-1.9386

> <Gold.PLP.part.metal>
0.0000

> <Gold.PLP.part.buried>
-6.0454

> <Gold.PLP.part.nonpolar>
-33.5885

> <Gold.PLP.part.repulsive>
0.0757

> <Gold.PLP.ligand.clash>
0.0000

> <Gold.PLP.ligand.torsion>
1.2731

> <Gold.PLP.Chemscore.Hbond>
1.9913

> <Gold.PLP.Chemscore.CHOScore>
0.0000

> <Gold.PLP.Chemscore.Metal>
0.0000

> <Gold.Chemscore.Hbonds>
donor molecule, donor type, donor heavy atom, donor atom, acceptor molecule, acceptor atom, score
      P1  H  6934  6947       L1     7  0.46
      P1  H  7997  8010       L1    18  1.00

> <Gold.PLP.Chemscore.Internal.Correction>
0.5125

> <Gold.Rescore>
     Score         DG    S(hbond)    S(metal)    S(lipo)     H(rot)  DE(clash)    DE(int)     intcor
     12.80     -15.27       1.97        0.00     104.50       3.52       0.44       2.03       ----

> <Gold.Chemscore.Fitness>
12.7976

> <Gold.Chemscore.DG>
-15.2670

> <Gold.Chemscore.ZeroCoef>
-5.4800

> <Gold.Chemscore.Hbond>
1.9652

> <Gold.Chemscore.Metal>
0.0000

> <Gold.Chemscore.Lipo>
104.5020

> <Gold.Chemscore.Internal_Hbond>
0.0000

> <Gold.Chemscore.DEClash>
0.4372

> <Gold.Chemscore.DEInternal>
2.0323

> <Gold.Chemscore.Rot>
3.5170

> <Gold.Chemscore.Internal.Correction>
   9.000000E+99

> <Gold.Chemscore.Hbonds>
donor molecule, donor type, donor heavy atom, donor atom, acceptor molecule, acceptor atom, score
      P1  H  6934  6947       L1     7  0.06
      P1  H  7997  8010       L1    18  0.26

> <Gold.Chemscore.Hbond.Weighted>
-6.5639

> <Gold.Chemscore.Metal.Weighted>
-0.0000

> <Gold.Chemscore.Lipo.Weighted>
-12.2267

> <Gold.Chemscore.Internal_Hbond.Weighted>
0.0000

> <Gold.Chemscore.DEClash.Weighted>
0.4372

> <Gold.Chemscore.DEInternal.Weighted>
2.0323

> <Gold.Chemscore.Rot.Weighted>
9.0036

> <Gold.Chemscore.Internal.Correction.Weighted>
   9.000000E+99

> <Gold.Protein.RotatedTorsions>
[ 6907 6896 6895 6894 ] final -116.73 input  -60.11 | X-H torsion
[ 7974 7965 7964 7962 ] final   93.76 input  175.53 | X-H torsion
[ 8008 7997 7996 7995 ] final   94.80 input   59.86 | X-H torsion
[ 10167 10162 10161 10158 ] final  171.28 input  -65.29 | X-H torsion
[ 10718 10713 10712 10709 ] final -116.76 input   66.30 | X-H torsion
[ 10763 10752 10751 10750 ] final   52.20 input  -60.55 | X-H torsion
[ 11005 11000 10999 10996 ] final  -99.37 input  -57.11 | X-H torsion

> <Gold.Protein.ActiveResidues>
 VAL166  LYS551  ARG553  GLY616  TRP617  ASP618  TYR619  PRO620  LYS621  CYS622 
 ASP623  PHE694  ASN695  SER759  ASP760  ASP761  ALA762  ILE779  LEU786  VAL792 
 PHE793  MET794  SER795  GLU796  ALA797  LYS798  CYS799  TRP800  GLU811  SER814 

> <Gold.Protein.RotatedAtoms>
  150.8079  133.8476  159.3196 H   0  0  0  0  0  0  0  0  0  0  0  0  # atno 6907 bound_to 6896
  151.6269  135.1025  160.0123 H   0  0  0  0  0  0  0  0  0  0  0  0  # atno 6908 bound_to 6896
  152.4170  133.7015  159.6483 H   0  0  0  0  0  0  0  0  0  0  0  0  # atno 6909 bound_to 6896
  145.4746  139.2280  143.2916 H   0  0  0  0  0  0  0  0  0  0  0  0  # atno 7974 bound_to 7965
  156.0620  140.3295  155.7472 H   0  0  0  0  0  0  0  0  0  0  0  0  # atno 8008 bound_to 7997
  155.5440  140.0604  157.2881 H   0  0  0  0  0  0  0  0  0  0  0  0  # atno 8009 bound_to 7997
  154.4486  140.1905  156.0608 H   0  0  0  0  0  0  0  0  0  0  0  0  # atno 8010 bound_to 7997
  139.5042  144.3503  151.9929 H   0  0  0  0  0  0  0  0  0  0  0  0  # atno 10167 bound_to 10162
  156.0986  130.6153  150.9077 H   0  0  0  0  0  0  0  0  0  0  0  0  # atno 10718 bound_to 10713
  152.9788  135.5820  154.4540 H   0  0  0  0  0  0  0  0  0  0  0  0  # atno 10763 bound_to 10752
  154.4125  135.2770  155.2030 H   0  0  0  0  0  0  0  0  0  0  0  0  # atno 10764 bound_to 10752
  154.3813  135.6146  153.5846 H   0  0  0  0  0  0  0  0  0  0  0  0  # atno 10765 bound_to 10752
  141.1311  133.8316  157.0963 H   0  0  0  0  0  0  0  0  0  0  0  0  # atno 11005 bound_to 11000
  146.2376  140.5527  142.8948 LP  0  0  0  0  0  0  0  0  0  0  0  0  # atno 17320 bound_to 7965
  144.7925  140.6059  143.6532 LP  0  0  0  0  0  0  0  0  0  0  0  0  # atno 17321 bound_to 7965
  140.2940  144.3722  150.6080 LP  0  0  0  0  0  0  0  0  0  0  0  0  # atno 17342 bound_to 10162
  140.5925  143.2167  151.7227 LP  0  0  0  0  0  0  0  0  0  0  0  0  # atno 17343 bound_to 10162
  157.6152  131.0934  150.8723 LP  0  0  0  0  0  0  0  0  0  0  0  0  # atno 17370 bound_to 10713
  156.8856  130.5195  149.5288 LP  0  0  0  0  0  0  0  0  0  0  0  0  # atno 17371 bound_to 10713
  140.0361  134.9877  157.0874 LP  0  0  0  0  0  0  0  0  0  0  0  0  # atno 17394 bound_to 11000
  140.4208  134.1882  155.7164 LP  0  0  0  0  0  0  0  0  0  0  0  0  # atno 17395 bound_to 11000

$$$$
