AV-unprocessed.smi:2093|AV-procd|sdf|8547|dock8
  -GOLD-   2272011273D 1   1.00000     0.00000
 Structure written by MMmdl.
 31 32  0  0  0  0  0  0  0  0  1 V2000
  147.8242  140.4840  155.5477 C   0  0  0  0  0  0  0  0  0  0  0  0
  149.2299  140.8810  155.0712 C   0  0  1  0  0  0  0  0  0  0  0  0
  149.6817  142.0340  155.8474 N   0  0  0  0  0  0  0  0  0  0  0  0
  150.2389  141.9918  157.0667 C   0  0  0  0  0  0  0  0  0  0  0  0
  150.4586  140.9485  157.6826 O   0  0  0  0  0  0  0  0  0  0  0  0
  150.5172  143.2291  157.5132 N   0  0  0  0  0  0  0  0  0  0  0  0
  151.1068  143.6055  158.7484 C   0  0  0  0  0  0  0  0  0  0  0  0
  151.6993  142.7537  159.5937 N   0  0  0  0  0  0  0  0  0  0  0  0
  152.1913  143.4000  160.7305 C   0  0  0  0  0  0  0  0  0  0  0  0
  151.9637  144.7536  160.7341 C   0  0  0  0  0  0  0  0  0  0  0  0
  151.1176  145.2739  159.3013 S   0  0  0  0  0  0  0  0  0  0  0  0
  150.2489  139.7351  155.2238 C   0  0  1  0  0  0  0  0  0  0  0  0
  150.1532  138.6439  154.1554 C   0  0  0  0  0  0  0  0  0  0  0  0
  151.5605  138.0684  154.0957 C   0  0  0  0  0  0  0  0  0  0  0  0
  152.4122  139.0805  154.8658 C   0  0  0  0  0  0  0  0  0  0  0  0
  151.5724  140.2127  155.0354 O   0  0  0  0  0  0  0  0  0  0  0  0
  147.4270  139.6528  154.9648 H   0  0  0  0  0  0  0  0  0  0  0  0
  147.1265  141.3158  155.4433 H   0  0  0  0  0  0  0  0  0  0  0  0
  147.8298  140.1835  156.5960 H   0  0  0  0  0  0  0  0  0  0  0  0
  149.1624  141.1397  154.0131 H   0  0  0  0  0  0  0  0  0  0  0  0
  149.5405  142.9403  155.4263 H   0  0  0  0  0  0  0  0  0  0  0  0
  150.2762  143.9922  156.8984 H   0  0  0  0  0  0  0  0  0  0  0  0
  152.6918  142.8177  161.4900 H   0  0  0  0  0  0  0  0  0  0  0  0
  152.2414  145.4729  161.4901 H   0  0  0  0  0  0  0  0  0  0  0  0
  150.1753  139.2882  156.2175 H   0  0  0  0  0  0  0  0  0  0  0  0
  149.3999  137.8916  154.3909 H   0  0  0  0  0  0  0  0  0  0  0  0
  149.8993  139.0822  153.1892 H   0  0  0  0  0  0  0  0  0  0  0  0
  151.6137  137.0841  154.5622 H   0  0  0  0  0  0  0  0  0  0  0  0
  151.8935  137.9688  153.0618 H   0  0  0  0  0  0  0  0  0  0  0  0
  152.6843  138.6861  155.8459 H   0  0  0  0  0  0  0  0  0  0  0  0
  153.3292  139.3454  154.3388 H   0  0  0  0  0  0  0  0  0  0  0  0
  1  2  1  0  0  0  0
  1 17  1  0  0  0  0
  1 18  1  0  0  0  0
  1 19  1  0  0  0  0
  2  3  1  0  0  0  0
  2 12  1  0  0  0  0
  2 20  1  0  0  0  0
  3  4  1  0  0  0  0
  3 21  1  0  0  0  0
  4  5  2  0  0  0  0
  4  6  1  0  0  0  0
  6  7  1  0  0  0  0
  6 22  1  0  0  0  0
  7 11  1  0  0  0  0
  7  8  2  0  0  0  0
  8  9  1  0  0  0  0
  9 10  2  0  0  0  0
  9 23  1  0  0  0  0
 10 11  1  0  0  0  0
 10 24  1  0  0  0  0
 12 16  1  0  0  0  0
 12 13  1  0  0  0  0
 12 25  1  0  0  0  0
 13 14  1  0  0  0  0
 13 26  1  0  0  0  0
 13 27  1  0  0  0  0
 14 15  1  0  0  0  0
 14 28  1  0  0  0  0
 14 29  1  0  0  0  0
 15 16  1  0  0  0  0
 15 30  1  0  0  0  0
 15 31  1  0  0  0  0
M  END
> <s_m_source_file>
AV-unprocessed.smi

> <i_m_source_file_index>
2093

> <i_lp_mmshare_version>
43012

> <i_f3d_flags>
0

> <s_epik_input>
TzFbQ0gyXVtDSDJdW0NIMl1bQ0BIXTFbQ0BIXShbQ0gzXSlbTkhdQyg9TylbTkhdYzJuW2NIXVtjSF1zMg==

> <s_epik_cmdline>
J2VwaWtfcHl0aG9uJywgJy1waCcsICc3LjAnLCAnLXRuJywgJzgnLCAnLW1hJywgJzIwMCcsICctbWV0YWxfYmluZGluZycsICctaW1hZScsICc8aW5maWxlLm1hZT4nLCAnLW9tYWUnLCAnPG91dGZpbGUubWFlPic=

> <r_lp_tautomer_probability>
0.999

> <r_epik_Ionization_Penalty>
0.000334433

> <r_epik_Ionization_Penalty_Charging>
0

> <r_epik_Ionization_Penalty_Neutral>
0.000334433

> <r_epik_State_Penalty>
0.000177984

> <r_epik_Charging_Adjusted_Penalty>
0.000177984

> <i_epik_Tot_Q>
0

> <i_epik_Tot_abs_Q>
0

> <r_epik_Metal_State_Penalty>
0.00767616

> <b_epik_Metal_Only>
0

> <s_lp_Force_Field>
OPLS_2005

> <r_lp_Energy>
16.8099

> <b_lp_Chiralities_Consistent>
1

> <s_lp_Variant>
AV-unprocessed.smi:2093-4

> <Gold.Version>
5.8.1

> <Gold.Id.Protein>
6NUR|6NUR_protein|mol2

> <Gold.PLP.Fitness>
42.4728

> <Gold.PLP.PLP>
-35.1309

> <Gold.PLP.part.hbond>
-3.0000

> <Gold.PLP.part.metal>
0.0000

> <Gold.PLP.part.buried>
-6.7217

> <Gold.PLP.part.nonpolar>
-26.5058

> <Gold.PLP.part.repulsive>
0.2049

> <Gold.PLP.ligand.clash>
0.0023

> <Gold.PLP.ligand.torsion>
0.5513

> <Gold.PLP.Chemscore.Hbond>
2.8080

> <Gold.PLP.Chemscore.CHOScore>
0.0000

> <Gold.PLP.Chemscore.Metal>
0.0000

> <Gold.Chemscore.Hbonds>
donor molecule, donor type, donor heavy atom, donor atom, acceptor molecule, acceptor atom, score
      L1  H     3    21       P1  8028  0.94
      L1  H     6    22       P1  8028  0.93
      P1  H  7989  7998       L1    16  0.99

> <Gold.PLP.Chemscore.Internal.Correction>
0.0228

> <Gold.Rescore>
     Score         DG    S(hbond)    S(metal)    S(lipo)     H(rot)  DE(clash)    DE(int)     intcor
     16.36     -19.46       2.53        0.00      75.57       1.29       0.03       3.06       ----

> <Gold.Chemscore.Fitness>
16.3609

> <Gold.Chemscore.DG>
-19.4554

> <Gold.Chemscore.ZeroCoef>
-5.4800

> <Gold.Chemscore.Hbond>
2.5288

> <Gold.Chemscore.Metal>
0.0000

> <Gold.Chemscore.Lipo>
75.5667

> <Gold.Chemscore.Internal_Hbond>
0.0000

> <Gold.Chemscore.DEClash>
0.0339

> <Gold.Chemscore.DEInternal>
3.0607

> <Gold.Chemscore.Rot>
1.2938

> <Gold.Chemscore.Internal.Correction>
   9.000000E+99

> <Gold.Chemscore.Hbonds>
donor molecule, donor type, donor heavy atom, donor atom, acceptor molecule, acceptor atom, score
      L1  H     3    21       P1  8028  0.91
      L1  H     6    22       P1  8028  0.87
      P1  H  7989  7998       L1    16  0.16

> <Gold.Chemscore.Hbond.Weighted>
-8.4463

> <Gold.Chemscore.Metal.Weighted>
-0.0000

> <Gold.Chemscore.Lipo.Weighted>
-8.8413

> <Gold.Chemscore.Internal_Hbond.Weighted>
0.0000

> <Gold.Chemscore.DEClash.Weighted>
0.0339

> <Gold.Chemscore.DEInternal.Weighted>
3.0607

> <Gold.Chemscore.Rot.Weighted>
3.3122

> <Gold.Chemscore.Internal.Correction.Weighted>
   9.000000E+99

> <Gold.Protein.RotatedTorsions>
[ 6907 6896 6895 6894 ] final  164.31 input  -60.11 | X-H torsion
[ 7974 7965 7964 7962 ] final -102.96 input  175.53 | X-H torsion
[ 8008 7997 7996 7995 ] final  143.09 input   59.86 | X-H torsion
[ 10167 10162 10161 10158 ] final   33.78 input  -65.29 | X-H torsion
[ 10718 10713 10712 10709 ] final   43.78 input   66.30 | X-H torsion
[ 10763 10752 10751 10750 ] final  178.74 input  -60.55 | X-H torsion
[ 11005 11000 10999 10996 ] final  -18.43 input  -57.11 | X-H torsion

> <Gold.Protein.ActiveResidues>
 VAL166  LYS551  ARG553  GLY616  TRP617  ASP618  TYR619  PRO620  LYS621  CYS622 
 ASP623  PHE694  ASN695  SER759  ASP760  ASP761  ALA762  ILE779  LEU786  VAL792 
 PHE793  MET794  SER795  GLU796  ALA797  LYS798  CYS799  TRP800  GLU811  SER814 

> <Gold.Protein.RotatedAtoms>
  151.9118  133.3563  159.3865 H   0  0  0  0  0  0  0  0  0  0  0  0  # atno 6907 bound_to 6896
  150.7056  134.4724  159.5441 H   0  0  0  0  0  0  0  0  0  0  0  0  # atno 6908 bound_to 6896
  152.2332  134.8302  160.0521 H   0  0  0  0  0  0  0  0  0  0  0  0  # atno 6909 bound_to 6896
  145.2620  140.9272  143.3035 H   0  0  0  0  0  0  0  0  0  0  0  0  # atno 7974 bound_to 7965
  156.2937  140.2271  156.4835 H   0  0  0  0  0  0  0  0  0  0  0  0  # atno 8008 bound_to 7997
  154.7833  140.0459  157.1165 H   0  0  0  0  0  0  0  0  0  0  0  0  # atno 8009 bound_to 7997
  154.9733  140.3069  155.4982 H   0  0  0  0  0  0  0  0  0  0  0  0  # atno 8010 bound_to 7997
  140.4376  144.1234  150.6169 H   0  0  0  0  0  0  0  0  0  0  0  0  # atno 10167 bound_to 10162
  157.4196  130.7961  149.7503 H   0  0  0  0  0  0  0  0  0  0  0  0  # atno 10718 bound_to 10713
  154.5116  135.2789  155.1337 H   0  0  0  0  0  0  0  0  0  0  0  0  # atno 10763 bound_to 10752
  154.2930  135.6263  153.5397 H   0  0  0  0  0  0  0  0  0  0  0  0  # atno 10764 bound_to 10752
  152.9920  135.5678  154.5583 H   0  0  0  0  0  0  0  0  0  0  0  0  # atno 10765 bound_to 10752
  140.8267  133.8028  155.9715 H   0  0  0  0  0  0  0  0  0  0  0  0  # atno 11005 bound_to 11000
  144.9410  139.4189  143.6449 LP  0  0  0  0  0  0  0  0  0  0  0  0  # atno 17320 bound_to 7965
  146.3272  139.8369  142.8897 LP  0  0  0  0  0  0  0  0  0  0  0  0  # atno 17321 bound_to 7965
  140.4355  143.2549  151.9540 LP  0  0  0  0  0  0  0  0  0  0  0  0  # atno 17342 bound_to 10162
  139.4788  144.5703  151.8098 LP  0  0  0  0  0  0  0  0  0  0  0  0  # atno 17343 bound_to 10162
  155.9876  130.3965  150.3156 LP  0  0  0  0  0  0  0  0  0  0  0  0  # atno 17370 bound_to 10713
  157.1303  131.0270  151.2972 LP  0  0  0  0  0  0  0  0  0  0  0  0  # atno 17371 bound_to 10713
  140.9042  134.2341  157.5024 LP  0  0  0  0  0  0  0  0  0  0  0  0  # atno 17394 bound_to 11000
  139.8706  134.9720  156.4759 LP  0  0  0  0  0  0  0  0  0  0  0  0  # atno 17395 bound_to 11000

$$$$
