AV-unprocessed.smi:1762|AV-procd|sdf|7112|dock8
  -GOLD-   22720 8333D 1   1.00000     0.00000
 Structure written by MMmdl.
 53 54  0  0  0  0  0  0  0  0  2 V2000
  152.4837  139.2871  155.3112 C   0  0  0  0  0  0  0  0  0  0  0  0
  151.0319  138.7981  155.3538 C   0  0  1  0  0  0  0  0  0  0  0  0
  150.5596  138.2652  153.9858 C   0  0  0  0  0  0  0  0  0  0  0  0
  149.1645  137.7501  154.0591 N   0  3  2  0  0  0  0  0  0  0  0  0
  148.0698  138.7815  154.1407 C   0  0  2  0  0  0  0  0  0  0  0  0
  146.7456  138.2337  153.5674 C   0  0  0  0  0  0  0  0  0  0  0  0
  145.6698  138.5648  154.0669 O   0  0  0  0  0  0  0  0  0  0  0  0
  146.8422  137.3975  152.5217 N   0  0  0  0  0  0  0  0  0  0  0  0
  145.7134  136.7728  151.8429 C   0  0  0  0  0  0  0  0  0  0  0  0
  145.0763  135.6677  152.7012 C   0  0  0  0  0  0  0  0  0  0  0  0
  144.9402  134.3632  151.9393 C   0  0  0  0  0  0  0  0  0  0  0  0
  143.6792  133.7503  151.7795 C   0  0  0  0  0  0  0  0  0  0  0  0
  143.6096  132.5325  151.0754 C   0  0  0  0  0  0  0  0  0  0  0  0
  144.7976  131.9769  150.5624 C   0  0  0  0  0  0  0  0  0  0  0  0
  146.0076  132.6663  150.7780 C   0  0  0  0  0  0  0  0  0  0  0  0
  146.0853  133.8338  151.4529 N   0  0  0  0  0  0  0  0  0  0  0  0
  148.4329  140.1522  153.4761 C   0  0  0  0  0  0  0  0  0  0  0  0
  149.3093  141.0513  154.3710 C   0  0  0  0  0  0  0  0  0  0  0  0
  147.2132  140.9459  152.9636 C   0  0  0  0  0  0  0  0  0  0  0  0
  149.1156  136.7009  155.1183 C   0  0  0  0  0  0  0  0  0  0  0  0
  149.6318  137.2354  156.4725 C   0  0  1  0  0  0  0  0  0  0  0  0
  149.6762  136.1387  157.5419 C   0  0  0  0  0  0  0  0  0  0  0  0
  150.9520  137.7422  156.3059 O   0  0  0  0  0  0  0  0  0  0  0  0
  152.6013  140.1064  154.6017 H   0  0  0  0  0  0  0  0  0  0  0  0
  153.1622  138.4867  155.0143 H   0  0  0  0  0  0  0  0  0  0  0  0
  152.8027  139.6474  156.2894 H   0  0  0  0  0  0  0  0  0  0  0  0
  150.4004  139.6272  155.6761 H   0  0  0  0  0  0  0  0  0  0  0  0
  150.6938  139.0075  153.2024 H   0  0  0  0  0  0  0  0  0  0  0  0
  151.2039  137.4361  153.6893 H   0  0  0  0  0  0  0  0  0  0  0  0
  147.9000  138.9882  155.1975 H   0  0  0  0  0  0  0  0  0  0  0  0
  147.7632  137.1721  152.1741 H   0  0  0  0  0  0  0  0  0  0  0  0
  144.9723  137.5283  151.5758 H   0  0  0  0  0  0  0  0  0  0  0  0
  146.0762  136.3494  150.9058 H   0  0  0  0  0  0  0  0  0  0  0  0
  145.6740  135.4989  153.5981 H   0  0  0  0  0  0  0  0  0  0  0  0
  144.0889  135.9781  153.0468 H   0  0  0  0  0  0  0  0  0  0  0  0
  142.7858  134.1991  152.1886 H   0  0  0  0  0  0  0  0  0  0  0  0
  142.6628  132.0330  150.9329 H   0  0  0  0  0  0  0  0  0  0  0  0
  144.7825  131.0444  150.0175 H   0  0  0  0  0  0  0  0  0  0  0  0
  146.9377  132.2688  150.3996 H   0  0  0  0  0  0  0  0  0  0  0  0
  149.0699  139.9442  152.6177 H   0  0  0  0  0  0  0  0  0  0  0  0
  148.7587  141.4385  155.2290 H   0  0  0  0  0  0  0  0  0  0  0  0
  149.6793  141.9117  153.8124 H   0  0  0  0  0  0  0  0  0  0  0  0
  150.1779  140.5094  154.7460 H   0  0  0  0  0  0  0  0  0  0  0  0
  146.5833  141.2922  153.7831 H   0  0  0  0  0  0  0  0  0  0  0  0
  146.5889  140.3530  152.2960 H   0  0  0  0  0  0  0  0  0  0  0  0
  147.5324  141.8276  152.4072 H   0  0  0  0  0  0  0  0  0  0  0  0
  148.1200  136.2737  155.2327 H   0  0  0  0  0  0  0  0  0  0  0  0
  149.7475  135.8714  154.7970 H   0  0  0  0  0  0  0  0  0  0  0  0
  148.9858  138.0349  156.8368 H   0  0  0  0  0  0  0  0  0  0  0  0
  148.6828  135.7267  157.7215 H   0  0  0  0  0  0  0  0  0  0  0  0
  150.0484  136.5309  158.4886 H   0  0  0  0  0  0  0  0  0  0  0  0
  150.3294  135.3188  157.2418 H   0  0  0  0  0  0  0  0  0  0  0  0
  148.9987  137.2732  153.1838 H   0  0  0  0  0  0  0  0  0  0  0  0
  1  2  1  0  0  0  0
  1 24  1  0  0  0  0
  1 25  1  0  0  0  0
  1 26  1  0  0  0  0
  2 23  1  0  0  0  0
  2  3  1  0  0  0  0
  2 27  1  0  0  0  0
  3  4  1  0  0  0  0
  3 28  1  0  0  0  0
  3 29  1  0  0  0  0
  4  5  1  0  0  0  0
  4 20  1  0  0  0  0
  4 53  1  0  0  0  0
  5  6  1  0  0  0  0
  5 17  1  0  0  0  0
  5 30  1  0  0  0  0
  6  7  2  0  0  0  0
  6  8  1  0  0  0  0
  8  9  1  0  0  0  0
  8 31  1  0  0  0  0
  9 10  1  0  0  0  0
  9 32  1  0  0  0  0
  9 33  1  0  0  0  0
 10 11  1  0  0  0  0
 10 34  1  0  0  0  0
 10 35  1  0  0  0  0
 11 16  1  0  0  0  0
 11 12  2  0  0  0  0
 12 13  1  0  0  0  0
 12 36  1  0  0  0  0
 13 14  2  0  0  0  0
 13 37  1  0  0  0  0
 14 15  1  0  0  0  0
 14 38  1  0  0  0  0
 15 16  2  0  0  0  0
 15 39  1  0  0  0  0
 17 18  1  0  0  0  0
 17 19  1  0  0  0  0
 17 40  1  0  0  0  0
 18 41  1  0  0  0  0
 18 42  1  0  0  0  0
 18 43  1  0  0  0  0
 19 44  1  0  0  0  0
 19 45  1  0  0  0  0
 19 46  1  0  0  0  0
 20 21  1  0  0  0  0
 20 47  1  0  0  0  0
 20 48  1  0  0  0  0
 21 22  1  0  0  0  0
 21 23  1  0  0  0  0
 21 49  1  0  0  0  0
 22 50  1  0  0  0  0
 22 51  1  0  0  0  0
 22 52  1  0  0  0  0
M  CHG  1   4   1
M  END
> <s_m_source_file>
AV-unprocessed.smi

> <i_m_source_file_index>
1762

> <i_lp_mmshare_version>
43012

> <i_f3d_flags>
0

> <s_epik_input>
W0NIM11bQ0BASF0xW0NIMl1OKFtDSDJdW0NASF0oTzEpW0NIM10pW0NAQEhdKFtDSF0oW0NIM10pW0NIM10pQyg9TylbTkhdW0NIMl1bQ0gyXWMyW2NIXVtjSF1bY0hdW2NIXW4y

> <s_epik_cmdline>
J2VwaWtfcHl0aG9uJywgJy1waCcsICc3LjAnLCAnLXRuJywgJzgnLCAnLW1hJywgJzIwMCcsICctbWV0YWxfYmluZGluZycsICctaW1hZScsICc8aW5maWxlLm1hZT4nLCAnLW9tYWUnLCAnPG91dGZpbGUubWFlPic=

> <r_epik_Ionization_Penalty>
2.27005

> <r_epik_Ionization_Penalty_Charging>
2.24983

> <r_epik_Ionization_Penalty_Neutral>
0.0202209

> <r_epik_State_Penalty>
2.40228

> <r_epik_Charging_Adjusted_Penalty>
4.65211

> <i_epik_Tot_Q>
1

> <i_epik_Tot_abs_Q>
1

> <r_epik_Metal_State_Penalty>
2.40762

> <b_epik_Metal_Only>
0

> <s_lp_Force_Field>
OPLS_2005

> <r_lp_Energy>
22.1735

> <b_lp_Chiralities_Consistent>
1

> <s_lp_Variant>
AV-unprocessed.smi:1762-14

> <Gold.Version>
5.8.1

> <Gold.Id.Protein>
6NUR|6NUR_protein|mol2

> <Gold.PLP.Fitness>
43.2449

> <Gold.PLP.PLP>
-35.8374

> <Gold.PLP.part.hbond>
-1.8544

> <Gold.PLP.part.metal>
0.0000

> <Gold.PLP.part.buried>
-2.5384

> <Gold.PLP.part.nonpolar>
-32.7126

> <Gold.PLP.part.repulsive>
0.3751

> <Gold.PLP.ligand.clash>
0.0000

> <Gold.PLP.ligand.torsion>
2.3524

> <Gold.PLP.Chemscore.Hbond>
2.9760

> <Gold.PLP.Chemscore.CHOScore>
1.0000

> <Gold.PLP.Chemscore.Metal>
0.0000

> <Gold.Chemscore.Hbonds>
donor molecule, donor type, donor heavy atom, donor atom, acceptor molecule, acceptor atom, score
      L1  H     4    53       P1  7948  2.00
      L1  H     8    31       P1  7948  1.00
      L1  C    15    39       P1 10747  1.00

> <Gold.PLP.Chemscore.Internal.Correction>
0.1844

> <Gold.Rescore>
     Score         DG    S(hbond)    S(metal)    S(lipo)     H(rot)  DE(clash)    DE(int)     intcor
     15.90     -19.39       1.91        0.00     100.78       1.66       0.07       3.42       ----

> <Gold.Chemscore.Fitness>
15.8988

> <Gold.Chemscore.DG>
-19.3930

> <Gold.Chemscore.ZeroCoef>
-5.4800

> <Gold.Chemscore.Hbond>
1.9103

> <Gold.Chemscore.Metal>
0.0000

> <Gold.Chemscore.Lipo>
100.7805

> <Gold.Chemscore.Internal_Hbond>
0.0000

> <Gold.Chemscore.DEClash>
0.0725

> <Gold.Chemscore.DEInternal>
3.4217

> <Gold.Chemscore.Rot>
1.6635

> <Gold.Chemscore.Internal.Correction>
   9.000000E+99

> <Gold.Chemscore.Hbonds>
donor molecule, donor type, donor heavy atom, donor atom, acceptor molecule, acceptor atom, score
      L1  H     4    53       P1  7948  1.00
      L1  H     8    31       P1  7948  0.92

> <Gold.Chemscore.Hbond.Weighted>
-6.3803

> <Gold.Chemscore.Metal.Weighted>
-0.0000

> <Gold.Chemscore.Lipo.Weighted>
-11.7913

> <Gold.Chemscore.Internal_Hbond.Weighted>
0.0000

> <Gold.Chemscore.DEClash.Weighted>
0.0725

> <Gold.Chemscore.DEInternal.Weighted>
3.4217

> <Gold.Chemscore.Rot.Weighted>
4.2586

> <Gold.Chemscore.Internal.Correction.Weighted>
   9.000000E+99

> <Gold.Protein.RotatedTorsions>
[ 6907 6896 6895 6894 ] final -156.79 input  -60.11 | X-H torsion
[ 7974 7965 7964 7962 ] final -100.41 input  175.53 | X-H torsion
[ 8008 7997 7996 7995 ] final  165.52 input   59.86 | X-H torsion
[ 10167 10162 10161 10158 ] final  -60.63 input  -65.29 | X-H torsion
[ 10718 10713 10712 10709 ] final  -44.60 input   66.30 | X-H torsion
[ 10763 10752 10751 10750 ] final -167.85 input  -60.55 | X-H torsion
[ 11005 11000 10999 10996 ] final   37.22 input  -57.11 | X-H torsion

> <Gold.Protein.ActiveResidues>
 VAL166  LYS551  ARG553  GLY616  TRP617  ASP618  TYR619  PRO620  LYS621  CYS622 
 ASP623  PHE694  ASN695  SER759  ASP760  ASP761  ALA762  ILE779  LEU786  VAL792 
 PHE793  MET794  SER795  GLU796  ALA797  LYS798  CYS799  TRP800  GLU811  SER814 

> <Gold.Protein.RotatedAtoms>
  151.2930  133.4156  159.2634 H   0  0  0  0  0  0  0  0  0  0  0  0  # atno 6907 bound_to 6896
  151.0261  134.9505  159.8096 H   0  0  0  0  0  0  0  0  0  0  0  0  # atno 6908 bound_to 6896
  152.5335  134.2892  159.9089 H   0  0  0  0  0  0  0  0  0  0  0  0  # atno 6909 bound_to 6896
  145.2949  140.9362  143.2857 H   0  0  0  0  0  0  0  0  0  0  0  0  # atno 7974 bound_to 7965
  156.1794  140.1668  156.8303 H   0  0  0  0  0  0  0  0  0  0  0  0  # atno 8008 bound_to 7997
  154.5343  140.0750  156.8433 H   0  0  0  0  0  0  0  0  0  0  0  0  # atno 8009 bound_to 7997
  155.3343  140.3381  155.4241 H   0  0  0  0  0  0  0  0  0  0  0  0  # atno 8010 bound_to 7997
  140.6059  143.2373  151.5822 H   0  0  0  0  0  0  0  0  0  0  0  0  # atno 10167 bound_to 10162
  156.2369  130.4177  149.8806 H   0  0  0  0  0  0  0  0  0  0  0  0  # atno 10718 bound_to 10713
  154.6689  135.2936  154.9768 H   0  0  0  0  0  0  0  0  0  0  0  0  # atno 10763 bound_to 10752
  154.0802  135.6605  153.4840 H   0  0  0  0  0  0  0  0  0  0  0  0  # atno 10764 bound_to 10752
  153.0474  135.5195  154.7676 H   0  0  0  0  0  0  0  0  0  0  0  0  # atno 10765 bound_to 10752
  140.2247  134.3598  155.7989 H   0  0  0  0  0  0  0  0  0  0  0  0  # atno 11005 bound_to 11000
  144.9142  139.4491  143.6572 LP  0  0  0  0  0  0  0  0  0  0  0  0  # atno 17320 bound_to 7965
  146.3172  139.7966  142.8974 LP  0  0  0  0  0  0  0  0  0  0  0  0  # atno 17321 bound_to 7965
  139.5324  144.2876  152.1178 LP  0  0  0  0  0  0  0  0  0  0  0  0  # atno 17342 bound_to 10162
  140.2066  144.4605  150.6406 LP  0  0  0  0  0  0  0  0  0  0  0  0  # atno 17343 bound_to 10162
  156.6401  130.8701  151.3512 LP  0  0  0  0  0  0  0  0  0  0  0  0  # atno 17370 bound_to 10713
  157.7158  130.9496  150.1252 LP  0  0  0  0  0  0  0  0  0  0  0  0  # atno 17371 bound_to 10713
  141.2221  133.7213  156.8634 LP  0  0  0  0  0  0  0  0  0  0  0  0  # atno 17394 bound_to 11000
  140.1812  134.9032  157.2951 LP  0  0  0  0  0  0  0  0  0  0  0  0  # atno 17395 bound_to 11000

$$$$
