AV-unprocessed.smi:2616|AV-procd|sdf|10216|dock2
  -GOLD-   2272014223D 1   1.00000     0.00000
 Structure written by MMmdl.
 26 27  0  0  0  0  0  0  0  0  2 V2000
  152.4609  139.8832  156.4141 O   0  0  0  0  0  0  0  0  0  0  0  0
  151.6866  139.6199  155.4690 C   0  0  0  0  0  0  0  0  0  0  0  0
  152.0088  138.7830  154.5941 O   0  5  0  0  0  0  0  0  0  0  0  0
  150.3385  140.3048  155.3498 C   0  0  0  0  0  0  0  0  0  0  0  0
  149.9781  140.6098  154.0789 N   0  0  0  0  0  0  0  0  0  0  0  0
  148.8032  141.2198  153.8484 C   0  0  0  0  0  0  0  0  0  0  0  0
  147.9061  141.5671  154.8690 C   0  0  0  0  0  0  0  0  0  0  0  0
  146.4171  142.3507  154.4652 Cl  0  0  0  0  0  0  0  0  0  0  0  0
  148.2501  141.2633  156.2046 C   0  0  0  0  0  0  0  0  0  0  0  0
  147.3392  141.6196  157.2143 N   0  0  0  0  0  0  0  0  0  0  0  0
  146.4459  140.5785  157.7010 C   0  0  0  0  0  0  0  0  0  0  0  0
  145.2871  141.2232  158.4811 C   0  0  0  0  0  0  0  0  0  0  0  0
  145.8069  142.0629  159.5099 O   0  0  0  0  0  0  0  0  0  0  0  0
  146.5991  143.1283  158.9888 C   0  0  0  0  0  0  0  0  0  0  0  0
  147.8065  142.5540  158.2277 C   0  0  0  0  0  0  0  0  0  0  0  0
  149.4933  140.6172  156.4626 C   0  0  0  0  0  0  0  0  0  0  0  0
  149.9275  140.2359  158.1019 Cl  0  0  0  0  0  0  0  0  0  0  0  0
  148.5729  141.4373  152.8158 H   0  0  0  0  0  0  0  0  0  0  0  0
  146.0602  139.9941  156.8649 H   0  0  0  0  0  0  0  0  0  0  0  0
  146.9877  139.8939  158.3528 H   0  0  0  0  0  0  0  0  0  0  0  0
  144.6467  141.8036  157.8151 H   0  0  0  0  0  0  0  0  0  0  0  0
  144.6621  140.4522  158.9316 H   0  0  0  0  0  0  0  0  0  0  0  0
  145.9928  143.7582  158.3358 H   0  0  0  0  0  0  0  0  0  0  0  0
  146.9383  143.7569  159.8120 H   0  0  0  0  0  0  0  0  0  0  0  0
  148.4710  142.0474  158.9267 H   0  0  0  0  0  0  0  0  0  0  0  0
  148.3770  143.3581  157.7615 H   0  0  0  0  0  0  0  0  0  0  0  0
  1  2  2  0  0  0  0
  2  3  1  0  0  0  0
  2  4  1  0  0  0  0
  4 16  1  0  0  0  0
  4  5  2  0  0  0  0
  5  6  1  0  0  0  0
  6  7  2  0  0  0  0
  6 18  1  0  0  0  0
  7  8  1  0  0  0  0
  7  9  1  0  0  0  0
  9 10  1  0  0  0  0
  9 16  2  0  0  0  0
 10 15  1  0  0  0  0
 10 11  1  0  0  0  0
 11 12  1  0  0  0  0
 11 19  1  0  0  0  0
 11 20  1  0  0  0  0
 12 13  1  0  0  0  0
 12 21  1  0  0  0  0
 12 22  1  0  0  0  0
 13 14  1  0  0  0  0
 14 15  1  0  0  0  0
 14 23  1  0  0  0  0
 14 24  1  0  0  0  0
 15 25  1  0  0  0  0
 15 26  1  0  0  0  0
 16 17  1  0  0  0  0
M  CHG  1   3  -1
M  END
> <s_m_source_file>
AV-unprocessed.smi

> <i_m_source_file_index>
2616

> <i_lp_mmshare_version>
43012

> <i_f3d_flags>
0

> <s_epik_input>
Tz1DKFtPSF0pYzFuW2NIXWMoQ2wpYyhjMUNsKU4yW0NIMl1bQ0gyXU9bQ0gyXVtDSDJdMg==

> <s_epik_cmdline>
J2VwaWtfcHl0aG9uJywgJy1waCcsICc3LjAnLCAnLXRuJywgJzgnLCAnLW1hJywgJzIwMCcsICctbWV0YWxfYmluZGluZycsICctaW1hZScsICc8aW5maWxlLm1hZT4nLCAnLW9tYWUnLCAnPG91dGZpbGUubWFlPic=

> <r_epik_Ionization_Penalty>
0.00232884

> <r_epik_Ionization_Penalty_Charging>
7.03121e-06

> <r_epik_Ionization_Penalty_Neutral>
0.00232181

> <r_epik_State_Penalty>
0.00160212

> <r_epik_Charging_Adjusted_Penalty>
0.00160915

> <i_epik_Tot_Q>
-1

> <i_epik_Tot_abs_Q>
1

> <r_epik_Metal_State_Penalty>
-0

> <b_epik_Metal_Only>
0

> <s_lp_Force_Field>
OPLS_2005

> <r_lp_Energy>
33.645

> <b_lp_Chiralities_Consistent>
1

> <s_lp_Variant>
AV-unprocessed.smi:2616-1

> <Gold.Version>
5.8.1

> <Gold.Id.Protein>
6NUR|6NUR_protein|mol2

> <Gold.PLP.Fitness>
35.7818

> <Gold.PLP.PLP>
-23.1578

> <Gold.PLP.part.hbond>
-3.0000

> <Gold.PLP.part.metal>
0.0000

> <Gold.PLP.part.buried>
-2.1432

> <Gold.PLP.part.nonpolar>
-18.5813

> <Gold.PLP.part.repulsive>
0.3069

> <Gold.PLP.ligand.clash>
0.0000

> <Gold.PLP.ligand.torsion>
0.8857

> <Gold.PLP.Chemscore.Hbond>
3.7840

> <Gold.PLP.Chemscore.CHOScore>
0.8566

> <Gold.PLP.Chemscore.Metal>
0.0000

> <Gold.Chemscore.Hbonds>
donor molecule, donor type, donor heavy atom, donor atom, acceptor molecule, acceptor atom, score
      P1  H  6934  6946       L1    13  1.00
      P1  H  7989  7998       L1     5  0.58
      P1  H  7997  8009       L1     1  2.00
      L1  C     6    18       P1  7957  0.76

> <Gold.PLP.Chemscore.Internal.Correction>
0.4736

> <Gold.Rescore>
     Score         DG    S(hbond)    S(metal)    S(lipo)     H(rot)  DE(clash)    DE(int)     intcor
     14.35     -15.38       2.27        0.00      41.83       1.00       0.03       1.00       ----

> <Gold.Chemscore.Fitness>
14.3514

> <Gold.Chemscore.DG>
-15.3821

> <Gold.Chemscore.ZeroCoef>
-5.4800

> <Gold.Chemscore.Hbond>
2.2658

> <Gold.Chemscore.Metal>
0.0000

> <Gold.Chemscore.Lipo>
41.8313

> <Gold.Chemscore.Internal_Hbond>
0.0000

> <Gold.Chemscore.DEClash>
0.0285

> <Gold.Chemscore.DEInternal>
1.0022

> <Gold.Chemscore.Rot>
1.0000

> <Gold.Chemscore.Internal.Correction>
   9.000000E+99

> <Gold.Chemscore.Hbonds>
donor molecule, donor type, donor heavy atom, donor atom, acceptor molecule, acceptor atom, score
      P1  H  6934  6946       L1    13  0.40
      P1  H  7989  7998       L1     5  0.10
      P1  H  7997  8009       L1     1  0.98

> <Gold.Chemscore.Hbond.Weighted>
-7.5678

> <Gold.Chemscore.Metal.Weighted>
-0.0000

> <Gold.Chemscore.Lipo.Weighted>
-4.8943

> <Gold.Chemscore.Internal_Hbond.Weighted>
0.0000

> <Gold.Chemscore.DEClash.Weighted>
0.0285

> <Gold.Chemscore.DEInternal.Weighted>
1.0022

> <Gold.Chemscore.Rot.Weighted>
2.5600

> <Gold.Chemscore.Internal.Correction.Weighted>
   9.000000E+99

> <Gold.Protein.RotatedTorsions>
[ 6907 6896 6895 6894 ] final   62.68 input  -60.11 | X-H torsion
[ 7974 7965 7964 7962 ] final  -38.14 input  175.53 | X-H torsion
[ 8008 7997 7996 7995 ] final -177.98 input   59.86 | X-H torsion
[ 10167 10162 10161 10158 ] final   29.24 input  -65.29 | X-H torsion
[ 10718 10713 10712 10709 ] final   71.22 input   66.30 | X-H torsion
[ 10763 10752 10751 10750 ] final -119.03 input  -60.55 | X-H torsion
[ 11005 11000 10999 10996 ] final  -12.45 input  -57.11 | X-H torsion

> <Gold.Protein.ActiveResidues>
 VAL166  LYS551  ARG553  GLY616  TRP617  ASP618  TYR619  PRO620  LYS621  CYS622 
 ASP623  PHE694  ASN695  SER759  ASP760  ASP761  ALA762  ILE779  LEU786  VAL792 
 PHE793  MET794  SER795  GLU796  ALA797  LYS798  CYS799  TRP800  GLU811  SER814 

> <Gold.Protein.RotatedAtoms>
  152.4191  134.5987  159.9993 H   0  0  0  0  0  0  0  0  0  0  0  0  # atno 6907 bound_to 6896
  151.6142  133.3339  159.3082 H   0  0  0  0  0  0  0  0  0  0  0  0  # atno 6908 bound_to 6896
  150.8080  134.7255  159.6727 H   0  0  0  0  0  0  0  0  0  0  0  0  # atno 6909 bound_to 6896
  146.0513  140.6477  142.9040 H   0  0  0  0  0  0  0  0  0  0  0  0  # atno 7974 bound_to 7965
  156.0134  140.1245  157.0431 H   0  0  0  0  0  0  0  0  0  0  0  0  # atno 8008 bound_to 7997
  154.4284  140.1083  156.5931 H   0  0  0  0  0  0  0  0  0  0  0  0  # atno 8009 bound_to 7997
  155.6047  140.3471  155.4606 H   0  0  0  0  0  0  0  0  0  0  0  0  # atno 8010 bound_to 7997
  140.4783  144.0655  150.6257 H   0  0  0  0  0  0  0  0  0  0  0  0  # atno 10167 bound_to 10162
  157.6440  130.9517  150.0759 H   0  0  0  0  0  0  0  0  0  0  0  0  # atno 10718 bound_to 10713
  154.8605  135.4253  154.2234 H   0  0  0  0  0  0  0  0  0  0  0  0  # atno 10763 bound_to 10752
  153.3234  135.6983  153.7016 H   0  0  0  0  0  0  0  0  0  0  0  0  # atno 10764 bound_to 10752
  153.6062  135.3528  155.2936 H   0  0  0  0  0  0  0  0  0  0  0  0  # atno 10765 bound_to 10752
  140.7659  133.8478  155.9164 H   0  0  0  0  0  0  0  0  0  0  0  0  # atno 11005 bound_to 11000
  144.7124  140.4087  143.7070 LP  0  0  0  0  0  0  0  0  0  0  0  0  # atno 17320 bound_to 7965
  145.6720  139.1601  143.2749 LP  0  0  0  0  0  0  0  0  0  0  0  0  # atno 17321 bound_to 7965
  140.3890  143.2762  152.0082 LP  0  0  0  0  0  0  0  0  0  0  0  0  # atno 17342 bound_to 10162
  139.4829  144.6093  151.7464 LP  0  0  0  0  0  0  0  0  0  0  0  0  # atno 17343 bound_to 10162
  156.1749  130.3648  149.9113 LP  0  0  0  0  0  0  0  0  0  0  0  0  # atno 17370 bound_to 10713
  156.7080  130.8959  151.3606 LP  0  0  0  0  0  0  0  0  0  0  0  0  # atno 17371 bound_to 10713
  140.9620  134.1643  157.4646 LP  0  0  0  0  0  0  0  0  0  0  0  0  # atno 17394 bound_to 11000
  139.8763  134.9948  156.5711 LP  0  0  0  0  0  0  0  0  0  0  0  0  # atno 17395 bound_to 11000

$$$$
