AV-unprocessed.smi:242|AV-procd|sdf|1846|dock6
  -GOLD-   2262020463D 1   1.00000     0.00000
 Structure written by MMmdl.
 58 61  0  0  0  0  0  0  0  0  2 V2000
  143.7758  132.7476  148.5536 C   0  0  0  0  0  0  0  0  0  0  0  0
  144.9043  132.5282  149.5787 C   0  0  0  0  0  0  0  0  0  0  0  0
  144.4554  131.4859  150.6213 C   0  0  0  0  0  0  0  0  0  0  0  0
  145.3045  133.8149  150.2152 N   0  3  2  0  0  0  0  0  0  0  0  0
  146.2929  133.6932  151.3176 C   0  0  0  0  0  0  0  0  0  0  0  0
  145.8389  134.6395  152.4367 C   0  0  0  0  0  0  0  0  0  0  0  0
  144.8483  135.5813  151.7547 C   0  0  2  0  0  0  0  0  0  0  0  0
  143.9079  136.2199  152.6778 N   0  0  0  0  0  0  0  0  0  0  0  0
  142.8742  135.3648  153.2498 C   0  0  0  0  0  0  0  0  0  0  0  0
  144.4907  136.9820  153.6300 C   0  0  0  0  0  0  0  0  0  0  0  0
  144.1520  136.8128  154.9352 N   0  0  0  0  0  0  0  0  0  0  0  0
  144.7243  137.5734  155.8740 C   0  0  0  0  0  0  0  0  0  0  0  0
  145.6366  138.5370  155.7262 N   0  0  0  0  0  0  0  0  0  0  0  0
  145.9761  138.7044  154.4155 C   0  0  0  0  0  0  0  0  0  0  0  0
  145.4588  137.9693  153.3134 C   0  0  0  0  0  0  0  0  0  0  0  0
  146.0450  138.4002  152.1308 N   0  0  0  0  0  0  0  0  0  0  0  0
  146.8602  139.3461  152.5118 C   0  0  0  0  0  0  0  0  0  0  0  0
  146.8711  139.6048  153.8648 N   0  0  0  0  0  0  0  0  0  0  0  0
  147.6658  140.6099  154.5538 C   0  0  0  0  0  0  0  0  0  0  0  0
  149.1880  140.3199  154.5463 C   0  0  0  0  0  0  0  0  0  0  0  0
  149.7290  140.8721  153.3587 O   0  0  0  0  0  0  0  0  0  0  0  0
  149.8697  140.9991  155.7510 C   0  0  0  0  0  0  0  0  0  0  0  0
  151.3501  140.5993  155.8819 C   0  0  0  0  0  0  0  0  0  0  0  0
  151.4667  139.1835  155.9532 O   0  0  0  0  0  0  0  0  0  0  0  0
  151.0066  138.5339  154.7745 C   0  0  0  0  0  0  0  0  0  0  0  0
  149.5065  138.8084  154.5685 C   0  0  0  0  0  0  0  0  0  0  0  0
  144.1953  134.6446  150.7334 C   0  0  0  0  0  0  0  0  0  0  0  0
  143.4775  131.8051  148.0934 H   0  0  0  0  0  0  0  0  0  0  0  0
  144.0770  133.4130  147.7447 H   0  0  0  0  0  0  0  0  0  0  0  0
  142.8917  133.1776  149.0256 H   0  0  0  0  0  0  0  0  0  0  0  0
  145.7725  132.1255  149.0542 H   0  0  0  0  0  0  0  0  0  0  0  0
  144.1188  130.5697  150.1355 H   0  0  0  0  0  0  0  0  0  0  0  0
  143.6292  131.8593  151.2274 H   0  0  0  0  0  0  0  0  0  0  0  0
  145.2652  131.2037  151.2942 H   0  0  0  0  0  0  0  0  0  0  0  0
  146.3637  132.6745  151.7009 H   0  0  0  0  0  0  0  0  0  0  0  0
  147.2759  133.9752  150.9393 H   0  0  0  0  0  0  0  0  0  0  0  0
  145.3322  134.0636  153.2130 H   0  0  0  0  0  0  0  0  0  0  0  0
  146.6713  135.1665  152.9040 H   0  0  0  0  0  0  0  0  0  0  0  0
  145.4086  136.3522  151.2224 H   0  0  0  0  0  0  0  0  0  0  0  0
  142.3102  135.8848  154.0260 H   0  0  0  0  0  0  0  0  0  0  0  0
  143.3115  134.4670  153.6880 H   0  0  0  0  0  0  0  0  0  0  0  0
  142.1661  135.0592  152.4797 H   0  0  0  0  0  0  0  0  0  0  0  0
  144.4034  137.3861  156.8881 H   0  0  0  0  0  0  0  0  0  0  0  0
  147.4721  139.8942  151.8100 H   0  0  0  0  0  0  0  0  0  0  0  0
  147.4621  141.5801  154.0985 H   0  0  0  0  0  0  0  0  0  0  0  0
  147.3039  140.6757  155.5808 H   0  0  0  0  0  0  0  0  0  0  0  0
  149.6984  140.2155  152.6798 H   0  0  0  0  0  0  0  0  0  0  0  0
  149.7801  142.0839  155.6799 H   0  0  0  0  0  0  0  0  0  0  0  0
  149.3538  140.7108  156.6679 H   0  0  0  0  0  0  0  0  0  0  0  0
  151.9379  140.9836  155.0470 H   0  0  0  0  0  0  0  0  0  0  0  0
  151.7730  141.0311  156.7890 H   0  0  0  0  0  0  0  0  0  0  0  0
  151.5885  138.8637  153.9125 H   0  0  0  0  0  0  0  0  0  0  0  0
  151.1769  137.4621  154.8764 H   0  0  0  0  0  0  0  0  0  0  0  0
  148.9526  138.3369  155.3813 H   0  0  0  0  0  0  0  0  0  0  0  0
  149.1729  138.3261  153.6490 H   0  0  0  0  0  0  0  0  0  0  0  0
  143.6949  135.1894  149.9318 H   0  0  0  0  0  0  0  0  0  0  0  0
  143.4590  134.0068  151.2266 H   0  0  0  0  0  0  0  0  0  0  0  0
  145.7522  134.3713  149.5009 H   0  0  0  0  0  0  0  0  0  0  0  0
  1  2  1  0  0  0  0
  1 28  1  0  0  0  0
  1 29  1  0  0  0  0
  1 30  1  0  0  0  0
  2  3  1  0  0  0  0
  2  4  1  0  0  0  0
  2 31  1  0  0  0  0
  3 32  1  0  0  0  0
  3 33  1  0  0  0  0
  3 34  1  0  0  0  0
  4 27  1  0  0  0  0
  4  5  1  0  0  0  0
  4 58  1  0  0  0  0
  5  6  1  0  0  0  0
  5 35  1  0  0  0  0
  5 36  1  0  0  0  0
  6  7  1  0  0  0  0
  6 37  1  0  0  0  0
  6 38  1  0  0  0  0
  7  8  1  0  0  0  0
  7 27  1  0  0  0  0
  7 39  1  0  0  0  0
  8  9  1  0  0  0  0
  8 10  1  0  0  0  0
  9 40  1  0  0  0  0
  9 41  1  0  0  0  0
  9 42  1  0  0  0  0
 10 15  1  0  0  0  0
 10 11  2  0  0  0  0
 11 12  1  0  0  0  0
 12 13  2  0  0  0  0
 12 43  1  0  0  0  0
 13 14  1  0  0  0  0
 14 18  1  0  0  0  0
 14 15  2  0  0  0  0
 15 16  1  0  0  0  0
 16 17  2  0  0  0  0
 17 18  1  0  0  0  0
 17 44  1  0  0  0  0
 18 19  1  0  0  0  0
 19 20  1  0  0  0  0
 19 45  1  0  0  0  0
 19 46  1  0  0  0  0
 20 26  1  0  0  0  0
 20 21  1  0  0  0  0
 20 22  1  0  0  0  0
 21 47  1  0  0  0  0
 22 23  1  0  0  0  0
 22 48  1  0  0  0  0
 22 49  1  0  0  0  0
 23 24  1  0  0  0  0
 23 50  1  0  0  0  0
 23 51  1  0  0  0  0
 24 25  1  0  0  0  0
 25 26  1  0  0  0  0
 25 52  1  0  0  0  0
 25 53  1  0  0  0  0
 26 54  1  0  0  0  0
 26 55  1  0  0  0  0
 27 56  1  0  0  0  0
 27 57  1  0  0  0  0
M  CHG  1   4   1
M  END
> <s_m_source_file>
AV-unprocessed.smi

> <i_m_source_file_index>
242

> <i_lp_mmshare_version>
43012

> <i_f3d_flags>
0

> <s_epik_input>
W0NIM11bQ0hdKFtDSDNdKU4xW0NIMl1bQ0gyXVtDQEhdKFtDSDJdMSlOKFtDSDNdKWMobltjSF1uMiljKGMyMyluW2NIXW4zW0NIMl1DNChbT0hdKVtDSDJdW0NIMl1PW0NIMl1bQ0gyXTQ=

> <s_epik_cmdline>
J2VwaWtfcHl0aG9uJywgJy1waCcsICc3LjAnLCAnLXRuJywgJzgnLCAnLW1hJywgJzIwMCcsICctbWV0YWxfYmluZGluZycsICctaW1hZScsICc8aW5maWxlLm1hZT4nLCAnLW9tYWUnLCAnPG91dGZpbGUubWFlPic=

> <r_lp_tautomer_probability>
1

> <r_epik_Ionization_Penalty>
0.000825961

> <r_epik_Ionization_Penalty_Charging>
0.00034898

> <r_epik_Ionization_Penalty_Neutral>
0.000476981

> <r_epik_State_Penalty>
-0

> <r_epik_Charging_Adjusted_Penalty>
0.00034898

> <i_epik_Tot_Q>
1

> <i_epik_Tot_abs_Q>
1

> <r_epik_Metal_State_Penalty>
-0

> <b_epik_Metal_Only>
0

> <s_lp_Force_Field>
OPLS_2005

> <r_lp_Energy>
47.5475

> <b_lp_Chiralities_Consistent>
1

> <s_lp_Variant>
AV-unprocessed.smi:242-3

> <Gold.Version>
5.8.1

> <Gold.Id.Protein>
6NUR|6NUR_protein|mol2

> <Gold.PLP.Fitness>
54.1200

> <Gold.PLP.PLP>
-43.3329

> <Gold.PLP.part.hbond>
-3.0658

> <Gold.PLP.part.metal>
0.0000

> <Gold.PLP.part.buried>
-4.9882

> <Gold.PLP.part.nonpolar>
-36.5588

> <Gold.PLP.part.repulsive>
0.5829

> <Gold.PLP.ligand.clash>
0.0000

> <Gold.PLP.ligand.torsion>
0.8363

> <Gold.PLP.Chemscore.Hbond>
3.0356

> <Gold.PLP.Chemscore.CHOScore>
1.0000

> <Gold.PLP.Chemscore.Metal>
0.0000

> <Gold.Chemscore.Hbonds>
donor molecule, donor type, donor heavy atom, donor atom, acceptor molecule, acceptor atom, score
      L1  H     4    58       P1  7921  1.00
      L1  H    21    47       P1  7957  0.84
      P1  H  7989  7998       L1    21  0.18
      P1  H  8011  8017       L1    21  1.00
      L1  C    17    44       P1  7957  1.00

> <Gold.PLP.Chemscore.Internal.Correction>
0.3527

> <Gold.Rescore>
     Score         DG    S(hbond)    S(metal)    S(lipo)     H(rot)  DE(clash)    DE(int)     intcor
     16.38     -17.99       2.02        0.00     103.86       2.50       0.21       1.41       ----

> <Gold.Chemscore.Fitness>
16.3755

> <Gold.Chemscore.DG>
-17.9923

> <Gold.Chemscore.ZeroCoef>
-5.4800

> <Gold.Chemscore.Hbond>
2.0237

> <Gold.Chemscore.Metal>
0.0000

> <Gold.Chemscore.Lipo>
103.8627

> <Gold.Chemscore.Internal_Hbond>
0.0000

> <Gold.Chemscore.DEClash>
0.2093

> <Gold.Chemscore.DEInternal>
1.4075

> <Gold.Chemscore.Rot>
2.4996

> <Gold.Chemscore.Internal.Correction>
   9.000000E+99

> <Gold.Chemscore.Hbonds>
donor molecule, donor type, donor heavy atom, donor atom, acceptor molecule, acceptor atom, score
      L1  H     4    58       P1  7921  0.67
      L1  H    21    47       P1  7957  0.77
      P1  H  7989  7998       L1    21  0.01
      P1  H  8011  8017       L1    21  0.25

> <Gold.Chemscore.Hbond.Weighted>
-6.7593

> <Gold.Chemscore.Metal.Weighted>
-0.0000

> <Gold.Chemscore.Lipo.Weighted>
-12.1519

> <Gold.Chemscore.Internal_Hbond.Weighted>
0.0000

> <Gold.Chemscore.DEClash.Weighted>
0.2093

> <Gold.Chemscore.DEInternal.Weighted>
1.4075

> <Gold.Chemscore.Rot.Weighted>
6.3990

> <Gold.Chemscore.Internal.Correction.Weighted>
   9.000000E+99

> <Gold.Protein.RotatedTorsions>
[ 6907 6896 6895 6894 ] final  162.32 input  -60.11 | X-H torsion
[ 7974 7965 7964 7962 ] final -173.82 input  175.53 | X-H torsion
[ 8008 7997 7996 7995 ] final  -49.27 input   59.86 | X-H torsion
[ 10167 10162 10161 10158 ] final    1.10 input  -65.29 | X-H torsion
[ 10718 10713 10712 10709 ] final -163.54 input   66.30 | X-H torsion
[ 10763 10752 10751 10750 ] final   75.06 input  -60.55 | X-H torsion
[ 11005 11000 10999 10996 ] final -113.30 input  -57.11 | X-H torsion

> <Gold.Protein.ActiveResidues>
 VAL166  LYS551  ARG553  GLY616  TRP617  ASP618  TYR619  PRO620  LYS621  CYS622 
 ASP623  PHE694  ASN695  SER759  ASP760  ASP761  ALA762  ILE779  LEU786  VAL792 
 PHE793  MET794  SER795  GLU796  ALA797  LYS798  CYS799  TRP800  GLU811  SER814 

> <Gold.Protein.RotatedAtoms>
  151.9423  133.3641  159.3969 H   0  0  0  0  0  0  0  0  0  0  0  0  # atno 6907 bound_to 6896
  150.6996  134.4426  159.5308 H   0  0  0  0  0  0  0  0  0  0  0  0  # atno 6908 bound_to 6896
  152.2085  134.8523  160.0551 H   0  0  0  0  0  0  0  0  0  0  0  0  # atno 6909 bound_to 6896
  144.7135  140.1565  143.6380 H   0  0  0  0  0  0  0  0  0  0  0  0  # atno 7974 bound_to 7965
  154.4041  140.1301  156.4475 H   0  0  0  0  0  0  0  0  0  0  0  0  # atno 8008 bound_to 7997
  155.7398  140.3490  155.5079 H   0  0  0  0  0  0  0  0  0  0  0  0  # atno 8009 bound_to 7997
  155.9049  140.1026  157.1312 H   0  0  0  0  0  0  0  0  0  0  0  0  # atno 8010 bound_to 7997
  140.6698  143.7079  150.7900 H   0  0  0  0  0  0  0  0  0  0  0  0  # atno 10167 bound_to 10162
  156.6261  130.8910  151.2968 H   0  0  0  0  0  0  0  0  0  0  0  0  # atno 10718 bound_to 10713
  153.0628  135.5003  154.8133 H   0  0  0  0  0  0  0  0  0  0  0  0  # atno 10763 bound_to 10752
  154.6909  135.2984  154.9483 H   0  0  0  0  0  0  0  0  0  0  0  0  # atno 10764 bound_to 10752
  154.0238  135.6738  153.4827 H   0  0  0  0  0  0  0  0  0  0  0  0  # atno 10765 bound_to 10752
  141.0622  133.9516  157.2645 H   0  0  0  0  0  0  0  0  0  0  0  0  # atno 11005 bound_to 11000
  145.9069  139.2464  143.1460 LP  0  0  0  0  0  0  0  0  0  0  0  0  # atno 17320 bound_to 7965
  145.9755  140.8726  143.0141 LP  0  0  0  0  0  0  0  0  0  0  0  0  # atno 17321 bound_to 7965
  140.0763  143.5012  152.2554 LP  0  0  0  0  0  0  0  0  0  0  0  0  # atno 17342 bound_to 10162
  139.5962  144.7567  151.3281 LP  0  0  0  0  0  0  0  0  0  0  0  0  # atno 17343 bound_to 10162
  157.7213  130.9563  150.1452 LP  0  0  0  0  0  0  0  0  0  0  0  0  # atno 17370 bound_to 10713
  156.2272  130.3679  149.8487 LP  0  0  0  0  0  0  0  0  0  0  0  0  # atno 17371 bound_to 10713
  139.9443  135.0186  156.8805 LP  0  0  0  0  0  0  0  0  0  0  0  0  # atno 17394 bound_to 11000
  140.5845  134.0321  155.7476 LP  0  0  0  0  0  0  0  0  0  0  0  0  # atno 17395 bound_to 11000

$$$$
