AV-unprocessed.smi:3112|AV-procd|sdf|11848|dock5
  -GOLD-   2272017233D 1   1.00000     0.00000
 Structure written by MMmdl.
 36 36  0  0  0  0  0  0  0  0  1 V2000
  147.1076  140.2038  153.7079 C   0  0  0  0  0  0  0  0  0  0  0  0
  148.4497  140.0276  154.4316 C   0  0  0  0  0  0  0  0  0  0  0  0
  148.8820  141.2724  155.2321 C   0  0  2  0  0  0  0  0  0  0  0  0
  148.7388  142.4100  154.4065 O   0  0  0  0  0  0  0  0  0  0  0  0
  150.3499  141.2143  155.6869 C   0  0  0  0  0  0  0  0  0  0  0  0
  150.7316  142.4302  156.4029 N   0  0  0  0  0  0  0  0  0  0  0  0
  150.9977  142.2893  157.8420 C   0  0  2  0  0  0  0  0  0  0  0  0
  149.6657  142.4602  158.5913 C   0  0  0  0  0  0  0  0  0  0  0  0
  152.0907  143.2487  158.4068 C   0  0  1  0  0  0  0  0  0  0  0  0
  151.7840  144.7489  158.2155 C   0  0  0  0  0  0  0  0  0  0  0  0
  152.5226  142.9149  159.7632 N   0  0  0  0  0  0  0  0  0  0  0  0
  152.3746  143.6700  160.9094 C   0  0  0  0  0  0  0  0  0  0  0  0
  152.9533  142.9813  161.9363 C   0  0  0  0  0  0  0  0  0  0  0  0
  153.4444  141.8007  161.3147 C   0  0  0  0  0  0  0  0  0  0  0  0
  153.1891  141.7649  160.0177 N   0  0  0  0  0  0  0  0  0  0  0  0
  146.8265  139.2887  153.1864 H   0  0  0  0  0  0  0  0  0  0  0  0
  147.1539  141.0032  152.9682 H   0  0  0  0  0  0  0  0  0  0  0  0
  146.3099  140.4424  154.4117 H   0  0  0  0  0  0  0  0  0  0  0  0
  148.3588  139.1755  155.1056 H   0  0  0  0  0  0  0  0  0  0  0  0
  149.2233  139.7605  153.7104 H   0  0  0  0  0  0  0  0  0  0  0  0
  148.2368  141.4027  156.1023 H   0  0  0  0  0  0  0  0  0  0  0  0
  148.9580  143.1770  154.9131 H   0  0  0  0  0  0  0  0  0  0  0  0
  150.5086  140.3360  156.3138 H   0  0  0  0  0  0  0  0  0  0  0  0
  150.9743  141.0936  154.8047 H   0  0  0  0  0  0  0  0  0  0  0  0
  150.0175  143.1376  156.2630 H   0  0  0  0  0  0  0  0  0  0  0  0
  151.3210  141.2658  158.0358 H   0  0  0  0  0  0  0  0  0  0  0  0
  149.7921  142.3141  159.6645 H   0  0  0  0  0  0  0  0  0  0  0  0
  148.9293  141.7311  158.2513 H   0  0  0  0  0  0  0  0  0  0  0  0
  149.2406  143.4522  158.4372 H   0  0  0  0  0  0  0  0  0  0  0  0
  152.9733  143.0945  157.7841 H   0  0  0  0  0  0  0  0  0  0  0  0
  151.5591  144.9689  157.1718 H   0  0  0  0  0  0  0  0  0  0  0  0
  152.6458  145.3556  158.4949 H   0  0  0  0  0  0  0  0  0  0  0  0
  150.9422  145.0965  158.8102 H   0  0  0  0  0  0  0  0  0  0  0  0
  151.8743  144.6271  160.8986 H   0  0  0  0  0  0  0  0  0  0  0  0
  153.0193  143.2778  162.9725 H   0  0  0  0  0  0  0  0  0  0  0  0
  153.9768  140.9750  161.7631 H   0  0  0  0  0  0  0  0  0  0  0  0
  1  2  1  0  0  0  0
  1 16  1  0  0  0  0
  1 17  1  0  0  0  0
  1 18  1  0  0  0  0
  2  3  1  0  0  0  0
  2 19  1  0  0  0  0
  2 20  1  0  0  0  0
  3  4  1  0  0  0  0
  3  5  1  0  0  0  0
  3 21  1  0  0  0  0
  4 22  1  0  0  0  0
  5  6  1  0  0  0  0
  5 23  1  0  0  0  0
  5 24  1  0  0  0  0
  6  7  1  0  0  0  0
  6 25  1  0  0  0  0
  7  8  1  0  0  0  0
  7  9  1  0  0  0  0
  7 26  1  0  0  0  0
  8 27  1  0  0  0  0
  8 28  1  0  0  0  0
  8 29  1  0  0  0  0
  9 10  1  0  0  0  0
  9 11  1  0  0  0  0
  9 30  1  0  0  0  0
 10 31  1  0  0  0  0
 10 32  1  0  0  0  0
 10 33  1  0  0  0  0
 11 15  1  0  0  0  0
 11 12  1  0  0  0  0
 12 13  2  0  0  0  0
 12 34  1  0  0  0  0
 13 14  1  0  0  0  0
 13 35  1  0  0  0  0
 14 15  2  0  0  0  0
 14 36  1  0  0  0  0
M  END
> <s_m_source_file>
AV-unprocessed.smi

> <i_m_source_file_index>
3112

> <i_lp_mmshare_version>
43012

> <i_f3d_flags>
0

> <s_epik_input>
W0NIM11bQ0gyXVtDQEhdKFtPSF0pW0NIMl1bTkhdW0NASF0oW0NIM10pW0NASF0oW0NIM10pbjFbY0hdW2NIXVtjSF1uMQ==

> <s_epik_cmdline>
J2VwaWtfcHl0aG9uJywgJy1waCcsICc3LjAnLCAnLXRuJywgJzgnLCAnLW1hJywgJzIwMCcsICctbWV0YWxfYmluZGluZycsICctaW1hZScsICc8aW5maWxlLm1hZT4nLCAnLW9tYWUnLCAnPG91dGZpbGUubWFlPic=

> <r_lp_tautomer_probability>
1

> <r_epik_Ionization_Penalty>
2.16876

> <r_epik_Ionization_Penalty_Charging>
0

> <r_epik_Ionization_Penalty_Neutral>
2.16876

> <r_epik_State_Penalty>
2.30854

> <r_epik_Charging_Adjusted_Penalty>
2.30854

> <i_epik_Tot_Q>
0

> <i_epik_Tot_abs_Q>
0

> <r_epik_Metal_State_Penalty>
2.3073

> <b_epik_Metal_Only>
0

> <s_lp_Force_Field>
OPLS_2005

> <r_lp_Energy>
16.8249

> <b_lp_Chiralities_Consistent>
1

> <s_lp_Variant>
AV-unprocessed.smi:3112-13

> <Gold.Version>
5.8.1

> <Gold.Id.Protein>
6NUR|6NUR_protein|mol2

> <Gold.PLP.Fitness>
45.1007

> <Gold.PLP.PLP>
-40.9614

> <Gold.PLP.part.hbond>
-3.0109

> <Gold.PLP.part.metal>
0.0000

> <Gold.PLP.part.buried>
-5.2275

> <Gold.PLP.part.nonpolar>
-33.0868

> <Gold.PLP.part.repulsive>
0.0000

> <Gold.PLP.ligand.clash>
0.0000

> <Gold.PLP.ligand.torsion>
1.1434

> <Gold.PLP.Chemscore.Hbond>
2.0468

> <Gold.PLP.Chemscore.CHOScore>
0.0000

> <Gold.PLP.Chemscore.Metal>
0.0000

> <Gold.Chemscore.Hbonds>
donor molecule, donor type, donor heavy atom, donor atom, acceptor molecule, acceptor atom, score
      L1  H     4    22       P1  8028  1.00
      L1  H     6    25       P1  8028  0.99
      P1  H  8011  8017       L1     4  0.05

> <Gold.PLP.Chemscore.Internal.Correction>
0.2856

> <Gold.Rescore>
     Score         DG    S(hbond)    S(metal)    S(lipo)     H(rot)  DE(clash)    DE(int)     intcor
     17.29     -18.26       2.11        0.00      99.59       2.31       0.02       0.95       ----

> <Gold.Chemscore.Fitness>
17.2948

> <Gold.Chemscore.DG>
-18.2612

> <Gold.Chemscore.ZeroCoef>
-5.4800

> <Gold.Chemscore.Hbond>
2.1093

> <Gold.Chemscore.Metal>
0.0000

> <Gold.Chemscore.Lipo>
99.5886

> <Gold.Chemscore.Internal_Hbond>
0.0000

> <Gold.Chemscore.DEClash>
0.0179

> <Gold.Chemscore.DEInternal>
0.9485

> <Gold.Chemscore.Rot>
2.3108

> <Gold.Chemscore.Internal.Correction>
   9.000000E+99

> <Gold.Chemscore.Hbonds>
donor molecule, donor type, donor heavy atom, donor atom, acceptor molecule, acceptor atom, score
      L1  H     4    22       P1  8028  1.00
      L1  H     6    25       P1  8028  0.92
      P1  H  8011  8017       L1     4  0.04

> <Gold.Chemscore.Hbond.Weighted>
-7.0450

> <Gold.Chemscore.Metal.Weighted>
-0.0000

> <Gold.Chemscore.Lipo.Weighted>
-11.6519

> <Gold.Chemscore.Internal_Hbond.Weighted>
0.0000

> <Gold.Chemscore.DEClash.Weighted>
0.0179

> <Gold.Chemscore.DEInternal.Weighted>
0.9485

> <Gold.Chemscore.Rot.Weighted>
5.9157

> <Gold.Chemscore.Internal.Correction.Weighted>
   9.000000E+99

> <Gold.Protein.RotatedTorsions>
[ 6907 6896 6895 6894 ] final  -95.09 input  -60.11 | X-H torsion
[ 7974 7965 7964 7962 ] final   36.18 input  175.53 | X-H torsion
[ 8008 7997 7996 7995 ] final -114.43 input   59.86 | X-H torsion
[ 10167 10162 10161 10158 ] final  -46.82 input  -65.29 | X-H torsion
[ 10718 10713 10712 10709 ] final -113.95 input   66.30 | X-H torsion
[ 10763 10752 10751 10750 ] final  -12.63 input  -60.55 | X-H torsion
[ 11005 11000 10999 10996 ] final   29.23 input  -57.11 | X-H torsion

> <Gold.Protein.ActiveResidues>
 VAL166  LYS551  ARG553  GLY616  TRP617  ASP618  TYR619  PRO620  LYS621  CYS622 
 ASP623  PHE694  ASN695  SER759  ASP760  ASP761  ALA762  ILE779  LEU786  VAL792 
 PHE793  MET794  SER795  GLU796  ALA797  LYS798  CYS799  TRP800  GLU811  SER814 

> <Gold.Protein.RotatedAtoms>
  150.6956  134.1711  159.4212 H   0  0  0  0  0  0  0  0  0  0  0  0  # atno 6907 bound_to 6896
  151.9689  135.0084  160.0561 H   0  0  0  0  0  0  0  0  0  0  0  0  # atno 6908 bound_to 6896
  152.1860  133.4705  159.5019 H   0  0  0  0  0  0  0  0  0  0  0  0  # atno 6909 bound_to 6896
  146.1230  139.6050  142.9277 H   0  0  0  0  0  0  0  0  0  0  0  0  # atno 7974 bound_to 7965
  155.0362  140.0392  157.2492 H   0  0  0  0  0  0  0  0  0  0  0  0  # atno 8008 bound_to 7997
  154.7255  140.2720  155.6479 H   0  0  0  0  0  0  0  0  0  0  0  0  # atno 8009 bound_to 7997
  156.2828  140.2694  156.1940 H   0  0  0  0  0  0  0  0  0  0  0  0  # atno 8010 bound_to 7997
  140.6801  143.2813  151.3838 H   0  0  0  0  0  0  0  0  0  0  0  0  # atno 10167 bound_to 10162
  156.0799  130.6000  150.8710 H   0  0  0  0  0  0  0  0  0  0  0  0  # atno 10718 bound_to 10713
  153.5014  135.7017  153.5830 H   0  0  0  0  0  0  0  0  0  0  0  0  # atno 10763 bound_to 10752
  153.3960  135.3884  155.1955 H   0  0  0  0  0  0  0  0  0  0  0  0  # atno 10764 bound_to 10752
  154.8710  135.3870  154.4484 H   0  0  0  0  0  0  0  0  0  0  0  0  # atno 10765 bound_to 10752
  140.3071  134.2691  155.7741 H   0  0  0  0  0  0  0  0  0  0  0  0  # atno 11005 bound_to 11000
  145.5426  141.0419  143.2322 LP  0  0  0  0  0  0  0  0  0  0  0  0  # atno 17320 bound_to 7965
  144.7615  139.6945  143.7232 LP  0  0  0  0  0  0  0  0  0  0  0  0  # atno 17321 bound_to 7965
  139.6118  144.1082  152.2306 LP  0  0  0  0  0  0  0  0  0  0  0  0  # atno 17342 bound_to 10162
  140.0499  144.5941  150.7344 LP  0  0  0  0  0  0  0  0  0  0  0  0  # atno 17343 bound_to 10162
  157.5911  131.0944  150.9117 LP  0  0  0  0  0  0  0  0  0  0  0  0  # atno 17370 bound_to 10713
  156.9293  130.5344  149.5279 LP  0  0  0  0  0  0  0  0  0  0  0  0  # atno 17371 bound_to 10713
  141.2116  133.7684  156.9853 LP  0  0  0  0  0  0  0  0  0  0  0  0  # atno 17394 bound_to 11000
  140.1057  134.9508  157.1990 LP  0  0  0  0  0  0  0  0  0  0  0  0  # atno 17395 bound_to 11000

$$$$
