AV-unprocessed.smi:750|AV-procd|sdf|3591|dock2
  -GOLD-   22720 0583D 1   1.00000     0.00000
 Structure written by MMmdl.
 22 23  0  0  0  0  0  0  0  0  2 V2000
  150.0206  139.6961  158.2483 C   0  0  0  0  0  0  0  0  0  0  0  0
  150.6140  140.7247  157.2629 C   0  0  2  0  0  0  0  0  0  0  0  0
  151.4069  141.8301  157.9809 C   0  0  0  0  0  0  0  0  0  0  0  0
  151.1047  143.2041  157.8194 C   0  0  0  0  0  0  0  0  0  0  0  0
  151.8709  144.1645  158.5070 C   0  0  0  0  0  0  0  0  0  0  0  0
  152.9185  143.7194  159.3348 C   0  0  0  0  0  0  0  0  0  0  0  0
  153.2239  142.4167  159.5037 N   0  0  0  0  0  0  0  0  0  0  0  0
  152.4839  141.5029  158.8397 C   0  0  0  0  0  0  0  0  0  0  0  0
  149.5547  141.2301  156.4100 N   0  0  0  0  0  0  0  0  0  0  0  0
  149.7756  140.9432  155.1285 C   0  0  0  0  0  0  0  0  0  0  0  0
  149.0002  141.2989  154.2439 O   0  0  0  0  0  0  0  0  0  0  0  0
  150.9188  140.2432  155.0007 N   0  5  0  0  0  0  0  0  0  0  0  0
  151.4949  140.0410  156.2059 C   0  0  0  0  0  0  0  0  0  0  0  0
  152.5218  139.4279  156.4960 O   0  0  0  0  0  0  0  0  0  0  0  0
  150.7933  139.1979  158.8342 H   0  0  0  0  0  0  0  0  0  0  0  0
  149.4625  138.9175  157.7259 H   0  0  0  0  0  0  0  0  0  0  0  0
  149.3350  140.1756  158.9475 H   0  0  0  0  0  0  0  0  0  0  0  0
  150.3007  143.5368  157.1805 H   0  0  0  0  0  0  0  0  0  0  0  0
  151.6604  145.2183  158.4007 H   0  0  0  0  0  0  0  0  0  0  0  0
  153.5274  144.4286  159.8753 H   0  0  0  0  0  0  0  0  0  0  0  0
  152.7678  140.4737  159.0010 H   0  0  0  0  0  0  0  0  0  0  0  0
  148.7601  141.7471  156.7561 H   0  0  0  0  0  0  0  0  0  0  0  0
  1  2  1  0  0  0  0
  1 15  1  0  0  0  0
  1 16  1  0  0  0  0
  1 17  1  0  0  0  0
  2 13  1  0  0  0  0
  2  3  1  0  0  0  0
  2  9  1  0  0  0  0
  3  8  1  0  0  0  0
  3  4  2  0  0  0  0
  4  5  1  0  0  0  0
  4 18  1  0  0  0  0
  5  6  2  0  0  0  0
  5 19  1  0  0  0  0
  6  7  1  0  0  0  0
  6 20  1  0  0  0  0
  7  8  2  0  0  0  0
  8 21  1  0  0  0  0
  9 10  1  0  0  0  0
  9 22  1  0  0  0  0
 10 11  2  0  0  0  0
 10 12  1  0  0  0  0
 12 13  1  0  0  0  0
 13 14  2  0  0  0  0
M  CHG  1  12  -1
M  END
> <s_m_source_file>
AV-unprocessed.smi

> <i_m_source_file_index>
750

> <i_lp_mmshare_version>
43012

> <i_f3d_flags>
0

> <s_epik_input>
Tz1DMVtOSF1DKD1PKVtOSF1bQ0BAXTEoW0NIM10pYzJbY0hdW2NIXVtjSF1uW2NIXTI=

> <s_epik_cmdline>
J2VwaWtfcHl0aG9uJywgJy1waCcsICc3LjAnLCAnLXRuJywgJzgnLCAnLW1hJywgJzIwMCcsICctbWV0YWxfYmluZGluZycsICctaW1hZScsICc8aW5maWxlLm1hZT4nLCAnLW9tYWUnLCAnPG91dGZpbGUubWFlPic=

> <r_epik_Ionization_Penalty>
1.82311

> <r_epik_Ionization_Penalty_Charging>
1.82122

> <r_epik_Ionization_Penalty_Neutral>
0.00188516

> <r_epik_State_Penalty>
1.93645

> <r_epik_Charging_Adjusted_Penalty>
3.75767

> <i_epik_Tot_Q>
-1

> <i_epik_Tot_abs_Q>
1

> <r_epik_Metal_State_Penalty>
0.533589

> <b_epik_Metal_Only>
0

> <s_lp_Force_Field>
OPLS_2005

> <r_lp_Energy>
8.30846

> <b_lp_Chiralities_Consistent>
1

> <s_lp_Variant>
AV-unprocessed.smi:750-4

> <Gold.Version>
5.8.1

> <Gold.Id.Protein>
6NUR|6NUR_protein|mol2

> <Gold.PLP.Fitness>
36.1238

> <Gold.PLP.PLP>
-28.0978

> <Gold.PLP.part.hbond>
-3.8486

> <Gold.PLP.part.metal>
0.0000

> <Gold.PLP.part.buried>
-3.5200

> <Gold.PLP.part.nonpolar>
-21.6918

> <Gold.PLP.part.repulsive>
0.3162

> <Gold.PLP.ligand.clash>
0.0000

> <Gold.PLP.ligand.torsion>
0.0843

> <Gold.PLP.Chemscore.Hbond>
2.7040

> <Gold.PLP.Chemscore.CHOScore>
0.0000

> <Gold.PLP.Chemscore.Metal>
0.0000

> <Gold.Chemscore.Hbonds>
donor molecule, donor type, donor heavy atom, donor atom, acceptor molecule, acceptor atom, score
      P1  H  7989  7998       L1    12  1.00
      P1  H  7997  8010       L1    14  1.00
      P1  H  8011  8017       L1    11  0.14

> <Gold.PLP.Chemscore.Internal.Correction>
0.0826

> <Gold.Rescore>
     Score         DG    S(hbond)    S(metal)    S(lipo)     H(rot)  DE(clash)    DE(int)     intcor
     17.19     -17.25       2.21        0.00      59.22       1.00       0.01       0.05       ----

> <Gold.Chemscore.Fitness>
17.1936

> <Gold.Chemscore.DG>
-17.2457

> <Gold.Chemscore.ZeroCoef>
-5.4800

> <Gold.Chemscore.Hbond>
2.2147

> <Gold.Chemscore.Metal>
0.0000

> <Gold.Chemscore.Lipo>
59.2195

> <Gold.Chemscore.Internal_Hbond>
0.0000

> <Gold.Chemscore.DEClash>
0.0060

> <Gold.Chemscore.DEInternal>
0.0462

> <Gold.Chemscore.Rot>
1.0000

> <Gold.Chemscore.Internal.Correction>
   9.000000E+99

> <Gold.Chemscore.Hbonds>
donor molecule, donor type, donor heavy atom, donor atom, acceptor molecule, acceptor atom, score
      P1  H  7989  7998       L1    12  0.45
      P1  H  7997  8010       L1    14  0.99
      P1  H  8011  8017       L1    11  0.15

> <Gold.Chemscore.Hbond.Weighted>
-7.3971

> <Gold.Chemscore.Metal.Weighted>
-0.0000

> <Gold.Chemscore.Lipo.Weighted>
-6.9287

> <Gold.Chemscore.Internal_Hbond.Weighted>
0.0000

> <Gold.Chemscore.DEClash.Weighted>
0.0060

> <Gold.Chemscore.DEInternal.Weighted>
0.0462

> <Gold.Chemscore.Rot.Weighted>
2.5600

> <Gold.Chemscore.Internal.Correction.Weighted>
   9.000000E+99

> <Gold.Protein.RotatedTorsions>
[ 6907 6896 6895 6894 ] final  -86.62 input  -60.11 | X-H torsion
[ 7974 7965 7964 7962 ] final -135.08 input  175.53 | X-H torsion
[ 8008 7997 7996 7995 ] final   69.02 input   59.86 | X-H torsion
[ 10167 10162 10161 10158 ] final   51.63 input  -65.29 | X-H torsion
[ 10718 10713 10712 10709 ] final   71.26 input   66.30 | X-H torsion
[ 10763 10752 10751 10750 ] final  -23.75 input  -60.55 | X-H torsion
[ 11005 11000 10999 10996 ] final  -66.21 input  -57.11 | X-H torsion

> <Gold.Protein.ActiveResidues>
 VAL166  LYS551  ARG553  GLY616  TRP617  ASP618  TYR619  PRO620  LYS621  CYS622 
 ASP623  PHE694  ASN695  SER759  ASP760  ASP761  ALA762  ILE779  LEU786  VAL792 
 PHE793  MET794  SER795  GLU796  ALA797  LYS798  CYS799  TRP800  GLU811  SER814 

> <Gold.Protein.RotatedAtoms>
  150.6867  134.3023  159.4711 H   0  0  0  0  0  0  0  0  0  0  0  0  # atno 6907 bound_to 6896
  152.0918  134.9399  160.0581 H   0  0  0  0  0  0  0  0  0  0  0  0  # atno 6908 bound_to 6896
  152.0713  133.4073  159.4497 H   0  0  0  0  0  0  0  0  0  0  0  0  # atno 6909 bound_to 6896
  144.9046  140.6816  143.5063 H   0  0  0  0  0  0  0  0  0  0  0  0  # atno 7974 bound_to 7965
  155.7173  140.3493  155.5000 H   0  0  0  0  0  0  0  0  0  0  0  0  # atno 8008 bound_to 7997
  155.9302  140.1083  157.1160 H   0  0  0  0  0  0  0  0  0  0  0  0  # atno 8009 bound_to 7997
  154.4084  140.1232  156.4779 H   0  0  0  0  0  0  0  0  0  0  0  0  # atno 8010 bound_to 7997
  140.2599  144.3385  150.6321 H   0  0  0  0  0  0  0  0  0  0  0  0  # atno 10167 bound_to 10162
  157.6442  130.9519  150.0764 H   0  0  0  0  0  0  0  0  0  0  0  0  # atno 10718 bound_to 10713
  153.6728  135.6971  153.5142 H   0  0  0  0  0  0  0  0  0  0  0  0  # atno 10763 bound_to 10752
  153.2545  135.4264  155.0830 H   0  0  0  0  0  0  0  0  0  0  0  0  # atno 10764 bound_to 10752
  154.8422  135.3539  154.6272 H   0  0  0  0  0  0  0  0  0  0  0  0  # atno 10765 bound_to 10752
  141.1476  133.6695  156.6104 H   0  0  0  0  0  0  0  0  0  0  0  0  # atno 11005 bound_to 11000
  145.3558  139.1694  143.4410 LP  0  0  0  0  0  0  0  0  0  0  0  0  # atno 17320 bound_to 7965
  146.3126  140.3615  142.8665 LP  0  0  0  0  0  0  0  0  0  0  0  0  # atno 17321 bound_to 7965
  140.5974  143.2167  151.7137 LP  0  0  0  0  0  0  0  0  0  0  0  0  # atno 17342 bound_to 10162
  139.5020  144.3845  152.0342 LP  0  0  0  0  0  0  0  0  0  0  0  0  # atno 17343 bound_to 10162
  156.1753  130.3648  149.9109 LP  0  0  0  0  0  0  0  0  0  0  0  0  # atno 17370 bound_to 10713
  156.7074  130.8957  151.3606 LP  0  0  0  0  0  0  0  0  0  0  0  0  # atno 17371 bound_to 10713
  140.3618  134.7680  157.4539 LP  0  0  0  0  0  0  0  0  0  0  0  0  # atno 17394 bound_to 11000
  140.0779  134.5772  155.8572 LP  0  0  0  0  0  0  0  0  0  0  0  0  # atno 17395 bound_to 11000

$$$$
