#       Name:                AV-unprocessed.smi:3040
#       Creating user name   scv26
#       Creation time:       Fri Mar 27 16:57:18 2020


#       File generated by GOLD software.
#

@<TRIPOS>MOLECULE
AV-unprocessed.smi:3040
    44    45     1
SMALL
NO_CHARGES


@<TRIPOS>ATOM
      1 ****        -3.4297   2.0675   0.4683 C.3            1 S1                 0.0000
      2 ****        -2.6010   0.9400   0.8983 N.am           1 S1                 0.0000
      3 ****        -1.8597   0.2734  -0.1791 C.3            1 S1                 0.0000
      4 ****        -1.4175  -1.1494   0.1877 C.3            1 S1                 0.0000
      5 ****        -0.7300  -1.1914   1.5602 C.3            1 S1                 0.0000
      6 ****         0.6715  -0.5583   1.5286 C.2            1 S1                 0.0000
      7 ****         0.8090   0.6580   1.6651 O.2            1 S1                 0.0000
      8 ****         1.7014  -1.3958   1.3245 N.am           1 S1                 0.0000
      9 ****         3.0932  -0.9941   1.1286 C.3            1 S1                 0.0000
     10 ****         3.4853  -0.9711  -0.3624 C.3            1 S1                 0.0000
     11 ****         2.5744  -0.1093  -1.1978 C.2            1 S1                 0.0000
     12 ****         2.4887   1.3122  -1.2195 C.2            1 S1                 0.0000
     13 ****         1.5522   1.7588  -2.0405 N.2            1 S1                 0.0000
     14 ****         1.0114   0.6434  -2.5714 N.pl3          1 S1                 0.0000
     15 ****        -0.0747   0.7587  -3.5206 C.3            1 S1                 0.0000
     16 ****         1.6150  -0.4977  -2.0900 C.2            1 S1                 0.0000
     17 ****        -1.6342  -0.5754   2.6530 C.3            1 S1                 0.0000
     18 ****        -2.5175   0.6078   2.2098 C.2            1 S1                 0.0000
     19 ****        -3.1415   1.2137   3.0815 O.2            1 S1                 0.0000
     20 ****        -3.2154   2.9598   1.0587 H              1 S1                 0.0000
     21 ****        -4.4871   1.8266   0.5839 H              1 S1                 0.0000
     22 ****        -3.2588   2.3277  -0.5771 H              1 S1                 0.0000
     23 ****        -2.4695   0.2289  -1.0825 H              1 S1                 0.0000
     24 ****        -0.9925   0.8871  -0.4246 H              1 S1                 0.0000
     25 ****        -2.2905  -1.8032   0.2068 H              1 S1                 0.0000
     26 ****        -0.7610  -1.5470  -0.5871 H              1 S1                 0.0000
     27 ****        -0.5883  -2.2420   1.8198 H              1 S1                 0.0000
     28 ****         1.4971  -2.3806   1.2348 H              1 S1                 0.0000
     29 ****         3.2784  -0.0158   1.5755 H              1 S1                 0.0000
     30 ****         3.7322  -1.6957   1.6651 H              1 S1                 0.0000
     31 ****         4.5173  -0.6303  -0.4496 H              1 S1                 0.0000
     32 ****         3.4857  -1.9944  -0.7395 H              1 S1                 0.0000
     33 ****         3.0667   2.0275  -0.6534 H              1 S1                 0.0000
     34 ****        -0.5043  -0.2240  -3.7173 H              1 S1                 0.0000
     35 ****         0.2973   1.1785  -4.4555 H              1 S1                 0.0000
     36 ****        -0.8520   1.4094  -3.1180 H              1 S1                 0.0000
     37 ****         1.3038  -1.4829  -2.4045 H              1 S1                 0.0000
     38 ****        -2.3106  -1.3488   3.0187 H              1 S1                 0.0000
     39 ****        -1.0449  -0.2702   3.5197 H              1 S1                 0.0000
     40 ****         0.0068   1.2401   1.7975 LP             1 S1                 0.0000
     41 ****         1.7229   1.0634   1.6436 LP             1 S1                 0.0000
     42 ****         1.3019   2.7091  -2.2255 LP             1 S1                 0.0000
     43 ****        -3.7345   1.9791   2.8314 LP             1 S1                 0.0000
     44 ****        -3.0553   0.9403   4.0396 LP             1 S1                 0.0000
@<TRIPOS>BOND
    1    1    2 1     
    2    1   20 1     
    3    1   21 1     
    4    1   22 1     
    5    2   18 am    
    6    2    3 1     
    7    3    4 1     
    8    3   23 1     
    9    3   24 1     
   10    4    5 1     
   11    4   25 1     
   12    4   26 1     
   13    5    6 1     
   14    5   17 1     
   15    5   27 1     
   16    6    7 2     
   17    6    8 am    
   18    8    9 1     
   19    8   28 1     
   20    9   10 1     
   21    9   29 1     
   22    9   30 1     
   23   10   11 1     
   24   10   31 1     
   25   10   32 1     
   26   11   16 2     
   27   11   12 1     
   28   12   13 2     
   29   12   33 1     
   30   13   14 1     
   31   14   15 1     
   32   14   16 1     
   33   15   34 1     
   34   15   35 1     
   35   15   36 1     
   36   16   37 1     
   37   17   18 1     
   38   17   38 1     
   39   17   39 1     
   40   18   19 2     
   41    7   40 1     
   42    7   41 1     
   43   13   42 1     
   44   19   43 1     
   45   19   44 1     
@<TRIPOS>SUBSTRUCTURE
      1 S1             1
@<TRIPOS>SET
LONE_PAIRS      STATIC     ATOMS    <user>   **** ""
5 40 41 42 43 44
DONOR_HYDROGENS      STATIC     ATOMS    <user>   **** ""
1 28
ATOM$BLUE        STATIC     ATOMS    COLORGROUP SYSTEM
5 40 41 42 43 44
ATOM$RED        STATIC     ATOMS    COLORGROUP SYSTEM
1 28
