AV-unprocessed.smi:2606|AV-procd|sdf|10197|dock2
  -GOLD-   2272014203D 1   1.00000     0.00000
 Structure written by MMmdl.
 42 43  0  0  0  0  0  0  0  0  1 V2000
  150.2912  136.0351  158.6878 O   0  0  0  0  0  0  0  0  0  0  0  0
  149.3690  136.8468  158.7853 C   0  0  0  0  0  0  0  0  0  0  0  0
  147.9348  136.3313  158.9434 C   0  0  0  0  0  0  0  0  0  0  0  0
  147.7579  135.6056  160.2108 N   0  0  0  0  0  0  0  0  0  0  0  0
  147.8160  134.1992  160.1528 C   0  0  0  0  0  0  0  0  0  0  0  0
  147.6567  133.4130  161.2347 C   0  0  0  0  0  0  0  0  0  0  0  0
  147.7760  131.8994  161.1477 C   0  0  0  0  0  0  0  0  0  0  0  0
  148.7552  131.4491  161.9326 F   0  0  0  0  0  0  0  0  0  0  0  0
  146.6360  131.3323  161.5394 F   0  0  0  0  0  0  0  0  0  0  0  0
  148.0268  131.5073  159.8981 F   0  0  0  0  0  0  0  0  0  0  0  0
  147.4526  134.0909  162.4998 C   0  0  0  0  0  0  0  0  0  0  0  0
  147.4002  135.4351  162.5741 C   0  0  0  0  0  0  0  0  0  0  0  0
  147.5480  136.2755  161.3836 C   0  0  0  0  0  0  0  0  0  0  0  0
  147.4842  137.5040  161.4372 O   0  0  0  0  0  0  0  0  0  0  0  0
  149.5071  138.1882  158.7611 N   0  0  0  0  0  0  0  0  0  0  0  0
  150.6440  138.8952  158.6197 C   0  0  0  0  0  0  0  0  0  0  0  0
  151.7390  138.4374  158.2854 O   0  0  0  0  0  0  0  0  0  0  0  0
  150.4387  140.1922  158.8932 N   0  0  0  0  0  0  0  0  0  0  0  0
  151.3771  141.2740  158.6094 C   0  0  0  0  0  0  0  0  0  0  0  0
  152.1494  141.6737  159.8840 C   0  0  0  0  0  0  0  0  0  0  0  0
  153.0851  142.8656  159.6243 C   0  0  0  0  0  0  0  0  0  0  0  0
  152.3158  144.0644  159.0482 C   0  0  0  0  0  0  0  0  0  0  0  0
  151.5513  143.6712  157.7744 C   0  0  0  0  0  0  0  0  0  0  0  0
  150.6129  142.4809  158.0328 C   0  0  0  0  0  0  0  0  0  0  0  0
  147.2481  137.1778  158.8949 H   0  0  0  0  0  0  0  0  0  0  0  0
  147.6710  135.7086  158.0862 H   0  0  0  0  0  0  0  0  0  0  0  0
  147.9948  133.7989  159.1650 H   0  0  0  0  0  0  0  0  0  0  0  0
  147.3351  133.5112  163.4036 H   0  0  0  0  0  0  0  0  0  0  0  0
  147.2438  135.9060  163.5336 H   0  0  0  0  0  0  0  0  0  0  0  0
  148.6554  138.7233  158.8491 H   0  0  0  0  0  0  0  0  0  0  0  0
  149.5658  140.4536  159.3280 H   0  0  0  0  0  0  0  0  0  0  0  0
  152.0912  140.9355  157.8560 H   0  0  0  0  0  0  0  0  0  0  0  0
  151.4461  141.9329  160.6767 H   0  0  0  0  0  0  0  0  0  0  0  0
  152.7320  140.8289  160.2533 H   0  0  0  0  0  0  0  0  0  0  0  0
  153.5850  143.1538  160.5494 H   0  0  0  0  0  0  0  0  0  0  0  0
  153.8702  142.5673  158.9285 H   0  0  0  0  0  0  0  0  0  0  0  0
  151.6145  144.4418  159.7937 H   0  0  0  0  0  0  0  0  0  0  0  0
  153.0058  144.8801  158.8314 H   0  0  0  0  0  0  0  0  0  0  0  0
  150.9784  144.5231  157.4071 H   0  0  0  0  0  0  0  0  0  0  0  0
  152.2610  143.4131  156.9873 H   0  0  0  0  0  0  0  0  0  0  0  0
  150.1144  142.1994  157.1041 H   0  0  0  0  0  0  0  0  0  0  0  0
  149.8265  142.7863  158.7248 H   0  0  0  0  0  0  0  0  0  0  0  0
  1  2  2  0  0  0  0
  2  3  1  0  0  0  0
  2 15  1  0  0  0  0
  3  4  1  0  0  0  0
  3 25  1  0  0  0  0
  3 26  1  0  0  0  0
  4 13  1  0  0  0  0
  4  5  1  0  0  0  0
  5  6  2  0  0  0  0
  5 27  1  0  0  0  0
  6  7  1  0  0  0  0
  6 11  1  0  0  0  0
  7  8  1  0  0  0  0
  7  9  1  0  0  0  0
  7 10  1  0  0  0  0
 11 12  2  0  0  0  0
 11 28  1  0  0  0  0
 12 13  1  0  0  0  0
 12 29  1  0  0  0  0
 13 14  2  0  0  0  0
 15 16  1  0  0  0  0
 15 30  1  0  0  0  0
 16 17  2  0  0  0  0
 16 18  1  0  0  0  0
 18 19  1  0  0  0  0
 18 31  1  0  0  0  0
 19 24  1  0  0  0  0
 19 20  1  0  0  0  0
 19 32  1  0  0  0  0
 20 21  1  0  0  0  0
 20 33  1  0  0  0  0
 20 34  1  0  0  0  0
 21 22  1  0  0  0  0
 21 35  1  0  0  0  0
 21 36  1  0  0  0  0
 22 23  1  0  0  0  0
 22 37  1  0  0  0  0
 22 38  1  0  0  0  0
 23 24  1  0  0  0  0
 23 39  1  0  0  0  0
 23 40  1  0  0  0  0
 24 41  1  0  0  0  0
 24 42  1  0  0  0  0
M  END
> <s_m_source_file>
AV-unprocessed.smi

> <i_m_source_file_index>
2606

> <i_lp_mmshare_version>
43012

> <i_f3d_flags>
0

> <s_epik_input>
Tz1jMVtjSF1bY0hdYyhDKEYpKEYpRilbY0hdbjFbQ0gyXUMoPU8pW05IXUMoPU8pW05IXVtDSF0yW0NIMl1bQ0gyXVtDSDJdW0NIMl1bQ0gyXTI=

> <s_epik_cmdline>
J2VwaWtfcHl0aG9uJywgJy1waCcsICc3LjAnLCAnLXRuJywgJzgnLCAnLW1hJywgJzIwMCcsICctbWV0YWxfYmluZGluZycsICctaW1hZScsICc8aW5maWxlLm1hZT4nLCAnLW9tYWUnLCAnPG91dGZpbGUubWFlPic=

> <r_lp_tautomer_probability>
1

> <r_epik_Ionization_Penalty>
3.27177e-05

> <r_epik_Ionization_Penalty_Charging>
1.42456e-08

> <r_epik_Ionization_Penalty_Neutral>
3.27035e-05

> <r_epik_State_Penalty>
-0

> <r_epik_Charging_Adjusted_Penalty>
1.42456e-08

> <i_epik_Tot_Q>
0

> <i_epik_Tot_abs_Q>
0

> <r_epik_Metal_State_Penalty>
-0

> <b_epik_Metal_Only>
0

> <s_lp_Force_Field>
OPLS_2005

> <r_lp_Energy>
22.0809

> <b_lp_Chiralities_Consistent>
1

> <s_lp_Variant>
AV-unprocessed.smi:2606-1

> <Gold.Version>
5.8.1

> <Gold.Id.Protein>
6NUR|6NUR_protein|mol2

> <Gold.PLP.Fitness>
50.2695

> <Gold.PLP.PLP>
-45.0081

> <Gold.PLP.part.hbond>
-2.9233

> <Gold.PLP.part.metal>
0.0000

> <Gold.PLP.part.buried>
-3.7925

> <Gold.PLP.part.nonpolar>
-39.3769

> <Gold.PLP.part.repulsive>
0.4361

> <Gold.PLP.ligand.clash>
1.3675

> <Gold.PLP.ligand.torsion>
0.6531

> <Gold.PLP.Chemscore.Hbond>
2.6080

> <Gold.PLP.Chemscore.CHOScore>
0.0000

> <Gold.PLP.Chemscore.Metal>
0.0000

> <Gold.Chemscore.Hbonds>
donor molecule, donor type, donor heavy atom, donor atom, acceptor molecule, acceptor atom, score
      P1  H  6896  6908       L1     1  1.00
      P1  H  6931  6943       L1    14  0.77
      P1  H  6934  6947       L1    14  0.83

> <Gold.PLP.Chemscore.Internal.Correction>
0.1111

> <Gold.Rescore>
     Score         DG    S(hbond)    S(metal)    S(lipo)     H(rot)  DE(clash)    DE(int)     intcor
     19.21     -20.99       2.72        0.00      91.06       1.65       0.01       1.77       ----

> <Gold.Chemscore.Fitness>
19.2136

> <Gold.Chemscore.DG>
-20.9892

> <Gold.Chemscore.ZeroCoef>
-5.4800

> <Gold.Chemscore.Hbond>
2.7178

> <Gold.Chemscore.Metal>
0.0000

> <Gold.Chemscore.Lipo>
91.0552

> <Gold.Chemscore.Internal_Hbond>
0.0000

> <Gold.Chemscore.DEClash>
0.0073

> <Gold.Chemscore.DEInternal>
1.7683

> <Gold.Chemscore.Rot>
1.6491

> <Gold.Chemscore.Internal.Correction>
   9.000000E+99

> <Gold.Chemscore.Hbonds>
donor molecule, donor type, donor heavy atom, donor atom, acceptor molecule, acceptor atom, score
      P1  H  6896  6908       L1     1  0.95
      P1  H  6931  6943       L1    14  0.65
      P1  H  6934  6947       L1    14  0.81

> <Gold.Chemscore.Hbond.Weighted>
-9.0773

> <Gold.Chemscore.Metal.Weighted>
-0.0000

> <Gold.Chemscore.Lipo.Weighted>
-10.6535

> <Gold.Chemscore.Internal_Hbond.Weighted>
0.0000

> <Gold.Chemscore.DEClash.Weighted>
0.0073

> <Gold.Chemscore.DEInternal.Weighted>
1.7683

> <Gold.Chemscore.Rot.Weighted>
4.2216

> <Gold.Chemscore.Internal.Correction.Weighted>
   9.000000E+99

> <Gold.Protein.RotatedTorsions>
[ 6907 6896 6895 6894 ] final -162.31 input  -60.11 | X-H torsion
[ 7974 7965 7964 7962 ] final   59.86 input  175.53 | X-H torsion
[ 8008 7997 7996 7995 ] final  147.47 input   59.86 | X-H torsion
[ 10167 10162 10161 10158 ] final  -53.48 input  -65.29 | X-H torsion
[ 10718 10713 10712 10709 ] final  125.02 input   66.30 | X-H torsion
[ 10763 10752 10751 10750 ] final -109.78 input  -60.55 | X-H torsion
[ 11005 11000 10999 10996 ] final  119.77 input  -57.11 | X-H torsion

> <Gold.Protein.ActiveResidues>
 VAL166  LYS551  ARG553  GLY616  TRP617  ASP618  TYR619  PRO620  LYS621  CYS622 
 ASP623  PHE694  ASN695  SER759  ASP760  ASP761  ALA762  ILE779  LEU786  VAL792 
 PHE793  MET794  SER795  GLU796  ALA797  LYS798  CYS799  TRP800  GLU811  SER814 

> <Gold.Protein.RotatedAtoms>
  151.3783  133.3830  159.2706 H   0  0  0  0  0  0  0  0  0  0  0  0  # atno 6907 bound_to 6896
  150.9597  134.8988  159.7733 H   0  0  0  0  0  0  0  0  0  0  0  0  # atno 6908 bound_to 6896
  152.5145  134.3741  159.9381 H   0  0  0  0  0  0  0  0  0  0  0  0  # atno 6909 bound_to 6896
  145.9024  139.3591  143.0584 H   0  0  0  0  0  0  0  0  0  0  0  0  # atno 7974 bound_to 7965
  156.2824  140.2155  156.5542 H   0  0  0  0  0  0  0  0  0  0  0  0  # atno 8008 bound_to 7997
  154.7266  140.0499  157.0711 H   0  0  0  0  0  0  0  0  0  0  0  0  # atno 8009 bound_to 7997
  155.0408  140.3145  155.4728 H   0  0  0  0  0  0  0  0  0  0  0  0  # atno 8010 bound_to 7997
  140.6482  143.2549  151.4798 H   0  0  0  0  0  0  0  0  0  0  0  0  # atno 10167 bound_to 10162
  157.5537  131.1093  150.8658 H   0  0  0  0  0  0  0  0  0  0  0  0  # atno 10718 bound_to 10713
  154.8212  135.4588  154.0785 H   0  0  0  0  0  0  0  0  0  0  0  0  # atno 10763 bound_to 10752
  153.2137  135.6885  153.8090 H   0  0  0  0  0  0  0  0  0  0  0  0  # atno 10764 bound_to 10752
  153.7532  135.3295  155.3301 H   0  0  0  0  0  0  0  0  0  0  0  0  # atno 10765 bound_to 10752
  139.9159  134.9630  156.7706 H   0  0  0  0  0  0  0  0  0  0  0  0  # atno 11005 bound_to 11000
  145.8774  140.9383  143.0619 LP  0  0  0  0  0  0  0  0  0  0  0  0  # atno 17320 bound_to 7965
  144.6737  140.0735  143.7472 LP  0  0  0  0  0  0  0  0  0  0  0  0  # atno 17321 bound_to 7965
  139.5695  144.1962  152.1815 LP  0  0  0  0  0  0  0  0  0  0  0  0  # atno 17342 bound_to 10162
  140.1254  144.5336  150.6836 LP  0  0  0  0  0  0  0  0  0  0  0  0  # atno 17343 bound_to 10162
  156.9176  130.5303  149.5279 LP  0  0  0  0  0  0  0  0  0  0  0  0  # atno 17370 bound_to 10713
  156.0599  130.5654  150.9171 LP  0  0  0  0  0  0  0  0  0  0  0  0  # atno 17371 bound_to 10713
  140.6624  133.9633  155.7812 LP  0  0  0  0  0  0  0  0  0  0  0  0  # atno 17394 bound_to 11000
  141.0634  134.0312  157.3627 LP  0  0  0  0  0  0  0  0  0  0  0  0  # atno 17395 bound_to 11000

$$$$
