#       Name:                AV-unprocessed.smi:1603
#       Creating user name   scv26
#       Creation time:       Fri Mar 27 07:09:18 2020


#       File generated by GOLD software.
#

@<TRIPOS>MOLECULE
AV-unprocessed.smi:1603
    52    54     1
SMALL
NO_CHARGES


@<TRIPOS>ATOM
      1 ****        -1.4439  -0.6427  -2.7723 O.2            1 S1                 0.0000
      2 ****        -1.7906  -0.0631  -1.7425 C.2            1 S1                 0.0000
      3 ****        -2.3145   1.3109  -1.7210 C.2            1 S1                 0.0000
      4 ****        -2.3903   2.0684  -3.0440 C.3            1 S1                 0.0000
      5 ****        -2.8314   3.3157  -2.8743 F              1 S1                 0.0000
      6 ****        -1.1873   2.1361  -3.6159 F              1 S1                 0.0000
      7 ****        -3.2189   1.4523  -3.8875 F              1 S1                 0.0000
      8 ****        -2.6964   1.8738  -0.5488 C.2            1 S1                 0.0000
      9 ****        -2.5982   1.1259   0.6886 C.2            1 S1                 0.0000
     10 ****        -3.0285   1.6784   2.0171 C.3            1 S1                 0.0000
     11 ****        -4.2260   1.1291   2.7563 C.3            1 S1                 0.0000
     12 ****        -4.2735   2.5215   2.1713 C.3            1 S1                 0.0000
     13 ****        -2.1198  -0.0726   0.6695 N.2            1 S1                 0.0000
     14 ****        -1.7092  -0.6545  -0.5141 N.am           1 S1                 0.0000
     15 ****        -1.1741  -2.0140  -0.3569 C.3            1 S1                 0.0000
     16 ****         0.3603  -2.0783  -0.5286 C.3            1 S1                 0.0000
     17 ****         0.7470  -3.4320  -0.3984 O.3            1 S1                 0.0000
     18 ****         1.1267  -1.2359   0.5156 C.3            1 S1                 0.0000
     19 ****         2.5738  -1.1179   0.2048 N.4            1 S1                 1.0000
     20 ****         2.8704  -0.1284  -0.8616 C.3            1 S1                 0.0000
     21 ****         4.3799  -0.0897  -1.1538 C.3            1 S1                 0.0000
     22 ****         5.0896   0.2113   0.0412 O.3            1 S1                 0.0000
     23 ****         4.8838  -0.7749   1.0449 C.3            1 S1                 0.0000
     24 ****         3.3906  -0.8369   1.4092 C.3            1 S1                 0.0000
     25 ****        -3.0777   2.8833  -0.5116 H              1 S1                 0.0000
     26 ****        -2.1642   1.9618   2.6149 H              1 S1                 0.0000
     27 ****        -4.8215   0.3606   2.2663 H              1 S1                 0.0000
     28 ****        -4.1497   1.0403   3.8380 H              1 S1                 0.0000
     29 ****        -4.2300   3.3594   2.8642 H              1 S1                 0.0000
     30 ****        -4.9078   2.6713   1.2994 H              1 S1                 0.0000
     31 ****        -1.4476  -2.4142   0.6218 H              1 S1                 0.0000
     32 ****        -1.6578  -2.6729  -1.0808 H              1 S1                 0.0000
     33 ****         0.6147  -1.7634  -1.5394 H              1 S1                 0.0000
     34 ****         1.6469  -3.5228  -0.6710 H              1 S1                 0.0000
     35 ****         0.7128  -0.2299   0.5918 H              1 S1                 0.0000
     36 ****         0.9897  -1.6906   1.4983 H              1 S1                 0.0000
     37 ****         2.3327  -0.3748  -1.7765 H              1 S1                 0.0000
     38 ****         2.5296   0.8603  -0.5502 H              1 S1                 0.0000
     39 ****         4.7222  -1.0403  -1.5663 H              1 S1                 0.0000
     40 ****         4.5991   0.6772  -1.8969 H              1 S1                 0.0000
     41 ****         5.2413  -1.7458   0.6978 H              1 S1                 0.0000
     42 ****         5.4743  -0.5134   1.9232 H              1 S1                 0.0000
     43 ****         3.0744   0.1080   1.8545 H              1 S1                 0.0000
     44 ****         3.2287  -1.6148   2.1563 H              1 S1                 0.0000
     45 ****         2.8725  -2.0216  -0.1329 H              1 S1                 0.0000
     46 ****        -1.0893  -1.5765  -2.7253 LP             1 S1                 0.0000
     47 ****        -1.5171  -0.1795  -3.6555 LP             1 S1                 0.0000
     48 ****        -2.0454  -0.5873   1.5237 LP             1 S1                 0.0000
     49 ****         0.1630  -4.0043  -0.9741 LP             1 S1                 0.0000
     50 ****         0.6555  -3.7164   0.5559 LP             1 S1                 0.0000
     51 ****         4.7772   1.0955   0.3884 LP             1 S1                 0.0000
     52 ****         6.0663   0.2612  -0.1671 LP             1 S1                 0.0000
@<TRIPOS>BOND
    1    1    2 2     
    2    2   14 am    
    3    2    3 1     
    4    3    4 1     
    5    3    8 2     
    6    4    5 1     
    7    4    6 1     
    8    4    7 1     
    9    8    9 1     
   10    8   25 1     
   11    9   10 1     
   12    9   13 2     
   13   10   12 1     
   14   10   11 1     
   15   10   26 1     
   16   11   12 1     
   17   11   27 1     
   18   11   28 1     
   19   12   29 1     
   20   12   30 1     
   21   13   14 1     
   22   14   15 1     
   23   15   16 1     
   24   15   31 1     
   25   15   32 1     
   26   16   17 1     
   27   16   18 1     
   28   16   33 1     
   29   17   34 1     
   30   18   19 1     
   31   18   35 1     
   32   18   36 1     
   33   19   24 1     
   34   19   20 1     
   35   19   45 1     
   36   20   21 1     
   37   20   37 1     
   38   20   38 1     
   39   21   22 1     
   40   21   39 1     
   41   21   40 1     
   42   22   23 1     
   43   23   24 1     
   44   23   41 1     
   45   23   42 1     
   46   24   43 1     
   47   24   44 1     
   48    1   46 1     
   49    1   47 1     
   50   13   48 1     
   51   17   49 1     
   52   17   50 1     
   53   22   51 1     
   54   22   52 1     
@<TRIPOS>SUBSTRUCTURE
      1 S1             1
@<TRIPOS>SET
LONE_PAIRS      STATIC     ATOMS    <user>   **** ""
7 46 47 48 49 50 51 52
DONOR_HYDROGENS      STATIC     ATOMS    <user>   **** ""
2 34 45
ATOM$BLUE        STATIC     ATOMS    COLORGROUP SYSTEM
7 46 47 48 49 50 51 52
ATOM$RED        STATIC     ATOMS    COLORGROUP SYSTEM
2 34 45
