AV-unprocessed.smi:3285|AV-procd|sdf|12580|dock3
  -GOLD-   2272018503D 1   1.00000     0.00000
 Structure written by MMmdl.
 45 46  0  0  0  0  0  0  0  0  2 V2000
  153.5558  137.3206  161.2681 C   0  0  0  0  0  0  0  0  0  0  0  0
  154.1833  137.4619  162.6254 C   0  0  0  0  0  0  0  0  0  0  0  0
  153.8859  136.5934  163.5770 N   0  0  0  0  0  0  0  0  0  0  0  0
  154.6176  136.9896  164.7004 O   0  0  0  0  0  0  0  0  0  0  0  0
  155.3345  138.0958  164.3776 C   0  0  0  0  0  0  0  0  0  0  0  0
  156.1886  138.6771  165.4531 C   0  0  0  0  0  0  0  0  0  0  0  0
  155.1049  138.4499  163.0764 C   0  0  0  0  0  0  0  0  0  0  0  0
  155.6811  139.6031  162.3003 C   0  0  0  0  0  0  0  0  0  0  0  0
  154.6292  140.6897  162.0428 C   0  0  0  0  0  0  0  0  0  0  0  0
  153.7252  140.3001  160.9407 N   0  3  0  0  0  0  0  0  0  0  0  0
  152.8770  141.3881  160.4053 C   0  0  2  0  0  0  0  0  0  0  0  0
  152.1155  140.8892  159.1642 C   0  0  0  0  0  0  0  0  0  0  0  0
  151.2529  141.9971  158.5394 C   0  0  0  0  0  0  0  0  0  0  0  0
  152.0977  143.2378  158.1912 C   0  0  1  0  0  0  0  0  0  0  0  0
  151.2643  144.3187  157.4836 C   0  0  0  0  0  0  0  0  0  0  0  0
  152.8685  143.7666  159.4275 C   0  0  1  0  0  0  0  0  0  0  0  0
  151.9787  144.4573  160.4808 C   0  0  0  0  0  0  0  0  0  0  0  0
  153.7160  142.6369  160.0509 C   0  0  0  0  0  0  0  0  0  0  0  0
  152.9147  138.1735  161.0457 H   0  0  0  0  0  0  0  0  0  0  0  0
  152.9452  136.4197  161.1958 H   0  0  0  0  0  0  0  0  0  0  0  0
  154.3173  137.2651  160.4904 H   0  0  0  0  0  0  0  0  0  0  0  0
  156.1527  139.7661  165.4322 H   0  0  0  0  0  0  0  0  0  0  0  0
  157.2269  138.3700  165.3280 H   0  0  0  0  0  0  0  0  0  0  0  0
  155.8554  138.3500  166.4382 H   0  0  0  0  0  0  0  0  0  0  0  0
  156.5241  140.0387  162.8381 H   0  0  0  0  0  0  0  0  0  0  0  0
  156.0856  139.2597  161.3474 H   0  0  0  0  0  0  0  0  0  0  0  0
  154.0418  140.8605  162.9461 H   0  0  0  0  0  0  0  0  0  0  0  0
  155.1265  141.6283  161.7993 H   0  0  0  0  0  0  0  0  0  0  0  0
  154.2695  139.9103  160.1845 H   0  0  0  0  0  0  0  0  0  0  0  0
  152.1424  141.6464  161.1693 H   0  0  0  0  0  0  0  0  0  0  0  0
  152.8232  140.5230  158.4189 H   0  0  0  0  0  0  0  0  0  0  0  0
  151.4822  140.0416  159.4295 H   0  0  0  0  0  0  0  0  0  0  0  0
  150.7715  141.6137  157.6391 H   0  0  0  0  0  0  0  0  0  0  0  0
  150.4471  142.2681  159.2222 H   0  0  0  0  0  0  0  0  0  0  0  0
  152.8496  142.9155  157.4688 H   0  0  0  0  0  0  0  0  0  0  0  0
  150.4229  144.6463  158.0946 H   0  0  0  0  0  0  0  0  0  0  0  0
  150.8566  143.9424  156.5448 H   0  0  0  0  0  0  0  0  0  0  0  0
  151.8711  145.1941  157.2496 H   0  0  0  0  0  0  0  0  0  0  0  0
  153.5664  144.5269  159.0739 H   0  0  0  0  0  0  0  0  0  0  0  0
  151.2017  143.7962  160.8634 H   0  0  0  0  0  0  0  0  0  0  0  0
  151.4893  145.3414  160.0728 H   0  0  0  0  0  0  0  0  0  0  0  0
  152.5731  144.7911  161.3319 H   0  0  0  0  0  0  0  0  0  0  0  0
  154.2326  143.0199  160.9306 H   0  0  0  0  0  0  0  0  0  0  0  0
  154.4988  142.3526  159.3455 H   0  0  0  0  0  0  0  0  0  0  0  0
  153.1122  139.5804  161.2967 H   0  0  0  0  0  0  0  0  0  0  0  0
  1  2  1  0  0  0  0
  1 19  1  0  0  0  0
  1 20  1  0  0  0  0
  1 21  1  0  0  0  0
  2  7  1  0  0  0  0
  2  3  2  0  0  0  0
  3  4  1  0  0  0  0
  4  5  1  0  0  0  0
  5  6  1  0  0  0  0
  5  7  2  0  0  0  0
  6 22  1  0  0  0  0
  6 23  1  0  0  0  0
  6 24  1  0  0  0  0
  7  8  1  0  0  0  0
  8  9  1  0  0  0  0
  8 25  1  0  0  0  0
  8 26  1  0  0  0  0
  9 10  1  0  0  0  0
  9 27  1  0  0  0  0
  9 28  1  0  0  0  0
 10 11  1  0  0  0  0
 10 29  1  0  0  0  0
 10 45  1  0  0  0  0
 11 18  1  0  0  0  0
 11 12  1  0  0  0  0
 11 30  1  0  0  0  0
 12 13  1  0  0  0  0
 12 31  1  0  0  0  0
 12 32  1  0  0  0  0
 13 14  1  0  0  0  0
 13 33  1  0  0  0  0
 13 34  1  0  0  0  0
 14 15  1  0  0  0  0
 14 16  1  0  0  0  0
 14 35  1  0  0  0  0
 15 36  1  0  0  0  0
 15 37  1  0  0  0  0
 15 38  1  0  0  0  0
 16 17  1  0  0  0  0
 16 18  1  0  0  0  0
 16 39  1  0  0  0  0
 17 40  1  0  0  0  0
 17 41  1  0  0  0  0
 17 42  1  0  0  0  0
 18 43  1  0  0  0  0
 18 44  1  0  0  0  0
M  CHG  1  10   1
M  END
> <s_m_source_file>
AV-unprocessed.smi

> <i_m_source_file_index>
3285

> <i_lp_mmshare_version>
43012

> <i_f3d_flags>
0

> <s_epik_input>
W0NIM11jMW5vYyhbQ0gzXSljMVtDSDJdW0NIMl1bTkhdW0NAQEhdMltDSDJdW0NIMl1bQ0BASF0oW0NIM10pW0NAQEhdKFtDSDNdKVtDSDJdMg==

> <s_epik_cmdline>
J2VwaWtfcHl0aG9uJywgJy1waCcsICc3LjAnLCAnLXRuJywgJzgnLCAnLW1hJywgJzIwMCcsICctbWV0YWxfYmluZGluZycsICctaW1hZScsICc8aW5maWxlLm1hZT4nLCAnLW9tYWUnLCAnPG91dGZpbGUubWFlPic=

> <r_lp_tautomer_probability>
1

> <r_epik_Ionization_Penalty>
0.000204615

> <r_epik_Ionization_Penalty_Charging>
0.000204615

> <r_epik_Ionization_Penalty_Neutral>
9.28663e-11

> <r_epik_State_Penalty>
-0

> <r_epik_Charging_Adjusted_Penalty>
0.000204615

> <i_epik_Tot_Q>
1

> <i_epik_Tot_abs_Q>
1

> <r_epik_Metal_State_Penalty>
-0

> <b_epik_Metal_Only>
0

> <s_lp_Force_Field>
OPLS_2005

> <r_lp_Energy>
12.1865

> <b_lp_Chiralities_Consistent>
1

> <s_lp_Variant>
AV-unprocessed.smi:3285-1

> <Gold.Version>
5.8.1

> <Gold.Id.Protein>
6NUR|6NUR_protein|mol2

> <Gold.PLP.Fitness>
38.7982

> <Gold.PLP.PLP>
-39.3364

> <Gold.PLP.part.hbond>
0.0000

> <Gold.PLP.part.metal>
0.0000

> <Gold.PLP.part.buried>
-4.2956

> <Gold.PLP.part.nonpolar>
-34.6455

> <Gold.PLP.part.repulsive>
0.1661

> <Gold.PLP.ligand.clash>
0.0000

> <Gold.PLP.ligand.torsion>
0.2767

> <Gold.PLP.Chemscore.Hbond>
0.0000

> <Gold.PLP.Chemscore.CHOScore>
0.0000

> <Gold.PLP.Chemscore.Metal>
0.0000

> <Gold.PLP.Chemscore.Internal.Correction>
0.0152

> <Gold.Rescore>
     Score         DG    S(hbond)    S(metal)    S(lipo)     H(rot)  DE(clash)    DE(int)     intcor
     17.07     -17.72       0.00        0.00     134.06       1.35       0.24       0.40       ----

> <Gold.Chemscore.Fitness>
17.0716

> <Gold.Chemscore.DG>
-17.7181

> <Gold.Chemscore.ZeroCoef>
-5.4800

> <Gold.Chemscore.Hbond>
0.0000

> <Gold.Chemscore.Metal>
0.0000

> <Gold.Chemscore.Lipo>
134.0608

> <Gold.Chemscore.Internal_Hbond>
0.0000

> <Gold.Chemscore.DEClash>
0.2443

> <Gold.Chemscore.DEInternal>
0.4021

> <Gold.Chemscore.Rot>
1.3465

> <Gold.Chemscore.Internal.Correction>
   9.000000E+99

> <Gold.Chemscore.Hbond.Weighted>
-0.0000

> <Gold.Chemscore.Metal.Weighted>
-0.0000

> <Gold.Chemscore.Lipo.Weighted>
-15.6851

> <Gold.Chemscore.Internal_Hbond.Weighted>
0.0000

> <Gold.Chemscore.DEClash.Weighted>
0.2443

> <Gold.Chemscore.DEInternal.Weighted>
0.4021

> <Gold.Chemscore.Rot.Weighted>
3.4470

> <Gold.Chemscore.Internal.Correction.Weighted>
   9.000000E+99

> <Gold.Protein.RotatedTorsions>
[ 6907 6896 6895 6894 ] final -109.42 input  -60.11 | X-H torsion
[ 7974 7965 7964 7962 ] final  173.52 input  175.53 | X-H torsion
[ 8008 7997 7996 7995 ] final  -14.26 input   59.86 | X-H torsion
[ 10167 10162 10161 10158 ] final  162.51 input  -65.29 | X-H torsion
[ 10718 10713 10712 10709 ] final -113.25 input   66.30 | X-H torsion
[ 10763 10752 10751 10750 ] final -178.31 input  -60.55 | X-H torsion
[ 11005 11000 10999 10996 ] final  118.76 input  -57.11 | X-H torsion

> <Gold.Protein.ActiveResidues>
 VAL166  LYS551  ARG553  GLY616  TRP617  ASP618  TYR619  PRO620  LYS621  CYS622 
 ASP623  PHE694  ASN695  SER759  ASP760  ASP761  ALA762  ILE779  LEU786  VAL792 
 PHE793  MET794  SER795  GLU796  ALA797  LYS798  CYS799  TRP800  GLU811  SER814 

> <Gold.Protein.RotatedAtoms>
  150.7561  133.9532  159.3491 H   0  0  0  0  0  0  0  0  0  0  0  0  # atno 6907 bound_to 6896
  151.7451  135.0843  160.0331 H   0  0  0  0  0  0  0  0  0  0  0  0  # atno 6908 bound_to 6896
  152.3503  133.6134  159.5976 H   0  0  0  0  0  0  0  0  0  0  0  0  # atno 6909 bound_to 6896
  144.7242  139.9659  143.6436 H   0  0  0  0  0  0  0  0  0  0  0  0  # atno 7974 bound_to 7965
  154.5225  140.2228  155.8950 H   0  0  0  0  0  0  0  0  0  0  0  0  # atno 8008 bound_to 7997
  156.1677  140.3128  155.8883 H   0  0  0  0  0  0  0  0  0  0  0  0  # atno 8009 bound_to 7997
  155.3622  140.0462  157.3037 H   0  0  0  0  0  0  0  0  0  0  0  0  # atno 8010 bound_to 7997
  139.4861  144.4430  151.8928 H   0  0  0  0  0  0  0  0  0  0  0  0  # atno 10167 bound_to 10162
  156.0755  130.5963  150.8617 H   0  0  0  0  0  0  0  0  0  0  0  0  # atno 10718 bound_to 10713
  154.5493  135.2811  155.1023 H   0  0  0  0  0  0  0  0  0  0  0  0  # atno 10763 bound_to 10752
  154.2475  135.6345  153.5232 H   0  0  0  0  0  0  0  0  0  0  0  0  # atno 10764 bound_to 10752
  152.9999  135.5575  154.6055 H   0  0  0  0  0  0  0  0  0  0  0  0  # atno 10765 bound_to 10752
  139.9121  134.9623  156.7551 H   0  0  0  0  0  0  0  0  0  0  0  0  # atno 11005 bound_to 11000
  146.0601  139.3595  143.0587 LP  0  0  0  0  0  0  0  0  0  0  0  0  # atno 17320 bound_to 7965
  145.8104  140.9728  143.0952 LP  0  0  0  0  0  0  0  0  0  0  0  0  # atno 17321 bound_to 7965
  140.3883  144.2649  150.5902 LP  0  0  0  0  0  0  0  0  0  0  0  0  # atno 17342 bound_to 10162
  140.5170  143.2275  151.8448 LP  0  0  0  0  0  0  0  0  0  0  0  0  # atno 17343 bound_to 10162
  157.5848  131.0946  150.9214 LP  0  0  0  0  0  0  0  0  0  0  0  0  # atno 17370 bound_to 10713
  156.9402  130.5382  149.5280 LP  0  0  0  0  0  0  0  0  0  0  0  0  # atno 17371 bound_to 10713
  140.6742  133.9532  155.7873 LP  0  0  0  0  0  0  0  0  0  0  0  0  # atno 17394 bound_to 11000
  141.0556  134.0421  157.3727 LP  0  0  0  0  0  0  0  0  0  0  0  0  # atno 17395 bound_to 11000

$$$$
